data_PCOD9157335
_publ_section_title
;
Structure prediction by ZEFSAII (Michael W. Deem and Ramdas Pophale) SiO2 
 PCOD9157335
Probable space group: P 21/M
;
_chemical_formula_sum "Si O2"
_cell_formula_units_Z 28
_cell_length_a 9.375442
_cell_length_b 15.811740
_cell_length_c 11.286987
_cell_angle_alpha 90.000000
_cell_angle_beta 121.424324
_cell_angle_gamma 90.000000
_cell_volume 1427.796187
_symmetry_space_group_name_H-M "P 21/M"
_symmetry_group_IT_number 11
_symmetry_cell_setting 'monoclinic'
loop_
_space_group_symop_operation_xyz
x,y,z
-x,1/2+y,-z
-x,-y,-z
x,1/2-y,z
loop_
_atom_site_type_symbol
_atom_site_label
_atom_site_fract_x
_atom_site_fract_y
_atom_site_fract_z
Si Si1 0.827931 0.584600 0.713924
Si Si2 0.344808 0.545253 0.802100
Si Si3 0.177389 0.847463 0.934461
Si Si4 0.022578 0.453968 0.635785
Si Si5 0.645677 0.028220 0.823735
Si Si6 0.262282 0.845509 0.536182
Si Si7 0.521558 0.652206 0.432398
O O1 0.913952 0.507011 0.682138
O O2 0.730167 0.544618 0.782248
O O3 0.696817 0.629416 0.570124
O O4 0.982023 0.643367 0.818056
O O5 0.285121 0.613041 0.873130
O O6 0.533561 0.512952 0.878585
O O7 0.316823 0.590604 0.662564
O O8 0.214932 0.466625 0.753277
O O9 0.219955 0.750000 0.974430
O O10 0.219561 0.907998 0.062959
O O11 0.929514 0.365269 0.581778
O O12 0.000000 0.500000 0.500000
O O13 0.524808 0.085048 0.688631
O O14 0.280206 0.750000 0.586981
O O15 0.380514 0.856559 0.473486
O O16 0.521453 0.750000 0.391771
#
# Coordination Sequence:
#
# PCOD9157335 Si02
#       7
#     4   4   4   4   4   4   4
#     4  11  21  39  63  87 118 158 207 243 288 362
#     4  10  21  38  61  82 116 160 209 244 290 364
#     4  11  25  43  60  86 122 161 200 251 307 357
#     4   9  18  33  54  85 115 153 193 241 291 351
#     4  12  22  40  63  91 121 159 202 248 303 360
#     4  10  18  32  55  87 121 154 194 249 301 346
#     4  11  21  34  60  95 124 152 194 254 304 342
#
# _framework density 19.610641999999999
#
# number of rings (size 3 to 8) (size 9 to 14) (size 15 to 20)
#    0.000    1.429    2.857    4.286    0.000    0.000 
#    0.000    6.429    0.000    0.000    0.000    0.000 
#    0.000    0.000    0.000    0.000    0.000    0.000 
#
# Total GULP energy -156336.573786 kJ/mol
# GULP energy per Si atom -5583.449064 kJ/mol
# Density = 1.956601 g / cm^3
# Si number density = 19.610642 Si / 1000 Ang^3
#
#
#
# Elastic Constant Matrix: (Units=GPa)
#
#
# Indices 1 2 3 4 5 6 
#
# 1 85.7899 13.3888 2.2480 0.0000 3.3838 0.0000
# 2 13.3888 61.7780 6.8330 0.0000 2.8055 0.0000
# 3 2.2480 6.8330 35.8515 0.0000 6.8835 0.0000
# 4 0.0000 0.0000 0.0000 15.4529 0.0000 -1.2146
# 5 3.3838 2.8055 6.8835 0.0000 25.8877 0.0000
# 6 0.0000 0.0000 0.0000 -1.2146 0.0000 14.4298
#
#
#
# Elastic Compliance Matrix: (Units=1/GPa)
#
#
# Indices 1 2 3 4 5 6 
#
# 1 0.012108 -0.002563 -0.000021 0.000000 -0.001299 0.000000
# 2 -0.002563 0.017103 -0.002958 0.000000 -0.000732 0.000000
# 3 -0.000021 -0.002958 0.029924 0.000000 -0.007633 0.000000
# 4 0.000000 0.000000 0.000000 0.065144 0.000000 0.005483
# 5 -0.001299 -0.000732 -0.007633 0.000000 0.040907 0.000000
# 6 0.000000 0.000000 0.000000 0.005483 0.000000 0.069762
#
#
# Mechanical properties :
#
#
# Convention : Reuss Voigt Hill
#
# Bulk Modulus (GPa) = 20.81185 25.37322 23.09254
# Shear Modulus (GPa) = 19.08035 21.88406 20.48221
#
# Velocity S-wave (km/s) = 3.12261 3.34417 3.23529
# Velocity P-wave (km/s) = 4.86174 5.27995 5.07516
#
# Compressibility (1/GPa) = 0.04804955
#
# Stress axis : x y z
#
# Youngs Moduli (GPa) = 82.58905 58.46977 33.41843
#
# Poissons Ratio (x) = 0.14984 0.00071
# Poissons Ratio (y) = 0.21166 0.09887
# Poissons Ratio (z) = 0.00176 0.17298
#
# Static dielectric constant tensor:
#      x y z
#    x 1.681920 0.000000 0.047080 
#    y 0.000000 1.619200 0.000000 
#    z 0.047080 0.000000 1.600800 
# 
# From -- ./inp_files/26929.got.cif
#   From: 2010.05.17/outbox.cif.g08.bks.cpg/sg11_14_cif.got.tgz:26929.got - 2010.06.03 12:22:45.
