data_PCOD9157793
_publ_section_title
;
Structure prediction by ZEFSAII (Michael W. Deem and Ramdas Pophale) SiO2 
 PCOD9157793
Probable space group: P 21/M
;
_chemical_formula_sum "Si O2"
_cell_formula_units_Z 28
_cell_length_a 5.642199
_cell_length_b 26.642072
_cell_length_c 9.604288
_cell_angle_alpha 90.000000
_cell_angle_beta 70.432590
_cell_angle_gamma 90.000000
_cell_volume 1360.338048
_symmetry_space_group_name_H-M "P 21/M"
_symmetry_group_IT_number 11
_symmetry_cell_setting 'monoclinic'
loop_
_space_group_symop_operation_xyz
x,y,z
-x,1/2+y,-z
-x,-y,-z
x,1/2-y,z
loop_
_atom_site_type_symbol
_atom_site_label
_atom_site_fract_x
_atom_site_fract_y
_atom_site_fract_z
Si Si1 0.798293 0.615503 0.789599
Si Si2 0.434982 0.859826 0.108786
Si Si3 0.109934 0.310131 0.794222
Si Si4 0.719777 0.807636 0.551999
Si Si5 0.207000 0.932472 0.368421
Si Si6 0.293333 0.626411 0.621449
Si Si7 0.300057 0.040449 0.410956
O O1 0.782715 0.657508 0.670691
O O2 0.804281 0.560576 0.717560
O O3 0.083174 0.624230 0.781646
O O4 0.582547 0.624315 0.941247
O O5 0.658165 0.834445 0.161481
O O6 0.324517 0.908544 0.209324
O O7 0.180768 0.827738 0.125553
O O8 0.125292 0.250000 0.809560
O O9 0.161354 0.321879 0.620287
O O10 0.774039 0.750000 0.569410
O O11 0.425372 0.820128 0.590595
O O12 0.211192 0.888651 0.482498
O O13 0.917794 0.951260 0.430997
O O14 0.358850 0.982043 0.386845
O O15 0.483208 0.580713 0.611843
#
# Coordination Sequence:
#
# PCOD9157793 Si02
#       7
#     4   4   4   4   4   4   4
#     4  10  24  39  59  90 132 167 213 261 329 394
#     4  12  25  43  65  98 135 173 210 277 332 388
#     4  11  25  45  68  94 127 170 223 270 327 392
#     4  10  22  40  64  89 120 167 220 271 321 386
#     4  10  20  37  64  93 126 166 221 269 322 385
#     4  10  18  38  60  90 121 166 212 268 312 391
#     4   9  20  38  63  92 124 170 218 265 325 384
#
# _framework density 20.583117999999999
#
# number of rings (size 3 to 8) (size 9 to 14) (size 15 to 20)
#    0.000    1.714    1.429    3.429    4.000    2.286 
#    0.000    0.714    0.000    0.000    0.000    0.000 
#    0.000    0.000    0.000    0.000    0.000    0.000 
#
# Total GULP energy -155887.782623 kJ/mol
# GULP energy per Si atom -5567.420808 kJ/mol
# Density = 2.053627 g / cm^3
# Si number density = 20.583118 Si / 1000 Ang^3
#
#
#
# Elastic Constant Matrix: (Units=GPa)
#
#
# Indices 1 2 3 4 5 6 
#
# 1 83.3904 24.7952 36.9455 0.0000 -20.3178 0.0000
# 2 24.7952 79.0179 35.2488 0.0000 -1.1661 0.0000
# 3 36.9455 35.2488 124.8637 0.0000 -35.8532 0.0000
# 4 0.0000 0.0000 0.0000 16.9073 0.0000 3.2970
# 5 -20.3178 -1.1661 -35.8532 0.0000 34.8463 0.0000
# 6 0.0000 0.0000 0.0000 3.2970 0.0000 26.6752
#
#
#
# Elastic Compliance Matrix: (Units=1/GPa)
#
#
# Indices 1 2 3 4 5 6 
#
# 1 0.015687 -0.004269 -0.001208 0.000000 0.007761 0.000000
# 2 -0.004269 0.016359 -0.005553 0.000000 -0.007655 0.000000
# 3 -0.001208 -0.005553 0.013736 0.000000 0.013243 0.000000
# 4 0.000000 0.000000 0.000000 0.060607 0.000000 -0.007491
# 5 0.007761 -0.007655 0.013243 0.000000 0.046592 0.000000
# 6 0.000000 0.000000 0.000000 -0.007491 0.000000 0.038414
#
#
# Mechanical properties :
#
#
# Convention : Reuss Voigt Hill
#
# Bulk Modulus (GPa) = 42.15436 53.47234 47.81335
# Shear Modulus (GPa) = 22.58725 28.37127 25.47926
#
# Velocity S-wave (km/s) = 3.31625 3.71668 3.52216
# Velocity P-wave (km/s) = 5.93194 6.66734 6.31036
#
# Compressibility (1/GPa) = 0.02372234
#
# Stress axis : x y z
#
# Youngs Moduli (GPa) = 63.74581 61.12768 72.79912
#
# Poissons Ratio (x) = 0.26096 0.08794
# Poissons Ratio (y) = 0.27214 0.40426
# Poissons Ratio (z) = 0.07701 0.33945
#
# Static dielectric constant tensor:
#      x y z
#    x 2.037020 0.000000 0.023950 
#    y 0.000000 1.703980 0.000000 
#    z 0.023950 0.000000 1.731720 
# 
# From -- ./inp_files/10788.got.cif
#   From: 2010.05.17/outbox.cif.g08.bks.cpg/sg11_6_cif.got.tgz:10788.got - 2010.06.03 12:22:45.
