data_PCOD9157859
_publ_section_title
;
Structure prediction by ZEFSAII (Michael W. Deem and Ramdas Pophale) SiO2 
 PCOD9157859
Probable space group: P 21/M
;
_chemical_formula_sum "Si O2"
_cell_formula_units_Z 32
_cell_length_a 24.295494
_cell_length_b 8.867880
_cell_length_c 12.631888
_cell_angle_alpha 90.000000
_cell_angle_beta 138.271222
_cell_angle_gamma 90.000000
_cell_volume 1811.467597
_symmetry_space_group_name_H-M "P 21/M"
_symmetry_group_IT_number 11
_symmetry_cell_setting 'monoclinic'
loop_
_space_group_symop_operation_xyz
x,y,z
-x,1/2+y,-z
-x,-y,-z
x,1/2-y,z
loop_
_atom_site_type_symbol
_atom_site_label
_atom_site_fract_x
_atom_site_fract_y
_atom_site_fract_z
Si Si1 0.243172 0.927734 0.260976
Si Si2 0.208408 0.569068 0.975749
Si Si3 0.146008 0.431365 0.511971
Si Si4 0.071188 0.079428 0.038660
Si Si5 0.967998 0.920107 0.265054
Si Si6 0.410805 0.430734 0.893402
Si Si7 0.726047 0.569905 0.480083
Si Si8 0.284165 0.930475 0.863173
O O1 0.257890 0.750000 0.282823
O O2 0.149588 0.971734 0.155309
O O3 0.289795 0.001379 0.427010
O O4 0.247255 0.982429 0.144309
O O5 0.196886 0.750000 0.967334
O O6 0.117748 0.498616 0.823355
O O7 0.267641 0.536585 0.962401
O O8 0.145809 0.250000 0.515748
O O9 0.188704 0.475596 0.459785
O O10 0.208690 0.497507 0.688725
O O11 0.054203 0.492586 0.402784
O O12 0.090021 0.250000 0.103375
O O13 0.043531 0.089732 0.877770
O O14 0.000000 0.000000 0.000000
O O15 0.973794 0.750000 0.317337
O O16 0.415026 0.250000 0.907853
O O17 0.347942 0.468093 0.706880
O O18 0.367323 0.499660 0.934656
O O19 0.500000 0.500000 0.000000
O O20 0.729300 0.750000 0.495524
O O21 0.283993 0.750000 0.848141
#
# Coordination Sequence:
#
# PCOD9157859 Si02
#       8
#     4   4   4   4   4   4   4   4
#     4  10  19  31  49  72  99 133 172 211 251 300
#     4   9  20  36  51  71 101 139 179 217 258 300
#     4  10  20  33  49  71 102 137 175 222 270 311
#     4  10  19  29  42  62  90 127 172 219 263 304
#     4  10  20  31  45  67  95 133 181 224 261 305
#     4  10  21  38  61  88 113 134 160 199 250 306
#     4   9  19  34  52  77 107 136 166 206 257 305
#     4  10  20  36  57  78 103 135 171 211 256 308
#
# _framework density 17.665236
#
# number of rings (size 3 to 8) (size 9 to 14) (size 15 to 20)
#    0.000    2.250    0.000    3.750    0.000    8.500 
#    0.000    0.000    0.000    0.750    0.000    0.000 
#    0.000    0.000    0.000    0.000    0.000    0.000 
#
# Total GULP energy -178388.876733 kJ/mol
# GULP energy per Si atom -5574.652398 kJ/mol
# Density = 1.762503 g / cm^3
# Si number density = 17.665236 Si / 1000 Ang^3
#
#
#
# Elastic Constant Matrix: (Units=GPa)
#
#
# Indices 1 2 3 4 5 6 
#
# 1 135.5489 48.5394 59.0679 0.0000 -2.3137 0.0000
# 2 48.5394 46.8234 28.2644 0.0000 -2.0403 0.0000
# 3 59.0679 28.2644 55.6621 0.0000 -6.0988 0.0000
# 4 0.0000 0.0000 0.0000 28.3976 0.0000 1.2403
# 5 -2.3137 -2.0403 -6.0988 0.0000 24.4430 0.0000
# 6 0.0000 0.0000 0.0000 1.2403 0.0000 24.0528
#
#
#
# Elastic Compliance Matrix: (Units=1/GPa)
#
#
# Indices 1 2 3 4 5 6 
#
# 1 0.016196 -0.009171 -0.012796 0.000000 -0.002425 0.000000
# 2 -0.009171 0.036035 -0.008565 0.000000 0.000003 0.000000
# 3 -0.012796 -0.008565 0.036685 0.000000 0.007227 0.000000
# 4 0.000000 0.000000 0.000000 0.035294 0.000000 -0.001820
# 5 -0.002425 0.000003 0.007227 0.000000 0.042486 0.000000
# 6 0.000000 0.000000 0.000000 -0.001820 0.000000 0.041669
#
#
# Mechanical properties :
#
#
# Convention : Reuss Voigt Hill
#
# Bulk Modulus (GPa) = 35.90438 56.64200 46.27319
# Shear Modulus (GPa) = 17.93958 22.18952 20.06455
#
# Velocity S-wave (km/s) = 3.19020 3.54801 3.37385
# Velocity P-wave (km/s) = 5.82570 6.99416 6.43650
#
# Compressibility (1/GPa) = 0.02785175
#
# Stress axis : x y z
#
# Youngs Moduli (GPa) = 61.74243 27.75107 27.25874
#
# Poissons Ratio (x) = 0.25452 0.34880
# Poissons Ratio (y) = 0.56627 0.23347
# Poissons Ratio (z) = 0.79005 0.23769
#
# Static dielectric constant tensor:
#      x y z
#    x 1.594280 0.000000 -0.040220 
#    y 0.000000 1.635000 0.000000 
#    z -0.040220 0.000000 1.620070 
# 
# From -- ./inp_files/42927.got.cif
#   From: 2010.05.17/outbox.cif.g08.bks.cpg/sg11_22_cif.got.tgz:42927.got - 2010.06.03 12:22:45.
