data_PCOD9157912
_publ_section_title
;
Structure prediction by ZEFSAII (Michael W. Deem and Ramdas Pophale) SiO2 
 PCOD9157912
Probable space group: P 21/M
;
_chemical_formula_sum "Si O2"
_cell_formula_units_Z 32
_cell_length_a 15.605956
_cell_length_b 8.443827
_cell_length_c 31.965861
_cell_angle_alpha 90.000000
_cell_angle_beta 28.509200
_cell_angle_gamma 90.000000
_cell_volume 2010.515492
_symmetry_space_group_name_H-M "P 21/M"
_symmetry_group_IT_number 11
_symmetry_cell_setting 'monoclinic'
loop_
_space_group_symop_operation_xyz
x,y,z
-x,1/2+y,-z
-x,-y,-z
x,1/2-y,z
loop_
_atom_site_type_symbol
_atom_site_label
_atom_site_fract_x
_atom_site_fract_y
_atom_site_fract_z
Si Si1 0.764386 0.558778 0.563290
Si Si2 0.545639 0.556642 0.578725
Si Si3 0.223725 0.058791 0.105486
Si Si4 0.836647 0.560471 0.624592
Si Si5 0.857324 0.558490 0.380489
Si Si6 0.241175 0.561041 0.253209
Si Si7 0.830139 0.441551 0.297484
Si Si8 0.537462 0.560993 0.917224
O O1 0.764197 0.750000 0.562951
O O2 0.614631 0.504330 0.594678
O O3 0.748924 0.506993 0.618199
O O4 0.959726 0.504410 0.463504
O O5 0.543281 0.750000 0.579876
O O6 0.695459 0.508725 0.480410
O O7 0.348866 0.502663 0.649283
O O8 0.229143 0.250000 0.101692
O O9 0.323641 0.008446 0.105667
O O10 0.017567 0.006531 0.196233
O O11 0.342942 0.993574 0.016541
O O12 0.843720 0.750000 0.621495
O O13 0.741770 0.503108 0.707262
O O14 0.859042 0.750000 0.378734
O O15 0.829684 0.496164 0.345697
O O16 0.049143 0.504690 0.316683
O O17 0.234989 0.750000 0.257554
O O18 0.394871 0.507869 0.155401
O O19 0.829532 0.250000 0.297544
O O20 0.543444 0.750000 0.912681
#
# Coordination Sequence:
#
# PCOD9157912 Si02
#       8
#     4   4   4   4   4   4   4   4
#     4   9  17  32  48  66  93 124 157 192 233 278
#     4   9  17  31  48  66  91 127 162 190 227 271
#     4   9  18  31  45  67  93 120 153 191 233 275
#     4  10  19  29  47  70  93 121 156 196 233 274
#     4  10  19  30  44  64  94 129 161 188 222 270
#     4  11  20  31  48  68  95 128 155 188 233 280
#     4  10  19  31  48  67  92 124 160 197 225 264
#     4  10  19  31  48  68  92 120 154 194 232 277
#
# _framework density 15.916316
#
# number of rings (size 3 to 8) (size 9 to 14) (size 15 to 20)
#    0.000    2.250    2.500    1.500    0.000    2.000 
#    0.000    0.625    0.000    0.000    0.000    0.875 
#    0.000    0.000    0.000    0.000    0.000    0.000 
#
# Total GULP energy -178476.168879 kJ/mol
# GULP energy per Si atom -5577.380277 kJ/mol
# Density = 1.588009 g / cm^3
# Si number density = 15.916316 Si / 1000 Ang^3
#
#
#
# Elastic Constant Matrix: (Units=GPa)
#
#
# Indices 1 2 3 4 5 6 
#
# 1 116.3386 14.9676 77.0905 0.0000 9.8336 0.0000
# 2 14.9676 4.0643 11.0579 0.0000 0.7139 0.0000
# 3 77.0905 11.0579 116.5637 0.0000 10.1941 0.0000
# 4 0.0000 0.0000 0.0000 19.6747 0.0000 6.8364
# 5 9.8336 0.7139 10.1941 0.0000 25.2076 0.0000
# 6 0.0000 0.0000 0.0000 6.8364 0.0000 16.7886
#
#
#
# Elastic Compliance Matrix: (Units=1/GPa)
#
#
# Indices 1 2 3 4 5 6 
#
# 1 0.022051 -0.056260 -0.008950 0.000000 -0.003389 0.000000
# 2 -0.056260 0.475472 -0.008956 0.000000 0.012103 0.000000
# 3 -0.008950 -0.008956 0.015571 0.000000 -0.002552 0.000000
# 4 0.000000 0.000000 0.000000 0.059204 0.000000 -0.024108
# 5 -0.003389 0.012103 -0.002552 0.000000 0.041682 0.000000
# 6 0.000000 0.000000 0.000000 -0.024108 0.000000 0.069381
#
#
# Mechanical properties :
#
#
# Convention : Reuss Voigt Hill
#
# Bulk Modulus (GPa) = 2.74152 49.24427 25.99290
# Shear Modulus (GPa) = 5.24504 21.25754 13.25129
#
# Velocity S-wave (km/s) = 1.81729 3.65853 2.88854
# Velocity P-wave (km/s) = 2.47580 6.98950 5.24322
#
# Compressibility (1/GPa) = 0.36476131
#
# Stress axis : x y z
#
# Youngs Moduli (GPa) = 45.34967 2.10317 64.22212
#
# Poissons Ratio (x) = 0.11833 0.57479
# Poissons Ratio (y) = 2.55139 0.57518
# Poissons Ratio (z) = 0.40588 0.01884
#
# Static dielectric constant tensor:
#      x y z
#    x 1.535060 0.000000 -0.001540 
#    y 0.000000 1.540330 0.000000 
#    z -0.001540 0.000000 1.518520 
# 
# From -- ./inp_files/51213.got.cif
#   From: 2010.05.17/outbox.cif.g08.bks.cpg/sg11_26_cif.got.tgz:51213.got - 2010.06.03 12:22:45.
