data_PCOD9157083
_publ_section_title
;
Structure prediction by ZEFSAII (Michael W. Deem and Ramdas Pophale) SiO2 
 PCOD9157083
Probable space group: P 21/M
;
_chemical_formula_sum "Si O2"
_cell_formula_units_Z 32
_cell_length_a 22.012649
_cell_length_b 8.633926
_cell_length_c 12.393274
_cell_angle_alpha 90.000000
_cell_angle_beta 51.859358
_cell_angle_gamma 90.000000
_cell_volume 1852.523939
_symmetry_space_group_name_H-M "P 21/M"
_symmetry_group_IT_number 11
_symmetry_cell_setting 'monoclinic'
loop_
_space_group_symop_operation_xyz
x,y,z
-x,1/2+y,-z
-x,-y,-z
x,1/2-y,z
loop_
_atom_site_type_symbol
_atom_site_label
_atom_site_fract_x
_atom_site_fract_y
_atom_site_fract_z
Si Si1 0.932133 0.065231 0.720726
Si Si2 0.094550 0.563433 0.500439
Si Si3 0.632895 0.564167 0.539961
Si Si4 0.669065 0.437535 0.919790
Si Si5 0.217558 0.434106 0.021852
Si Si6 0.539316 0.062114 0.220772
Si Si7 0.660840 0.435854 0.271377
Si Si8 0.733942 0.062835 0.619641
O O1 0.926701 0.250000 0.735007
O O2 0.909395 0.020543 0.622217
O O3 0.020033 0.010527 0.638284
O O4 0.870212 0.988451 0.867377
O O5 0.088284 0.750000 0.512625
O O6 0.176981 0.517483 0.458512
O O7 0.632072 0.750000 0.537613
O O8 0.548204 0.507943 0.672359
O O9 0.648469 0.501211 0.403546
O O10 0.696333 0.507206 0.554915
O O11 0.673703 0.250000 0.919048
O O12 0.685918 0.485129 0.779143
O O13 0.734952 0.501323 0.927077
O O14 0.587543 0.486199 0.061960
O O15 0.222408 0.250000 0.014615
O O16 0.261365 0.503311 0.870397
O O17 0.537782 0.250000 0.221535
O O18 0.590789 0.015932 0.267981
O O19 0.662368 0.250000 0.272258
O O20 0.731453 0.250000 0.616158
#
# Coordination Sequence:
#
# PCOD9157083 Si02
#       8
#     4   4   4   4   4   4   4   4
#     4  10  18  31  52  79 108 140 173 210 258 311
#     4   9  18  32  50  76 107 140 176 216 253 300
#     4  11  22  35  51  77 107 137 178 224 267 310
#     4   9  17  34  54  74 103 142 180 214 260 314
#     4  11  20  31  52  82 111 135 167 218 269 311
#     4   8  17  33  55  78 103 133 171 224 272 311
#     4  10  20  37  58  76  99 137 180 220 267 316
#     4  10  20  35  53  73 106 148 182 211 254 315
#
# _framework density 17.273731999999999
#
# number of rings (size 3 to 8) (size 9 to 14) (size 15 to 20)
#    0.000    2.250    1.250    3.375    0.000    2.000 
#    0.000    5.625    0.000    0.750    0.000    0.000 
#    0.000    0.000    0.000    0.000    0.000    0.000 
#
# Total GULP energy -178558.556973 kJ/mol
# GULP energy per Si atom -5579.954905 kJ/mol
# Density = 1.723442 g / cm^3
# Si number density = 17.273732 Si / 1000 Ang^3
#
#
#
# Elastic Constant Matrix: (Units=GPa)
#
#
# Indices 1 2 3 4 5 6 
#
# 1 83.7979 17.5102 39.2272 0.0000 -19.8737 0.0000
# 2 17.5102 28.0547 9.2201 0.0000 -9.4609 0.0000
# 3 39.2272 9.2201 45.2954 0.0000 -34.7093 0.0000
# 4 0.0000 0.0000 0.0000 22.1907 0.0000 -2.5889
# 5 -19.8737 -9.4609 -34.7093 0.0000 20.2309 0.0000
# 6 0.0000 0.0000 0.0000 -2.5889 0.0000 16.4175
#
#
#
# Elastic Compliance Matrix: (Units=1/GPa)
#
#
# Indices 1 2 3 4 5 6 
#
# 1 0.015402 -0.003238 0.007137 0.000000 0.025861 0.000000
# 2 -0.003238 0.037609 -0.019666 0.000000 -0.019333 0.000000
# 3 0.007137 -0.019666 -0.057914 0.000000 -0.101547 0.000000
# 4 0.000000 0.000000 0.000000 0.045909 0.000000 0.007239
# 5 0.025861 -0.019333 -0.101547 0.000000 -0.108426 0.000000
# 6 0.000000 0.000000 0.000000 0.007239 0.000000 0.062052
#
#
# Mechanical properties :
#
#
# Convention : Reuss Voigt Hill
#
# Bulk Modulus (GPa) = -27.44518 32.11813 2.33648
# Shear Modulus (GPa) = 356.65441 17.84719 187.25080
#
# Velocity S-wave (km/s) = 14.38473 3.21783 10.42293
# Velocity P-wave (km/s) = 16.12361 5.69560 12.09154
#
# Compressibility (1/GPa) = -0.03643627
#
# Stress axis : x y z
#
# Youngs Moduli (GPa) = 64.92554 26.58943 -17.26689
#
# Poissons Ratio (x) = 0.08609 0.12323
# Poissons Ratio (y) = 0.21021 -0.33957
# Poissons Ratio (z) = -0.46338 0.52290
#
# Static dielectric constant tensor:
#      x y z
#    x 1.560060 0.000000 -0.019970 
#    y 0.000000 1.581180 0.000000 
#    z -0.019970 0.000000 1.590240 
# 
# From -- ./inp_files/40614.got.cif
#   From: 2010.05.17/outbox.cif.g08.bks.cpg/sg11_21_cif.got.tgz:40614.got - 2010.06.03 12:22:45.
