data_PCOD9157815
_publ_section_title
;
Structure prediction by ZEFSAII (Michael W. Deem and Ramdas Pophale) SiO2 
 PCOD9157815
Probable space group: P 21/M
;
_chemical_formula_sum "Si O2"
_cell_formula_units_Z 32
_cell_length_a 20.261967
_cell_length_b 13.680271
_cell_length_c 22.060994
_cell_angle_alpha 90.000000
_cell_angle_beta 31.817523
_cell_angle_gamma 90.000000
_cell_volume 3223.960506
_symmetry_space_group_name_H-M "P 21/M"
_symmetry_group_IT_number 11
_symmetry_cell_setting 'monoclinic'
loop_
_space_group_symop_operation_xyz
x,y,z
-x,1/2+y,-z
-x,-y,-z
x,1/2-y,z
loop_
_atom_site_type_symbol
_atom_site_label
_atom_site_fract_x
_atom_site_fract_y
_atom_site_fract_z
Si Si1 0.767540 0.138211 0.099435
Si Si2 0.389540 0.000902 0.717456
Si Si3 0.974183 0.638211 0.158843
Si Si4 0.594218 0.362468 0.527087
Si Si5 0.531630 0.865361 0.509089
Si Si6 0.152735 0.136956 0.875817
Si Si7 0.108373 0.863044 0.863074
Si Si8 0.776675 0.499093 0.330322
O O1 0.729756 0.250000 0.117853
O O2 0.655392 0.062630 0.190644
O O3 0.825494 0.135084 0.122726
O O4 0.881879 0.113038 0.966042
O O5 0.442959 0.924386 0.625252
O O6 0.499791 0.077541 0.642514
O O7 0.270140 0.066178 0.790716
O O8 0.966483 0.750000 0.185909
O O9 0.905927 0.635085 0.145854
O O10 0.894565 0.562628 0.259400
O O11 0.608893 0.250000 0.531313
O O12 0.530775 0.367835 0.508851
O O13 0.721274 0.422449 0.421029
O O14 0.546419 0.750000 0.513336
O O15 0.663004 0.924393 0.405209
O O16 0.188991 0.250000 0.859000
O O17 0.036831 0.110234 0.010583
O O18 0.114431 0.750000 0.837577
O O19 0.175598 0.933822 0.763547
#
# Coordination Sequence:
#
# PCOD9157815 Si02
#       8
#     4   4   4   4   4   4   4   4
#     4   9  16  23  30  39  46  49  54  63  71  78
#     4  11  17  23  32  36  41  52  59  62  70  79
#     4   9  16  23  30  39  46  49  54  63  71  78
#     4  10  19  25  28  35  43  50  59  67  70  73
#     4  10  19  25  28  35  43  50  59  67  70  73
#     4   9  16  23  30  39  46  49  54  63  71  78
#     4   9  16  23  30  39  46  49  54  63  71  78
#     4  11  17  23  32  36  41  52  59  62  70  79
#
# _framework density 9.9256799999999998
#
# number of rings (size 3 to 8) (size 9 to 14) (size 15 to 20)
#    0.000    2.250    0.000    9.000    0.000    6.000 
#    0.000    0.000    0.000    0.000    0.000    0.000 
#    0.000    0.000    0.000    0.000    0.000    0.000 
#
# Total GULP energy -178375.985506 kJ/mol
# GULP energy per Si atom -5574.249547 kJ/mol
# Density = 0.990309 g / cm^3
# Si number density = 9.925680 Si / 1000 Ang^3
#
#
#
# Elastic Constant Matrix: (Units=GPa)
#
#
# Indices 1 2 3 4 5 6 
#
# 1 0.0237 0.8648 1.3179 0.0000 -0.1778 0.0000
# 2 0.8648 85.7998 47.5758 0.0000 -6.4148 0.0000
# 3 1.3179 47.5758 72.5146 0.0000 -9.7771 0.0000
# 4 0.0000 0.0000 0.0000 20.8232 0.0000 -2.8075
# 5 -0.1778 -6.4148 -9.7771 0.0000 1.3182 0.0000
# 6 0.0000 0.0000 0.0000 -2.8075 0.0000 0.3786
#
#
#
# Elastic Compliance Matrix: (Units=1/GPa)
#
#
# Indices 1 2 3 4 5 6 
#
# 1 ********** 0.195645********** -0.000019********** -0.000141
# 2 0.195645 0.018317 -0.086746 0.000000 -0.527876 0.000000
# 3 ********** -0.086746********** 0.000007********** 0.000052
# 4 -0.000014 0.000000 0.000005369.238906 0.000034**********
# 5 ********** -0.527876********** 0.000049********** 0.000364
# 6 -0.000104 0.000000 0.000036********** 0.000253**********
#
#
# Mechanical properties :
#
#
# Convention : Reuss Voigt Hill
#
# Bulk Modulus (GPa) = -0.00010 28.65057 14.32523
# Shear Modulus (GPa) = -0.00004 11.74264 5.87130
#
# Velocity S-wave (km/s) = -0.00638 3.44329 2.43477
# Velocity P-wave (km/s) = 0.01260 6.68850 4.72948
#
# Compressibility (1/GPa) = *************
#
# Stress axis : x y z
#
# Youngs Moduli (GPa) = -0.00005 54.59370 -0.00046
#
# Poissons Ratio (x) = -10.68099 2.56067
# Poissons Ratio (y) = 0.00001 -0.00004
# Poissons Ratio (z) = 0.29956 4.73581
#
# Static dielectric constant tensor:
#      x y z
#    x 1.243090 0.000000 -0.018560 
#    y 0.000000 1.377370 0.000000 
#    z -0.018560 0.000000 1.378280 
# 
# From -- ./inp_files/53677.got.cif
#   From: 2010.05.17/outbox.cif.g08.bks.cpg/sg11_27_cif.got.tgz:53677.got - 2010.06.03 12:22:45.
