data_PCOD9157341
_publ_section_title
;
Structure prediction by ZEFSAII (Michael W. Deem and Ramdas Pophale) SiO2 
 PCOD9157341
Probable space group: P 21/M
;
_chemical_formula_sum "Si O2"
_cell_formula_units_Z 32
_cell_length_a 11.752538
_cell_length_b 14.765679
_cell_length_c 17.484757
_cell_angle_alpha 90.000000
_cell_angle_beta 146.351821
_cell_angle_gamma 90.000000
_cell_volume 1681.227037
_symmetry_space_group_name_H-M "P 21/M"
_symmetry_group_IT_number 11
_symmetry_cell_setting 'monoclinic'
loop_
_space_group_symop_operation_xyz
x,y,z
-x,1/2+y,-z
-x,-y,-z
x,1/2-y,z
loop_
_atom_site_type_symbol
_atom_site_label
_atom_site_fract_x
_atom_site_fract_y
_atom_site_fract_z
Si Si1 0.922090 0.155170 0.219302
Si Si2 0.422461 0.856249 0.728191
Si Si3 0.545628 0.604442 0.041689
Si Si4 0.135192 0.079171 0.474341
Si Si5 0.162585 0.510745 0.279492
Si Si6 0.780159 0.959332 0.313727
Si Si7 0.430751 0.549137 0.572280
Si Si8 0.824837 0.648843 0.052167
O O1 0.982098 0.250000 0.215392
O O2 0.018840 0.150690 0.358061
O O3 0.676556 0.149890 0.085999
O O4 0.018751 0.068221 0.233204
O O5 0.355950 0.750000 0.704132
O O6 0.413189 0.881253 0.632987
O O7 0.311484 0.941930 0.709878
O O8 0.653272 0.862220 0.890614
O O9 0.644011 0.599446 0.180679
O O10 0.700474 0.637993 0.063017
O O11 0.500000 0.500000 0.000000
O O12 0.166061 0.096419 0.580530
O O13 0.349967 0.047691 0.559388
O O14 0.988749 0.989788 0.388952
O O15 0.284786 0.562469 0.416478
O O16 0.338027 0.464242 0.326844
O O17 0.008352 0.578046 0.151269
O O18 0.907906 0.750000 0.094915
#
# Coordination Sequence:
#
# PCOD9157341 Si02
#       8
#     4   4   4   4   4   4   4   4
#     4  11  21  34  55  80 108 144 182 223 279 336
#     4  10  20  34  54  85 114 142 184 228 276 335
#     4  12  18  34  56  83 113 146 178 226 278 333
#     4   9  18  34  52  77 103 138 181 221 268 329
#     4  10  20  39  57  80 109 143 190 232 278 322
#     4  10  18  32  56  79 109 147 178 221 278 330
#     4   9  20  36  58  76 104 145 185 230 275 321
#     4  11  22  36  56  83 114 147 185 231 280 334
#
# _framework density 19.033716999999999
#
# number of rings (size 3 to 8) (size 9 to 14) (size 15 to 20)
#    0.000    1.750    3.750    1.125    0.000    3.000 
#    0.000    6.250    0.000    0.750    0.000    0.000 
#    0.000    0.000    0.000    0.000    0.000    0.000 
#
# Total GULP energy -178324.369561 kJ/mol
# GULP energy per Si atom -5572.636549 kJ/mol
# Density = 1.899040 g / cm^3
# Si number density = 19.033717 Si / 1000 Ang^3
#
#
#
# Elastic Constant Matrix: (Units=GPa)
#
#
# Indices 1 2 3 4 5 6 
#
# 1 34.7235 -10.5142 7.1144 0.0000 0.8721 0.0000
# 2 -10.5142 61.8586 25.5741 0.0000 -9.4706 0.0000
# 3 7.1144 25.5741 86.3551 0.0000 -6.2178 0.0000
# 4 0.0000 0.0000 0.0000 -0.7992 0.0000 -2.9622
# 5 0.8721 -9.4706 -6.2178 0.0000 28.2060 0.0000
# 6 0.0000 0.0000 0.0000 -2.9622 0.0000 8.7729
#
#
#
# Elastic Compliance Matrix: (Units=1/GPa)
#
#
# Indices 1 2 3 4 5 6 
#
# 1 0.032054 0.007518 -0.004834 0.000000 0.000468 0.000000
# 2 0.007518 0.020925 -0.006429 0.000000 0.005376 0.000000
# 3 -0.004834 -0.006429 0.013959 0.000000 0.001068 0.000000
# 4 0.000000 0.000000 0.000000 -0.555726 0.000000 -0.187647
# 5 0.000468 0.005376 0.001068 0.000000 0.037479 0.000000
# 6 0.000000 0.000000 0.000000 -0.187647 0.000000 0.050627
#
#
# Mechanical properties :
#
#
# Convention : Reuss Voigt Hill
#
# Bulk Modulus (GPa) = 16.82114 25.25398 21.03756
# Shear Modulus (GPa) = -13.39132 17.95347 2.28107
#
# Velocity S-wave (km/s) = -2.65534 3.07456 1.09592
# Velocity P-wave (km/s) = 0.73783 5.08928 3.56064
#
# Compressibility (1/GPa) = 0.05944899
#
# Stress axis : x y z
#
# Youngs Moduli (GPa) = 31.19728 47.78994 71.63725
#
# Poissons Ratio (x) = -0.35930 0.34627
# Poissons Ratio (y) = -0.23455 0.46057
# Poissons Ratio (z) = 0.15080 0.30725
#
# Static dielectric constant tensor:
#      x y z
#    x 1.702330 0.000000 -0.026690 
#    y 0.000000 1.666170 0.000000 
#    z -0.026690 0.000000 1.704850 
# 
# From -- ./inp_files/59488.got.cif
#   From: 2010.05.17/outbox.cif.g08.bks.cpg/sg11_30_cif.got.tgz:59488.got - 2010.06.03 12:22:45.
