data_PCOD9157507
_publ_section_title
;
Structure prediction by ZEFSAII (Michael W. Deem and Ramdas Pophale) SiO2 
 PCOD9157507
Probable space group: P 21/M
;
_chemical_formula_sum "Si O2"
_cell_formula_units_Z 32
_cell_length_a 9.640732
_cell_length_b 19.680063
_cell_length_c 9.624844
_cell_angle_alpha 90.000000
_cell_angle_beta 116.775823
_cell_angle_gamma 90.000000
_cell_volume 1630.319406
_symmetry_space_group_name_H-M "P 21/M"
_symmetry_group_IT_number 11
_symmetry_cell_setting 'monoclinic'
loop_
_space_group_symop_operation_xyz
x,y,z
-x,1/2+y,-z
-x,-y,-z
x,1/2-y,z
loop_
_atom_site_type_symbol
_atom_site_label
_atom_site_fract_x
_atom_site_fract_y
_atom_site_fract_z
Si Si1 0.949694 0.595086 0.886380
Si Si2 0.394673 0.669888 0.753126
Si Si3 0.400465 0.331019 0.760249
Si Si4 0.268123 0.829031 0.009521
Si Si5 0.301787 0.104131 0.992368
Si Si6 0.102487 0.895666 0.527945
Si Si7 0.836297 0.828976 0.567657
Si Si8 0.087797 0.488808 0.759653
O O1 0.861128 0.632386 0.720773
O O2 0.988776 0.521157 0.840798
O O3 0.116540 0.629857 0.977475
O O4 0.845628 0.606910 0.973467
O O5 0.432719 0.750000 0.742056
O O6 0.304527 0.669071 0.861027
O O7 0.272882 0.637074 0.590065
O O8 0.546066 0.622776 0.848353
O O9 0.409658 0.250000 0.749107
O O10 0.316774 0.345026 0.868925
O O11 0.302616 0.358569 0.588063
O O12 0.575640 0.357105 0.849709
O O13 0.246275 0.750000 0.036602
O O14 0.257673 0.034112 0.891784
O O15 0.013658 0.928830 0.356917
O O16 0.989031 0.839208 0.542452
O O17 0.110076 0.954849 0.649272
O O18 0.811361 0.750000 0.584278
#
# Coordination Sequence:
#
# PCOD9157507 Si02
#       8
#     4   4   4   4   4   4   4   4
#     4  11  22  36  56  84 116 155 189 233 283 344
#     4  10  20  37  59  87 115 143 188 242 289 337
#     4   9  19  35  56  83 112 143 188 242 287 336
#     4   9  17  33  55  80 111 144 187 237 283 336
#     4  11  22  37  56  84 120 149 186 236 289 334
#     4  10  19  36  59  85 110 147 196 240 271 336
#     4  10  18  33  59  82 106 148 193 234 285 339
#     4  10  21  37  56  81 116 154 195 231 277 336
#
# _framework density 19.628053999999999
#
# number of rings (size 3 to 8) (size 9 to 14) (size 15 to 20)
#    0.000    2.000    3.750    2.250    0.000    2.500 
#    0.000    1.875    0.000    1.500    0.000    0.000 
#    0.000    0.000    0.000    0.000    0.000    0.000 
#
# Total GULP energy -178302.440693 kJ/mol
# GULP energy per Si atom -5571.951272 kJ/mol
# Density = 1.958338 g / cm^3
# Si number density = 19.628054 Si / 1000 Ang^3
#
#
#
# Elastic Constant Matrix: (Units=GPa)
#
#
# Indices 1 2 3 4 5 6 
#
# 1 73.0069 7.6281 27.9803 0.0000 7.7463 0.0000
# 2 7.6281 32.6860 26.3434 0.0000 5.8182 0.0000
# 3 27.9803 26.3434 114.0652 0.0000 21.4929 0.0000
# 4 0.0000 0.0000 0.0000 14.1015 0.0000 13.1790
# 5 7.7463 5.8182 21.4929 0.0000 21.9877 0.0000
# 6 0.0000 0.0000 0.0000 13.1790 0.0000 10.6930
#
#
#
# Elastic Compliance Matrix: (Units=1/GPa)
#
#
# Indices 1 2 3 4 5 6 
#
# 1 0.015207 -0.000600 -0.003202 0.000000 -0.002069 0.000000
# 2 -0.000600 0.037673 -0.008231 0.000000 -0.001712 0.000000
# 3 -0.003202 -0.008231 0.013275 0.000000 -0.009671 0.000000
# 4 0.000000 0.000000 0.000000 -0.466970 0.000000 0.575534
# 5 -0.002069 -0.001712 -0.009671 0.000000 0.056115 0.000000
# 6 0.000000 0.000000 0.000000 0.575534 0.000000 -0.615818
#
#
# Mechanical properties :
#
#
# Convention : Reuss Voigt Hill
#
# Bulk Modulus (GPa) = 23.75902 38.18463 30.97183
# Shear Modulus (GPa) = -5.42050 19.87686 7.22818
#
# Velocity S-wave (km/s) = -1.66361 3.18571 1.92109
# Velocity P-wave (km/s) = 2.90530 5.74700 4.55350
#
# Compressibility (1/GPa) = 0.04208927
#
# Stress axis : x y z
#
# Youngs Moduli (GPa) = 65.76073 26.54454 75.32715
#
# Poissons Ratio (x) = 0.01593 0.24118
# Poissons Ratio (y) = 0.03947 0.62000
# Poissons Ratio (z) = 0.21055 0.21848
#
# Static dielectric constant tensor:
#      x y z
#    x 1.669130 0.000000 0.011810 
#    y 0.000000 1.724690 0.000000 
#    z 0.011810 0.000000 1.751330 
# 
# From -- ./inp_files/32834.got.cif
#   From: 2010.05.17/outbox.cif.g08.bks.cpg/sg11_17_cif.got.tgz:32834.got - 2010.06.03 12:22:45.
