data_PCOD9157396
_publ_section_title
;
Structure prediction by ZEFSAII (Michael W. Deem and Ramdas Pophale) SiO2 
 PCOD9157396
Probable space group: P 21/M
;
_chemical_formula_sum "Si O2"
_cell_formula_units_Z 32
_cell_length_a 19.373092
_cell_length_b 23.207652
_cell_length_c 6.393207
_cell_angle_alpha 90.000000
_cell_angle_beta 47.649158
_cell_angle_gamma 90.000000
_cell_volume 2124.286525
_symmetry_space_group_name_H-M "P 21/M"
_symmetry_group_IT_number 11
_symmetry_cell_setting 'monoclinic'
loop_
_space_group_symop_operation_xyz
x,y,z
-x,1/2+y,-z
-x,-y,-z
x,1/2-y,z
loop_
_atom_site_type_symbol
_atom_site_label
_atom_site_fract_x
_atom_site_fract_y
_atom_site_fract_z
Si Si1 0.930693 0.014150 0.834848
Si Si2 0.303353 0.184856 0.379017
Si Si3 0.889281 0.684071 0.963414
Si Si4 0.568062 0.483499 0.172120
Si Si5 0.953982 0.589307 0.116290
Si Si6 0.275942 0.487550 0.864611
Si Si7 0.410855 0.068819 0.251334
Si Si8 0.801995 0.624007 0.753809
O O1 0.940120 0.961187 0.976908
O O2 0.823344 0.015375 0.985616
O O3 0.000000 0.000000 0.500000
O O4 0.964206 0.070325 0.893878
O O5 0.341133 0.250000 0.309237
O O6 0.371193 0.132993 0.307613
O O7 0.264794 0.169338 0.226183
O O8 0.212099 0.183050 0.715116
O O9 0.918387 0.750000 0.880528
O O10 0.870884 0.654009 0.778756
O O11 0.957518 0.647514 0.973528
O O12 0.500000 0.500000 0.500000
O O13 0.666070 0.474306 0.088241
O O14 0.511758 0.435185 0.158210
O O15 0.579738 0.536949 0.989770
O O16 0.862794 0.594469 0.448018
O O17 0.338607 0.470198 0.535732
O O18 0.254098 0.425871 0.015395
#
# Coordination Sequence:
#
# PCOD9157396 Si02
#       8
#     4   4   4   4   4   4   4   4
#     4  11  20  31  46  70 100 129 163 198 246 287
#     4  10  19  28  45  70  95 128 161 192 234 288
#     4  10  19  31  45  66  96 131 165 193 235 286
#     4   9  20  31  48  67  90 129 162 196 240 281
#     4  10  20  30  44  67  96 130 163 198 231 282
#     4  11  18  29  49  68  95 133 155 192 239 281
#     4  10  18  33  47  68  98 127 162 197 231 287
#     4  11  17  30  44  67  98 130 160 188 234 282
#
# _framework density 15.063881
#
# number of rings (size 3 to 8) (size 9 to 14) (size 15 to 20)
#    0.000    1.750    5.000    1.125    0.000    0.500 
#    0.000    0.000    0.000    0.000    0.000    0.875 
#    0.000   14.000    0.000    0.375    0.000    0.000 
#
# Total GULP energy -178237.858072 kJ/mol
# GULP energy per Si atom -5569.933065 kJ/mol
# Density = 1.502959 g / cm^3
# Si number density = 15.063881 Si / 1000 Ang^3
#
#
#
# Elastic Constant Matrix: (Units=GPa)
#
#
# Indices 1 2 3 4 5 6 
#
# 1 131.0980 46.8463 28.6122 0.0000 -4.1358 0.0000
# 2 46.8463 78.3933 24.5831 0.0000 -0.5911 0.0000
# 3 28.6122 24.5831 68.4285 0.0000 12.9320 0.0000
# 4 0.0000 0.0000 0.0000 15.7625 0.0000 -2.0342
# 5 -4.1358 -0.5911 12.9320 0.0000 24.3018 0.0000
# 6 0.0000 0.0000 0.0000 -2.0342 0.0000 27.6533
#
#
#
# Elastic Compliance Matrix: (Units=1/GPa)
#
#
# Indices 1 2 3 4 5 6 
#
# 1 0.010229 -0.005133 -0.003044 0.000000 0.003236 0.000000
# 2 -0.005133 0.017216 -0.004394 0.000000 0.001884 0.000000
# 3 -0.003044 -0.004394 0.019550 0.000000 -0.011028 0.000000
# 4 0.000000 0.000000 0.000000 0.064050 0.000000 0.004711
# 5 0.003236 0.001884 -0.011028 0.000000 0.047614 0.000000
# 6 0.000000 0.000000 0.000000 0.004711 0.000000 0.036509
#
#
# Mechanical properties :
#
#
# Convention : Reuss Voigt Hill
#
# Bulk Modulus (GPa) = 45.76649 53.11145 49.43897
# Shear Modulus (GPa) = 21.96887 25.40207 23.68547
#
# Velocity S-wave (km/s) = 3.82302 4.11090 3.96957
# Velocity P-wave (km/s) = 7.06646 7.60702 7.34171
#
# Compressibility (1/GPa) = 0.02185005
#
# Stress axis : x y z
#
# Youngs Moduli (GPa) = 97.76341 58.08521 51.15195
#
# Poissons Ratio (x) = 0.29818 0.15572
# Poissons Ratio (y) = 0.50186 0.22478
# Poissons Ratio (z) = 0.29762 0.25525
#
# Static dielectric constant tensor:
#      x y z
#    x 1.542930 0.000000 0.015190 
#    y 0.000000 1.489500 0.000000 
#    z 0.015190 0.000000 1.505670 
# 
# From -- ./inp_files/8377.got.cif
#   From: 2010.05.17/outbox.cif.g08.bks.cpg/sg11_5_cif.got.tgz:8377.got - 2010.06.03 12:22:45.
