data_PCOD9157913
_publ_section_title
;
Structure prediction by ZEFSAII (Michael W. Deem and Ramdas Pophale) SiO2 
 PCOD9157913
Probable space group: P 21/M
;
_chemical_formula_sum "Si O2"
_cell_formula_units_Z 28
_cell_length_a 16.552215
_cell_length_b 7.619854
_cell_length_c 11.216297
_cell_angle_alpha 90.000000
_cell_angle_beta 121.357952
_cell_angle_gamma 90.000000
_cell_volume 1208.025294
_symmetry_space_group_name_H-M "P 21/M"
_symmetry_group_IT_number 11
_symmetry_cell_setting 'monoclinic'
loop_
_space_group_symop_operation_xyz
x,y,z
-x,1/2+y,-z
-x,-y,-z
x,1/2-y,z
loop_
_atom_site_type_symbol
_atom_site_label
_atom_site_fract_x
_atom_site_fract_y
_atom_site_fract_z
Si Si1 0.736653 0.958082 0.196807
Si Si2 0.610214 0.039222 0.592798
Si Si3 0.098086 0.541421 0.823594
Si Si4 0.766466 0.048241 0.868019
Si Si5 0.558581 0.539991 0.924561
Si Si6 0.929665 0.541217 0.835220
Si Si7 0.620958 0.039158 0.344007
O O1 0.735296 0.750000 0.185893
O O2 0.843521 0.015790 0.252171
O O3 0.692474 0.001436 0.291208
O O4 0.662875 0.029319 0.038743
O O5 0.621143 0.250000 0.607092
O O6 0.667564 0.966690 0.750359
O O7 0.650663 0.975005 0.496768
O O8 0.500000 0.000000 0.500000
O O9 0.091303 0.750000 0.839309
O O10 0.991622 0.478485 0.769114
O O11 0.169358 0.464738 0.979474
O O12 0.751010 0.250000 0.890733
O O13 0.832047 0.045249 0.799642
O O14 0.566101 0.750000 0.915402
O O15 0.484994 0.470501 0.769648
O O16 0.500000 0.500000 0.000000
O O17 0.912818 0.750000 0.815398
O O18 0.000000 0.500000 0.000000
O O19 0.613079 0.250000 0.344063
#
# Coordination Sequence:
#
# PCOD9157913 Si02
#       7
#     4   4   4   4   4   4   4
#     4  10  19  29  47  75 101 127 166 212 256 300
#     4  10  22  37  54  76 103 139 178 215 252 300
#     4   9  18  31  49  75 106 133 161 202 257 313
#     4   9  19  35  52  75 106 138 173 212 257 305
#     4   8  15  27  42  63  89 121 160 199 239 288
#     4   9  17  31  52  77 104 135 169 209 259 311
#     4   9  18  34  51  66  96 137 172 206 253 304
#
# _framework density 23.178324
#
# number of rings (size 3 to 8) (size 9 to 14) (size 15 to 20)
#    0.000    2.857    0.000    1.714    2.000    4.571 
#    0.000    0.000    0.000    0.857    0.000    0.000 
#    0.000    0.000    0.000    0.000    0.000    0.000 
#
# Total GULP energy -156064.359089 kJ/mol
# GULP energy per Si atom -5573.727110 kJ/mol
# Density = 2.312557 g / cm^3
# Si number density = 23.178324 Si / 1000 Ang^3
#
#
#
# Elastic Constant Matrix: (Units=GPa)
#
#
# Indices 1 2 3 4 5 6 
#
# 1 119.3454 -7.2832 -11.2820 0.0000 -6.0130 0.0000
# 2 -7.2832 65.8128 3.1734 0.0000 -3.4424 0.0000
# 3 -11.2820 3.1734 33.1930 0.0000 -6.1523 0.0000
# 4 0.0000 0.0000 0.0000 7.6895 0.0000 0.1746
# 5 -6.0130 -3.4424 -6.1523 0.0000 23.5983 0.0000
# 6 0.0000 0.0000 0.0000 0.1746 0.0000 23.6797
#
#
#
# Elastic Compliance Matrix: (Units=1/GPa)
#
#
# Indices 1 2 3 4 5 6 
#
# 1 0.008946 0.000993 0.003567 0.000000 0.003354 0.000000
# 2 0.000993 0.015460 -0.000710 0.000000 0.002323 0.000000
# 3 0.003567 -0.000710 0.033159 0.000000 0.009450 0.000000
# 4 0.000000 0.000000 0.000000 0.130070 0.000000 -0.000959
# 5 0.003354 0.002323 0.009450 0.000000 0.046033 0.000000
# 6 0.000000 0.000000 0.000000 -0.000959 0.000000 0.042237
#
#
# Mechanical properties :
#
#
# Convention : Reuss Voigt Hill
#
# Bulk Modulus (GPa) = 15.32163 20.84084 18.08124
# Shear Modulus (GPa) = 17.24383 26.57637 21.91010
#
# Velocity S-wave (km/s) = 2.73053 3.38983 3.07788
# Velocity P-wave (km/s) = 4.07010 4.93278 4.52206
#
# Compressibility (1/GPa) = 0.06526720
#
# Stress axis : x y z
#
# Youngs Moduli (GPa) = 111.78296 64.68179 30.15788
#
# Poissons Ratio (x) = -0.06426 -0.10759
# Poissons Ratio (y) = -0.11105 0.02141
# Poissons Ratio (z) = -0.39878 0.04591
#
# Static dielectric constant tensor:
#      x y z
#    x 1.915290 0.000000 0.011660 
#    y 0.000000 1.859180 0.000000 
#    z 0.011660 0.000000 1.909230 
# 
# From -- ./inp_files/37680.got.cif
#   From: 2010.05.17/outbox.cif.g08.bks.cpg/sg11_19_cif.got.tgz:37680.got - 2010.06.03 12:22:45.
