data_PCOD9157568
_publ_section_title
;
Structure prediction by ZEFSAII (Michael W. Deem and Ramdas Pophale) SiO2 
 PCOD9157568
Probable space group: P 21/M
;
_chemical_formula_sum "Si O2"
_cell_formula_units_Z 32
_cell_length_a 27.593883
_cell_length_b 8.449586
_cell_length_c 21.470431
_cell_angle_alpha 90.000000
_cell_angle_beta 19.800252
_cell_angle_gamma 90.000000
_cell_volume 1695.735585
_symmetry_space_group_name_H-M "P 21/M"
_symmetry_group_IT_number 11
_symmetry_cell_setting 'monoclinic'
loop_
_space_group_symop_operation_xyz
x,y,z
-x,1/2+y,-z
-x,-y,-z
x,1/2-y,z
loop_
_atom_site_type_symbol
_atom_site_label
_atom_site_fract_x
_atom_site_fract_y
_atom_site_fract_z
Si Si1 0.015333 0.443285 0.244424
Si Si2 0.470913 0.440796 0.836899
Si Si3 0.211460 0.941923 0.583705
Si Si4 0.340469 0.057144 0.863133
Si Si5 0.563797 0.060115 0.487434
Si Si6 0.225986 0.939131 0.211867
Si Si7 0.036408 0.941204 0.553575
Si Si8 0.845733 0.938064 0.207739
O O1 0.014522 0.250000 0.244714
O O2 0.915507 0.495007 0.308486
O O3 0.957911 0.493550 0.381770
O O4 0.180314 0.494511 0.040264
O O5 0.468137 0.250000 0.841875
O O6 0.635316 0.490343 0.630103
O O7 0.388271 0.493463 0.874094
O O8 0.381283 0.502048 0.003703
O O9 0.210923 0.750000 0.587186
O O10 0.191090 0.002513 0.678241
O O11 0.339939 0.250000 0.864257
O O12 0.457541 0.006721 0.671300
O O13 0.566885 0.250000 0.483727
O O14 0.500000 0.000000 0.500000
O O15 0.721461 0.998100 0.312027
O O16 0.223748 0.750000 0.213114
O O17 0.166063 0.991981 0.351732
O O18 0.109329 0.001958 0.303186
O O19 0.032524 0.750000 0.558511
O O20 0.847173 0.750000 0.205436
O O21 0.000000 0.000000 0.000000
#
# Coordination Sequence:
#
# PCOD9157568 Si02
#       8
#     4   4   4   4   4   4   4   4
#     4   9  17  32  57  83 107 144 188 232 282 341
#     4  10  18  34  56  79 108 148 189 228 277 337
#     4  10  21  38  61  85 111 146 193 239 283 347
#     4   9  17  32  57  83 109 143 187 234 276 334
#     4  11  23  41  63  94 125 154 196 242 293 351
#     4  10  19  29  49  81 111 143 185 234 282 333
#     4   9  17  32  52  77 110 145 184 230 285 343
#     4  12  26  44  64  87 119 160 198 242 298 356
#
# _framework density 18.870867000000001
#
# number of rings (size 3 to 8) (size 9 to 14) (size 15 to 20)
#    0.000    2.000    2.500    1.875    1.750    1.000 
#    0.000    1.250    0.000    0.000    0.000    0.000 
#    0.000    0.000    0.000    0.000    0.000    0.000 
#
# Total GULP energy -178644.072614 kJ/mol
# GULP energy per Si atom -5582.627269 kJ/mol
# Density = 1.882792 g / cm^3
# Si number density = 18.870867 Si / 1000 Ang^3
#
#
#
# Elastic Constant Matrix: (Units=GPa)
#
#
# Indices 1 2 3 4 5 6 
#
# 1 88.0918 19.4640 52.8053 0.0000 -17.3284 0.0000
# 2 19.4640 27.3683 26.6158 0.0000 -1.4479 0.0000
# 3 52.8053 26.6158 157.1082 0.0000 -8.3045 0.0000
# 4 0.0000 0.0000 0.0000 25.1887 0.0000 3.5758
# 5 -17.3284 -1.4479 -8.3045 0.0000 33.2934 0.0000
# 6 0.0000 0.0000 0.0000 3.5758 0.0000 18.8255
#
#
#
# Elastic Compliance Matrix: (Units=1/GPa)
#
#
# Indices 1 2 3 4 5 6 
#
# 1 0.016924 -0.007774 -0.003976 0.000000 0.007479 0.000000
# 2 -0.007774 0.047317 -0.005582 0.000000 -0.003381 0.000000
# 3 -0.003976 -0.005582 0.008639 0.000000 -0.000157 0.000000
# 4 0.000000 0.000000 0.000000 0.040801 0.000000 -0.007750
# 5 0.007479 -0.003381 -0.000157 0.000000 0.033742 0.000000
# 6 0.000000 0.000000 0.000000 -0.007750 0.000000 0.054591
#
#
# Mechanical properties :
#
#
# Convention : Reuss Voigt Hill
#
# Bulk Modulus (GPa) = 26.16696 52.25985 39.21341
# Shear Modulus (GPa) = 20.04690 27.04042 23.54366
#
# Velocity S-wave (km/s) = 3.26286 3.78950 3.53600
# Velocity P-wave (km/s) = 5.30014 6.84840 6.12340
#
# Compressibility (1/GPa) = 0.03821613
#
# Stress axis : x y z
#
# Youngs Moduli (GPa) = 59.08807 21.13422 115.75818
#
# Poissons Ratio (x) = 0.16429 0.46025
# Poissons Ratio (y) = 0.45934 0.64614
# Poissons Ratio (z) = 0.23493 0.11797
#
# Static dielectric constant tensor:
#      x y z
#    x 1.633990 0.000000 0.013230 
#    y 0.000000 1.650640 0.000000 
#    z 0.013230 0.000000 1.657290 
# 
# From -- ./inp_files/66994.got.cif
#   From: 2010.05.17/outbox.cif.g08.bks.cpg/sg11_34_cif.got.tgz:66994.got - 2010.06.03 12:22:45.
