data_PCOD9157062
_publ_section_title
;
Structure prediction by ZEFSAII (Michael W. Deem and Ramdas Pophale) SiO2 
 PCOD9157062
Probable space group: P 21/M
;
_chemical_formula_sum "Si O2"
_cell_formula_units_Z 32
_cell_length_a 23.359059
_cell_length_b 8.746638
_cell_length_c 17.371959
_cell_angle_alpha 90.000000
_cell_angle_beta 31.204267
_cell_angle_gamma 90.000000
_cell_volume 1838.870292
_symmetry_space_group_name_H-M "P 21/M"
_symmetry_group_IT_number 11
_symmetry_cell_setting 'monoclinic'
loop_
_space_group_symop_operation_xyz
x,y,z
-x,1/2+y,-z
-x,-y,-z
x,1/2-y,z
loop_
_atom_site_type_symbol
_atom_site_label
_atom_site_fract_x
_atom_site_fract_y
_atom_site_fract_z
Si Si1 0.173800 0.427208 0.318020
Si Si2 0.184491 0.933409 0.138018
Si Si3 0.624757 0.933384 0.356057
Si Si4 0.375168 0.565232 0.804103
Si Si5 0.396859 0.073277 0.161365
Si Si6 0.733133 0.067800 0.551371
Si Si7 0.942246 0.935107 0.395817
Si Si8 0.376958 0.933960 0.482362
O O1 0.147472 0.250000 0.331894
O O2 0.181607 0.515122 0.229533
O O3 0.291643 0.433376 0.225629
O O4 0.088912 0.485231 0.480929
O O5 0.185909 0.750000 0.134646
O O6 0.067664 0.982224 0.235026
O O7 0.292254 0.984318 0.967228
O O8 0.623198 0.750000 0.355440
O O9 0.500000 0.000000 0.500000
O O10 0.671895 0.002743 0.223047
O O11 0.670731 0.993654 0.384240
O O12 0.382511 0.750000 0.792797
O O13 0.498309 0.497639 0.672645
O O14 0.419703 0.250000 0.152949
O O15 0.359475 0.989178 0.281937
O O16 0.500000 0.000000 0.000000
O O17 0.740608 0.250000 0.547616
O O18 0.695663 0.026246 0.508548
O O19 0.848979 0.997604 0.446218
O O20 0.934119 0.750000 0.404830
O O21 0.382940 0.750000 0.483285
#
# Coordination Sequence:
#
# PCOD9157062 Si02
#       8
#     4   4   4   4   4   4   4   4
#     4   9  19  33  50  72  98 133 174 215 258 301
#     4  10  21  34  52  77 103 134 173 216 258 305
#     4  10  18  31  52  76 103 135 167 202 250 307
#     4  10  20  33  50  77 108 136 167 205 256 309
#     4  10  21  35  50  71 103 140 173 211 259 304
#     4  10  21  35  53  77 101 133 175 214 255 304
#     4   9  19  37  54  72 101 136 175 218 261 301
#     4  10  20  34  53  77 106 135 167 209 251 305
#
# _framework density 17.401989
#
# number of rings (size 3 to 8) (size 9 to 14) (size 15 to 20)
#    0.000    2.250    0.000    5.250    1.750    6.000 
#    0.000    0.000    0.000    0.750    0.000    0.000 
#    0.000    0.000    0.000    0.000    0.000    0.000 
#
# Total GULP energy -178477.087226 kJ/mol
# GULP energy per Si atom -5577.408976 kJ/mol
# Density = 1.736238 g / cm^3
# Si number density = 17.401989 Si / 1000 Ang^3
#
#
#
# Elastic Constant Matrix: (Units=GPa)
#
#
# Indices 1 2 3 4 5 6 
#
# 1 101.4449 28.4145 23.8514 0.0000 23.1368 0.0000
# 2 28.4145 45.0710 15.1294 0.0000 4.5370 0.0000
# 3 23.8514 15.1294 48.1940 0.0000 5.0731 0.0000
# 4 0.0000 0.0000 0.0000 19.0482 0.0000 2.9269
# 5 23.1368 4.5370 5.0731 0.0000 13.0126 0.0000
# 6 0.0000 0.0000 0.0000 2.9269 0.0000 30.7384
#
#
#
# Elastic Compliance Matrix: (Units=1/GPa)
#
#
# Indices 1 2 3 4 5 6 
#
# 1 0.020392 -0.008265 -0.004155 0.000000 -0.031756 0.000000
# 2 -0.008265 0.028585 -0.005611 0.000000 0.006916 0.000000
# 3 -0.004155 -0.005611 0.024593 0.000000 -0.000244 0.000000
# 4 0.000000 0.000000 0.000000 0.053278 0.000000 -0.005073
# 5 -0.031756 0.006916 -0.000244 0.000000 0.130997 0.000000
# 6 0.000000 0.000000 0.000000 -0.005073 0.000000 0.033016
#
#
# Mechanical properties :
#
#
# Convention : Reuss Voigt Hill
#
# Bulk Modulus (GPa) = 26.66067 36.61115 31.63591
# Shear Modulus (GPa) = 14.73079 21.04746 17.88913
#
# Velocity S-wave (km/s) = 2.91262 3.48154 3.20971
# Velocity P-wave (km/s) = 5.16381 6.10292 5.65290
#
# Compressibility (1/GPa) = 0.03750844
#
# Stress axis : x y z
#
# Youngs Moduli (GPa) = 49.03858 34.98341 40.66202
#
# Poissons Ratio (x) = 0.28912 0.16894
# Poissons Ratio (y) = 0.40528 0.22817
# Poissons Ratio (z) = 0.20375 0.19631
#
# Static dielectric constant tensor:
#      x y z
#    x 1.604050 0.000000 0.006240 
#    y 0.000000 1.590600 0.000000 
#    z 0.006240 0.000000 1.598650 
# 
# From -- ./inp_files/61767.got.cif
#   From: 2010.05.17/outbox.cif.g08.bks.cpg/sg11_31_cif.got.tgz:61767.got - 2010.06.03 12:22:45.
