data_PCOD9157941
_publ_section_title
;
Structure prediction by ZEFSAII (Michael W. Deem and Ramdas Pophale) SiO2 
 PCOD9157941
Probable space group: P 21/M
;
_chemical_formula_sum "Si O2"
_cell_formula_units_Z 32
_cell_length_a 19.313182
_cell_length_b 9.173356
_cell_length_c 23.250900
_cell_angle_alpha 90.000000
_cell_angle_beta 28.606323
_cell_angle_gamma 90.000000
_cell_volume 1972.267343
_symmetry_space_group_name_H-M "P 21/M"
_symmetry_group_IT_number 11
_symmetry_cell_setting 'monoclinic'
loop_
_space_group_symop_operation_xyz
x,y,z
-x,1/2+y,-z
-x,-y,-z
x,1/2-y,z
loop_
_atom_site_type_symbol
_atom_site_label
_atom_site_fract_x
_atom_site_fract_y
_atom_site_fract_z
Si Si1 0.452973 0.922133 0.783329
Si Si2 0.881734 0.574894 0.627782
Si Si3 0.635385 0.076915 0.431421
Si Si4 0.337992 0.580780 0.286157
Si Si5 0.855347 0.078437 0.170110
Si Si6 0.695225 0.920609 0.507298
Si Si7 0.193861 0.422864 0.910964
Si Si8 0.902273 0.417131 0.435995
O O1 0.436954 0.750000 0.805284
O O2 0.565716 0.940166 0.647930
O O3 0.525523 0.001029 0.784995
O O4 0.304604 0.995429 0.871648
O O5 0.881216 0.750000 0.619521
O O6 0.731677 0.504400 0.716874
O O7 0.000000 0.500000 0.500000
O O8 0.944635 0.546872 0.645721
O O9 0.610916 0.250000 0.453104
O O10 0.772005 0.051417 0.289913
O O11 0.500000 0.000000 0.500000
O O12 0.662134 0.010601 0.474431
O O13 0.365767 0.750000 0.252657
O O14 0.215322 0.578104 0.426132
O O15 0.837327 0.250000 0.168427
O O16 0.791274 0.984441 0.164618
O O17 0.026477 0.049605 0.049578
O O18 0.705569 0.750000 0.486346
O O19 0.840102 0.977955 0.432846
O O20 0.220410 0.250000 0.892719
O O21 0.905762 0.250000 0.412632
#
# Coordination Sequence:
#
# PCOD9157941 Si02
#       8
#     4   4   4   4   4   4   4   4
#     4  10  19  30  44  64  92 122 150 184 226 267
#     4   9  15  23  36  55  81 114 150 185 221 263
#     4  11  22  35  50  67  91 119 148 183 222 265
#     4   9  16  25  38  58  84 115 151 186 220 263
#     4   9  20  36  50  67  90 116 146 182 225 268
#     4  10  20  31  44  64  90 119 152 187 222 263
#     4  10  19  32  51  70  88 113 147 185 223 266
#     4   8  15  26  39  56  81 115 151 183 218 261
#
# _framework density 16.224981
#
# number of rings (size 3 to 8) (size 9 to 14) (size 15 to 20)
#    0.000    2.500    0.000    3.750    0.000    9.500 
#    0.000    0.000    0.000    0.000    0.000    0.000 
#    0.000    1.000    0.000    3.000    0.000    4.500 
#
# Total GULP energy -178368.202669 kJ/mol
# GULP energy per Si atom -5574.006333 kJ/mol
# Density = 1.618805 g / cm^3
# Si number density = 16.224981 Si / 1000 Ang^3
#
#
#
# Elastic Constant Matrix: (Units=GPa)
#
#
# Indices 1 2 3 4 5 6 
#
# 1 110.1141 70.4905 28.4607 0.0000 -32.2145 0.0000
# 2 70.4905 96.9391 34.9947 0.0000 -18.9337 0.0000
# 3 28.4607 34.9947 25.4029 0.0000 -12.2863 0.0000
# 4 0.0000 0.0000 0.0000 18.5846 0.0000 -7.2736
# 5 -32.2145 -18.9337 -12.2863 0.0000 25.0153 0.0000
# 6 0.0000 0.0000 0.0000 -7.2736 0.0000 35.0934
#
#
#
# Elastic Compliance Matrix: (Units=1/GPa)
#
#
# Indices 1 2 3 4 5 6 
#
# 1 0.023453 -0.014183 0.003512 0.000000 0.021193 0.000000
# 2 -0.014183 0.029187 -0.029467 0.000000 -0.010646 0.000000
# 3 0.003512 -0.029467 0.088431 0.000000 0.025653 0.000000
# 4 0.000000 0.000000 0.000000 0.058558 0.000000 0.012137
# 5 0.021193 -0.010646 0.025653 0.000000 0.071809 0.000000
# 6 0.000000 0.000000 0.000000 0.012137 0.000000 0.031011
#
#
# Mechanical properties :
#
#
# Convention : Reuss Voigt Hill
#
# Bulk Modulus (GPa) = 16.44840 55.59419 36.02130
# Shear Modulus (GPa) = 12.40725 22.30600 17.35662
#
# Velocity S-wave (km/s) = 2.76832 3.71184 3.27425
# Velocity P-wave (km/s) = 4.51418 7.26012 6.04513
#
# Compressibility (1/GPa) = 0.06079620
#
# Stress axis : x y z
#
# Youngs Moduli (GPa) = 42.63838 34.26189 11.30822
#
# Poissons Ratio (x) = 0.48592 -0.03971
# Poissons Ratio (y) = 0.60472 0.33322
# Poissons Ratio (z) = -0.14974 1.00959
#
# Static dielectric constant tensor:
#      x y z
#    x 1.543400 0.000000 -0.019540 
#    y 0.000000 1.559530 0.000000 
#    z -0.019540 0.000000 1.538310 
# 
# From -- ./inp_files/42551.got.cif
#   From: 2010.05.17/outbox.cif.g08.bks.cpg/sg11_22_cif.got.tgz:42551.got - 2010.06.03 12:22:45.
