data_PCOD9157715
_publ_section_title
;
Structure prediction by ZEFSAII (Michael W. Deem and Ramdas Pophale) SiO2 
 PCOD9157715
Probable space group: P 21/M
;
_chemical_formula_sum "Si O2"
_cell_formula_units_Z 32
_cell_length_a 9.937304
_cell_length_b 19.941008
_cell_length_c 16.331080
_cell_angle_alpha 90.000000
_cell_angle_beta 33.460305
_cell_angle_gamma 90.000000
_cell_volume 1784.288844
_symmetry_space_group_name_H-M "P 21/M"
_symmetry_group_IT_number 11
_symmetry_cell_setting 'monoclinic'
loop_
_space_group_symop_operation_xyz
x,y,z
-x,1/2+y,-z
-x,-y,-z
x,1/2-y,z
loop_
_atom_site_type_symbol
_atom_site_label
_atom_site_fract_x
_atom_site_fract_y
_atom_site_fract_z
Si Si1 0.242656 0.588949 0.152096
Si Si2 0.905846 0.066593 0.159462
Si Si3 0.383583 0.087802 0.189693
Si Si4 0.731264 0.172643 0.115111
Si Si5 0.932776 0.452317 0.329133
Si Si6 0.520845 0.941420 0.170161
Si Si7 0.891817 0.673093 0.228086
Si Si8 0.558028 0.561109 0.333106
O O1 0.376005 0.595928 0.171368
O O2 0.084536 0.520544 0.234723
O O3 0.063542 0.647881 0.214717
O O4 0.447617 0.582684 0.977464
O O5 0.798212 0.123256 0.154996
O O6 0.886087 0.082037 0.265723
O O7 0.760845 0.996997 0.219979
O O8 0.191699 0.057633 0.995205
O O9 0.488418 0.146427 0.192781
O O10 0.107389 0.091246 0.299017
O O11 0.424438 0.017864 0.216285
O O12 0.712680 0.250000 0.149366
O O13 0.942876 0.167187 0.938332
O O14 0.678654 0.467471 0.501720
O O15 0.488543 0.914256 0.277691
O O16 0.818341 0.750000 0.275209
O O17 0.673169 0.621221 0.326687
#
# Coordination Sequence:
#
# PCOD9157715 Si02
#       8
#     4   4   4   4   4   4   4   4
#     4  10  19  35  58  85 114 147 192 238 282 339
#     4  12  19  37  59  86 116 148 192 241 284 331
#     4  10  18  36  57  86 116 147 187 239 292 334
#     4  10  21  37  60  85 112 150 195 238 285 346
#     4  11  22  35  59  88 118 146 191 242 286 336
#     4  11  19  34  60  86 110 145 194 241 284 324
#     4  10  21  38  59  84 117 153 188 232 294 350
#     4  12  23  35  57  92 118 152 189 239 289 341
#
# _framework density 17.934315000000002
#
# number of rings (size 3 to 8) (size 9 to 14) (size 15 to 20)
#    0.000    1.250    6.250    2.250    0.000    2.000 
#    0.000    3.125    0.000    0.000    0.000    0.000 
#    0.000    0.000    0.000    0.000    0.000    0.000 
#
# Total GULP energy -178666.562546 kJ/mol
# GULP energy per Si atom -5583.330080 kJ/mol
# Density = 1.789350 g / cm^3
# Si number density = 17.934315 Si / 1000 Ang^3
#
#
#
# Elastic Constant Matrix: (Units=GPa)
#
#
# Indices 1 2 3 4 5 6 
#
# 1 138.2391 49.3455 34.5637 0.0000 -5.7531 0.0000
# 2 49.3455 89.1748 13.7153 0.0000 -12.8224 0.0000
# 3 34.5637 13.7153 52.1838 0.0000 4.1275 0.0000
# 4 0.0000 0.0000 0.0000 3.4068 0.0000 -2.5393
# 5 -5.7531 -12.8224 4.1275 0.0000 7.4050 0.0000
# 6 0.0000 0.0000 0.0000 -2.5393 0.0000 22.1273
#
#
#
# Elastic Compliance Matrix: (Units=1/GPa)
#
#
# Indices 1 2 3 4 5 6 
#
# 1 0.010458 -0.004235 -0.006147 0.000000 0.004218 0.000000
# 2 -0.004235 0.018883 -0.004691 0.000000 0.032022 0.000000
# 3 -0.006147 -0.004691 0.026663 0.000000 -0.027760 0.000000
# 4 0.000000 0.000000 0.000000 0.320984 0.000000 0.036836
# 5 0.004218 0.032022 -0.027760 0.000000 0.209243 0.000000
# 6 0.000000 0.000000 0.000000 0.036836 0.000000 0.049420
#
#
# Mechanical properties :
#
#
# Convention : Reuss Voigt Hill
#
# Bulk Modulus (GPa) = 38.67237 52.76075 45.71656
# Shear Modulus (GPa) = 7.41380 18.71939 13.06659
#
# Velocity S-wave (km/s) = 2.03540 3.23426 2.70215
# Velocity P-wave (km/s) = 5.20902 6.59014 5.93986
#
# Compressibility (1/GPa) = 0.02585825
#
# Stress axis : x y z
#
# Youngs Moduli (GPa) = 95.61893 52.95665 37.50467
#
# Poissons Ratio (x) = 0.22427 0.23056
# Poissons Ratio (y) = 0.40495 0.17593
# Poissons Ratio (z) = 0.58782 0.24841
#
# Static dielectric constant tensor:
#      x y z
#    x 1.642240 0.000000 0.003650 
#    y 0.000000 1.591860 0.000000 
#    z 0.003650 0.000000 1.610490 
# 
# From -- ./inp_files/23143.got.cif
#   From: 2010.05.17/outbox.cif.g08.bks.cpg/sg11_12_cif.got.tgz:23143.got - 2010.06.03 12:22:45.
