data_PCOD9157428
_publ_section_title
;
Structure prediction by ZEFSAII (Michael W. Deem and Ramdas Pophale) SiO2 
 PCOD9157428
Probable space group: P 21/M
;
_chemical_formula_sum "Si O2"
_cell_formula_units_Z 24
_cell_length_a 9.433656
_cell_length_b 16.645230
_cell_length_c 16.166409
_cell_angle_alpha 90.000000
_cell_angle_beta 29.884973
_cell_angle_gamma 90.000000
_cell_volume 1264.852072
_symmetry_space_group_name_H-M "P 21/M"
_symmetry_group_IT_number 11
_symmetry_cell_setting 'monoclinic'
loop_
_space_group_symop_operation_xyz
x,y,z
-x,1/2+y,-z
-x,-y,-z
x,1/2-y,z
loop_
_atom_site_type_symbol
_atom_site_label
_atom_site_fract_x
_atom_site_fract_y
_atom_site_fract_z
Si Si1 0.713732 0.347650 0.388153
Si Si2 0.332020 0.658290 0.409106
Si Si3 0.670523 0.620505 0.749809
Si Si4 0.373286 0.344040 0.047177
Si Si5 0.669972 0.655381 0.572398
Si Si6 0.721400 0.429647 0.729027
O O1 0.716712 0.250000 0.391143
O O2 0.587969 0.374242 0.540481
O O3 0.530585 0.370139 0.401419
O O4 0.043190 0.371764 0.212866
O O5 0.431779 0.750000 0.347582
O O6 0.404787 0.605454 0.292901
O O7 0.986130 0.659442 0.588070
O O8 0.528653 0.646917 0.907187
O O9 0.531364 0.644659 0.733251
O O10 0.713380 0.525129 0.730508
O O11 0.386747 0.250000 0.017396
O O12 0.552586 0.395446 0.892496
O O13 0.741390 0.750000 0.525858
O O14 0.956729 0.603224 0.427805
#
# Coordination Sequence:
#
# PCOD9157428 Si02
#       6
#     4   4   4   4   4   4
#     4   8  17  32  52  72  95 127 167 201 237 288
#     4   9  16  31  51  71  95 132 168 196 235 294
#     4  10  19  32  49  73 102 132 160 196 244 297
#     4  10  19  35  53  70  94 132 167 197 241 298
#     4  10  18  33  54  76  97 127 167 206 237 279
#     4  11  20  31  50  78 102 124 161 208 244 280
#
# _framework density 18.974551000000002
#
# number of rings (size 3 to 8) (size 9 to 14) (size 15 to 20)
#    0.000    2.333    0.000    7.500    0.000    0.000 
#    0.000   10.000    0.000    4.000    0.000    0.000 
#    0.000    0.000    0.000    0.000    0.000    0.000 
#
# Total GULP energy -133861.153499 kJ/mol
# GULP energy per Si atom -5577.548062 kJ/mol
# Density = 1.893136 g / cm^3
# Si number density = 18.974551 Si / 1000 Ang^3
#
#
#
# Elastic Constant Matrix: (Units=GPa)
#
#
# Indices 1 2 3 4 5 6 
#
# 1 129.3810 5.8829 24.6724 0.0000 29.9202 0.0000
# 2 5.8829 79.1146 7.3503 0.0000 0.6389 0.0000
# 3 24.6724 7.3503 57.6617 0.0000 23.9517 0.0000
# 4 0.0000 0.0000 0.0000 23.2346 0.0000 13.2011
# 5 29.9202 0.6389 23.9517 0.0000 24.0782 0.0000
# 6 0.0000 0.0000 0.0000 13.2011 0.0000 -2.5772
#
#
#
# Elastic Compliance Matrix: (Units=1/GPa)
#
#
# Indices 1 2 3 4 5 6 
#
# 1 0.010994 -0.000862 0.001825 0.000000 -0.015454 0.000000
# 2 -0.000862 0.012927 -0.002695 0.000000 0.003409 0.000000
# 3 0.001825 -0.002695 0.030364 0.000000 -0.032401 0.000000
# 4 0.000000 0.000000 0.000000 0.011007 0.000000 0.056379
# 5 -0.015454 0.003409 -0.032401 0.000000 0.092876 0.000000
# 6 0.000000 0.000000 0.000000 0.056379 0.000000 -0.099230
#
#
# Mechanical properties :
#
#
# Convention : Reuss Voigt Hill
#
# Bulk Modulus (GPa) = 19.67708 37.99650 28.83679
# Shear Modulus (GPa) = 63.01829 24.16390 43.59109
#
# Velocity S-wave (km/s) = 5.76924 3.57247 4.79826
# Velocity P-wave (km/s) = 7.40078 6.08976 6.77705
#
# Compressibility (1/GPa) = 0.05082055
#
# Stress axis : x y z
#
# Youngs Moduli (GPa) = 90.95715 77.35820 32.93390
#
# Poissons Ratio (x) = 0.06670 -0.06011
# Poissons Ratio (y) = 0.07843 0.08876
# Poissons Ratio (z) = -0.16601 0.20849
#
# Static dielectric constant tensor:
#      x y z
#    x 1.703750 0.000000 0.037730 
#    y 0.000000 1.651910 0.000000 
#    z 0.037730 0.000000 1.652250 
# 
# From -- ./inp_files/12612.got.cif
#   From: 2010.05.17/outbox.cif.g08.bks.cpg/sg11_7_cif.got.tgz:12612.got - 2010.06.03 12:22:45.
