data_PCOD9157977
_publ_section_title
;
Structure prediction by ZEFSAII (Michael W. Deem and Ramdas Pophale) SiO2 
 PCOD9157977
Probable space group: P 21/M
;
_chemical_formula_sum "Si O2"
_cell_formula_units_Z 24
_cell_length_a 20.278470
_cell_length_b 7.859936
_cell_length_c 11.582832
_cell_angle_alpha 90.000000
_cell_angle_beta 135.168302
_cell_angle_gamma 90.000000
_cell_volume 1301.590866
_symmetry_space_group_name_H-M "P 21/M"
_symmetry_group_IT_number 11
_symmetry_cell_setting 'monoclinic'
loop_
_space_group_symop_operation_xyz
x,y,z
-x,1/2+y,-z
-x,-y,-z
x,1/2-y,z
loop_
_atom_site_type_symbol
_atom_site_label
_atom_site_fract_x
_atom_site_fract_y
_atom_site_fract_z
Si Si1 0.824124 0.549039 0.588379
Si Si2 0.020963 0.545492 0.892937
Si Si3 0.451677 0.455228 0.114632
Si Si4 0.783755 0.451625 0.799207
Si Si5 0.642831 0.544633 0.237566
Si Si6 0.592726 0.546713 0.685445
O O1 0.829981 0.750000 0.570303
O O2 0.930112 0.477972 0.711897
O O3 0.791938 0.531292 0.681938
O O4 0.741993 0.477278 0.406140
O O5 0.019815 0.750000 0.878046
O O6 0.000000 0.500000 0.000000
O O7 0.128256 0.487351 0.012790
O O8 0.446126 0.250000 0.108448
O O9 0.559124 0.501205 0.221621
O O10 0.417864 0.518810 0.196622
O O11 0.390783 0.517624 0.929893
O O12 0.795441 0.250000 0.796259
O O13 0.685271 0.483339 0.736582
O O14 0.648032 0.750000 0.238836
O O15 0.500000 0.500000 0.500000
O O16 0.598855 0.750000 0.697758
#
# Coordination Sequence:
#
# PCOD9157977 Si02
#       6
#     4   4   4   4   4   4
#     4   9  16  28  48  71  92 116 150 187 224 266
#     4   8  15  27  43  65  91 118 147 182 222 262
#     4   9  19  33  46  64  90 118 147 181 223 266
#     4  10  19  30  45  67  96 124 149 181 223 267
#     4   9  17  30  49  69  88 113 146 184 223 264
#     4  11  22  34  48  66  91 121 152 184 220 266
#
# _framework density 18.438974000000002
#
# number of rings (size 3 to 8) (size 9 to 14) (size 15 to 20)
#    0.000    2.667    0.000    2.000    0.000    5.333 
#    0.000    0.000    0.000    1.000    0.000    0.000 
#    0.000    0.000    0.000    0.000    0.000    1.000 
#
# Total GULP energy -133711.053220 kJ/mol
# GULP energy per Si atom -5571.293884 kJ/mol
# Density = 1.839701 g / cm^3
# Si number density = 18.438974 Si / 1000 Ang^3
#
#
#
# Elastic Constant Matrix: (Units=GPa)
#
#
# Indices 1 2 3 4 5 6 
#
# 1 67.3519 -10.3297 43.0658 0.0000 20.8140 0.0000
# 2 -10.3297 20.5280 -2.3749 0.0000 0.5678 0.0000
# 3 43.0658 -2.3749 143.4921 0.0000 40.9491 0.0000
# 4 0.0000 0.0000 0.0000 15.2216 0.0000 1.2193
# 5 20.8140 0.5678 40.9491 0.0000 33.0417 0.0000
# 6 0.0000 0.0000 0.0000 1.2193 0.0000 15.0369
#
#
#
# Elastic Compliance Matrix: (Units=1/GPa)
#
#
# Indices 1 2 3 4 5 6 
#
# 1 0.021733 0.010766 -0.003690 0.000000 -0.009302 0.000000
# 2 0.010766 0.054315 -0.000202 0.000000 -0.007465 0.000000
# 3 -0.003690 -0.000202 0.011463 0.000000 -0.011878 0.000000
# 4 0.000000 0.000000 0.000000 0.066126 0.000000 -0.005362
# 5 -0.009302 -0.007465 -0.011878 0.000000 0.050974 0.000000
# 6 0.000000 0.000000 0.000000 -0.005362 0.000000 0.066938
#
#
# Mechanical properties :
#
#
# Convention : Reuss Voigt Hill
#
# Bulk Modulus (GPa) = 9.87561 32.45495 21.16528
# Shear Modulus (GPa) = 17.14963 26.06076 21.60519
#
# Velocity S-wave (km/s) = 3.05302 3.76354 3.42674
# Velocity P-wave (km/s) = 4.21846 6.04360 5.21155
#
# Compressibility (1/GPa) = 0.10125954
#
# Stress axis : x y z
#
# Youngs Moduli (GPa) = 46.01386 18.41120 87.23852
#
# Poissons Ratio (x) = -0.19822 0.32188
# Poissons Ratio (y) = -0.49540 0.01762
# Poissons Ratio (z) = 0.16978 0.00372
#
# Static dielectric constant tensor:
#      x y z
#    x 1.595310 0.000000 0.016840 
#    y 0.000000 1.680350 0.000000 
#    z 0.016840 0.000000 1.682940 
# 
# From -- ./inp_files/33765.got.cif
#   From: 2010.05.17/outbox.cif.g08.bks.cpg/sg11_17_cif.got.tgz:33765.got - 2010.06.03 12:22:45.
