data_PCOD9157366
_publ_section_title
;
Structure prediction by ZEFSAII (Michael W. Deem and Ramdas Pophale) SiO2 
 PCOD9157366
Probable space group: P 21/M
;
_chemical_formula_sum "Si O2"
_cell_formula_units_Z 32
_cell_length_a 18.204933
_cell_length_b 13.285932
_cell_length_c 19.201751
_cell_angle_alpha 90.000000
_cell_angle_beta 157.500100
_cell_angle_gamma 90.000000
_cell_volume 1777.296045
_symmetry_space_group_name_H-M "P 21/M"
_symmetry_group_IT_number 11
_symmetry_cell_setting 'monoclinic'
loop_
_space_group_symop_operation_xyz
x,y,z
-x,1/2+y,-z
-x,-y,-z
x,1/2-y,z
loop_
_atom_site_type_symbol
_atom_site_label
_atom_site_fract_x
_atom_site_fract_y
_atom_site_fract_z
Si Si1 0.409876 0.365474 0.223130
Si Si2 0.050781 0.869325 0.982875
Si Si3 0.689486 0.130495 0.061347
Si Si4 0.882757 0.016753 0.102538
Si Si5 0.670973 0.975423 0.703307
Si Si6 0.320732 0.138406 0.653385
Si Si7 0.974736 0.029533 0.398680
Si Si8 0.210296 0.950589 0.483496
O O1 0.345611 0.250000 0.173347
O O2 0.407642 0.421548 0.295799
O O3 0.625481 0.369605 0.381726
O O4 0.270045 0.430834 0.051345
O O5 0.071435 0.750000 0.002496
O O6 0.082373 0.915106 0.933969
O O7 0.837479 0.902882 0.819027
O O8 0.209583 0.924618 0.170119
O O9 0.716923 0.250000 0.095899
O O10 0.471288 0.114545 0.846042
O O11 0.811316 0.088510 0.102521
O O12 0.763987 0.063081 0.190403
O O13 0.075079 0.963734 0.298814
O O14 0.500000 0.000000 0.500000
O O15 0.359868 0.250000 0.661852
O O16 0.108853 0.125918 0.498966
O O17 0.326627 0.055302 0.598519
O O18 0.000000 0.000000 0.500000
O O19 0.070904 0.948113 0.429538
#
# Coordination Sequence:
#
# PCOD9157366 Si02
#       8
#     4   4   4   4   4   4   4   4
#     4  11  22  38  57  79 110 149 189 227 276 335
#     4  10  21  35  55  84 113 142 186 234 279 331
#     4  10  18  32  57  83 111 145 179 221 279 330
#     4  10  19  35  56  82 111 143 180 233 280 323
#     4  10  22  40  57  79 113 150 188 230 283 332
#     4   9  18  32  54  83 109 138 179 219 271 329
#     4   9  19  33  53  78 113 149 178 223 272 325
#     4   9  20  35  56  81 108 144 182 229 270 328
#
# _framework density 18.004878000000001
#
# number of rings (size 3 to 8) (size 9 to 14) (size 15 to 20)
#    0.750    1.500    1.250    1.875    0.000    2.500 
#    0.000    1.250    0.000    4.500    0.000    0.000 
#    0.000    0.000    0.000    0.000    0.000    0.000 
#
# Total GULP energy -178176.048770 kJ/mol
# GULP energy per Si atom -5568.001524 kJ/mol
# Density = 1.796390 g / cm^3
# Si number density = 18.004878 Si / 1000 Ang^3
#
#
#
# Elastic Constant Matrix: (Units=GPa)
#
#
# Indices 1 2 3 4 5 6 
#
# 1 35.5465 23.0368 19.0986 0.0000 -17.3459 0.0000
# 2 23.0368 89.1576 41.2343 0.0000 -7.7966 0.0000
# 3 19.0986 41.2343 124.5180 0.0000 -19.8481 0.0000
# 4 0.0000 0.0000 0.0000 15.6878 0.0000 2.2809
# 5 -17.3459 -7.7966 -19.8481 0.0000 25.4800 0.0000
# 6 0.0000 0.0000 0.0000 2.2809 0.0000 12.3887
#
#
#
# Elastic Compliance Matrix: (Units=1/GPa)
#
#
# Indices 1 2 3 4 5 6 
#
# 1 0.049779 -0.010511 0.000839 0.000000 0.031325 0.000000
# 2 -0.010511 0.015476 -0.004451 0.000000 -0.005887 0.000000
# 3 0.000839 -0.004451 0.010562 0.000000 0.007436 0.000000
# 4 0.000000 0.000000 0.000000 0.065497 0.000000 -0.012059
# 5 0.031325 -0.005887 0.007436 0.000000 0.064562 0.000000
# 6 0.000000 0.000000 0.000000 -0.012059 0.000000 0.082939
#
#
# Mechanical properties :
#
#
# Convention : Reuss Voigt Hill
#
# Bulk Modulus (GPa) = 21.02156 46.21797 33.61976
# Shear Modulus (GPa) = 15.01875 21.76813 18.39344
#
# Velocity S-wave (km/s) = 2.89130 3.48086 3.19969
# Velocity P-wave (km/s) = 4.77985 6.47152 5.68892
#
# Compressibility (1/GPa) = 0.04757020
#
# Stress axis : x y z
#
# Youngs Moduli (GPa) = 20.08878 64.61782 94.68250
#
# Poissons Ratio (x) = 0.67917 -0.07941
# Poissons Ratio (y) = 0.21115 0.42144
# Poissons Ratio (z) = -0.01685 0.28762
#
# Static dielectric constant tensor:
#      x y z
#    x 1.619890 0.000000 0.015280 
#    y 0.000000 1.605270 0.000000 
#    z 0.015280 0.000000 1.643400 
# 
# From -- ./inp_files/66559.got.cif
#   From: 2010.05.17/outbox.cif.g08.bks.cpg/sg11_34_cif.got.tgz:66559.got - 2010.06.03 12:22:45.
