data_PCOD9157496
_publ_section_title
;
Structure prediction by ZEFSAII (Michael W. Deem and Ramdas Pophale) SiO2 
 PCOD9157496
Probable space group: P 21/M
;
_chemical_formula_sum "Si O2"
_cell_formula_units_Z 32
_cell_length_a 20.947072
_cell_length_b 7.741326
_cell_length_c 26.009135
_cell_angle_alpha 90.000000
_cell_angle_beta 157.205278
_cell_angle_gamma 90.000000
_cell_volume 1634.024569
_symmetry_space_group_name_H-M "P 21/M"
_symmetry_group_IT_number 11
_symmetry_cell_setting 'monoclinic'
loop_
_space_group_symop_operation_xyz
x,y,z
-x,1/2+y,-z
-x,-y,-z
x,1/2-y,z
loop_
_atom_site_type_symbol
_atom_site_label
_atom_site_fract_x
_atom_site_fract_y
_atom_site_fract_z
Si Si1 0.011151 0.454437 0.687040
Si Si2 0.479576 0.461446 0.629606
Si Si3 0.546006 0.456634 0.871300
Si Si4 0.616068 0.954523 0.038771
Si Si5 0.159260 0.542704 0.085201
Si Si6 0.300846 0.041418 0.603247
Si Si7 0.169365 0.050297 0.343455
Si Si8 0.123956 0.537389 0.941545
O O1 0.016280 0.250000 0.702077
O O2 0.196168 0.521700 0.816100
O O3 0.884177 0.480846 0.545895
O O4 0.930503 0.543913 0.676851
O O5 0.475734 0.250000 0.625229
O O6 0.666865 0.520079 0.762835
O O7 0.411133 0.509154 0.635408
O O8 0.347459 0.525750 0.489725
O O9 0.547265 0.250000 0.866010
O O10 0.393600 0.520523 0.723392
O O11 0.543055 0.492547 0.929451
O O12 0.718846 0.519580 0.975329
O O13 0.630192 0.750000 0.048584
O O14 0.500000 0.000000 0.000000
O O15 0.171515 0.750000 0.091754
O O16 0.142695 0.481979 0.014173
O O17 0.000000 0.500000 0.000000
O O18 0.295980 0.250000 0.600327
O O19 0.196073 0.250000 0.348885
O O20 0.046162 0.974471 0.209959
O O21 0.122753 0.750000 0.939268
#
# Coordination Sequence:
#
# PCOD9157496 Si02
#       8
#     4   4   4   4   4   4   4   4
#     4  10  20  33  50  78 112 139 167 213 267 310
#     4   8  14  27  48  72  98 129 170 210 248 303
#     4  10  18  33  58  85 106 131 176 227 266 308
#     4  11  24  39  55  78 110 146 178 213 261 316
#     4  10  19  33  49  70 103 139 175 214 258 310
#     4   9  17  31  55  82 104 134 176 217 260 314
#     4   9  16  29  53  78  97 129 173 215 261 311
#     4   9  16  29  53  79 101 129 172 218 256 307
#
# _framework density 19.583548
#
# number of rings (size 3 to 8) (size 9 to 14) (size 15 to 20)
#    0.000    2.500    2.500    1.500    0.000    2.000 
#    0.000    5.000    0.000    0.000    0.000    0.000 
#    0.000    0.000    0.000    0.000    0.000    0.000 
#
# Total GULP energy -178460.249291 kJ/mol
# GULP energy per Si atom -5576.882790 kJ/mol
# Density = 1.953897 g / cm^3
# Si number density = 19.583548 Si / 1000 Ang^3
#
#
#
# Elastic Constant Matrix: (Units=GPa)
#
#
# Indices 1 2 3 4 5 6 
#
# 1 30.9002 -8.9987 4.3557 0.0000 -2.5498 0.0000
# 2 -8.9987 29.8086 -1.8717 0.0000 -3.4730 0.0000
# 3 4.3557 -1.8717 126.5220 0.0000 -10.5673 0.0000
# 4 0.0000 0.0000 0.0000 15.7607 0.0000 3.5367
# 5 -2.5498 -3.4730 -10.5673 0.0000 25.2572 0.0000
# 6 0.0000 0.0000 0.0000 3.5367 0.0000 14.5219
#
#
#
# Elastic Compliance Matrix: (Units=1/GPa)
#
#
# Indices 1 2 3 4 5 6 
#
# 1 0.036203 0.011465 -0.000663 0.000000 0.004954 0.000000
# 2 0.011465 0.037830 0.000721 0.000000 0.006661 0.000000
# 3 -0.000663 0.000721 0.008227 0.000000 0.003474 0.000000
# 4 0.000000 0.000000 0.000000 0.067117 0.000000 -0.016346
# 5 0.004954 0.006661 0.003474 0.000000 0.042462 0.000000
# 6 0.000000 0.000000 0.000000 -0.016346 0.000000 0.072843
#
#
# Mechanical properties :
#
#
# Convention : Reuss Voigt Hill
#
# Bulk Modulus (GPa) = 9.49610 19.35571 14.42590
# Shear Modulus (GPa) = 18.06762 24.02434 21.04598
#
# Velocity S-wave (km/s) = 3.04071 3.50631 3.28178
# Velocity P-wave (km/s) = 4.14578 5.12810 4.66288
#
# Compressibility (1/GPa) = 0.10530640
#
# Stress axis : x y z
#
# Youngs Moduli (GPa) = 27.62187 26.43420 121.54435
#
# Poissons Ratio (x) = -0.30306 0.08058
# Poissons Ratio (y) = -0.31668 -0.08767
# Poissons Ratio (z) = 0.01831 -0.01907
#
# Static dielectric constant tensor:
#      x y z
#    x 1.606030 0.000000 -0.014670 
#    y 0.000000 1.725730 0.000000 
#    z -0.014670 0.000000 1.738900 
# 
# From -- ./inp_files/66414.got.cif
#   From: 2010.05.17/outbox.cif.g08.bks.cpg/sg11_34_cif.got.tgz:66414.got - 2010.06.03 12:22:45.
