data_PCOD9157524
_publ_section_title
;
Structure prediction by ZEFSAII (Michael W. Deem and Ramdas Pophale) SiO2 
 PCOD9157524
Probable space group: P 21/M
;
_chemical_formula_sum "Si O2"
_cell_formula_units_Z 24
_cell_length_a 11.870026
_cell_length_b 14.137903
_cell_length_c 19.771878
_cell_angle_alpha 90.000000
_cell_angle_beta 24.103628
_cell_angle_gamma 90.000000
_cell_volume 1355.057860
_symmetry_space_group_name_H-M "P 21/M"
_symmetry_group_IT_number 11
_symmetry_cell_setting 'monoclinic'
loop_
_space_group_symop_operation_xyz
x,y,z
-x,1/2+y,-z
-x,-y,-z
x,1/2-y,z
loop_
_atom_site_type_symbol
_atom_site_label
_atom_site_fract_x
_atom_site_fract_y
_atom_site_fract_z
Si Si1 0.372205 0.250000 0.144404
Si Si2 0.646550 0.250000 0.843202
Si Si3 0.947297 0.750000 0.899533
Si Si4 0.219933 0.750000 0.598894
Si Si5 0.890800 0.440138 0.742912
Si Si6 0.549023 0.457762 0.547483
Si Si7 0.979391 0.038787 0.086978
Si Si8 0.620669 0.440703 0.031403
O O1 0.487533 0.340253 0.120135
O O2 0.048456 0.250000 0.303568
O O3 0.511127 0.250000 0.993018
O O4 0.840325 0.341159 0.733947
O O5 0.381311 0.250000 0.939207
O O6 0.104888 0.750000 0.739803
O O7 0.020340 0.652496 0.899052
O O8 0.391427 0.845773 0.491883
O O9 0.633915 0.502310 0.859950
O O10 0.174981 0.492886 0.575165
O O11 0.846915 0.428275 0.847775
O O12 0.500000 0.500000 0.500000
O O13 0.290826 0.490099 0.733006
O O14 0.000000 0.000000 0.000000
O O15 0.239332 0.997808 0.985851
#
# Coordination Sequence:
#
# PCOD9157524 Si02
#       8
#     2   2   2   2   4   4   4   4
#     4   9  18  30  61  94 123 160 205 270 324 361
#     4   9  18  30  62  94 120 158 212 265 318 377
#     4  11  20  41  67  90 125 178 211 256 332 383
#     4  11  20  37  68  98 126 162 210 277 338 355
#     4  10  18  33  61  93 119 150 215 272 307 358
#     4  12  23  39  63  98 130 160 215 277 315 370
#     4  12  27  43  63  93 138 177 208 258 324 397
#     4  10  18  35  59  90 121 161 210 257 310 376
#
# _framework density 17.711421000000001
#
# number of rings (size 3 to 8) (size 9 to 14) (size 15 to 20)
#    0.000    1.333    6.667    0.000    0.000    3.333 
#    0.000    0.833    0.000    0.000    0.000    0.000 
#    0.000    0.000    0.000    0.000    0.000    0.000 
#
# Total GULP energy -133829.668789 kJ/mol
# GULP energy per Si atom -5576.236200 kJ/mol
# Density = 1.767111 g / cm^3
# Si number density = 17.711421 Si / 1000 Ang^3
#
#
#
# Elastic Constant Matrix: (Units=GPa)
#
#
# Indices 1 2 3 4 5 6 
#
# 1 72.8395 43.8701 52.8393 0.0000 -0.6015 0.0000
# 2 43.8701 197.7200 56.7837 0.0000 -7.9354 0.0000
# 3 52.8393 56.7837 91.8208 0.0000 -8.1429 0.0000
# 4 0.0000 0.0000 0.0000 31.2247 0.0000 -12.0861
# 5 -0.6015 -7.9354 -8.1429 0.0000 25.2398 0.0000
# 6 0.0000 0.0000 0.0000 -12.0861 0.0000 22.6260
#
#
#
# Elastic Compliance Matrix: (Units=1/GPa)
#
#
# Indices 1 2 3 4 5 6 
#
# 1 0.024443 -0.001759 -0.013358 0.000000 -0.004280 0.000000
# 2 -0.001759 0.006289 -0.002785 0.000000 0.001037 0.000000
# 3 -0.013358 -0.002785 0.020789 0.000000 0.005513 0.000000
# 4 0.000000 0.000000 0.000000 0.040374 0.000000 0.021566
# 5 -0.004280 0.001037 0.005513 0.000000 0.041623 0.000000
# 6 0.000000 0.000000 0.000000 0.021566 0.000000 0.055717
#
#
# Mechanical properties :
#
#
# Convention : Reuss Voigt Hill
#
# Bulk Modulus (GPa) = 63.62402 74.37404 68.99903
# Shear Modulus (GPa) = 21.71294 29.74391 25.72843
#
# Velocity S-wave (km/s) = 3.50512 4.10245 3.81549
# Velocity P-wave (km/s) = 7.23753 8.03265 7.64543
#
# Compressibility (1/GPa) = 0.01571733
#
# Stress axis : x y z
#
# Youngs Moduli (GPa) = 40.91191 158.99557 48.10226
#
# Poissons Ratio (x) = 0.27966 0.64253
# Poissons Ratio (y) = 0.07196 0.13398
# Poissons Ratio (z) = 0.54649 0.44287
#
# Static dielectric constant tensor:
#      x y z
#    x 1.591460 0.000000 0.000710 
#    y 0.000000 1.558270 0.000000 
#    z 0.000710 0.000000 1.596060 
# 
# From -- ./inp_files/64817.got.cif
#   From: 2010.05.17/outbox.cif.g08.bks.cpg/sg11_33_cif.got.tgz:64817.got - 2010.06.03 12:22:45.
