data_PCOD9157464
_publ_section_title
;
Structure prediction by ZEFSAII (Michael W. Deem and Ramdas Pophale) SiO2 
 PCOD9157464
Probable space group: P 21/M
;
_chemical_formula_sum "Si O2"
_cell_formula_units_Z 32
_cell_length_a 14.684028
_cell_length_b 7.983489
_cell_length_c 14.776556
_cell_angle_alpha 90.000000
_cell_angle_beta 120.860489
_cell_angle_gamma 90.000000
_cell_volume 1486.998050
_symmetry_space_group_name_H-M "P 21/M"
_symmetry_group_IT_number 11
_symmetry_cell_setting 'monoclinic'
loop_
_space_group_symop_operation_xyz
x,y,z
-x,1/2+y,-z
-x,-y,-z
x,1/2-y,z
loop_
_atom_site_type_symbol
_atom_site_label
_atom_site_fract_x
_atom_site_fract_y
_atom_site_fract_z
Si Si1 0.343264 0.550831 0.673263
Si Si2 0.386677 0.450519 0.902091
Si Si3 0.883759 0.049172 0.409411
Si Si4 0.951977 0.047474 0.252599
Si Si5 0.119820 0.452980 0.089587
Si Si6 0.180176 0.454299 0.323391
Si Si7 0.780676 0.945362 0.036156
Si Si8 0.403083 0.447955 0.513959
O O1 0.340630 0.750000 0.664672
O O2 0.375260 0.510649 0.792671
O O3 0.222598 0.481694 0.598815
O O4 0.413703 0.490117 0.625569
O O5 0.375981 0.250000 0.893545
O O6 0.300368 0.518767 0.931118
O O7 0.500000 0.500000 0.000000
O O8 0.879223 0.250000 0.410741
O O9 0.883513 0.997587 0.304328
O O10 0.000000 0.000000 0.500000
O O11 0.947888 0.250000 0.240326
O O12 0.074665 0.998363 0.325556
O O13 0.896845 0.964158 0.139357
O O14 0.122866 0.250000 0.091051
O O15 0.154615 0.507443 0.207445
O O16 0.203038 0.516079 0.055978
O O17 0.000000 0.500000 0.000000
O O18 0.183913 0.250000 0.325565
O O19 0.290758 0.519091 0.419364
O O20 0.752489 0.750000 0.012110
O O21 0.500000 0.500000 0.500000
O O22 0.395251 0.250000 0.503324
#
# Coordination Sequence:
#
# PCOD9157464 Si02
#       8
#     4   4   4   4   4   4   4   4
#     4  11  23  42  66  93 124 162 208 261 318 377
#     4  11  24  42  64  92 127 167 211 260 314 375
#     4  10  21  34  55  87 122 161 204 251 307 371
#     4  10  18  33  56  83 116 156 198 241 297 364
#     4  10  19  34  56  85 119 158 199 241 298 363
#     4   9  19  35  59  87 121 163 204 247 307 370
#     4  10  21  35  55  86 121 157 197 246 306 359
#     4  11  24  44  67  91 122 164 212 263 316 374
#
# _framework density 21.519867000000001
#
# number of rings (size 3 to 8) (size 9 to 14) (size 15 to 20)
#    0.000    1.750    2.500    1.875    0.000    4.000 
#    0.000    5.000    0.000    0.000    0.000    0.000 
#    0.000    0.000    0.000    0.000    0.000    0.000 
#
# Total GULP energy -178598.635913 kJ/mol
# GULP energy per Si atom -5581.207372 kJ/mol
# Density = 2.147089 g / cm^3
# Si number density = 21.519867 Si / 1000 Ang^3
#
#
#
# Elastic Constant Matrix: (Units=GPa)
#
#
# Indices 1 2 3 4 5 6 
#
# 1 164.2976 13.8433 55.4981 0.0000 -20.1232 0.0000
# 2 13.8433 25.0814 -3.5268 0.0000 -7.5977 0.0000
# 3 55.4981 -3.5268 79.6053 0.0000 -10.1665 0.0000
# 4 0.0000 0.0000 0.0000 23.8206 0.0000 3.1557
# 5 -20.1232 -7.5977 -10.1665 0.0000 39.0813 0.0000
# 6 0.0000 0.0000 0.0000 3.1557 0.0000 21.4481
#
#
#
# Elastic Compliance Matrix: (Units=1/GPa)
#
#
# Indices 1 2 3 4 5 6 
#
# 1 0.008832 -0.005146 -0.006136 0.000000 0.001951 0.000000
# 2 -0.005146 0.046082 0.006656 0.000000 0.008040 0.000000
# 3 -0.006136 0.006656 0.017477 0.000000 0.002681 0.000000
# 4 0.000000 0.000000 0.000000 0.042815 0.000000 -0.006300
# 5 0.001951 0.008040 0.002681 0.000000 0.028853 0.000000
# 6 0.000000 0.000000 0.000000 -0.006300 0.000000 0.047551
#
#
# Mechanical properties :
#
#
# Convention : Reuss Voigt Hill
#
# Bulk Modulus (GPa) = 15.83811 44.51262 30.17537
# Shear Modulus (GPa) = 22.53180 30.41465 26.47323
#
# Velocity S-wave (km/s) = 3.23928 3.76351 3.51119
# Velocity P-wave (km/s) = 4.62238 6.29402 5.52182
#
# Compressibility (1/GPa) = 0.06313883
#
# Stress axis : x y z
#
# Youngs Moduli (GPa) = 113.22731 21.70034 57.21760
#
# Poissons Ratio (x) = 0.11168 0.35109
# Poissons Ratio (y) = 0.58272 -0.38086
# Poissons Ratio (z) = 0.69477 -0.14445
#
# Static dielectric constant tensor:
#      x y z
#    x 1.810280 0.000000 0.002100 
#    y 0.000000 1.764690 0.000000 
#    z 0.002100 0.000000 1.840460 
# 
# From -- ./inp_files/51746.got.cif
#   From: 2010.05.17/outbox.cif.g08.bks.cpg/sg11_26_cif.got.tgz:51746.got - 2010.06.03 12:22:45.
