data_PCOD9157851
_publ_section_title
;
Structure prediction by ZEFSAII (Michael W. Deem and Ramdas Pophale) SiO2 
 PCOD9157851
Probable space group: P 21/M
;
_chemical_formula_sum "Si O2"
_cell_formula_units_Z 28
_cell_length_a 15.130202
_cell_length_b 7.927544
_cell_length_c 13.829315
_cell_angle_alpha 90.000000
_cell_angle_beta 78.461088
_cell_angle_gamma 90.000000
_cell_volume 1625.236813
_symmetry_space_group_name_H-M "P 21/M"
_symmetry_group_IT_number 11
_symmetry_cell_setting 'monoclinic'
loop_
_space_group_symop_operation_xyz
x,y,z
-x,1/2+y,-z
-x,-y,-z
x,1/2-y,z
loop_
_atom_site_type_symbol
_atom_site_label
_atom_site_fract_x
_atom_site_fract_y
_atom_site_fract_z
Si Si1 0.613130 0.948449 0.570081
Si Si2 0.285332 0.051227 0.245923
Si Si3 0.462874 0.453698 0.112342
Si Si4 0.273643 0.555389 0.635540
Si Si5 0.437306 0.543212 0.716105
Si Si6 0.894860 0.950242 0.634374
Si Si7 0.909690 0.947566 0.411991
O O1 0.609597 0.750000 0.544684
O O2 0.670078 0.959033 0.657051
O O3 0.513293 0.008807 0.621098
O O4 0.664601 0.042625 0.474109
O O5 0.276660 0.250000 0.222806
O O6 0.361685 0.980713 0.157564
O O7 0.184988 0.978911 0.281141
O O8 0.459638 0.250000 0.119927
O O9 0.527556 0.510279 0.186417
O O10 0.500000 0.500000 0.000000
O O11 0.254388 0.750000 0.660740
O O12 0.338704 0.485356 0.705181
O O13 0.178704 0.470876 0.632855
O O14 0.437435 0.750000 0.714092
O O15 0.877222 0.750000 0.630824
O O16 0.890808 0.017912 0.524667
O O17 0.997119 0.975010 0.646105
O O18 0.927573 0.750000 0.418942
#
# Coordination Sequence:
#
# PCOD9157851 Si02
#       7
#     4   4   4   4   4   4   4
#     4   9  15  28  44  60  85 120 153 181 214 256
#     4   8  14  27  47  65  86 119 150 175 217 272
#     4   9  17  32  51  69  90 115 145 183 224 268
#     4  11  19  27  40  63  90 121 155 183 212 255
#     4   8  17  30  45  62  87 121 151 177 218 272
#     4   9  16  29  45  62  84 117 157 186 214 259
#     4  10  19  29  42  61  88 122 154 186 222 254
#
# _framework density 17.228258
#
# number of rings (size 3 to 8) (size 9 to 14) (size 15 to 20)
#    0.000    2.857    1.429    3.000    0.000    0.571 
#    0.000    5.714    0.000    0.000    0.000    1.000 
#    0.000    0.000    0.000    0.000    0.000    0.000 
#
# Total GULP energy -155969.476636 kJ/mol
# GULP energy per Si atom -5570.338451 kJ/mol
# Density = 1.718905 g / cm^3
# Si number density = 17.228258 Si / 1000 Ang^3
#
#
#
# Elastic Constant Matrix: (Units=GPa)
#
#
# Indices 1 2 3 4 5 6 
#
# 1 141.7082 1.5072 50.9441 0.0000 -16.9951 0.0000
# 2 1.5072 14.6224 1.1374 0.0000 -3.0437 0.0000
# 3 50.9441 1.1374 75.5178 0.0000 -16.9024 0.0000
# 4 0.0000 0.0000 0.0000 15.6123 0.0000 -3.7369
# 5 -16.9951 -3.0437 -16.9024 0.0000 18.8611 0.0000
# 6 0.0000 0.0000 0.0000 -3.7369 0.0000 16.2319
#
#
#
# Elastic Compliance Matrix: (Units=1/GPa)
#
#
# Indices 1 2 3 4 5 6 
#
# 1 0.009500 0.000199 -0.005615 0.000000 0.003561 0.000000
# 2 0.000199 0.070980 0.001752 0.000000 0.013204 0.000000
# 3 -0.005615 0.001752 0.019932 0.000000 0.013086 0.000000
# 4 0.000000 0.000000 0.000000 0.067788 0.000000 0.015606
# 5 0.003561 0.013204 0.013086 0.000000 0.070085 0.000000
# 6 0.000000 0.000000 0.000000 0.015606 0.000000 0.065200
#
#
# Mechanical properties :
#
#
# Convention : Reuss Voigt Hill
#
# Bulk Modulus (GPa) = 10.74296 37.66952 24.20624
# Shear Modulus (GPa) = 14.62669 22.02504 18.32586
#
# Velocity S-wave (km/s) = 2.91691 3.57939 3.26499
# Velocity P-wave (km/s) = 4.19448 6.24461 5.31925
#
# Compressibility (1/GPa) = 0.09308418
#
# Stress axis : x y z
#
# Youngs Moduli (GPa) = 105.26082 14.08848 50.17031
#
# Poissons Ratio (x) = -0.00280 0.28170
# Poissons Ratio (y) = -0.02092 -0.08790
# Poissons Ratio (z) = 0.59103 -0.02468
#
# Static dielectric constant tensor:
#      x y z
#    x 1.627250 0.000000 -0.009390 
#    y 0.000000 1.619610 0.000000 
#    z -0.009390 0.000000 1.565840 
# 
# From -- ./inp_files/50981.got.cif
#   From: 2010.05.17/outbox.cif.g08.bks.cpg/sg11_26_cif.got.tgz:50981.got - 2010.06.03 12:22:45.
