data_PCOD9157908
_publ_section_title
;
Structure prediction by ZEFSAII (Michael W. Deem and Ramdas Pophale) SiO2 
 PCOD9157908
Probable space group: P 21/M
;
_chemical_formula_sum "Si O2"
_cell_formula_units_Z 32
_cell_length_a 12.144961
_cell_length_b 7.653723
_cell_length_c 30.327485
_cell_angle_alpha 90.000000
_cell_angle_beta 150.495863
_cell_angle_gamma 90.000000
_cell_volume 1388.351729
_symmetry_space_group_name_H-M "P 21/M"
_symmetry_group_IT_number 11
_symmetry_cell_setting 'monoclinic'
loop_
_space_group_symop_operation_xyz
x,y,z
-x,1/2+y,-z
-x,-y,-z
x,1/2-y,z
loop_
_atom_site_type_symbol
_atom_site_label
_atom_site_fract_x
_atom_site_fract_y
_atom_site_fract_z
Si Si1 0.648935 0.545708 0.357807
Si Si2 0.011747 0.956635 0.759790
Si Si3 0.762586 0.947432 0.841450
Si Si4 0.002622 0.963073 0.660521
Si Si5 0.524877 0.536353 0.942208
Si Si6 0.526559 0.537296 0.844094
Si Si7 0.881095 0.537605 0.523942
Si Si8 0.940484 0.948917 0.133347
O O1 0.583953 0.750000 0.335998
O O2 0.465995 0.444785 0.266414
O O3 0.693166 0.483912 0.423263
O O4 0.884570 0.526998 0.414594
O O5 0.023534 0.750000 0.757798
O O6 0.925800 0.024395 0.682560
O O7 0.267860 0.020450 0.855016
O O8 0.916046 0.982957 0.775342
O O9 0.843982 0.750000 0.876408
O O10 0.689939 0.027206 0.862797
O O11 0.932828 0.042335 0.868786
O O12 0.996261 0.750000 0.657544
O O13 0.265360 0.013136 0.746921
O O14 0.869323 0.020812 0.570607
O O15 0.526306 0.750000 0.944814
O O16 0.598163 0.488319 0.918138
O O17 0.700166 0.465089 0.038830
O O18 0.526980 0.750000 0.841411
O O19 0.886409 0.750000 0.524651
O O20 0.901673 0.750000 0.131085
#
# Coordination Sequence:
#
# PCOD9157908 Si02
#       8
#     4   4   4   4   4   4   4   4
#     4  10  19  29  46  75 108 133 158 198 244 289
#     4   9  17  32  55  76  94 124 169 206 239 289
#     4  11  21  34  52  69  96 136 175 203 234 295
#     4   8  13  26  51  77  97 123 162 204 236 279
#     4   8  16  31  52  75  97 124 159 207 253 291
#     4   8  14  27  49  73  95 125 164 200 239 286
#     4   9  16  29  50  76 103 133 164 193 237 293
#     4  11  22  34  48  70 102 132 162 205 256 294
#
# _framework density 23.048912999999999
#
# number of rings (size 3 to 8) (size 9 to 14) (size 15 to 20)
#    0.000    2.750    1.250    3.000    0.000    1.000 
#    0.000    1.250    0.000    3.000    0.000    0.000 
#    0.000    0.000    0.000    0.000    0.000    0.000 
#
# Total GULP energy -178449.250023 kJ/mol
# GULP energy per Si atom -5576.539063 kJ/mol
# Density = 2.299645 g / cm^3
# Si number density = 23.048913 Si / 1000 Ang^3
#
#
#
# Elastic Constant Matrix: (Units=GPa)
#
#
# Indices 1 2 3 4 5 6 
#
# 1 91.9675 5.2910 9.2637 0.0000 -39.4770 0.0000
# 2 5.2910 50.0221 -1.9912 0.0000 -3.2254 0.0000
# 3 9.2637 -1.9912 36.3463 0.0000 -27.0851 0.0000
# 4 0.0000 0.0000 0.0000 9.2743 0.0000 2.0531
# 5 -39.4770 -3.2254 -27.0851 0.0000 43.4021 0.0000
# 6 0.0000 0.0000 0.0000 2.0531 0.0000 14.0812
#
#
#
# Elastic Compliance Matrix: (Units=1/GPa)
#
#
# Indices 1 2 3 4 5 6 
#
# 1 0.022782 0.000376 0.018088 0.000000 0.032038 0.000000
# 2 0.000376 0.020432 0.004505 0.000000 0.004672 0.000000
# 3 0.018088 0.004505 0.066658 0.000000 0.058385 0.000000
# 4 0.000000 0.000000 0.000000 0.111421 0.000000 -0.016245
# 5 0.032038 0.004672 0.058385 0.000000 0.088963 0.000000
# 6 0.000000 0.000000 0.000000 -0.016245 0.000000 0.073385
#
#
# Mechanical properties :
#
#
# Convention : Reuss Voigt Hill
#
# Bulk Modulus (GPa) = 6.41808 22.60699 14.51254
# Shear Modulus (GPa) = 12.83239 24.40301 18.61770
#
# Velocity S-wave (km/s) = 2.36211 3.25737 2.84517
# Velocity P-wave (km/s) = 3.19844 4.89662 4.13563
#
# Compressibility (1/GPa) = 0.15580975
#
# Stress axis : x y z
#
# Youngs Moduli (GPa) = 43.89458 48.94307 15.00199
#
# Poissons Ratio (x) = -0.01841 -0.27136
# Poissons Ratio (y) = -0.01651 -0.06758
# Poissons Ratio (z) = -0.79398 -0.22048
#
# Static dielectric constant tensor:
#      x y z
#    x 1.963740 0.000000 -0.022670 
#    y 0.000000 0.939850 0.000000 
#    z -0.022670 0.000000 1.862500 
# 
# From -- ./inp_files/73197.got.cif
#   From: 2010.05.17/outbox.cif.g08.bks.cpg/sg11_37_cif.got.tgz:73197.got - 2010.06.03 12:22:45.
