data_PCOD9157126
_publ_section_title
;
Structure prediction by ZEFSAII (Michael W. Deem and Ramdas Pophale) SiO2 
 PCOD9157126
Probable space group: P 21/M
;
_chemical_formula_sum "Si O2"
_cell_formula_units_Z 28
_cell_length_a 8.513278
_cell_length_b 13.581419
_cell_length_c 12.033320
_cell_angle_alpha 90.000000
_cell_angle_beta 122.832957
_cell_angle_gamma 90.000000
_cell_volume 1169.064485
_symmetry_space_group_name_H-M "P 21/M"
_symmetry_group_IT_number 11
_symmetry_cell_setting 'monoclinic'
loop_
_space_group_symop_operation_xyz
x,y,z
-x,1/2+y,-z
-x,-y,-z
x,1/2-y,z
loop_
_atom_site_type_symbol
_atom_site_label
_atom_site_fract_x
_atom_site_fract_y
_atom_site_fract_z
Si Si1 0.201716 0.938164 0.896519
Si Si2 0.545553 0.546435 0.281914
Si Si3 0.857404 0.360745 0.604852
Si Si4 0.799350 0.132730 0.341319
Si Si5 0.409425 0.361265 0.464177
Si Si6 0.833276 0.508622 0.790745
Si Si7 0.394398 0.358740 0.916045
O O1 0.118828 0.901750 0.744687
O O2 0.292796 0.047871 0.932200
O O3 0.382331 0.869777 0.981178
O O4 0.019710 0.938828 0.904511
O O5 0.618975 0.438203 0.279530
O O6 0.605278 0.577927 0.427705
O O7 0.320067 0.545151 0.192084
O O8 0.629551 0.621284 0.224643
O O9 0.923945 0.250000 0.651279
O O10 0.910710 0.388656 0.498883
O O11 0.629733 0.358823 0.518934
O O12 0.904634 0.430847 0.724874
O O13 0.762272 0.250000 0.327365
O O14 0.345659 0.250000 0.457700
O O15 0.294623 0.413399 0.324290
O O16 0.334685 0.250000 0.927786
#
# Coordination Sequence:
#
# PCOD9157126 Si02
#       7
#     4   4   4   4   4   4   4
#     4  10  24  38  60  83 111 150 188 237 284 328
#     4  10  19  36  61  84 112 150 188 230 276 333
#     4   9  17  31  53  80 116 153 182 217 272 338
#     4  10  18  34  55  79 112 155 193 219 269 336
#     4  10  18  31  53  86 118 151 181 222 281 338
#     4  11  20  35  56  88 119 139 180 238 285 332
#     4  10  22  44  61  77 108 152 196 233 277 334
#
# _framework density 23.950775
#
# number of rings (size 3 to 8) (size 9 to 14) (size 15 to 20)
#    0.000    2.000    2.857    1.714    0.000    3.429 
#    0.000    0.000    0.000    0.000    0.000    0.000 
#    0.000    0.000    0.000    0.000    0.000    0.000 
#
# Total GULP energy -156439.415537 kJ/mol
# GULP energy per Si atom -5587.121983 kJ/mol
# Density = 2.389626 g / cm^3
# Si number density = 23.950775 Si / 1000 Ang^3
#
#
#
# Elastic Constant Matrix: (Units=GPa)
#
#
# Indices 1 2 3 4 5 6 
#
# 1 33.4526 -2.4730 0.4638 0.0000 -0.8522 0.0000
# 2 -2.4730 139.3830 -2.2205 0.0000 -3.7035 0.0000
# 3 0.4638 -2.2205 38.2576 0.0000 14.9144 0.0000
# 4 0.0000 0.0000 0.0000 12.4371 0.0000 -4.9187
# 5 -0.8522 -3.7035 14.9144 0.0000 36.5665 0.0000
# 6 0.0000 0.0000 0.0000 -4.9187 0.0000 19.5511
#
#
#
# Elastic Compliance Matrix: (Units=1/GPa)
#
#
# Indices 1 2 3 4 5 6 
#
# 1 0.029971 0.000548 -0.000744 0.000000 0.001057 0.000000
# 2 0.000548 0.007205 0.000145 0.000000 0.000683 0.000000
# 3 -0.000744 0.000145 0.031103 0.000000 -0.012688 0.000000
# 4 0.000000 0.000000 0.000000 0.089288 0.000000 0.022463
# 5 0.001057 0.000683 -0.012688 0.000000 0.032616 0.000000
# 6 0.000000 0.000000 0.000000 0.022463 0.000000 0.056799
#
#
# Mechanical properties :
#
#
# Convention : Reuss Voigt Hill
#
# Bulk Modulus (GPa) = 14.66775 22.51487 18.59131
# Shear Modulus (GPa) = 18.53164 28.06580 23.29872
#
# Velocity S-wave (km/s) = 2.78463 3.42689 3.12232
# Velocity P-wave (km/s) = 4.05910 5.00789 4.55825
#
# Compressibility (1/GPa) = 0.06817680
#
# Stress axis : x y z
#
# Youngs Moduli (GPa) = 33.36576 138.79894 32.15173
#
# Poissons Ratio (x) = -0.07606 0.02391
# Poissons Ratio (y) = -0.01828 -0.00467
# Poissons Ratio (z) = 0.02482 -0.02015
#
# Static dielectric constant tensor:
#      x y z
#    x 1.939050 0.000000 -0.017960 
#    y 0.000000 1.885990 0.000000 
#    z -0.017960 0.000000 1.978380 
# 
# From -- ./inp_files/47677.got.cif
#   From: 2010.05.17/outbox.cif.g08.bks.cpg/sg11_24_cif.got.tgz:47677.got - 2010.06.03 12:22:45.
