data_PCOD9157790
_publ_section_title
;
Structure prediction by ZEFSAII (Michael W. Deem and Ramdas Pophale) SiO2 
 PCOD9157790
Probable space group: P 21/M
;
_chemical_formula_sum "Si O2"
_cell_formula_units_Z 24
_cell_length_a 15.007511
_cell_length_b 14.359109
_cell_length_c 10.848628
_cell_angle_alpha 90.000000
_cell_angle_beta 151.381430
_cell_angle_gamma 90.000000
_cell_volume 1119.760362
_symmetry_space_group_name_H-M "P 21/M"
_symmetry_group_IT_number 11
_symmetry_cell_setting 'monoclinic'
loop_
_space_group_symop_operation_xyz
x,y,z
-x,1/2+y,-z
-x,-y,-z
x,1/2-y,z
loop_
_atom_site_type_symbol
_atom_site_label
_atom_site_fract_x
_atom_site_fract_y
_atom_site_fract_z
Si Si1 0.205966 0.957427 0.261908
Si Si2 0.458900 0.046950 0.760422
Si Si3 0.158111 0.358690 0.547313
Si Si4 0.305933 0.645907 0.617274
Si Si5 0.092449 0.356511 0.753043
Si Si6 0.795723 0.043546 0.013802
O O1 0.219692 0.872531 0.375735
O O2 0.337992 0.033286 0.488137
O O3 0.267737 0.930953 0.199978
O O4 0.000000 0.000000 0.000000
O O5 0.353408 0.115639 0.722837
O O6 0.442133 0.942241 0.796593
O O7 0.660579 0.075605 0.959237
O O8 0.118881 0.250000 0.483905
O O9 0.139908 0.379615 0.669781
O O10 0.001238 0.418252 0.287521
O O11 0.385690 0.750000 0.724201
O O12 0.129539 0.636651 0.493563
O O13 0.146752 0.250000 0.844593
O O14 0.192883 0.431622 0.960570
#
# Coordination Sequence:
#
# PCOD9157790 Si02
#       6
#     4   4   4   4   4   4
#     4  10  18  38  59  86 121 156 187 245 289 348
#     4  10  23  38  62  88 120 155 197 249 292 355
#     4  11  24  42  59  85 122 159 201 248 294 349
#     4   9  19  37  60  86 118 154 192 239 296 348
#     4  10  21  39  63  88 119 156 199 245 295 355
#     4  12  21  39  66  87 120 156 202 240 306 345
#
# _framework density 21.433157000000001
#
# number of rings (size 3 to 8) (size 9 to 14) (size 15 to 20)
#    1.000    0.667    5.000    1.000    0.000    2.667 
#    0.000    0.833    0.000    0.000    0.000    0.000 
#    0.000    0.000    0.000    0.000    0.000    0.000 
#
# Total GULP energy -133997.736293 kJ/mol
# GULP energy per Si atom -5583.239012 kJ/mol
# Density = 2.138437 g / cm^3
# Si number density = 21.433157 Si / 1000 Ang^3
#
#
#
# Elastic Constant Matrix: (Units=GPa)
#
#
# Indices 1 2 3 4 5 6 
#
# 1 137.1499 26.6660 12.6152 0.0000 15.4474 0.0000
# 2 26.6660 49.9634 -0.9363 0.0000 -13.9875 0.0000
# 3 12.6152 -0.9363 36.9173 0.0000 -0.6990 0.0000
# 4 0.0000 0.0000 0.0000 8.0000 0.0000 -3.0491
# 5 15.4474 -13.9875 -0.6990 0.0000 32.5734 0.0000
# 6 0.0000 0.0000 0.0000 -3.0491 0.0000 24.0783
#
#
#
# Elastic Compliance Matrix: (Units=1/GPa)
#
#
# Indices 1 2 3 4 5 6 
#
# 1 0.010063 -0.007730 -0.003790 0.000000 -0.008173 0.000000
# 2 -0.007730 0.028709 0.003674 0.000000 0.016073 0.000000
# 3 -0.003790 0.003674 0.028551 0.000000 0.003988 0.000000
# 4 0.000000 0.000000 0.000000 0.131338 0.000000 0.016632
# 5 -0.008173 0.016073 0.003988 0.000000 0.041563 0.000000
# 6 0.000000 0.000000 0.000000 0.016632 0.000000 0.043637
#
#
# Mechanical properties :
#
#
# Convention : Reuss Voigt Hill
#
# Bulk Modulus (GPa) = 19.36789 33.41338 26.39064
# Shear Modulus (GPa) = 15.78461 25.30939 20.54700
#
# Velocity S-wave (km/s) = 2.71672 3.44008 3.09957
# Velocity P-wave (km/s) = 4.34704 5.60378 5.01493
#
# Compressibility (1/GPa) = 0.05163184
#
# Stress axis : x y z
#
# Youngs Moduli (GPa) = 99.37024 34.83259 35.02480
#
# Poissons Ratio (x) = 0.26926 0.13273
# Poissons Ratio (y) = 0.76814 -0.12868
# Poissons Ratio (z) = 0.37657 -0.12797
#
# Static dielectric constant tensor:
#      x y z
#    x 1.803600 0.000000 0.010250 
#    y 0.000000 1.755810 0.000000 
#    z 0.010250 0.000000 1.793810 
# 
# From -- ./inp_files/39716.got.cif
#   From: 2010.05.17/outbox.cif.g08.bks.cpg/sg11_20_cif.got.tgz:39716.got - 2010.06.03 12:22:45.
