data_PCOD9157127
_publ_section_title
;
Structure prediction by ZEFSAII (Michael W. Deem and Ramdas Pophale) SiO2 
 PCOD9157127
Probable space group: P 21/M
;
_chemical_formula_sum "Si O2"
_cell_formula_units_Z 28
_cell_length_a 11.434906
_cell_length_b 15.648598
_cell_length_c 13.968884
_cell_angle_alpha 90.000000
_cell_angle_beta 37.994125
_cell_angle_gamma 90.000000
_cell_volume 1538.702709
_symmetry_space_group_name_H-M "P 21/M"
_symmetry_group_IT_number 11
_symmetry_cell_setting 'monoclinic'
loop_
_space_group_symop_operation_xyz
x,y,z
-x,1/2+y,-z
-x,-y,-z
x,1/2-y,z
loop_
_atom_site_type_symbol
_atom_site_label
_atom_site_fract_x
_atom_site_fract_y
_atom_site_fract_z
Si Si1 0.067264 0.001687 0.229642
Si Si2 0.945914 0.650924 0.601236
Si Si3 0.630570 0.992587 0.508002
Si Si4 0.415031 0.082241 0.925307
Si Si5 0.363514 0.658578 0.367629
Si Si6 0.648666 0.152146 0.946373
Si Si7 0.417904 0.089562 0.264559
O O1 0.181498 0.914920 0.179313
O O2 0.852692 0.978896 0.341118
O O3 0.064753 0.074130 0.314288
O O4 0.202535 0.046844 0.063999
O O5 0.904709 0.750000 0.659694
O O6 0.791771 0.625664 0.621554
O O7 0.169033 0.650613 0.431185
O O8 0.562513 0.926470 0.634806
O O9 0.500000 0.000000 0.500000
O O10 0.626185 0.083811 0.563560
O O11 0.460164 0.151755 0.816982
O O12 0.480283 0.118246 0.985540
O O13 0.549883 0.002817 0.807231
O O14 0.354011 0.750000 0.422678
O O15 0.695185 0.250000 0.894036
O O16 0.568304 0.145266 0.106973
#
# Coordination Sequence:
#
# PCOD9157127 Si02
#       7
#     4   4   4   4   4   4   4
#     4  10  20  36  57  85 117 147 191 232 280 343
#     4  10  18  31  53  86 119 150 183 231 294 345
#     4  10  23  41  61  76 106 157 201 244 280 315
#     4  10  18  32  52  83 119 147 170 221 288 351
#     4   9  20  34  55  84 115 147 191 237 281 342
#     4  11  20  33  53  88 129 152 175 220 290 359
#     4  10  19  34  53  79 116 144 185 230 281 337
#
# _framework density 18.197147999999999
#
# number of rings (size 3 to 8) (size 9 to 14) (size 15 to 20)
#    0.000    2.000    2.857    1.714    2.000    2.286 
#    0.000    9.286    0.000    0.000    0.000    0.000 
#    0.000    0.000    0.000    0.000    0.000    0.000 
#
# Total GULP energy -155914.074460 kJ/mol
# GULP energy per Si atom -5568.359802 kJ/mol
# Density = 1.815573 g / cm^3
# Si number density = 18.197148 Si / 1000 Ang^3
#
#
#
# Elastic Constant Matrix: (Units=GPa)
#
#
# Indices 1 2 3 4 5 6 
#
# 1 97.3790 19.1840 39.5020 0.0000 0.7534 0.0000
# 2 19.1840 85.8479 22.0263 0.0000 0.2356 0.0000
# 3 39.5020 22.0263 84.6213 0.0000 -4.3820 0.0000
# 4 0.0000 0.0000 0.0000 20.3646 0.0000 -1.9569
# 5 0.7534 0.2356 -4.3820 0.0000 15.5066 0.0000
# 6 0.0000 0.0000 0.0000 -1.9569 0.0000 9.3322
#
#
#
# Elastic Compliance Matrix: (Units=1/GPa)
#
#
# Indices 1 2 3 4 5 6 
#
# 1 0.012905 -0.001395 -0.005777 0.000000 -0.002238 0.000000
# 2 -0.001395 0.012652 -0.002688 0.000000 -0.000884 0.000000
# 3 -0.005777 -0.002688 0.015456 0.000000 0.004689 0.000000
# 4 0.000000 0.000000 0.000000 0.050115 0.000000 0.010509
# 5 -0.002238 -0.000884 0.004689 0.000000 0.065936 0.000000
# 6 0.000000 0.000000 0.000000 0.010509 0.000000 0.109359
#
#
# Mechanical properties :
#
#
# Convention : Reuss Voigt Hill
#
# Bulk Modulus (GPa) = 46.96211 47.69698 47.32955
# Shear Modulus (GPa) = 17.05082 21.51641 19.28362
#
# Velocity S-wave (km/s) = 3.06438 3.44234 3.25884
# Velocity P-wave (km/s) = 6.19548 6.48597 6.34239
#
# Compressibility (1/GPa) = 0.02129376
#
# Stress axis : x y z
#
# Youngs Moduli (GPa) = 77.49109 79.03660 64.69813
#
# Poissons Ratio (x) = 0.11029 0.37374
# Poissons Ratio (y) = 0.10814 0.17389
# Poissons Ratio (z) = 0.44764 0.21243
#
# Static dielectric constant tensor:
#      x y z
#    x 1.589280 0.000000 0.008060 
#    y 0.000000 1.679620 0.000000 
#    z 0.008060 0.000000 1.694700 
# 
# From -- ./inp_files/18135.got.cif
#   From: 2010.05.17/outbox.cif.g08.bks.cpg/sg11_10_cif.got.tgz:18135.got - 2010.06.03 12:22:45.
