data_PCOD9157007
_publ_section_title
;
Structure prediction by ZEFSAII (Michael W. Deem and Ramdas Pophale) SiO2 
 PCOD9157007
Probable space group: P 21/M
;
_chemical_formula_sum "Si O2"
_cell_formula_units_Z 20
_cell_length_a 10.537969
_cell_length_b 8.476941
_cell_length_c 22.062572
_cell_angle_alpha 90.000000
_cell_angle_beta 144.358818
_cell_angle_gamma 90.000000
_cell_volume 1148.424992
_symmetry_space_group_name_H-M "P 21/M"
_symmetry_group_IT_number 11
_symmetry_cell_setting 'monoclinic'
loop_
_space_group_symop_operation_xyz
x,y,z
-x,1/2+y,-z
-x,-y,-z
x,1/2-y,z
loop_
_atom_site_type_symbol
_atom_site_label
_atom_site_fract_x
_atom_site_fract_y
_atom_site_fract_z
Si Si1 0.741600 0.938606 0.269609
Si Si2 0.529628 0.441781 0.715917
Si Si3 0.996460 0.941037 0.067533
Si Si4 0.126338 0.060690 0.489311
Si Si5 0.458338 0.438826 0.051008
O O1 0.736396 0.750000 0.266460
O O2 0.588201 0.991544 0.266851
O O3 0.640449 0.004153 0.168982
O O4 0.986649 0.993474 0.379774
O O5 0.529446 0.250000 0.716485
O O6 0.375060 0.489122 0.599800
O O7 0.779059 0.494319 0.813556
O O8 0.995994 0.750000 0.066572
O O9 0.776775 0.994802 0.015255
O O10 0.000000 0.000000 0.000000
O O11 0.117283 0.250000 0.483835
O O12 0.000000 0.000000 0.500000
O O13 0.456309 0.250000 0.049654
O O14 0.500000 0.500000 0.000000
#
# Coordination Sequence:
#
# PCOD9157007 Si02
#       5
#     4   4   4   4   4
#     4  10  18  31  51  73 103 137 170 214 260 305
#     4   8  15  28  48  74 104 132 161 206 260 304
#     4  10  19  33  53  78 104 135 171 212 261 309
#     4   9  16  27  45  72 104 135 167 207 257 310
#     4  11  23  36  53  76 105 141 178 214 257 312
#
# _framework density 17.415156
#
# number of rings (size 3 to 8) (size 9 to 14) (size 15 to 20)
#    0.000    2.400    2.000    3.000    0.000    0.800 
#    0.000    1.000    0.000    1.200    0.000    0.000 
#    0.000    0.000    0.000    0.000    0.000    0.000 
#
# Total GULP energy -111457.229864 kJ/mol
# GULP energy per Si atom -5572.861493 kJ/mol
# Density = 1.737552 g / cm^3
# Si number density = 17.415156 Si / 1000 Ang^3
#
#
#
# Elastic Constant Matrix: (Units=GPa)
#
#
# Indices 1 2 3 4 5 6 
#
# 1 86.1297 20.6085 73.6225 0.0000 -4.7967 0.0000
# 2 20.6085 35.1433 32.0744 0.0000 -3.3595 0.0000
# 3 73.6225 32.0744 215.7548 0.0000 -1.8483 0.0000
# 4 0.0000 0.0000 0.0000 26.5525 0.0000 -6.6299
# 5 -4.7967 -3.3595 -1.8483 0.0000 19.2677 0.0000
# 6 0.0000 0.0000 0.0000 -6.6299 0.0000 17.7499
#
#
#
# Elastic Compliance Matrix: (Units=1/GPa)
#
#
# Indices 1 2 3 4 5 6 
#
# 1 0.017422 -0.005245 -0.005140 0.000000 0.002930 0.000000
# 2 -0.005245 0.035046 -0.003382 0.000000 0.004480 0.000000
# 3 -0.005140 -0.003382 0.006881 0.000000 -0.001209 0.000000
# 4 0.000000 0.000000 0.000000 0.041535 0.000000 0.015514
# 5 0.002930 0.004480 -0.001209 0.000000 0.053295 0.000000
# 6 0.000000 0.000000 0.000000 0.015514 0.000000 0.062133
#
#
# Mechanical properties :
#
#
# Convention : Reuss Voigt Hill
#
# Bulk Modulus (GPa) = 31.43192 65.51541 48.47367
# Shear Modulus (GPa) = 19.65009 26.76218 23.20613
#
# Velocity S-wave (km/s) = 3.36271 3.92435 3.65434
# Velocity P-wave (km/s) = 5.75890 7.63122 6.76019
#
# Compressibility (1/GPa) = 0.03181479
#
# Stress axis : x y z
#
# Youngs Moduli (GPa) = 57.39738 28.53428 145.32230
#
# Poissons Ratio (x) = 0.14967 0.74699
# Poissons Ratio (y) = 0.30107 0.49143
# Poissons Ratio (z) = 0.29503 0.09649
#
# Static dielectric constant tensor:
#      x y z
#    x 1.556690 0.000000 0.024270 
#    y 0.000000 1.594270 0.000000 
#    z 0.024270 0.000000 1.637700 
# 
# From -- ./inp_files/23851.got.cif
#   From: 2010.05.17/outbox.cif.g08.bks.cpg/sg11_12_cif.got.tgz:23851.got - 2010.06.03 12:22:45.
