data_PCOD9157112
_publ_section_title
;
Structure prediction by ZEFSAII (Michael W. Deem and Ramdas Pophale) SiO2 
 PCOD9157112
Probable space group: P 21/M
;
_chemical_formula_sum "Si O2"
_cell_formula_units_Z 26
_cell_length_a 8.452936
_cell_length_b 23.753867
_cell_length_c 4.878892
_cell_angle_alpha 90.000000
_cell_angle_beta 87.622833
_cell_angle_gamma 90.000000
_cell_volume 978.789288
_symmetry_space_group_name_H-M "P 21/M"
_symmetry_group_IT_number 11
_symmetry_cell_setting 'monoclinic'
loop_
_space_group_symop_operation_xyz
x,y,z
-x,1/2+y,-z
-x,-y,-z
x,1/2-y,z
loop_
_atom_site_type_symbol
_atom_site_label
_atom_site_fract_x
_atom_site_fract_y
_atom_site_fract_z
Si Si1 0.787726 0.483302 0.706535
Si Si2 0.359588 0.750000 0.869082
Si Si3 0.580416 0.849657 0.919499
Si Si4 0.032175 0.566382 0.803730
Si Si5 0.817773 0.337667 0.517016
Si Si6 0.522406 0.414232 0.602962
Si Si7 0.794657 0.750000 0.673526
Si Si8 0.004936 0.250000 0.842778
O O1 0.853290 0.544570 0.790703
O O2 0.598823 0.473666 0.697247
O O3 0.857327 0.472966 0.398072
O O4 0.892231 0.444199 0.905917
O O5 0.456565 0.800510 0.019032
O O6 0.278575 0.797600 0.676158
O O7 0.520109 0.895111 0.700360
O O8 0.704979 0.807270 0.765055
O O9 0.607952 0.886873 0.188500
O O10 0.056780 0.627336 0.672741
O O11 0.901402 0.302541 0.750215
O O12 0.688197 0.380902 0.635554
O O13 0.836825 0.750000 0.351030
O O14 0.953205 0.750000 0.844384
#
# Coordination Sequence:
#
# PCOD9157112 Si02
#       8
#     4   2   4   4   4   4   2   2
#     4   9  16  27  45  72 103 131 155 188 243 301
#     4   8  16  28  46  70  94 118 152 198 242 284
#     4  10  20  33  52  71  96 126 162 214 252 280
#     4   9  17  28  43  68 107 137 154 185 234 303
#     4   9  19  32  49  76 104 131 161 194 244 297
#     4  10  18  31  53  79  99 122 158 206 256 295
#     4  11  24  40  50  70  97 134 178 204 240 291
#     4  11  24  36  52  70 101 140 170 198 232 297
#
# _framework density 26.563431999999999
#
# number of rings (size 3 to 8) (size 9 to 14) (size 15 to 20)
#    0.000    2.462    0.000    3.692    0.000   12.923 
#    0.000    0.000    0.000    0.000    0.000    6.462 
#    0.000    0.000    0.000    0.000    0.000    0.000 
#
# Total GULP energy -144739.422481 kJ/mol
# GULP energy per Si atom -5566.900865 kJ/mol
# Density = 2.650297 g / cm^3
# Si number density = 26.563432 Si / 1000 Ang^3
#
#
#
# Elastic Constant Matrix: (Units=GPa)
#
#
# Indices 1 2 3 4 5 6 
#
# 1 49.8227 18.1087 -1.0068 0.0000 -1.7543 0.0000
# 2 18.1087 66.3824 3.3060 0.0000 8.8835 0.0000
# 3 -1.0068 3.3060 92.2654 0.0000 1.4968 0.0000
# 4 0.0000 0.0000 0.0000 -9.7243 0.0000 -30.5935
# 5 -1.7543 8.8835 1.4968 0.0000 37.6548 0.0000
# 6 0.0000 0.0000 0.0000 -30.5935 0.0000 21.2651
#
#
#
# Elastic Compliance Matrix: (Units=1/GPa)
#
#
# Indices 1 2 3 4 5 6 
#
# 1 0.022538 -0.006514 0.000438 0.000000 0.002569 0.000000
# 2 -0.006514 0.017461 -0.000625 0.000000 -0.004398 0.000000
# 3 0.000438 -0.000625 0.010870 0.000000 -0.000264 0.000000
# 4 0.000000 0.000000 0.000000 -0.018609 0.000000 -0.026772
# 5 0.002569 -0.004398 -0.000264 0.000000 0.027725 0.000000
# 6 0.000000 0.000000 0.000000 -0.026772 0.000000 0.008510
#
#
# Mechanical properties :
#
#
# Convention : Reuss Voigt Hill
#
# Bulk Modulus (GPa) = 26.69124 27.69848 27.19486
# Shear Modulus (GPa) = 52.97397 22.37663 37.67530
#
# Velocity S-wave (km/s) = 4.47054 2.90554 3.77014
# Velocity P-wave (km/s) = 6.05950 4.65898 5.40480
#
# Compressibility (1/GPa) = 0.03746548
#
# Stress axis : x y z
#
# Youngs Moduli (GPa) = 44.36944 57.27092 91.99830
#
# Poissons Ratio (x) = 0.37305 -0.04026
# Poissons Ratio (y) = 0.28902 0.05753
# Poissons Ratio (z) = -0.01942 0.03582
#
# Static dielectric constant tensor:
#      x y z
#    x 2.224870 0.000000 -0.095180 
#    y 0.000000 2.087640 0.000000 
#    z -0.095180 0.000000 1.993260 
# 
# From -- ./inp_files/3029.got.cif
#   From: 2010.05.17/outbox.cif.g08.bks.cpg/sg11_2_cif.got.tgz:3029.got - 2010.06.03 12:22:45.
