data_PCOD9157367
_publ_section_title
;
Structure prediction by ZEFSAII (Michael W. Deem and Ramdas Pophale) SiO2 
 PCOD9157367
Probable space group: P 21/M
;
_chemical_formula_sum "Si O2"
_cell_formula_units_Z 32
_cell_length_a 10.217301
_cell_length_b 10.575651
_cell_length_c 15.568195
_cell_angle_alpha 90.000000
_cell_angle_beta 93.286916
_cell_angle_gamma 90.000000
_cell_volume 1679.447880
_symmetry_space_group_name_H-M "P 21/M"
_symmetry_group_IT_number 11
_symmetry_cell_setting 'monoclinic'
loop_
_space_group_symop_operation_xyz
x,y,z
-x,1/2+y,-z
-x,-y,-z
x,1/2-y,z
loop_
_atom_site_type_symbol
_atom_site_label
_atom_site_fract_x
_atom_site_fract_y
_atom_site_fract_z
Si Si1 0.431880 0.605840 0.169020
Si Si2 0.307339 0.402275 0.892924
Si Si3 0.502116 0.392533 0.629098
Si Si4 0.719145 0.602506 0.605473
Si Si5 0.095558 0.402138 0.743347
Si Si6 0.166944 0.468690 0.209165
Si Si7 0.197677 0.101441 0.568310
Si Si8 0.898643 0.890030 0.974544
O O1 0.405527 0.750000 0.141173
O O2 0.545805 0.547098 0.114160
O O3 0.494270 0.607371 0.267218
O O4 0.294435 0.538161 0.176108
O O5 0.319602 0.250000 0.882446
O O6 0.207116 0.446908 0.814676
O O7 0.235802 0.422519 0.980499
O O8 0.545660 0.250000 0.603806
O O9 0.597512 0.504749 0.602671
O O10 0.353137 0.409972 0.593889
O O11 0.680682 0.750000 0.588664
O O12 0.787841 0.595232 0.700602
O O13 0.813634 0.558791 0.530760
O O14 0.105205 0.250000 0.741697
O O15 0.123401 0.453127 0.648190
O O16 0.953052 0.440285 0.770952
O O17 0.119088 0.385875 0.127942
O O18 0.163505 0.250000 0.565893
O O19 0.939618 0.750000 0.007886
O O20 0.000000 0.000000 0.000000
#
# Coordination Sequence:
#
# PCOD9157367 Si02
#       8
#     4   4   4   4   4   4   4   4
#     4   9  17  31  54  85 115 141 180 235 281 319
#     4   9  17  33  57  82 108 141 183 230 278 322
#     4   9  16  30  55  83 107 140 190 239 269 311
#     4  10  21  35  51  77 117 157 181 217 283 342
#     4  10  18  32  57  85 110 144 191 235 273 321
#     4  11  22  34  54  81 116 149 179 226 283 341
#     4   9  17  31  54  81 110 148 193 230 268 323
#     4  11  23  39  61  85 110 147 190 231 277 336
#
# _framework density 19.053882000000002
#
# number of rings (size 3 to 8) (size 9 to 14) (size 15 to 20)
#    0.000    2.250    2.500    1.125    0.000    2.000 
#    0.000    0.000    0.000    9.750    0.000    0.000 
#    0.000    0.000    0.000    0.000    0.000    0.000 
#
# Total GULP energy -178243.873365 kJ/mol
# GULP energy per Si atom -5570.121043 kJ/mol
# Density = 1.901051 g / cm^3
# Si number density = 19.053882 Si / 1000 Ang^3
#
#
#
# Elastic Constant Matrix: (Units=GPa)
#
#
# Indices 1 2 3 4 5 6 
#
# 1 83.9231 22.7258 39.9013 0.0000 -17.3606 0.0000
# 2 22.7258 49.8437 25.9671 0.0000 -4.7909 0.0000
# 3 39.9013 25.9671 104.6764 0.0000 -21.9881 0.0000
# 4 0.0000 0.0000 0.0000 4.4222 0.0000 -9.7327
# 5 -17.3606 -4.7909 -21.9881 0.0000 31.2045 0.0000
# 6 0.0000 0.0000 0.0000 -9.7327 0.0000 13.8699
#
#
#
# Elastic Compliance Matrix: (Units=1/GPa)
#
#
# Indices 1 2 3 4 5 6 
#
# 1 0.016193 -0.004871 -0.003790 0.000000 0.005591 0.000000
# 2 -0.004871 0.024515 -0.004699 0.000000 -0.002257 0.000000
# 3 -0.003790 -0.004699 0.013579 0.000000 0.006739 0.000000
# 4 0.000000 0.000000 0.000000 -0.415400 0.000000 -0.291492
# 5 0.005591 -0.002257 0.006739 0.000000 0.039559 0.000000
# 6 0.000000 0.000000 0.000000 -0.291492 0.000000 -0.132445
#
#
# Mechanical properties :
#
#
# Convention : Reuss Voigt Hill
#
# Bulk Modulus (GPa) = 36.27506 46.18129 41.22818
# Shear Modulus (GPa) = -11.95912 19.88926 3.96507
#
# Velocity S-wave (km/s) = -2.50801 3.23436 1.44412
# Velocity P-wave (km/s) = 3.26997 6.18368 4.94624
#
# Compressibility (1/GPa) = 0.02756715
#
# Stress axis : x y z
#
# Youngs Moduli (GPa) = 61.75438 40.79196 73.64353
#
# Poissons Ratio (x) = 0.19871 0.27909
# Poissons Ratio (y) = 0.30083 0.34602
# Poissons Ratio (z) = 0.23404 0.19166
#
# Static dielectric constant tensor:
#      x y z
#    x 1.662410 0.000000 0.002620 
#    y 0.000000 1.726270 0.000000 
#    z 0.002620 0.000000 1.719340 
# 
# From -- ./inp_files/29248.got.cif
#   From: 2010.05.17/outbox.cif.g08.bks.cpg/sg11_15_cif.got.tgz:29248.got - 2010.06.03 12:22:45.
