data_PCOD9157747
_publ_section_title
;
Structure prediction by ZEFSAII (Michael W. Deem and Ramdas Pophale) SiO2 
 PCOD9157747
Probable space group: P 21/M
;
_chemical_formula_sum "Si O2"
_cell_formula_units_Z 26
_cell_length_a 9.169750
_cell_length_b 20.384385
_cell_length_c 14.171607
_cell_angle_alpha 90.000000
_cell_angle_beta 30.630963
_cell_angle_gamma 90.000000
_cell_volume 1349.658614
_symmetry_space_group_name_H-M "P 21/M"
_symmetry_group_IT_number 11
_symmetry_cell_setting 'monoclinic'
loop_
_space_group_symop_operation_xyz
x,y,z
-x,1/2+y,-z
-x,-y,-z
x,1/2-y,z
loop_
_atom_site_type_symbol
_atom_site_label
_atom_site_fract_x
_atom_site_fract_y
_atom_site_fract_z
Si Si1 0.417904 0.175210 0.342667
Si Si2 0.489416 0.391476 0.733236
Si Si3 0.621913 0.750000 0.023345
Si Si4 0.041567 0.942017 0.399116
Si Si5 0.983776 0.371175 0.131428
Si Si6 0.287830 0.750000 0.389136
Si Si7 0.768129 0.029590 0.406149
Si Si8 0.387666 0.250000 0.188998
O O1 0.325804 0.250000 0.422522
O O2 0.185106 0.117780 0.471472
O O3 0.683518 0.154967 0.258846
O O4 0.499254 0.188103 0.187339
O O5 0.557538 0.316597 0.666011
O O6 0.620032 0.434156 0.577102
O O7 0.661568 0.409889 0.733377
O O8 0.160936 0.400544 0.944355
O O9 0.543294 0.750000 0.958057
O O10 0.819600 0.812120 0.939619
O O11 0.345181 0.750000 0.244681
O O12 0.986922 0.976967 0.329539
O O13 0.000000 0.000000 0.500000
O O14 0.927447 0.421567 0.246788
O O15 0.959474 0.750000 0.604333
O O16 0.500000 0.000000 0.500000
#
# Coordination Sequence:
#
# PCOD9157747 Si02
#       8
#     4   4   2   4   4   2   4   2
#     4  10  20  38  63  89 125 162 197 256 321 365
#     4  10  22  40  62  89 121 160 202 255 311 365
#     4  10  21  35  61  95 116 150 207 247 301 379
#     4  10  21  40  60  89 122 164 209 252 302 373
#     4  11  22  39  62  90 122 160 200 259 313 365
#     4  10  18  36  62  90 118 146 198 254 300 358
#     4  11  23  39  61  86 122 162 210 250 302 368
#     4  10  19  35  63  83 120 162 195 237 315 359
#
# _framework density 19.264130999999999
#
# number of rings (size 3 to 8) (size 9 to 14) (size 15 to 20)
#    0.462    1.231    3.846    0.923    2.154    1.231 
#    0.000    4.615    0.000    0.000    0.000    0.000 
#    0.000    0.000    0.000    0.000    0.000    0.000 
#
# Total GULP energy -144830.362921 kJ/mol
# GULP energy per Si atom -5570.398574 kJ/mol
# Density = 1.922029 g / cm^3
# Si number density = 19.264131 Si / 1000 Ang^3
#
#
#
# Elastic Constant Matrix: (Units=GPa)
#
#
# Indices 1 2 3 4 5 6 
#
# 1 78.3618 27.3254 11.4869 0.0000 -0.8309 0.0000
# 2 27.3254 97.9805 33.0698 0.0000 -4.9194 0.0000
# 3 11.4869 33.0698 49.0564 0.0000 3.8585 0.0000
# 4 0.0000 0.0000 0.0000 2.7728 0.0000 9.7141
# 5 -0.8309 -4.9194 3.8585 0.0000 31.3339 0.0000
# 6 0.0000 0.0000 0.0000 9.7141 0.0000 26.4488
#
#
#
# Elastic Compliance Matrix: (Units=1/GPa)
#
#
# Indices 1 2 3 4 5 6 
#
# 1 0.014163 -0.003674 -0.000832 0.000000 -0.000099 0.000000
# 2 -0.003674 0.014491 -0.009169 0.000000 0.003307 0.000000
# 3 -0.000832 -0.009169 0.027138 0.000000 -0.004803 0.000000
# 4 0.000000 0.000000 0.000000 -1.257892 0.000000 0.461997
# 5 -0.000099 0.003307 -0.004803 0.000000 0.033022 0.000000
# 6 0.000000 0.000000 0.000000 0.461997 0.000000 -0.131873
#
#
# Mechanical properties :
#
#
# Convention : Reuss Voigt Hill
#
# Bulk Modulus (GPa) = 35.15746 41.01810 38.08778
# Shear Modulus (GPa) = -3.95532 22.34554 9.19511
#
# Velocity S-wave (km/s) = -1.43446 3.40951 2.18713
# Velocity P-wave (km/s) = 3.94288 6.06946 5.11784
#
# Compressibility (1/GPa) = 0.02844347
#
# Stress axis : x y z
#
# Youngs Moduli (GPa) = 70.60436 69.00664 36.84862
#
# Poissons Ratio (x) = 0.25354 0.03065
# Poissons Ratio (y) = 0.25941 0.33785
# Poissons Ratio (z) = 0.05873 0.63270
#
# Static dielectric constant tensor:
#      x y z
#    x 1.680330 0.000000 0.007830 
#    y 0.000000 1.708910 0.000000 
#    z 0.007830 0.000000 1.659320 
# 
# From -- ./inp_files/23049.got.cif
#   From: 2010.05.17/outbox.cif.g08.bks.cpg/sg11_12_cif.got.tgz:23049.got - 2010.06.03 12:22:45.
