data_PCOD9157482
_publ_section_title
;
Structure prediction by ZEFSAII (Michael W. Deem and Ramdas Pophale) SiO2 
 PCOD9157482
Probable space group: P 21/M
;
_chemical_formula_sum "Si O2"
_cell_formula_units_Z 28
_cell_length_a 9.696060
_cell_length_b 8.618885
_cell_length_c 32.631344
_cell_angle_alpha 90.000000
_cell_angle_beta 145.430681
_cell_angle_gamma 90.000000
_cell_volume 1547.294148
_symmetry_space_group_name_H-M "P 21/M"
_symmetry_group_IT_number 11
_symmetry_cell_setting 'monoclinic'
loop_
_space_group_symop_operation_xyz
x,y,z
-x,1/2+y,-z
-x,-y,-z
x,1/2-y,z
loop_
_atom_site_type_symbol
_atom_site_label
_atom_site_fract_x
_atom_site_fract_y
_atom_site_fract_z
Si Si1 0.747710 0.930755 0.078713
Si Si2 0.169642 0.063815 0.504804
Si Si3 0.096402 0.435705 0.794063
Si Si4 0.635909 0.432145 0.900314
Si Si5 0.718806 0.565788 0.640100
Si Si6 0.974404 0.429409 0.060252
Si Si7 0.223507 0.935999 0.431084
O O1 0.701876 0.750000 0.074188
O O2 0.844306 0.992791 0.145543
O O3 0.943955 0.962582 0.091751
O O4 0.500000 0.000000 0.000000
O O5 0.162930 0.250000 0.503009
O O6 0.448988 0.006783 0.578659
O O7 0.098946 0.001255 0.441888
O O8 0.000000 0.000000 0.500000
O O9 0.044432 0.250000 0.782325
O O10 0.350166 0.457245 0.832269
O O11 0.880174 0.522573 0.718648
O O12 0.684266 0.250000 0.903531
O O13 0.778252 0.536383 0.903060
O O14 0.758963 0.462377 0.974784
O O15 0.693363 0.750000 0.628624
O O16 0.852796 0.495602 0.632501
O O17 0.955017 0.250000 0.067626
O O18 0.221941 0.750000 0.431807
O O19 0.500000 0.000000 0.500000
#
# Coordination Sequence:
#
# PCOD9157482 Si02
#       7
#     4   4   4   4   4   4   4
#     4  11  21  35  55  79 108 144 188 236 287 343
#     4  11  21  37  61  90 121 153 188 230 277 331
#     4  10  21  38  56  78 110 147 189 235 288 344
#     4   9  18  34  53  75 103 138 177 224 277 333
#     4  11  22  37  57  85 116 150 192 236 281 334
#     4  10  19  33  52  78 105 134 177 229 278 332
#     4  10  18  33  57  84 113 148 186 225 268 322
#
# _framework density 18.096105999999999
#
# number of rings (size 3 to 8) (size 9 to 14) (size 15 to 20)
#    0.000    1.714    1.429    6.429    0.000    2.286 
#    0.000    1.429    0.000    5.143    0.000    0.000 
#    0.000    0.000    0.000    0.000    0.000    0.000 
#
# Total GULP energy -156226.723810 kJ/mol
# GULP energy per Si atom -5579.525850 kJ/mol
# Density = 1.805492 g / cm^3
# Si number density = 18.096106 Si / 1000 Ang^3
#
#
#
# Elastic Constant Matrix: (Units=GPa)
#
#
# Indices 1 2 3 4 5 6 
#
# 1 100.1434 43.3229 39.0906 0.0000 -18.2466 0.0000
# 2 43.3229 109.5098 37.8805 0.0000 -9.7639 0.0000
# 3 39.0906 37.8805 92.0350 0.0000 -18.5141 0.0000
# 4 0.0000 0.0000 0.0000 25.3972 0.0000 -2.0048
# 5 -18.2466 -9.7639 -18.5141 0.0000 23.5249 0.0000
# 6 0.0000 0.0000 0.0000 -2.0048 0.0000 31.5499
#
#
#
# Elastic Compliance Matrix: (Units=1/GPa)
#
#
# Indices 1 2 3 4 5 6 
#
# 1 0.014120 -0.003935 -0.002974 0.000000 0.006978 0.000000
# 2 -0.003935 0.011771 -0.003332 0.000000 -0.000789 0.000000
# 3 -0.002974 -0.003332 0.015157 0.000000 0.008239 0.000000
# 4 0.000000 0.000000 0.000000 0.039573 0.000000 0.002515
# 5 0.006978 -0.000789 0.008239 0.000000 0.054078 0.000000
# 6 0.000000 0.000000 0.000000 0.002515 0.000000 0.031856
#
#
# Mechanical properties :
#
#
# Convention : Reuss Voigt Hill
#
# Bulk Modulus (GPa) = 48.62349 60.25291 54.43820
# Shear Modulus (GPa) = 25.78746 28.18732 26.98739
#
# Velocity S-wave (km/s) = 3.77905 3.95098 3.86597
# Velocity P-wave (km/s) = 6.78008 7.36085 7.07643
#
# Compressibility (1/GPa) = 0.02056619
#
# Stress axis : x y z
#
# Youngs Moduli (GPa) = 70.81903 84.95732 65.97422
#
# Poissons Ratio (x) = 0.33433 0.19620
# Poissons Ratio (y) = 0.27869 0.21982
# Poissons Ratio (z) = 0.21061 0.28307
#
# Static dielectric constant tensor:
#      x y z
#    x 1.639480 0.000000 -0.029320 
#    y 0.000000 1.634950 0.000000 
#    z -0.029320 0.000000 1.639440 
# 
# From -- ./inp_files/70892.got.cif
#   From: 2010.05.17/outbox.cif.g08.bks.cpg/sg11_36_cif.got.tgz:70892.got - 2010.06.03 12:22:45.
