data_PCOD9157946
_publ_section_title
;
Structure prediction by ZEFSAII (Michael W. Deem and Ramdas Pophale) SiO2 
 PCOD9157946
Probable space group: P 21/M
;
_chemical_formula_sum "Si O2"
_cell_formula_units_Z 32
_cell_length_a 21.847125
_cell_length_b 9.792206
_cell_length_c 11.887049
_cell_angle_alpha 90.000000
_cell_angle_beta 46.404182
_cell_angle_gamma 90.000000
_cell_volume 1841.707759
_symmetry_space_group_name_H-M "P 21/M"
_symmetry_group_IT_number 11
_symmetry_cell_setting 'monoclinic'
loop_
_space_group_symop_operation_xyz
x,y,z
-x,1/2+y,-z
-x,-y,-z
x,1/2-y,z
loop_
_atom_site_type_symbol
_atom_site_label
_atom_site_fract_x
_atom_site_fract_y
_atom_site_fract_z
Si Si1 0.313388 0.085477 0.462485
Si Si2 0.221418 0.593540 0.410382
Si Si3 0.633539 0.407227 0.963110
Si Si4 0.224854 0.912619 0.031811
Si Si5 0.916039 0.411587 0.603953
Si Si6 0.544255 0.892066 0.369218
Si Si7 0.519099 0.090820 0.804380
Si Si8 0.732083 0.903179 0.219764
O O1 0.324067 0.250000 0.434903
O O2 0.290604 0.059920 0.622701
O O3 0.239493 0.020179 0.480392
O O4 0.396621 0.000241 0.318255
O O5 0.218915 0.750000 0.458332
O O6 0.299402 0.588903 0.223241
O O7 0.138245 0.568562 0.441210
O O8 0.603542 0.250000 0.014218
O O9 0.689955 0.441826 0.002333
O O10 0.555649 0.508252 0.038335
O O11 0.225354 0.750000 0.012459
O O12 0.147003 0.946334 0.213125
O O13 0.218764 0.991511 0.921688
O O14 0.934883 0.250000 0.588073
O O15 0.000000 0.500000 0.500000
O O16 0.509113 0.750000 0.458045
O O17 0.519926 0.902115 0.271334
O O18 0.642656 0.895098 0.269060
O O19 0.500000 0.000000 0.500000
O O20 0.533815 0.250000 0.822794
O O21 0.769649 0.750000 0.172782
#
# Coordination Sequence:
#
# PCOD9157946 Si02
#       8
#     4   4   4   4   4   4   4   4
#     4  11  23  36  50  71 103 144 185 221 259 305
#     4   9  20  39  57  76 105 137 172 212 257 312
#     4   9  18  33  52  72  99 135 174 223 270 304
#     4   9  18  32  53  81 109 135 167 209 260 311
#     4   9  19  37  62  91 114 132 159 202 256 314
#     4  10  19  30  44  66  97 134 178 227 268 302
#     4  11  21  31  47  71  99 137 184 226 266 310
#     4  10  20  33  48  72 105 138 176 221 263 304
#
# _framework density 17.375177999999998
#
# number of rings (size 3 to 8) (size 9 to 14) (size 15 to 20)
#    0.000    2.250    2.500    2.250    0.000    4.000 
#    0.000    2.500    0.000    0.750    0.000    0.000 
#    0.000    0.000    0.000    0.000    0.000    0.000 
#
# Total GULP energy -178277.441781 kJ/mol
# GULP energy per Si atom -5571.170056 kJ/mol
# Density = 1.733563 g / cm^3
# Si number density = 17.375178 Si / 1000 Ang^3
#
#
#
# Elastic Constant Matrix: (Units=GPa)
#
#
# Indices 1 2 3 4 5 6 
#
# 1 79.2361 56.2214 41.7635 0.0000 -4.4561 0.0000
# 2 56.2214 99.7502 50.7559 0.0000 -9.9979 0.0000
# 3 41.7635 50.7559 52.4084 0.0000 -10.0087 0.0000
# 4 0.0000 0.0000 0.0000 31.7410 0.0000 -2.8600
# 5 -4.4561 -9.9979 -10.0087 0.0000 19.8222 0.0000
# 6 0.0000 0.0000 0.0000 -2.8600 0.0000 25.5356
#
#
#
# Elastic Compliance Matrix: (Units=1/GPa)
#
#
# Indices 1 2 3 4 5 6 
#
# 1 0.024809 -0.007765 -0.013206 0.000000 -0.005007 0.000000
# 2 -0.007765 0.022197 -0.014946 0.000000 0.001904 0.000000
# 3 -0.013206 -0.014946 0.046562 0.000000 0.013003 0.000000
# 4 0.000000 0.000000 0.000000 0.031826 0.000000 0.003565
# 5 -0.005007 0.001904 0.013003 0.000000 0.056849 0.000000
# 6 0.000000 0.000000 0.000000 0.003565 0.000000 0.039560
#
#
# Mechanical properties :
#
#
# Convention : Reuss Voigt Hill
#
# Bulk Modulus (GPa) = 46.00910 58.76402 52.38656
# Shear Modulus (GPa) = 16.61772 20.93002 18.77387
#
# Velocity S-wave (km/s) = 3.09594 3.47449 3.29066
# Velocity P-wave (km/s) = 6.27033 7.07038 6.68234
#
# Compressibility (1/GPa) = 0.02173483
#
# Stress axis : x y z
#
# Youngs Moduli (GPa) = 40.30748 45.05017 21.47655
#
# Poissons Ratio (x) = 0.34983 0.28362
# Poissons Ratio (y) = 0.31300 0.32099
# Poissons Ratio (z) = 0.53230 0.67331
#
# Static dielectric constant tensor:
#      x y z
#    x 1.589160 0.000000 0.025000 
#    y 0.000000 1.617900 0.000000 
#    z 0.025000 0.000000 1.579410 
# 
# From -- ./inp_files/42837.got.cif
#   From: 2010.05.17/outbox.cif.g08.bks.cpg/sg11_22_cif.got.tgz:42837.got - 2010.06.03 12:22:45.
