data_PCOD9157810
_publ_section_title
;
Structure prediction by ZEFSAII (Michael W. Deem and Ramdas Pophale) SiO2 
 PCOD9157810
Probable space group: P 21/M
;
_chemical_formula_sum "Si O2"
_cell_formula_units_Z 30
_cell_length_a 5.231108
_cell_length_b 15.171730
_cell_length_c 16.612387
_cell_angle_alpha 90.000000
_cell_angle_beta 64.326723
_cell_angle_gamma 90.000000
_cell_volume 1188.283788
_symmetry_space_group_name_H-M "P 21/M"
_symmetry_group_IT_number 11
_symmetry_cell_setting 'monoclinic'
loop_
_space_group_symop_operation_xyz
x,y,z
-x,1/2+y,-z
-x,-y,-z
x,1/2-y,z
loop_
_atom_site_type_symbol
_atom_site_label
_atom_site_fract_x
_atom_site_fract_y
_atom_site_fract_z
Si Si1 0.267617 0.096455 0.698177
Si Si2 0.279569 0.982952 0.139957
Si Si3 0.742566 0.750000 0.171894
Si Si4 0.923433 0.399187 0.979388
Si Si5 0.267778 0.355651 0.514083
Si Si6 0.910937 0.143623 0.408363
Si Si7 0.939202 0.154677 0.150850
Si Si8 0.438971 0.054480 0.271223
O O1 0.347311 0.175086 0.747433
O O2 0.213205 0.119602 0.613442
O O3 0.973991 0.061578 0.775492
O O4 0.500717 0.020395 0.672706
O O5 0.311225 0.920755 0.058044
O O6 0.505585 0.003693 0.177759
O O7 0.167881 0.078233 0.129112
O O8 0.857767 0.830626 0.094472
O O9 0.838541 0.349789 0.072016
O O10 0.000000 0.500000 0.000000
O O11 0.275826 0.250000 0.510976
O O12 0.035335 0.380714 0.479692
O O13 0.585816 0.384688 0.447377
O O14 0.929045 0.250000 0.396182
O O15 0.128963 0.095436 0.319078
O O16 0.056051 0.250000 0.154552
O O17 0.669546 0.131639 0.242830
#
# Coordination Sequence:
#
# PCOD9157810 Si02
#       8
#     4   4   2   4   4   4   4   4
#     4  10  22  39  65  92 128 173 223 275 347 409
#     4   9  22  39  59  91 129 169 212 278 334 410
#     4  10  18  40  68  96 128 176 224 280 340 412
#     4   9  18  37  66  93 128 172 217 269 346 414
#     4  10  22  43  66  98 134 181 230 290 345 421
#     4  10  24  42  67  97 139 182 229 285 350 413
#     4  10  20  37  64  90 123 172 218 270 335 410
#     4  11  24  40  59  95 131 172 222 284 341 413
#
# _framework density 25.246490999999999
#
# number of rings (size 3 to 8) (size 9 to 14) (size 15 to 20)
#    0.000    2.133    1.333    1.200    5.600    2.667 
#    0.000    2.667    5.867    0.000    0.000    0.000 
#    0.000    0.000    0.000    0.000    0.000    0.000 
#
# Total GULP energy -167172.153761 kJ/mol
# GULP energy per Si atom -5572.405125 kJ/mol
# Density = 2.518903 g / cm^3
# Si number density = 25.246491 Si / 1000 Ang^3
#
#
#
# Elastic Constant Matrix: (Units=GPa)
#
#
# Indices 1 2 3 4 5 6 
#
# 1 43.8231 16.9139 21.7300 0.0000 13.6189 0.0000
# 2 16.9139 121.2161 56.2485 0.0000 -0.8593 0.0000
# 3 21.7300 56.2485 118.3811 0.0000 12.7500 0.0000
# 4 0.0000 0.0000 0.0000 43.3844 0.0000 7.9217
# 5 13.6189 -0.8593 12.7500 0.0000 40.2113 0.0000
# 6 0.0000 0.0000 0.0000 7.9217 0.0000 16.1759
#
#
#
# Elastic Compliance Matrix: (Units=1/GPa)
#
#
# Indices 1 2 3 4 5 6 
#
# 1 0.027959 -0.002578 -0.002983 0.000000 -0.008578 0.000000
# 2 -0.002578 0.010961 -0.005026 0.000000 0.002701 0.000000
# 3 -0.002983 -0.005026 0.011685 0.000000 -0.002802 0.000000
# 4 0.000000 0.000000 0.000000 0.025313 0.000000 -0.012396
# 5 -0.008578 0.002701 -0.002802 0.000000 0.028720 0.000000
# 6 0.000000 0.000000 0.000000 -0.012396 0.000000 0.067891
#
#
# Mechanical properties :
#
#
# Convention : Reuss Voigt Hill
#
# Bulk Modulus (GPa) = 33.97796 52.57835 43.27816
# Shear Modulus (GPa) = 24.56848 32.52286 28.54567
#
# Velocity S-wave (km/s) = 3.12291 3.59306 3.36620
# Velocity P-wave (km/s) = 5.14695 6.17128 5.68224
#
# Compressibility (1/GPa) = 0.02943084
#
# Stress axis : x y z
#
# Youngs Moduli (GPa) = 35.76648 91.23576 85.58258
#
# Poissons Ratio (x) = 0.23517 0.25533
# Poissons Ratio (y) = 0.09219 0.43011
# Poissons Ratio (z) = 0.10671 0.45852
#
# Static dielectric constant tensor:
#      x y z
#    x 2.040200 0.000000 0.041020 
#    y 0.000000 1.966310 0.000000 
#    z 0.041020 0.000000 2.017070 
# 
# From -- ./inp_files/57042.got.cif
#   From: 2010.05.17/outbox.cif.g08.bks.cpg/sg11_29_cif.got.tgz:57042.got - 2010.06.03 12:22:45.
