data_PCOD9157263
_publ_section_title
;
Structure prediction by ZEFSAII (Michael W. Deem and Ramdas Pophale) SiO2 
 PCOD9157263
Probable space group: P 21/M
;
_chemical_formula_sum "Si O2"
_cell_formula_units_Z 26
_cell_length_a 9.882103
_cell_length_b 20.330507
_cell_length_c 8.046689
_cell_angle_alpha 90.000000
_cell_angle_beta 135.395856
_cell_angle_gamma 90.000000
_cell_volume 1135.215836
_symmetry_space_group_name_H-M "P 21/M"
_symmetry_group_IT_number 11
_symmetry_cell_setting 'monoclinic'
loop_
_space_group_symop_operation_xyz
x,y,z
-x,1/2+y,-z
-x,-y,-z
x,1/2-y,z
loop_
_atom_site_type_symbol
_atom_site_label
_atom_site_fract_x
_atom_site_fract_y
_atom_site_fract_z
Si Si1 0.261348 0.029974 0.587619
Si Si2 0.725501 0.894876 0.070706
Si Si3 0.244305 0.250000 0.814270
Si Si4 0.703859 0.250000 0.258025
Si Si5 0.348571 0.989110 0.220227
Si Si6 0.044122 0.893011 0.861023
Si Si7 0.263189 0.610878 0.695850
Si Si8 0.985601 0.750000 0.738166
O O1 0.200911 0.066529 0.703177
O O2 0.147234 0.065178 0.341432
O O3 0.492838 0.034009 0.778236
O O4 0.206963 0.953687 0.546801
O O5 0.803693 0.820265 0.141621
O O6 0.746831 0.944034 0.933814
O O7 0.495238 0.890304 0.897968
O O8 0.160850 0.250000 0.550674
O O9 0.477469 0.250000 0.023988
O O10 0.773498 0.183657 0.406625
O O11 0.806655 0.250000 0.169337
O O12 0.500000 0.000000 0.500000
O O13 0.189936 0.932659 0.106608
O O14 0.162487 0.892513 0.788071
O O15 0.979302 0.817965 0.833831
#
# Coordination Sequence:
#
# PCOD9157263 Si02
#       8
#     4   4   2   2   4   4   4   2
#     4  11  19  33  60  82 108 139 188 240 281 322
#     4  10  18  35  58  82 111 141 183 235 286 329
#     4  10  18  32  53  84 114 133 175 241 292 327
#     4   8  18  26  44  72 119 137 160 208 291 335
#     4  11  24  39  53  80 118 154 192 227 268 338
#     4  11  20  33  57  82 112 144 180 230 289 324
#     4   9  16  30  49  83 107 137 172 230 279 329
#     4  10  20  30  51  88 113 132 179 235 285 338
#
# _framework density 22.903134000000001
#
# number of rings (size 3 to 8) (size 9 to 14) (size 15 to 20)
#    0.000    1.846    4.615    1.385    0.000    0.615 
#    0.000    0.769    0.000    0.000    0.000    0.000 
#    0.000    0.000    0.000    0.000    0.000    0.000 
#
# Total GULP energy -145008.456762 kJ/mol
# GULP energy per Si atom -5577.248337 kJ/mol
# Density = 2.285101 g / cm^3
# Si number density = 22.903134 Si / 1000 Ang^3
#
#
#
# Elastic Constant Matrix: (Units=GPa)
#
#
# Indices 1 2 3 4 5 6 
#
# 1 30.8054 6.4396 11.9846 0.0000 10.2261 0.0000
# 2 6.4396 247.1943 78.9539 0.0000 -3.9100 0.0000
# 3 11.9846 78.9539 120.6735 0.0000 10.7314 0.0000
# 4 0.0000 0.0000 0.0000 -5.5141 0.0000 1.6842
# 5 10.2261 -3.9100 10.7314 0.0000 42.0069 0.0000
# 6 0.0000 0.0000 0.0000 1.6842 0.0000 3.0296
#
#
#
# Elastic Compliance Matrix: (Units=1/GPa)
#
#
# Indices 1 2 3 4 5 6 
#
# 1 0.036277 -0.000195 -0.002751 0.000000 -0.008147 0.000000
# 2 -0.000195 0.005192 -0.003505 0.000000 0.001426 0.000000
# 3 -0.002751 -0.003505 0.011074 0.000000 -0.002486 0.000000
# 4 0.000000 0.000000 0.000000 -0.155031 0.000000 0.086184
# 5 -0.008147 0.001426 -0.002486 0.000000 0.026557 0.000000
# 6 0.000000 0.000000 0.000000 0.086184 0.000000 0.282165
#
#
# Mechanical properties :
#
#
# Convention : Reuss Voigt Hill
#
# Bulk Modulus (GPa) = 25.22551 65.93661 45.58106
# Shear Modulus (GPa) = 21.51925 27.99083 24.75504
#
# Velocity S-wave (km/s) = 3.06858 3.49970 3.29121
# Velocity P-wave (km/s) = 4.85724 6.72179 5.86409
#
# Compressibility (1/GPa) = 0.03964242
#
# Stress axis : x y z
#
# Youngs Moduli (GPa) = 27.56557 192.58685 90.30071
#
# Poissons Ratio (x) = 0.03763 0.24837
# Poissons Ratio (y) = 0.00539 0.31648
# Poissons Ratio (z) = 0.07582 0.67497
#
# Static dielectric constant tensor:
#      x y z
#    x 1.913560 0.000000 -0.018550 
#    y 0.000000 1.937010 0.000000 
#    z -0.018550 0.000000 1.853110 
# 
# From -- ./inp_files/13563.got.cif
#   From: 2010.05.17/outbox.cif.g08.bks.cpg/sg11_7_cif.got.tgz:13563.got - 2010.06.03 12:22:45.
