data_PCOD9157541
_publ_section_title
;
Structure prediction by ZEFSAII (Michael W. Deem and Ramdas Pophale) SiO2 
 PCOD9157541
Probable space group: P 21/M
;
_chemical_formula_sum "Si O2"
_cell_formula_units_Z 32
_cell_length_a 16.125797
_cell_length_b 18.732417
_cell_length_c 9.168979
_cell_angle_alpha 90.000000
_cell_angle_beta 145.701716
_cell_angle_gamma 90.000000
_cell_volume 1560.741259
_symmetry_space_group_name_H-M "P 21/M"
_symmetry_group_IT_number 11
_symmetry_cell_setting 'monoclinic'
loop_
_space_group_symop_operation_xyz
x,y,z
-x,1/2+y,-z
-x,-y,-z
x,1/2-y,z
loop_
_atom_site_type_symbol
_atom_site_label
_atom_site_fract_x
_atom_site_fract_y
_atom_site_fract_z
Si Si1 0.823083 0.050305 0.266003
Si Si2 0.883635 0.583722 0.851982
Si Si3 0.397841 0.631095 0.857551
Si Si4 0.972069 0.477792 0.209023
Si Si5 0.430829 0.125879 0.629968
Si Si6 0.542137 0.537018 0.824770
Si Si7 0.825969 0.171961 0.711731
Si Si8 0.562439 0.332401 0.523241
O O1 0.720001 0.106991 0.193591
O O2 0.885316 0.070512 0.198565
O O3 0.949618 0.032004 0.565285
O O4 0.714230 0.982270 0.088235
O O5 0.741627 0.632759 0.654105
O O6 0.905735 0.557208 0.717814
O O7 0.867923 0.518640 0.943057
O O8 0.041625 0.617908 0.119753
O O9 0.469659 0.567469 0.867160
O O10 0.299672 0.671005 0.595511
O O11 0.527010 0.658050 0.150821
O O12 0.526181 0.159324 0.639602
O O13 0.464954 0.039567 0.679642
O O14 0.518653 0.601398 0.675759
O O15 0.893009 0.250000 0.817363
O O16 0.731875 0.157756 0.720618
O O17 0.523596 0.250000 0.422033
#
# Coordination Sequence:
#
# PCOD9157541 Si02
#       8
#     4   4   4   4   4   4   4   4
#     4  10  18  34  53  90 117 155 184 247 300 356
#     4  11  22  36  57  91 118 159 188 247 306 351
#     4  10  20  37  59  85 119 157 198 246 298 361
#     4  10  21  31  56  84 130 144 189 237 309 357
#     4  11  22  35  64  94 121 149 201 258 303 345
#     4  10  20  35  61  87 124 151 203 245 306 360
#     4  10  23  42  61  79 117 167 206 237 296 375
#     4  10  23  40  58  85 119 161 202 246 297 363
#
# _framework density 20.503077999999999
#
# number of rings (size 3 to 8) (size 9 to 14) (size 15 to 20)
#    0.000    1.750    1.250    4.125    8.750    1.000 
#    0.000    0.000    0.000    2.250    0.000    0.000 
#    0.000    0.000    0.000    0.000    0.000    0.000 
#
# Total GULP energy -178305.578029 kJ/mol
# GULP energy per Si atom -5572.049313 kJ/mol
# Density = 2.045641 g / cm^3
# Si number density = 20.503078 Si / 1000 Ang^3
#
#
#
# Elastic Constant Matrix: (Units=GPa)
#
#
# Indices 1 2 3 4 5 6 
#
# 1 120.4883 13.9997 25.3308 0.0000 -20.4927 0.0000
# 2 13.9997 52.4285 17.2866 0.0000 -8.3277 0.0000
# 3 25.3308 17.2866 78.4563 0.0000 -4.4450 0.0000
# 4 0.0000 0.0000 0.0000 6.1614 0.0000 3.6454
# 5 -20.4927 -8.3277 -4.4450 0.0000 26.6859 0.0000
# 6 0.0000 0.0000 0.0000 3.6454 0.0000 14.2162
#
#
#
# Elastic Compliance Matrix: (Units=1/GPa)
#
#
# Indices 1 2 3 4 5 6 
#
# 1 0.010167 -0.000681 -0.002728 0.000000 0.007140 0.000000
# 2 -0.000681 0.021515 -0.004210 0.000000 0.005490 0.000000
# 3 -0.002728 -0.004210 0.014498 0.000000 -0.000994 0.000000
# 4 0.000000 0.000000 0.000000 0.191327 0.000000 -0.049061
# 5 0.007140 0.005490 -0.000994 0.000000 0.044504 0.000000
# 6 0.000000 0.000000 0.000000 -0.049061 0.000000 0.082923
#
#
# Mechanical properties :
#
#
# Convention : Reuss Voigt Hill
#
# Bulk Modulus (GPa) = 32.31775 40.51191 36.41483
# Shear Modulus (GPa) = 12.80458 22.39645 17.60051
#
# Velocity S-wave (km/s) = 2.50175 3.30865 2.93308
# Velocity P-wave (km/s) = 4.91341 5.86499 5.41016
#
# Compressibility (1/GPa) = 0.03094274
#
# Stress axis : x y z
#
# Youngs Moduli (GPa) = 98.36135 46.47815 68.97554
#
# Poissons Ratio (x) = 0.03166 0.18815
# Poissons Ratio (y) = 0.06700 0.29036
# Poissons Ratio (z) = 0.26831 0.19566
#
# Static dielectric constant tensor:
#      x y z
#    x 1.742990 0.000000 0.001510 
#    y 0.000000 1.839820 0.000000 
#    z 0.001510 0.000000 1.791610 
# 
# From -- ./inp_files/23123.got.cif
#   From: 2010.05.17/outbox.cif.g08.bks.cpg/sg11_12_cif.got.tgz:23123.got - 2010.06.03 12:22:45.
