data_PCOD9157269
_publ_section_title
;
Structure prediction by ZEFSAII (Michael W. Deem and Ramdas Pophale) SiO2 
 PCOD9157269
Probable space group: P 21/M
;
_chemical_formula_sum "Si O2"
_cell_formula_units_Z 28
_cell_length_a 13.517447
_cell_length_b 7.824212
_cell_length_c 13.990956
_cell_angle_alpha 90.000000
_cell_angle_beta 60.776265
_cell_angle_gamma 90.000000
_cell_volume 1291.390410
_symmetry_space_group_name_H-M "P 21/M"
_symmetry_group_IT_number 11
_symmetry_cell_setting 'monoclinic'
loop_
_space_group_symop_operation_xyz
x,y,z
-x,1/2+y,-z
-x,-y,-z
x,1/2-y,z
loop_
_atom_site_type_symbol
_atom_site_label
_atom_site_fract_x
_atom_site_fract_y
_atom_site_fract_z
Si Si1 0.264589 0.048458 0.969221
Si Si2 0.357048 0.452735 0.637786
Si Si3 0.069757 0.545019 0.180329
Si Si4 0.514820 0.443953 0.234051
Si Si5 0.681250 0.539540 0.553653
Si Si6 0.129282 0.046515 0.851223
Si Si7 0.941014 0.544351 0.428946
O O1 0.745984 0.750000 0.031395
O O2 0.395934 0.012894 0.884995
O O3 0.190166 0.971552 0.916165
O O4 0.200048 0.993173 0.095043
O O5 0.382959 0.250000 0.633931
O O6 0.419790 0.545917 0.694560
O O7 0.374301 0.512861 0.521607
O O8 0.222861 0.468956 0.723525
O O9 0.058319 0.750000 0.185858
O O10 0.988525 0.475977 0.133048
O O11 0.016505 0.480693 0.304360
O O12 0.493940 0.250000 0.216145
O O13 0.393770 0.521952 0.321313
O O14 0.679240 0.750000 0.554529
O O15 0.811111 0.482717 0.492173
O O16 0.113884 0.250000 0.874636
O O17 0.934793 0.750000 0.422832
O O18 0.000000 0.500000 0.500000
#
# Coordination Sequence:
#
# PCOD9157269 Si02
#       7
#     4   4   4   4   4   4   4
#     4  10  20  32  48  73 107 142 174 210 253 301
#     4   9  15  28  48  72 104 140 174 208 252 305
#     4  10  18  32  54  74  99 136 174 212 257 310
#     4  10  19  30  47  75 107 141 178 208 243 305
#     4   9  17  32  54  74 101 140 174 209 260 314
#     4   8  14  26  46  71 100 136 171 202 244 301
#     4  10  21  38  59  81 104 133 171 219 270 314
#
# _framework density 21.682058000000001
#
# number of rings (size 3 to 8) (size 9 to 14) (size 15 to 20)
#    0.000    2.571    1.429    2.571    0.000    0.571 
#    0.000    5.714    0.000    0.857    0.000    0.000 
#    0.000    0.000    0.000    0.000    0.000    0.000 
#
# Total GULP energy -156114.330548 kJ/mol
# GULP energy per Si atom -5575.511805 kJ/mol
# Density = 2.163271 g / cm^3
# Si number density = 21.682058 Si / 1000 Ang^3
#
#
#
# Elastic Constant Matrix: (Units=GPa)
#
#
# Indices 1 2 3 4 5 6 
#
# 1 38.2554 -1.9353 43.0532 0.0000 -13.3323 0.0000
# 2 -1.9353 28.2748 14.2234 0.0000 -5.5633 0.0000
# 3 43.0532 14.2234 170.0870 0.0000 -46.2818 0.0000
# 4 0.0000 0.0000 0.0000 17.9030 0.0000 1.9253
# 5 -13.3323 -5.5633 -46.2818 0.0000 23.6370 0.0000
# 6 0.0000 0.0000 0.0000 1.9253 0.0000 12.0207
#
#
#
# Elastic Compliance Matrix: (Units=1/GPa)
#
#
# Indices 1 2 3 4 5 6 
#
# 1 0.038649 0.008333 -0.008592 0.000000 0.006937 0.000000
# 2 0.008333 0.039074 -0.003415 0.000000 0.007211 0.000000
# 3 -0.008592 -0.003415 0.014560 0.000000 0.022858 0.000000
# 4 0.000000 0.000000 0.000000 0.056836 0.000000 -0.009103
# 5 0.006937 0.007211 0.022858 0.000000 0.092673 0.000000
# 6 0.000000 0.000000 0.000000 -0.009103 0.000000 0.084648
#
#
# Mechanical properties :
#
#
# Convention : Reuss Voigt Hill
#
# Bulk Modulus (GPa) = 11.77384 38.58888 25.18136
# Shear Modulus (GPa) = 13.80838 22.79719 18.30278
#
# Velocity S-wave (km/s) = 2.52634 3.24610 2.90857
# Velocity P-wave (km/s) = 3.73522 5.64675 4.78736
#
# Compressibility (1/GPa) = 0.08493404
#
# Stress axis : x y z
#
# Youngs Moduli (GPa) = 25.87386 25.59248 68.68322
#
# Poissons Ratio (x) = -0.21325 0.59014
# Poissons Ratio (y) = -0.21559 0.23453
# Poissons Ratio (z) = 0.22231 0.08739
#
# Static dielectric constant tensor:
#      x y z
#    x 1.796170 0.000000 -0.056780 
#    y 0.000000 1.783670 0.000000 
#    z -0.056780 0.000000 1.866820 
# 
# From -- ./inp_files/49153.got.cif
#   From: 2010.05.17/outbox.cif.g08.bks.cpg/sg11_25_cif.got.tgz:49153.got - 2010.06.03 12:22:45.
