data_PCOD9157624
_publ_section_title
;
Structure prediction by ZEFSAII (Michael W. Deem and Ramdas Pophale) SiO2 
 PCOD9157624
Probable space group: P 21/M
;
_chemical_formula_sum "Si O2"
_cell_formula_units_Z 32
_cell_length_a 10.700053
_cell_length_b 19.414894
_cell_length_c 8.189762
_cell_angle_alpha 90.000000
_cell_angle_beta 57.241303
_cell_angle_gamma 90.000000
_cell_volume 1430.757285
_symmetry_space_group_name_H-M "P 21/M"
_symmetry_group_IT_number 11
_symmetry_cell_setting 'monoclinic'
loop_
_space_group_symop_operation_xyz
x,y,z
-x,1/2+y,-z
-x,-y,-z
x,1/2-y,z
loop_
_atom_site_type_symbol
_atom_site_label
_atom_site_fract_x
_atom_site_fract_y
_atom_site_fract_z
Si Si1 0.813250 0.603537 0.941957
Si Si2 0.915998 0.828178 0.307240
Si Si3 0.046422 0.675142 0.581937
Si Si4 0.585532 0.433473 0.359749
Si Si5 0.126439 0.551285 0.045659
Si Si6 0.843261 0.458627 0.604850
Si Si7 0.384644 0.329835 0.642404
Si Si8 0.597596 0.949760 0.817801
O O1 0.928985 0.661394 0.807162
O O2 0.898952 0.532015 0.927338
O O3 0.706167 0.590982 0.861682
O O4 0.702813 0.628738 0.157416
O O5 0.955053 0.750000 0.220695
O O6 0.965038 0.831171 0.461854
O O7 0.738438 0.834116 0.415826
O O8 0.998443 0.889958 0.149998
O O9 0.115170 0.750000 0.544693
O O10 0.150427 0.609502 0.504309
O O11 0.500000 0.500000 0.500000
O O12 0.537352 0.368342 0.499819
O O13 0.510356 0.417119 0.236261
O O14 0.756867 0.441260 0.184694
O O15 0.195282 0.560336 0.180574
O O16 0.716072 0.506946 0.628402
O O17 0.000000 0.500000 0.500000
O O18 0.404745 0.250000 0.669047
O O19 0.500000 0.000000 0.000000
#
# Coordination Sequence:
#
# PCOD9157624 Si02
#       8
#     4   4   4   4   4   4   4   4
#     4  11  20  37  59  89 118 155 199 248 297 346
#     4   9  21  39  60  89 120 154 194 249 303 358
#     4  10  19  34  58  85 117 152 192 240 298 358
#     4  12  23  41  60  90 122 161 204 245 302 361
#     4  10  20  36  59  90 117 153 201 242 300 353
#     4  10  18  34  59  89 117 149 196 249 299 348
#     4  11  24  40  60  86 121 159 200 246 301 360
#     4  11  20  37  62  88 120 154 199 252 297 349
#
# _framework density 22.365779
#
# number of rings (size 3 to 8) (size 9 to 14) (size 15 to 20)
#    0.000    1.500    6.250    1.125    1.750    1.000 
#    2.250    0.625    0.000    3.750    0.000    0.000 
#    0.000    0.000    0.000    0.000    0.000    0.000 
#
# Total GULP energy -178515.319152 kJ/mol
# GULP energy per Si atom -5578.603723 kJ/mol
# Density = 2.231487 g / cm^3
# Si number density = 22.365779 Si / 1000 Ang^3
#
#
#
# Elastic Constant Matrix: (Units=GPa)
#
#
# Indices 1 2 3 4 5 6 
#
# 1 50.4949 13.6574 1.4647 0.0000 -3.3063 0.0000
# 2 13.6574 130.0278 42.1347 0.0000 -10.2416 0.0000
# 3 1.4647 42.1347 116.5374 0.0000 -14.4968 0.0000
# 4 0.0000 0.0000 0.0000 35.9828 0.0000 -7.7157
# 5 -3.3063 -10.2416 -14.4968 0.0000 29.5836 0.0000
# 6 0.0000 0.0000 0.0000 -7.7157 0.0000 18.5246
#
#
#
# Elastic Compliance Matrix: (Units=1/GPa)
#
#
# Indices 1 2 3 4 5 6 
#
# 1 0.020518 -0.002264 0.000797 0.000000 0.001900 0.000000
# 2 -0.002264 0.009030 -0.003066 0.000000 0.001371 0.000000
# 3 0.000797 -0.003066 0.010179 0.000000 0.004016 0.000000
# 4 0.000000 0.000000 0.000000 0.030517 0.000000 0.012710
# 5 0.001900 0.001371 0.004016 0.000000 0.036457 0.000000
# 6 0.000000 0.000000 0.000000 0.012710 0.000000 0.059276
#
#
# Mechanical properties :
#
#
# Convention : Reuss Voigt Hill
#
# Bulk Modulus (GPa) = 32.61455 45.73041 39.17248
# Shear Modulus (GPa) = 26.98886 32.80510 29.89698
#
# Velocity S-wave (km/s) = 3.47753 3.83398 3.66010
# Velocity P-wave (km/s) = 5.54421 6.33168 5.95099
#
# Compressibility (1/GPa) = 0.03066117
#
# Stress axis : x y z
#
# Youngs Moduli (GPa) = 48.73886 110.74383 98.24226
#
# Poissons Ratio (x) = 0.25068 -0.07829
# Poissons Ratio (y) = 0.11033 0.30119
# Poissons Ratio (z) = -0.03884 0.33952
#
# Static dielectric constant tensor:
#      x y z
#    x 1.942350 0.000000 0.045080 
#    y 0.000000 1.880990 0.000000 
#    z 0.045080 0.000000 1.837430 
# 
# From -- ./inp_files/19370.got.cif
#   From: 2010.05.17/outbox.cif.g08.bks.cpg/sg11_10_cif.got.tgz:19370.got - 2010.06.03 12:22:45.
