data_PCOD9157463
_publ_section_title
;
Structure prediction by ZEFSAII (Michael W. Deem and Ramdas Pophale) SiO2 
 PCOD9157463
Probable space group: P 21/M
;
_chemical_formula_sum "Si O2"
_cell_formula_units_Z 28
_cell_length_a 18.970134
_cell_length_b 8.575656
_cell_length_c 9.942380
_cell_angle_alpha 90.000000
_cell_angle_beta 115.305953
_cell_angle_gamma 90.000000
_cell_volume 1462.227214
_symmetry_space_group_name_H-M "P 21/M"
_symmetry_group_IT_number 11
_symmetry_cell_setting 'monoclinic'
loop_
_space_group_symop_operation_xyz
x,y,z
-x,1/2+y,-z
-x,-y,-z
x,1/2-y,z
loop_
_atom_site_type_symbol
_atom_site_label
_atom_site_fract_x
_atom_site_fract_y
_atom_site_fract_z
Si Si1 0.635954 0.435226 0.892997
Si Si2 0.236715 0.438836 0.205847
Si Si3 0.477257 0.563896 0.833661
Si Si4 0.319216 0.062785 0.776805
Si Si5 0.066753 0.063474 0.955563
Si Si6 0.984370 0.937265 0.635154
Si Si7 0.192857 0.060482 0.465057
O O1 0.628281 0.250000 0.892275
O O2 0.669326 0.493187 0.064963
O O3 0.694565 0.487694 0.824709
O O4 0.549947 0.509024 0.803841
O O5 0.243249 0.250000 0.204820
O O6 0.233871 0.487280 0.359722
O O7 0.152746 0.482913 0.074548
O O8 0.472423 0.750000 0.831735
O O9 0.392215 0.490744 0.744132
O O10 0.500000 0.500000 0.000000
O O11 0.320502 0.250000 0.790392
O O12 0.240951 0.012310 0.636002
O O13 0.063658 0.250000 0.955921
O O14 0.046267 0.002576 0.791317
O O15 0.000000 0.000000 0.000000
O O16 0.986660 0.750000 0.638968
O O17 0.897134 0.988675 0.606766
O O18 0.000000 0.000000 0.500000
O O19 0.192450 0.250000 0.464831
#
# Coordination Sequence:
#
# PCOD9157463 Si02
#       7
#     4   4   4   4   4   4   4
#     4  11  22  36  56  87 117 146 189 237 280 334
#     4  10  21  40  60  81 112 153 193 233 284 343
#     4  10  18  33  56  83 114 149 186 230 282 336
#     4  10  19  35  60  86 113 150 189 232 285 340
#     4  11  22  39  63  86 114 155 197 241 291 347
#     4  11  23  41  60  87 119 154 197 243 292 347
#     4   9  20  39  60  81 113 153 190 230 287 345
#
# _framework density 19.148869000000001
#
# number of rings (size 3 to 8) (size 9 to 14) (size 15 to 20)
#    0.000    1.714    1.429    5.571    2.000    1.143 
#    0.000    4.286    0.000    0.000    0.000    0.000 
#    0.000    0.000    0.000    0.000    0.000    0.000 
#
# Total GULP energy -156366.742127 kJ/mol
# GULP energy per Si atom -5584.526505 kJ/mol
# Density = 1.910529 g / cm^3
# Si number density = 19.148869 Si / 1000 Ang^3
#
#
#
# Elastic Constant Matrix: (Units=GPa)
#
#
# Indices 1 2 3 4 5 6 
#
# 1 73.2457 4.5907 -13.6332 0.0000 -18.8451 0.0000
# 2 4.5907 57.8615 -3.5558 0.0000 -2.8093 0.0000
# 3 -13.6332 -3.5558 40.2834 0.0000 -12.7105 0.0000
# 4 0.0000 0.0000 0.0000 21.9425 0.0000 -2.4483
# 5 -18.8451 -2.8093 -12.7105 0.0000 29.9032 0.0000
# 6 0.0000 0.0000 0.0000 -2.4483 0.0000 33.9425
#
#
#
# Elastic Compliance Matrix: (Units=1/GPa)
#
#
# Indices 1 2 3 4 5 6 
#
# 1 0.020860 0.000047 0.012950 0.000000 0.018655 0.000000
# 2 0.000047 0.017559 0.002420 0.000000 0.002708 0.000000
# 3 0.012950 0.002420 0.037034 0.000000 0.024130 0.000000
# 4 0.000000 0.000000 0.000000 0.045943 0.000000 0.003314
# 5 0.018655 0.002708 0.024130 0.000000 0.055708 0.000000
# 6 0.000000 0.000000 0.000000 0.003314 0.000000 0.029701
#
#
# Mechanical properties :
#
#
# Convention : Reuss Voigt Hill
#
# Bulk Modulus (GPa) = 9.40865 16.24377 12.82621
# Shear Modulus (GPa) = 23.65174 29.42356 26.53765
#
# Velocity S-wave (km/s) = 3.51828 3.92416 3.72675
# Velocity P-wave (km/s) = 4.62910 5.38826 5.02304
#
# Compressibility (1/GPa) = 0.10628515
#
# Stress axis : x y z
#
# Youngs Moduli (GPa) = 47.93937 56.95044 27.00228
#
# Poissons Ratio (x) = -0.00265 -0.34967
# Poissons Ratio (y) = -0.00223 -0.06534
# Poissons Ratio (z) = -0.62080 -0.13782
#
# Static dielectric constant tensor:
#      x y z
#    x 1.680480 0.000000 0.014610 
#    y 0.000000 1.644210 0.000000 
#    z 0.014610 0.000000 1.624100 
# 
# From -- ./inp_files/42214.got.cif
#   From: 2010.05.17/outbox.cif.g08.bks.cpg/sg11_22_cif.got.tgz:42214.got - 2010.06.03 12:22:45.
