data_PCOD9157458
_publ_section_title
;
Structure prediction by ZEFSAII (Michael W. Deem and Ramdas Pophale) SiO2 
 PCOD9157458
Probable space group: P 21/M
;
_chemical_formula_sum "Si O2"
_cell_formula_units_Z 24
_cell_length_a 8.503777
_cell_length_b 8.496081
_cell_length_c 20.717489
_cell_angle_alpha 90.000000
_cell_angle_beta 124.444820
_cell_angle_gamma 90.000000
_cell_volume 1234.378938
_symmetry_space_group_name_H-M "P 21/M"
_symmetry_group_IT_number 11
_symmetry_cell_setting 'monoclinic'
loop_
_space_group_symop_operation_xyz
x,y,z
-x,1/2+y,-z
-x,-y,-z
x,1/2-y,z
loop_
_atom_site_type_symbol
_atom_site_label
_atom_site_fract_x
_atom_site_fract_y
_atom_site_fract_z
Si Si1 0.569239 0.565448 0.840543
Si Si2 0.563977 0.940240 0.414075
Si Si3 0.942644 0.435110 0.915028
Si Si4 0.238677 0.440745 0.675691
Si Si5 0.797811 0.059797 0.592095
Si Si6 0.676934 0.065805 0.003980
O O1 0.561561 0.750000 0.852869
O O2 0.380390 0.506506 0.762703
O O3 0.619588 0.470851 0.916862
O O4 0.760954 0.525163 0.844765
O O5 0.565719 0.750000 0.414068
O O6 0.665337 0.991066 0.370630
O O7 0.344935 0.988387 0.381854
O O8 0.692559 0.000915 0.503058
O O9 0.907827 0.250000 0.909490
O O10 0.139530 0.474212 0.926354
O O11 0.000000 0.500000 0.000000
O O12 0.241511 0.250000 0.677492
O O13 0.019747 0.491563 0.638752
O O14 0.800419 0.250000 0.592760
O O15 0.709938 0.250000 0.019215
O O16 0.500000 0.000000 0.000000
#
# Coordination Sequence:
#
# PCOD9157458 Si02
#       6
#     4   4   4   4   4   4
#     4  11  22  37  55  79 110 145 184 231 282 335
#     4   9  18  33  54  79 106 141 183 227 277 336
#     4  10  18  33  56  79 104 139 178 221 269 323
#     4  10  20  35  53  76 111 148 183 228 283 338
#     4   9  18  33  54  79 107 141 182 229 276 333
#     4  11  21  37  59  84 111 143 184 228 275 332
#
# _framework density 19.442975000000001
#
# number of rings (size 3 to 8) (size 9 to 14) (size 15 to 20)
#    0.000    2.000    0.000    7.000    0.000    1.333 
#    3.000    0.000    0.000    0.000    0.000    0.000 
#    0.000    0.000    0.000    0.000    0.000    0.000 
#
# Total GULP energy -133683.971726 kJ/mol
# GULP energy per Si atom -5570.165489 kJ/mol
# Density = 1.939872 g / cm^3
# Si number density = 19.442975 Si / 1000 Ang^3
#
#
#
# Elastic Constant Matrix: (Units=GPa)
#
#
# Indices 1 2 3 4 5 6 
#
# 1 132.7035 11.2238 47.8473 0.0000 40.6611 0.0000
# 2 11.2238 49.4855 9.3354 0.0000 5.1549 0.0000
# 3 47.8473 9.3354 71.2275 0.0000 33.5112 0.0000
# 4 0.0000 0.0000 0.0000 27.8931 0.0000 5.3492
# 5 40.6611 5.1549 33.5112 0.0000 31.5672 0.0000
# 6 0.0000 0.0000 0.0000 5.3492 0.0000 19.9526
#
#
#
# Elastic Compliance Matrix: (Units=1/GPa)
#
#
# Indices 1 2 3 4 5 6 
#
# 1 0.012599 -0.001065 -0.001539 0.000000 -0.014421 0.000000
# 2 -0.001065 0.020826 -0.002117 0.000000 0.000218 0.000000
# 3 -0.001539 -0.002117 0.028480 0.000000 -0.027905 0.000000
# 4 0.000000 0.000000 0.000000 0.037794 0.000000 -0.010133
# 5 -0.014421 0.000218 -0.027905 0.000000 0.079842 0.000000
# 6 0.000000 0.000000 0.000000 -0.010133 0.000000 0.052835
#
#
# Mechanical properties :
#
#
# Convention : Reuss Voigt Hill
#
# Bulk Modulus (GPa) = 19.06095 43.35883 31.20989
# Shear Modulus (GPa) = 19.28218 28.21660 23.74939
#
# Velocity S-wave (km/s) = 3.15259 3.81366 3.49877
# Velocity P-wave (km/s) = 4.80381 6.46072 5.69287
#
# Compressibility (1/GPa) = 0.05246329
#
# Stress axis : x y z
#
# Youngs Moduli (GPa) = 79.36924 48.01667 35.11251
#
# Poissons Ratio (x) = 0.05114 0.05405
# Poissons Ratio (y) = 0.08453 0.07432
# Poissons Ratio (z) = 0.12217 0.10164
#
# Static dielectric constant tensor:
#      x y z
#    x 1.856900 0.000000 0.003220 
#    y 0.000000 1.650160 0.000000 
#    z 0.003220 0.000000 1.633740 
# 
# From -- ./inp_files/67816.got.cif
#   From: 2010.05.17/outbox.cif.g08.bks.cpg/sg11_34_cif.got.tgz:67816.got - 2010.06.03 12:22:45.
