data_PCOD9157455
_publ_section_title
;
Structure prediction by ZEFSAII (Michael W. Deem and Ramdas Pophale) SiO2 
 PCOD9157455
Probable space group: P 21/M
;
_chemical_formula_sum "Si O2"
_cell_formula_units_Z 28
_cell_length_a 9.132045
_cell_length_b 17.316036
_cell_length_c 15.434936
_cell_angle_alpha 90.000000
_cell_angle_beta 32.593109
_cell_angle_gamma 90.000000
_cell_volume 1314.751603
_symmetry_space_group_name_H-M "P 21/M"
_symmetry_group_IT_number 11
_symmetry_cell_setting 'monoclinic'
loop_
_space_group_symop_operation_xyz
x,y,z
-x,1/2+y,-z
-x,-y,-z
x,1/2-y,z
loop_
_atom_site_type_symbol
_atom_site_label
_atom_site_fract_x
_atom_site_fract_y
_atom_site_fract_z
Si Si1 0.928313 0.501119 0.425204
Si Si2 0.583026 0.879934 0.987617
Si Si3 0.329891 0.013421 0.767831
Si Si4 0.046985 0.668926 0.326916
Si Si5 0.469091 0.961998 0.878975
Si Si6 0.299607 0.162030 0.674289
Si Si7 0.821165 0.093024 0.316050
O O1 0.655373 0.470869 0.603504
O O2 0.891091 0.480409 0.342358
O O3 0.958348 0.592436 0.420392
O O4 0.212628 0.462198 0.306801
O O5 0.461057 0.891849 0.951534
O O6 0.900060 0.858368 0.828008
O O7 0.369252 0.833017 0.150334
O O8 0.581381 0.962859 0.036691
O O9 0.224584 0.095228 0.781480
O O10 0.285370 0.978641 0.886183
O O11 0.268651 0.945342 0.729384
O O12 0.962247 0.750000 0.409984
O O13 0.912351 0.663716 0.299181
O O14 0.320093 0.250000 0.699053
O O15 0.580412 0.137604 0.485260
#
# Coordination Sequence:
#
# PCOD9157455 Si02
#       7
#     4   4   4   4   4   4   4
#     4   9  16  33  51  79 105 135 175 218 259 315
#     4   9  20  36  49  76 106 141 174 215 263 324
#     4  11  18  31  54  86 105 135 179 230 264 302
#     4  10  18  33  56  74 101 145 180 209 259 326
#     4   9  19  31  54  76 109 135 175 221 268 306
#     4  10  20  34  54  79 108 140 172 216 271 321
#     4  10  18  33  56  78 106 133 176 221 262 310
#
# _framework density 21.296797999999999
#
# number of rings (size 3 to 8) (size 9 to 14) (size 15 to 20)
#    0.000    2.286    2.857    2.143    0.000    1.143 
#    0.000    2.857    0.000    1.714    0.000    0.000 
#    0.000    0.000    0.000    0.000    0.000    0.000 
#
# Total GULP energy -155956.000031 kJ/mol
# GULP energy per Si atom -5569.857144 kJ/mol
# Density = 2.124833 g / cm^3
# Si number density = 21.296798 Si / 1000 Ang^3
#
#
#
# Elastic Constant Matrix: (Units=GPa)
#
#
# Indices 1 2 3 4 5 6 
#
# 1 83.1587 -12.5805 19.0653 0.0000 21.4990 0.0000
# 2 -12.5805 65.3156 12.0367 0.0000 6.5246 0.0000
# 3 19.0653 12.0367 56.4563 0.0000 -13.7694 0.0000
# 4 0.0000 0.0000 0.0000 4.0132 0.0000 0.3441
# 5 21.4990 6.5246 -13.7694 0.0000 41.5856 0.0000
# 6 0.0000 0.0000 0.0000 0.3441 0.0000 6.5189
#
#
#
# Elastic Compliance Matrix: (Units=1/GPa)
#
#
# Indices 1 2 3 4 5 6 
#
# 1 0.020005 0.007655 -0.012187 0.000000 -0.015579 0.000000
# 2 0.007655 0.019484 -0.009192 0.000000 -0.010058 0.000000
# 3 -0.012187 -0.009192 0.027933 0.000000 0.016992 0.000000
# 4 0.000000 0.000000 0.000000 0.250311 0.000000 -0.013214
# 5 -0.015579 -0.010058 0.016992 0.000000 0.039305 0.000000
# 6 0.000000 0.000000 0.000000 -0.013214 0.000000 0.154097
#
#
# Mechanical properties :
#
#
# Convention : Reuss Voigt Hill
#
# Bulk Modulus (GPa) = 25.01731 26.88596 25.95163
# Shear Modulus (GPa) = 9.05949 22.85082 15.95515
#
# Velocity S-wave (km/s) = 2.06474 3.27918 2.74009
# Velocity P-wave (km/s) = 4.17812 5.19511 4.71412
#
# Compressibility (1/GPa) = 0.03997232
#
# Stress axis : x y z
#
# Youngs Moduli (GPa) = 49.98738 51.32528 35.80050
#
# Poissons Ratio (x) = -0.39291 0.43632
# Poissons Ratio (y) = -0.38267 0.32909
# Poissons Ratio (z) = 0.60922 0.47180
#
# Static dielectric constant tensor:
#      x y z
#    x 1.831030 0.000000 -0.012550 
#    y 0.000000 1.775150 0.000000 
#    z -0.012550 0.000000 1.850070 
# 
# From -- ./inp_files/43531.got.cif
#   From: 2010.05.17/outbox.cif.g08.bks.cpg/sg11_22_cif.got.tgz:43531.got - 2010.06.03 12:22:45.
