data_PCOD9157533
_publ_section_title
;
Structure prediction by ZEFSAII (Michael W. Deem and Ramdas Pophale) SiO2 
 PCOD9157533
Probable space group: P 21/M
;
_chemical_formula_sum "Si O2"
_cell_formula_units_Z 24
_cell_length_a 6.980171
_cell_length_b 16.092031
_cell_length_c 11.852970
_cell_angle_alpha 90.000000
_cell_angle_beta 46.037426
_cell_angle_gamma 90.000000
_cell_volume 958.323128
_symmetry_space_group_name_H-M "P 21/M"
_symmetry_group_IT_number 11
_symmetry_cell_setting 'monoclinic'
loop_
_space_group_symop_operation_xyz
x,y,z
-x,1/2+y,-z
-x,-y,-z
x,1/2-y,z
loop_
_atom_site_type_symbol
_atom_site_label
_atom_site_fract_x
_atom_site_fract_y
_atom_site_fract_z
Si Si1 0.977843 0.592811 0.057728
Si Si2 0.219575 0.921217 0.321067
Si Si3 0.469596 0.847781 0.004861
Si Si4 0.781014 0.338887 0.242670
Si Si5 0.241048 0.385911 0.337117
Si Si6 0.229393 0.020937 0.666180
O O1 0.232782 0.606604 0.033839
O O2 0.985426 0.340154 0.053350
O O3 0.737807 0.585209 0.243455
O O4 0.000000 0.500000 0.000000
O O5 0.442943 0.883627 0.144028
O O6 0.058740 0.874684 0.488942
O O7 0.296121 0.015011 0.322812
O O8 0.969967 0.938060 0.339367
O O9 0.418406 0.750000 0.034530
O O10 0.705123 0.859120 0.815280
O O11 0.800131 0.250000 0.294611
O O12 0.480429 0.345789 0.313360
O O13 0.851527 0.427624 0.266597
O O14 0.500000 0.000000 0.500000
#
# Coordination Sequence:
#
# PCOD9157533 Si02
#       6
#     4   4   4   4   4   4
#     4   8  16  29  49  73 105 138 174 217 261 319
#     4  10  21  35  56  83 108 145 187 223 265 334
#     4  10  20  34  54  83 110 138 181 230 276 320
#     4  10  19  34  56  81 105 138 184 230 273 318
#     4  10  19  35  56  80 107 143 183 223 271 325
#     4  10  18  34  52  81 108 143 179 218 270 328
#
# _framework density 25.043745999999999
#
# number of rings (size 3 to 8) (size 9 to 14) (size 15 to 20)
#    0.000    2.333    1.667    2.500    0.000    1.333 
#    0.000    2.500    0.000    1.000    0.000    4.667 
#    0.000    0.000    0.000    0.000    0.000    0.000 
#
# Total GULP energy -133759.126575 kJ/mol
# GULP energy per Si atom -5573.296941 kJ/mol
# Density = 2.498675 g / cm^3
# Si number density = 25.043746 Si / 1000 Ang^3
#
#
#
# Elastic Constant Matrix: (Units=GPa)
#
#
# Indices 1 2 3 4 5 6 
#
# 1 31.4869 6.7754 13.0060 0.0000 3.4652 0.0000
# 2 6.7754 104.2100 35.6679 0.0000 15.9514 0.0000
# 3 13.0060 35.6679 163.5539 0.0000 19.2632 0.0000
# 4 0.0000 0.0000 0.0000 5.7569 0.0000 4.9279
# 5 3.4652 15.9514 19.2632 0.0000 35.3442 0.0000
# 6 0.0000 0.0000 0.0000 4.9279 0.0000 20.9486
#
#
#
# Elastic Compliance Matrix: (Units=1/GPa)
#
#
# Indices 1 2 3 4 5 6 
#
# 1 0.033085 -0.001166 -0.002198 0.000000 -0.001520 0.000000
# 2 -0.001166 0.010880 -0.001833 0.000000 -0.003797 0.000000
# 3 -0.002198 -0.001833 0.007016 0.000000 -0.002781 0.000000
# 4 0.000000 0.000000 0.000000 0.217500 0.000000 -0.051165
# 5 -0.001520 -0.003797 -0.002781 0.000000 0.031672 0.000000
# 6 0.000000 0.000000 0.000000 -0.051165 0.000000 0.059772
#
#
# Mechanical properties :
#
#
# Convention : Reuss Voigt Hill
#
# Bulk Modulus (GPa) = 24.63765 45.57216 35.10490
# Shear Modulus (GPa) = 13.02596 28.66337 20.84467
#
# Velocity S-wave (km/s) = 2.28311 3.38676 2.88814
# Velocity P-wave (km/s) = 4.09991 5.79052 5.01694
#
# Compressibility (1/GPa) = 0.04058829
#
# Stress axis : x y z
#
# Youngs Moduli (GPa) = 30.22498 91.90840 142.52663
#
# Poissons Ratio (x) = 0.10719 0.31322
# Poissons Ratio (y) = 0.03525 0.26123
# Poissons Ratio (z) = 0.06642 0.16845
#
# Static dielectric constant tensor:
#      x y z
#    x 2.248730 0.000000 0.543800 
#    y 0.000000 1.822630 0.000000 
#    z 0.543800 0.000000 3.922400 
# 
# From -- ./inp_files/47528.got.cif
#   From: 2010.05.17/outbox.cif.g08.bks.cpg/sg11_24_cif.got.tgz:47528.got - 2010.06.03 12:22:45.
