data_PCOD9157303
_publ_section_title
;
Structure prediction by ZEFSAII (Michael W. Deem and Ramdas Pophale) SiO2 
 PCOD9157303
Probable space group: P 21/M
;
_chemical_formula_sum "Si O2"
_cell_formula_units_Z 32
_cell_length_a 19.483663
_cell_length_b 8.678930
_cell_length_c 14.136451
_cell_angle_alpha 90.000000
_cell_angle_beta 43.308636
_cell_angle_gamma 90.000000
_cell_volume 1639.667330
_symmetry_space_group_name_H-M "P 21/M"
_symmetry_group_IT_number 11
_symmetry_cell_setting 'monoclinic'
loop_
_space_group_symop_operation_xyz
x,y,z
-x,1/2+y,-z
-x,-y,-z
x,1/2-y,z
loop_
_atom_site_type_symbol
_atom_site_label
_atom_site_fract_x
_atom_site_fract_y
_atom_site_fract_z
Si Si1 0.195009 0.563608 0.085092
Si Si2 0.201128 0.066825 0.517007
Si Si3 0.609464 0.429156 0.776121
Si Si4 0.500247 0.565672 0.606763
Si Si5 0.397063 0.931009 0.989754
Si Si6 0.290559 0.066751 0.814778
Si Si7 0.708743 0.432641 0.396326
Si Si8 0.996854 0.935794 0.397692
O O1 0.195577 0.750000 0.075648
O O2 0.293787 0.517728 0.045557
O O3 0.095299 0.517383 0.240539
O O4 0.205472 0.488586 0.971693
O O5 0.196556 0.250000 0.537019
O O6 0.104011 0.016908 0.555415
O O7 0.300775 0.025596 0.358510
O O8 0.209716 0.983241 0.609276
O O9 0.624071 0.250000 0.736806
O O10 0.613564 0.445372 0.886087
O O11 0.498160 0.482264 0.858988
O O12 0.500000 0.500000 0.500000
O O13 0.504241 0.750000 0.603742
O O14 0.393947 0.507867 0.750595
O O15 0.602744 0.496304 0.543127
O O16 0.411616 0.750000 0.953132
O O17 0.300861 0.250000 0.802447
O O18 0.275604 0.006061 0.722950
O O19 0.702144 0.250000 0.392703
O O20 0.997035 0.750000 0.402567
O O21 0.000000 0.000000 0.500000
#
# Coordination Sequence:
#
# PCOD9157303 Si02
#       8
#     4   4   4   4   4   4   4   4
#     4  10  21  39  61  86 117 157 203 248 302 358
#     4  11  23  39  60  88 120 157 200 247 304 361
#     4  10  20  35  56  84 118 155 195 242 297 360
#     4  10  18  32  54  81 116 158 197 241 291 348
#     4   9  19  35  56  82 117 155 192 240 297 357
#     4  11  22  37  57  86 122 159 201 249 298 356
#     4  11  22  38  59  85 118 159 204 250 298 355
#     4  10  23  43  68  93 121 156 200 254 305 361
#
# _framework density 19.516154
#
# number of rings (size 3 to 8) (size 9 to 14) (size 15 to 20)
#    0.000    1.750    0.000    6.375    1.750    3.500 
#    0.000    0.625    0.000    0.000    0.000    0.000 
#    0.000    0.000    0.000    0.000    0.000    0.000 
#
# Total GULP energy -178849.690474 kJ/mol
# GULP energy per Si atom -5589.052827 kJ/mol
# Density = 1.947173 g / cm^3
# Si number density = 19.516154 Si / 1000 Ang^3
#
#
#
# Elastic Constant Matrix: (Units=GPa)
#
#
# Indices 1 2 3 4 5 6 
#
# 1 135.8107 41.6213 58.7881 0.0000 -8.9644 0.0000
# 2 41.6213 95.0715 41.0852 0.0000 0.3853 0.0000
# 3 58.7881 41.0852 127.9103 0.0000 -5.2121 0.0000
# 4 0.0000 0.0000 0.0000 24.9403 0.0000 5.9391
# 5 -8.9644 0.3853 -5.2121 0.0000 23.0986 0.0000
# 6 0.0000 0.0000 0.0000 5.9391 0.0000 23.3936
#
#
#
# Elastic Compliance Matrix: (Units=1/GPa)
#
#
# Indices 1 2 3 4 5 6 
#
# 1 0.009976 -0.002849 -0.003543 0.000000 0.003120 0.000000
# 2 -0.002849 0.013055 -0.002965 0.000000 -0.001993 0.000000
# 3 -0.003543 -0.002965 0.010441 0.000000 0.001030 0.000000
# 4 0.000000 0.000000 0.000000 0.042676 0.000000 -0.010834
# 5 0.003120 -0.001993 0.001030 0.000000 0.044769 0.000000
# 6 0.000000 0.000000 0.000000 -0.010834 0.000000 0.045497
#
#
# Mechanical properties :
#
#
# Convention : Reuss Voigt Hill
#
# Bulk Modulus (GPa) = 67.76029 71.30909 69.53469
# Shear Modulus (GPa) = 26.30934 28.77302 27.54118
#
# Velocity S-wave (km/s) = 3.67560 3.84385 3.76067
# Velocity P-wave (km/s) = 7.26697 7.50454 7.38671
#
# Compressibility (1/GPa) = 0.01475791
#
# Stress axis : x y z
#
# Youngs Moduli (GPa) = 100.24332 76.59842 95.77978
#
# Poissons Ratio (x) = 0.21822 0.33932
# Poissons Ratio (y) = 0.28559 0.28400
# Poissons Ratio (z) = 0.35513 0.22713
#
# Static dielectric constant tensor:
#      x y z
#    x 1.665150 0.000000 -0.021570 
#    y 0.000000 1.657460 0.000000 
#    z -0.021570 0.000000 1.662440 
# 
# From -- ./inp_files/54237.got.cif
#   From: 2010.05.17/outbox.cif.g08.bks.cpg/sg11_28_cif.got.tgz:54237.got - 2010.06.03 12:22:45.
