data_PCOD9157612
_publ_section_title
;
Structure prediction by ZEFSAII (Michael W. Deem and Ramdas Pophale) SiO2 
 PCOD9157612
Probable space group: P 21/M
;
_chemical_formula_sum "Si O2"
_cell_formula_units_Z 30
_cell_length_a 10.004020
_cell_length_b 20.871933
_cell_length_c 7.478815
_cell_angle_alpha 90.000000
_cell_angle_beta 90.996184
_cell_angle_gamma 90.000000
_cell_volume 1561.364740
_symmetry_space_group_name_H-M "P 21/M"
_symmetry_group_IT_number 11
_symmetry_cell_setting 'monoclinic'
loop_
_space_group_symop_operation_xyz
x,y,z
-x,1/2+y,-z
-x,-y,-z
x,1/2-y,z
loop_
_atom_site_type_symbol
_atom_site_label
_atom_site_fract_x
_atom_site_fract_y
_atom_site_fract_z
Si Si1 0.546722 0.975334 0.693259
Si Si2 0.429522 0.884286 0.188494
Si Si3 0.434566 0.250000 0.321774
Si Si4 0.363110 0.639046 0.810796
Si Si5 0.245973 0.364645 0.303707
Si Si6 0.058195 0.173042 0.589159
Si Si7 0.237631 0.673375 0.466330
Si Si8 0.720237 0.673181 0.106969
O O1 0.435061 0.928449 0.772142
O O2 0.677698 0.931522 0.676148
O O3 0.500000 0.000000 0.500000
O O4 0.570514 0.039116 0.807030
O O5 0.362958 0.857659 0.367101
O O6 0.580812 0.859550 0.161634
O O7 0.341818 0.858410 0.021150
O O8 0.531342 0.194126 0.238481
O O9 0.333814 0.306919 0.390639
O O10 0.242798 0.650533 0.671823
O O11 0.110031 0.361277 0.411189
O O12 0.240338 0.347879 0.092920
O O13 0.058142 0.250000 0.560940
O O14 0.161383 0.158787 0.751461
O O15 0.904186 0.155777 0.622211
O O16 0.256540 0.750000 0.461221
O O17 0.697786 0.750000 0.098191
#
# Coordination Sequence:
#
# PCOD9157612 Si02
#       8
#     4   4   2   4   4   4   4   4
#     4  11  22  38  60  94 119 159 196 253 301 350
#     4  12  23  38  63  91 123 154 200 249 300 359
#     4  10  18  34  58  96 114 144 198 250 300 352
#     4  11  22  37  62  89 127 152 198 247 309 353
#     4  11  20  38  61  85 122 151 200 250 298 346
#     4  10  23  39  59  88 122 159 196 242 301 359
#     4  11  25  40  60  91 126 160 194 242 305 362
#     4  11  21  35  64  93 114 151 200 250 298 351
#
# _framework density 19.21396
#
# number of rings (size 3 to 8) (size 9 to 14) (size 15 to 20)
#    0.000    1.067    6.000    1.600    2.800    1.067 
#    0.000    3.333    0.000    1.600    0.000    0.000 
#    0.000    0.000    0.000    0.000    0.000    0.000 
#
# Total GULP energy -167028.455720 kJ/mol
# GULP energy per Si atom -5567.615191 kJ/mol
# Density = 1.917023 g / cm^3
# Si number density = 19.213960 Si / 1000 Ang^3
#
#
#
# Elastic Constant Matrix: (Units=GPa)
#
#
# Indices 1 2 3 4 5 6 
#
# 1 58.6775 29.4271 26.9990 0.0000 4.4086 0.0000
# 2 29.4271 98.3032 19.7467 0.0000 4.3010 0.0000
# 3 26.9990 19.7467 75.8104 0.0000 9.7106 0.0000
# 4 0.0000 0.0000 0.0000 22.0904 0.0000 8.9925
# 5 4.4086 4.3010 9.7106 0.0000 22.3260 0.0000
# 6 0.0000 0.0000 0.0000 8.9925 0.0000 9.6601
#
#
#
# Elastic Compliance Matrix: (Units=1/GPa)
#
#
# Indices 1 2 3 4 5 6 
#
# 1 0.022901 -0.005494 -0.006652 0.000000 -0.000571 0.000000
# 2 -0.005494 0.012070 -0.001089 0.000000 -0.000767 0.000000
# 3 -0.006652 -0.001089 0.016572 0.000000 -0.005684 0.000000
# 4 0.000000 0.000000 0.000000 0.072890 0.000000 -0.067853
# 5 -0.000571 -0.000767 -0.005684 0.000000 0.047524 0.000000
# 6 0.000000 0.000000 0.000000 -0.067853 0.000000 0.166682
#
#
# Mechanical properties :
#
#
# Convention : Reuss Voigt Hill
#
# Bulk Modulus (GPa) = 39.88463 42.79298 41.33881
# Shear Modulus (GPa) = 13.38813 21.25652 17.32232
#
# Velocity S-wave (km/s) = 2.64255 3.32973 3.00584
# Velocity P-wave (km/s) = 5.48762 6.09122 5.79728
#
# Compressibility (1/GPa) = 0.02507231
#
# Stress axis : x y z
#
# Youngs Moduli (GPa) = 43.66565 82.85260 60.34446
#
# Poissons Ratio (x) = 0.45522 0.40140
# Poissons Ratio (y) = 0.23992 0.06571
# Poissons Ratio (z) = 0.29046 0.09022
#
# Static dielectric constant tensor:
#      x y z
#    x 1.681590 0.000000 0.033040 
#    y 0.000000 1.645740 0.000000 
#    z 0.033040 0.000000 1.753240 
# 
# From -- ./inp_files/14321.got.cif
#   From: 2010.05.17/outbox.cif.g08.bks.cpg/sg11_8_cif.got.tgz:14321.got - 2010.06.03 12:22:45.
