data_PCOD9157297
_publ_section_title
;
Structure prediction by ZEFSAII (Michael W. Deem and Ramdas Pophale) SiO2 
 PCOD9157297
Probable space group: P 21/M
;
_chemical_formula_sum "Si O2"
_cell_formula_units_Z 30
_cell_length_a 9.402489
_cell_length_b 7.597206
_cell_length_c 20.928820
_cell_angle_alpha 90.000000
_cell_angle_beta 47.742771
_cell_angle_gamma 90.000000
_cell_volume 1106.499998
_symmetry_space_group_name_H-M "P 21/M"
_symmetry_group_IT_number 11
_symmetry_cell_setting 'monoclinic'
loop_
_space_group_symop_operation_xyz
x,y,z
-x,1/2+y,-z
-x,-y,-z
x,1/2-y,z
loop_
_atom_site_type_symbol
_atom_site_label
_atom_site_fract_x
_atom_site_fract_y
_atom_site_fract_z
Si Si1 0.934674 0.037098 0.092713
Si Si2 0.363778 0.466059 0.674112
Si Si3 0.341536 0.461508 0.995567
Si Si4 0.978008 0.250000 0.220149
Si Si5 0.531232 0.047378 0.185462
Si Si6 0.153471 0.558577 0.244252
Si Si7 0.779332 0.439872 0.561661
Si Si8 0.260406 0.050613 0.564356
O O1 0.927093 0.250000 0.103774
O O2 0.717937 0.964970 0.163948
O O3 0.122856 0.974596 0.073615
O O4 0.000000 0.000000 0.000000
O O5 0.336144 0.250000 0.687571
O O6 0.185111 0.592241 0.745280
O O7 0.569521 0.520326 0.643132
O O8 0.376641 0.500579 0.592767
O O9 0.328406 0.250000 0.992815
O O10 0.408396 0.538034 0.907784
O O11 0.500000 0.500000 0.000000
O O12 0.129515 0.401251 0.201897
O O13 0.514563 0.250000 0.208792
O O14 0.322735 0.964450 0.244617
O O15 0.179057 0.750000 0.205656
O O16 0.955585 0.553794 0.342562
O O17 0.776903 0.250000 0.593403
O O18 0.751518 0.431832 0.493681
O O19 0.000000 0.500000 0.500000
O O20 0.305865 0.250000 0.531069
#
# Coordination Sequence:
#
# PCOD9157297 Si02
#       8
#     4   4   4   2   4   4   4   4
#     4   8  16  29  48  74 106 136 175 219 268 317
#     4   9  20  35  54  83 108 139 181 229 278 331
#     4  10  19  32  50  78 113 148 179 229 275 324
#     4  10  18  32  58  76 110 140 178 220 282 306
#     4  10  18  32  54  81 107 144 183 223 275 329
#     4  10  20  34  54  85 112 141 183 232 273 325
#     4  11  23  35  53  80 113 144 179 224 283 340
#     4   9  19  35  55  78 108 136 177 228 275 324
#
# _framework density 27.112517
#
# number of rings (size 3 to 8) (size 9 to 14) (size 15 to 20)
#    0.000    2.400    0.667    2.800    5.600    1.067 
#    0.000    0.000    0.000    3.200    3.467    3.733 
#    0.000    0.000    0.000    0.000    0.000    0.000 
#
# Total GULP energy -167180.077688 kJ/mol
# GULP energy per Si atom -5572.669256 kJ/mol
# Density = 2.705081 g / cm^3
# Si number density = 27.112517 Si / 1000 Ang^3
#
#
#
# Elastic Constant Matrix: (Units=GPa)
#
#
# Indices 1 2 3 4 5 6 
#
# 1 220.4891 51.7144 62.6239 0.0000 -61.8678 0.0000
# 2 51.7144 145.7639 37.9534 0.0000 -14.2345 0.0000
# 3 62.6239 37.9534 61.2372 0.0000 -32.4868 0.0000
# 4 0.0000 0.0000 0.0000 -20.1030 0.0000 12.0894
# 5 -61.8678 -14.2345 -32.4868 0.0000 76.9078 0.0000
# 6 0.0000 0.0000 0.0000 12.0894 0.0000 32.9335
#
#
#
# Elastic Compliance Matrix: (Units=1/GPa)
#
#
# Indices 1 2 3 4 5 6 
#
# 1 0.007109 -0.000919 -0.004842 0.000000 0.003504 0.000000
# 2 -0.000919 0.008339 -0.004899 0.000000 -0.001266 0.000000
# 3 -0.004842 -0.004899 0.028058 0.000000 0.007050 0.000000
# 4 0.000000 0.000000 0.000000 -0.040748 0.000000 0.014958
# 5 0.003504 -0.001266 0.007050 0.000000 0.018565 0.000000
# 6 0.000000 0.000000 0.000000 0.014958 0.000000 0.024873
#
#
# Mechanical properties :
#
#
# Convention : Reuss Voigt Hill
#
# Bulk Modulus (GPa) = 45.07552 81.34151 63.20852
# Shear Modulus (GPa) = 66.74493 36.29423 51.51958
#
# Velocity S-wave (km/s) = 4.96701 3.66273 4.36387
# Velocity P-wave (km/s) = 7.03963 6.92489 6.98249
#
# Compressibility (1/GPa) = 0.02218499
#
# Stress axis : x y z
#
# Youngs Moduli (GPa) = 140.66160 119.92305 35.64027
#
# Poissons Ratio (x) = 0.11026 0.17256
# Poissons Ratio (y) = 0.12933 0.17462
# Poissons Ratio (z) = 0.68104 0.58755
#
# Static dielectric constant tensor:
#      x y z
#    x 1.981990 0.000000 0.040610 
#    y 0.000000 2.049630 0.000000 
#    z 0.040610 0.000000 2.341050 
# 
# From -- ./inp_files/70673.got.cif
#   From: 2010.05.17/outbox.cif.g08.bks.cpg/sg11_36_cif.got.tgz:70673.got - 2010.06.03 12:22:45.
