data_PCOD9157754
_publ_section_title
;
Structure prediction by ZEFSAII (Michael W. Deem and Ramdas Pophale) SiO2 
 PCOD9157754
Probable space group: P 21/M
;
_chemical_formula_sum "Si O2"
_cell_formula_units_Z 20
_cell_length_a 7.289059
_cell_length_b 18.712472
_cell_length_c 6.658330
_cell_angle_alpha 90.000000
_cell_angle_beta 113.187455
_cell_angle_gamma 90.000000
_cell_volume 834.810980
_symmetry_space_group_name_H-M "P 21/M"
_symmetry_group_IT_number 11
_symmetry_cell_setting 'monoclinic'
loop_
_space_group_symop_operation_xyz
x,y,z
-x,1/2+y,-z
-x,-y,-z
x,1/2-y,z
loop_
_atom_site_type_symbol
_atom_site_label
_atom_site_fract_x
_atom_site_fract_y
_atom_site_fract_z
Si Si1 0.818674 0.384126 0.215425
Si Si2 0.531552 0.891378 0.665785
Si Si3 0.062213 0.471686 0.802049
Si Si4 0.481689 0.056676 0.769958
Si Si5 0.935292 0.671245 0.020946
O O1 0.678984 0.363134 0.339540
O O2 0.653093 0.414392 0.987567
O O3 0.719878 0.547856 0.191608
O O4 0.941675 0.330040 0.134579
O O5 0.544698 0.891803 0.431537
O O6 0.713619 0.852236 0.853651
O O7 0.537824 0.976766 0.719316
O O8 0.980592 0.390821 0.795606
O O9 0.034515 0.548132 0.672970
O O10 0.000000 0.500000 0.000000
O O11 0.935651 0.750000 0.110524
#
# Coordination Sequence:
#
# PCOD9157754 Si02
#       5
#     4   4   4   4   4
#     4  10  19  38  60  84 116 148 197 244 282 340
#     4  10  20  37  60  90 115 145 192 248 292 343
#     4   9  17  35  60  86 115 148 190 241 279 341
#     4  10  18  36  65  90 110 147 199 241 296 333
#     4  11  22  37  58  83 118 161 190 233 304 348
#
# _framework density 23.957519000000001
#
# number of rings (size 3 to 8) (size 9 to 14) (size 15 to 20)
#    0.000    2.000    4.000    1.200    0.000    0.800 
#    7.200    6.000    0.000    0.000    0.000    0.000 
#    0.000    0.000    0.000    0.000    0.000    0.000 
#
# Total GULP energy -111411.906609 kJ/mol
# GULP energy per Si atom -5570.595330 kJ/mol
# Density = 2.390299 g / cm^3
# Si number density = 23.957519 Si / 1000 Ang^3
#
#
#
# Elastic Constant Matrix: (Units=GPa)
#
#
# Indices 1 2 3 4 5 6 
#
# 1 141.0653 16.5184 38.3273 0.0000 -30.2139 0.0000
# 2 16.5184 104.1327 -8.6850 0.0000 -2.9538 0.0000
# 3 38.3273 -8.6850 74.1043 0.0000 -0.3071 0.0000
# 4 0.0000 0.0000 0.0000 16.6085 0.0000 2.8272
# 5 -30.2139 -2.9538 -0.3071 0.0000 34.6744 0.0000
# 6 0.0000 0.0000 0.0000 2.8272 0.0000 9.7578
#
#
#
# Elastic Compliance Matrix: (Units=1/GPa)
#
#
# Indices 1 2 3 4 5 6 
#
# 1 0.010882 -0.001949 -0.005818 0.000000 0.009265 0.000000
# 2 -0.001949 0.010071 0.002185 0.000000 -0.000821 0.000000
# 3 -0.005818 0.002185 0.016740 0.000000 -0.004736 0.000000
# 4 0.000000 0.000000 0.000000 0.063334 0.000000 -0.018351
# 5 0.009265 -0.000821 -0.004736 0.000000 0.036801 0.000000
# 6 0.000000 0.000000 0.000000 -0.018351 0.000000 0.107799
#
#
# Mechanical properties :
#
#
# Convention : Reuss Voigt Hill
#
# Bulk Modulus (GPa) = 37.69433 45.73597 41.71515
# Shear Modulus (GPa) = 18.82277 30.41757 24.62017
#
# Velocity S-wave (km/s) = 2.80603 3.56708 3.20919
# Velocity P-wave (km/s) = 5.12507 6.00810 5.58407
#
# Compressibility (1/GPa) = 0.02652919
#
# Stress axis : x y z
#
# Youngs Moduli (GPa) = 91.89176 99.29301 59.73617
#
# Poissons Ratio (x) = 0.19350 0.34757
# Poissons Ratio (y) = 0.17907 -0.13051
# Poissons Ratio (z) = 0.53467 -0.21694
#
# Static dielectric constant tensor:
#      x y z
#    x 1.975030 0.000000 0.048370 
#    y 0.000000 1.975680 0.000000 
#    z 0.048370 0.000000 2.071500 
# 
# From -- ./inp_files/29567.got.cif
#   From: 2010.05.17/outbox.cif.g08.bks.cpg/sg11_15_cif.got.tgz:29567.got - 2010.06.03 12:22:45.
