data_PCOD9157658
_publ_section_title
;
Structure prediction by ZEFSAII (Michael W. Deem and Ramdas Pophale) SiO2 
 PCOD9157658
Probable space group: P 21/M
;
_chemical_formula_sum "Si O2"
_cell_formula_units_Z 32
_cell_length_a 8.696510
_cell_length_b 13.034035
_cell_length_c 20.173558
_cell_angle_alpha 90.000000
_cell_angle_beta 133.756465
_cell_angle_gamma 90.000000
_cell_volume 1651.640562
_symmetry_space_group_name_H-M "P 21/M"
_symmetry_group_IT_number 11
_symmetry_cell_setting 'monoclinic'
loop_
_space_group_symop_operation_xyz
x,y,z
-x,1/2+y,-z
-x,-y,-z
x,1/2-y,z
loop_
_atom_site_type_symbol
_atom_site_label
_atom_site_fract_x
_atom_site_fract_y
_atom_site_fract_z
Si Si1 0.213757 0.131955 0.576790
Si Si2 0.223824 0.434784 0.119206
Si Si3 0.071282 0.492105 0.419611
Si Si4 0.319232 0.866086 0.231023
Si Si5 0.686124 0.549159 0.135086
Si Si6 0.686107 0.368806 0.240893
Si Si7 0.893522 0.134089 0.688838
Si Si8 0.783449 0.036375 0.020812
O O1 0.169694 0.250000 0.549519
O O2 0.427992 0.125526 0.683278
O O3 0.232081 0.071055 0.513273
O O4 0.027174 0.081044 0.563684
O O5 0.247864 0.547006 0.159578
O O6 0.446493 0.378181 0.199142
O O7 0.997222 0.396263 0.079131
O O8 0.201836 0.453092 0.034090
O O9 0.873332 0.417411 0.341568
O O10 0.160217 0.547286 0.380852
O O11 0.265205 0.750000 0.193712
O O12 0.219219 0.881982 0.274132
O O13 0.682202 0.443042 0.175613
O O14 0.854110 0.621502 0.221584
O O15 0.766003 0.520969 0.085629
O O16 0.445099 0.589792 0.058649
O O17 0.729721 0.250000 0.239354
O O18 0.846043 0.250000 0.652061
#
# Coordination Sequence:
#
# PCOD9157658 Si02
#       8
#     4   4   4   4   4   4   4   4
#     4  10  20  35  57  85 111 138 179 220 265 322
#     4  10  18  35  54  78 109 143 179 225 273 322
#     4  10  20  35  57  82 110 143 173 225 266 313
#     4  10  20  35  56  82 110 142 178 220 271 323
#     4   9  18  35  53  78 108 143 178 225 273 319
#     4  10  20  35  54  74 104 146 184 218 269 321
#     4  10  20  35  57  82 111 143 179 219 267 324
#     4   9  18  33  55  76 108 144 176 225 281 318
#
# _framework density 19.374675
#
# number of rings (size 3 to 8) (size 9 to 14) (size 15 to 20)
#    0.000    2.250    2.500    0.750    0.000    0.500 
#    0.000   13.125    0.000    0.000    0.000    0.000 
#    0.000    0.000    0.000    0.000    0.000    0.000 
#
# Total GULP energy -178404.599350 kJ/mol
# GULP energy per Si atom -5575.143730 kJ/mol
# Density = 1.933058 g / cm^3
# Si number density = 19.374675 Si / 1000 Ang^3
#
#
#
# Elastic Constant Matrix: (Units=GPa)
#
#
# Indices 1 2 3 4 5 6 
#
# 1 53.2346 7.2033 -7.4039 0.0000 -3.9849 0.0000
# 2 7.2033 83.3467 14.2400 0.0000 -10.2886 0.0000
# 3 -7.4039 14.2400 42.0890 0.0000 -11.9336 0.0000
# 4 0.0000 0.0000 0.0000 10.7579 0.0000 -1.0198
# 5 -3.9849 -10.2886 -11.9336 0.0000 21.9159 0.0000
# 6 0.0000 0.0000 0.0000 -1.0198 0.0000 15.4240
#
#
#
# Elastic Compliance Matrix: (Units=1/GPa)
#
#
# Indices 1 2 3 4 5 6 
#
# 1 0.020339 -0.002038 0.005965 0.000000 0.005990 0.000000
# 2 -0.002038 0.013290 -0.003773 0.000000 0.003814 0.000000
# 3 0.005965 -0.003773 0.030617 0.000000 0.015985 0.000000
# 4 0.000000 0.000000 0.000000 0.093541 0.000000 0.006185
# 5 0.005990 0.003814 0.015985 0.000000 0.057213 0.000000
# 6 0.000000 0.000000 0.000000 0.006185 0.000000 0.065243
#
#
# Mechanical properties :
#
#
# Convention : Reuss Voigt Hill
#
# Bulk Modulus (GPa) = 15.49077 22.97212 19.23144
# Shear Modulus (GPa) = 16.58641 20.59495 18.59068
#
# Velocity S-wave (km/s) = 2.92907 3.26388 3.10100
# Velocity P-wave (km/s) = 4.41044 5.10748 4.77171
#
# Compressibility (1/GPa) = 0.06455456
#
# Stress axis : x y z
#
# Youngs Moduli (GPa) = 49.16777 75.24644 32.66111
#
# Poissons Ratio (x) = 0.15332 -0.19484
# Poissons Ratio (y) = 0.10018 0.12324
# Poissons Ratio (z) = -0.29331 0.28394
#
# Static dielectric constant tensor:
#      x y z
#    x 1.708890 0.000000 0.025470 
#    y 0.000000 1.646800 0.000000 
#    z 0.025470 0.000000 1.699350 
# 
# From -- ./inp_files/63655.got.cif
#   From: 2010.05.17/outbox.cif.g08.bks.cpg/sg11_32_cif.got.tgz:63655.got - 2010.06.03 12:22:45.
