data_PCOD9157408
_publ_section_title
;
Structure prediction by ZEFSAII (Michael W. Deem and Ramdas Pophale) SiO2 
 PCOD9157408
Probable space group: P 21/M
;
_chemical_formula_sum "Si O2"
_cell_formula_units_Z 28
_cell_length_a 19.089774
_cell_length_b 17.700184
_cell_length_c 9.137118
_cell_angle_alpha 90.000000
_cell_angle_beta 155.196286
_cell_angle_gamma 90.000000
_cell_volume 1295.182826
_symmetry_space_group_name_H-M "P 21/M"
_symmetry_group_IT_number 11
_symmetry_cell_setting 'monoclinic'
loop_
_space_group_symop_operation_xyz
x,y,z
-x,1/2+y,-z
-x,-y,-z
x,1/2-y,z
loop_
_atom_site_type_symbol
_atom_site_label
_atom_site_fract_x
_atom_site_fract_y
_atom_site_fract_z
Si Si1 0.376327 0.664439 0.638767
Si Si2 0.484001 0.070269 0.859571
Si Si3 0.309740 0.975029 0.311974
Si Si4 0.145842 0.337121 0.278632
Si Si5 0.978718 0.454143 0.807812
Si Si6 0.751078 0.833882 0.213018
Si Si7 0.185697 0.494382 0.783677
O O1 0.309707 0.750000 0.507133
O O2 0.297055 0.602167 0.380938
O O3 0.389562 0.630942 0.828601
O O4 0.567207 0.667261 0.937528
O O5 0.307668 0.113404 0.546140
O O6 0.461484 0.025992 0.663351
O O7 0.500000 0.000000 0.000000
O O8 0.144707 0.022495 0.036286
O O9 0.301016 0.964198 0.122036
O O10 0.179771 0.250000 0.314629
O O11 0.123870 0.345511 0.412025
O O12 0.995881 0.368853 0.896993
O O13 0.830430 0.474087 0.414084
O O14 0.000000 0.500000 0.000000
O O15 0.780034 0.750000 0.204110
O O16 0.765715 0.906064 0.137659
O O17 0.000000 0.500000 0.500000
#
# Coordination Sequence:
#
# PCOD9157408 Si02
#       7
#     4   4   4   4   4   4   4
#     4   9  17  32  54  78 102 134 175 217 258 313
#     4   8  14  27  48  73 100 126 163 205 253 304
#     4   9  19  32  49  78 107 134 169 215 266 309
#     4   9  16  28  49  76  97 126 174 221 255 294
#     4  10  18  33  53  73 101 141 180 217 250 307
#     4   9  17  31  53  76  98 129 173 218 262 309
#     4  10  20  34  49  76 108 135 175 214 261 310
#
# _framework density 21.618569000000001
#
# number of rings (size 3 to 8) (size 9 to 14) (size 15 to 20)
#    0.000    2.857    1.429    1.286    0.000    0.571 
#    0.000   11.429    0.000    0.000    0.000    0.000 
#    0.000    0.000    0.000    0.000    0.000    0.000 
#
# Total GULP energy -155962.077065 kJ/mol
# GULP energy per Si atom -5570.074181 kJ/mol
# Density = 2.156936 g / cm^3
# Si number density = 21.618569 Si / 1000 Ang^3
#
#
#
# Elastic Constant Matrix: (Units=GPa)
#
#
# Indices 1 2 3 4 5 6 
#
# 1 50.8055 0.1273 18.9240 0.0000 -11.5577 0.0000
# 2 0.1273 130.5211 40.8787 0.0000 -17.1721 0.0000
# 3 18.9240 40.8787 134.7423 0.0000 -37.3146 0.0000
# 4 0.0000 0.0000 0.0000 24.0282 0.0000 -0.2807
# 5 -11.5577 -17.1721 -37.3146 0.0000 40.1935 0.0000
# 6 0.0000 0.0000 0.0000 -0.2807 0.0000 24.9494
#
#
#
# Elastic Compliance Matrix: (Units=1/GPa)
#
#
# Indices 1 2 3 4 5 6 
#
# 1 0.021547 0.001262 -0.002078 0.000000 0.004806 0.000000
# 2 0.001262 0.008623 -0.002251 0.000000 0.001957 0.000000
# 3 -0.002078 -0.002251 0.010721 0.000000 0.008394 0.000000
# 4 0.000000 0.000000 0.000000 0.041623 0.000000 0.000468
# 5 0.004806 0.001957 0.008394 0.000000 0.034890 0.000000
# 6 0.000000 0.000000 0.000000 0.000468 0.000000 0.040086
#
#
# Mechanical properties :
#
#
# Convention : Reuss Voigt Hill
#
# Bulk Modulus (GPa) = 28.77202 48.43653 38.60427
# Shear Modulus (GPa) = 28.53701 34.91014 31.72357
#
# Velocity S-wave (km/s) = 3.63715 4.02284 3.83485
# Velocity P-wave (km/s) = 5.56564 6.63562 6.12404
#
# Compressibility (1/GPa) = 0.03475599
#
# Stress axis : x y z
#
# Youngs Moduli (GPa) = 46.40997 115.96962 93.27514
#
# Poissons Ratio (x) = -0.14637 0.19385
# Poissons Ratio (y) = -0.05858 0.21000
# Poissons Ratio (z) = 0.09645 0.26110
#
# Static dielectric constant tensor:
#      x y z
#    x 1.922120 0.000000 0.001850 
#    y 0.000000 1.792400 0.000000 
#    z 0.001850 0.000000 1.912360 
# 
# From -- ./inp_files/27030.got.cif
#   From: 2010.05.17/outbox.cif.g08.bks.cpg/sg11_14_cif.got.tgz:27030.got - 2010.06.03 12:22:45.
