data_PCOD9157744
_publ_section_title
;
Structure prediction by ZEFSAII (Michael W. Deem and Ramdas Pophale) SiO2 
 PCOD9157744
Probable space group: P 21/M
;
_chemical_formula_sum "Si O2"
_cell_formula_units_Z 30
_cell_length_a 24.088645
_cell_length_b 9.595205
_cell_length_c 10.878845
_cell_angle_alpha 90.000000
_cell_angle_beta 149.395961
_cell_angle_gamma 90.000000
_cell_volume 1280.130660
_symmetry_space_group_name_H-M "P 21/M"
_symmetry_group_IT_number 11
_symmetry_cell_setting 'monoclinic'
loop_
_space_group_symop_operation_xyz
x,y,z
-x,1/2+y,-z
-x,-y,-z
x,1/2-y,z
loop_
_atom_site_type_symbol
_atom_site_label
_atom_site_fract_x
_atom_site_fract_y
_atom_site_fract_z
Si Si1 0.641003 0.588761 0.679565
Si Si2 0.444975 0.021864 0.745515
Si Si3 0.863154 0.593277 0.971089
Si Si4 0.888689 0.085634 0.796254
Si Si5 0.721611 0.597975 0.359419
Si Si6 0.067297 0.586472 0.527466
Si Si7 0.288565 0.412854 0.934193
Si Si8 0.549066 0.250000 0.076933
O O1 0.605798 0.750000 0.606539
O O2 0.589143 0.518582 0.461016
O O3 0.771969 0.584189 0.902518
O O4 0.632242 0.539482 0.803927
O O5 0.356823 0.098169 0.671099
O O6 0.543530 0.127025 0.960686
O O7 0.448564 0.871427 0.812236
O O8 0.851050 0.750000 0.893445
O O9 0.985556 0.582951 0.255157
O O10 0.841388 0.469224 0.835415
O O11 0.902266 0.250000 0.816267
O O12 0.804100 0.028637 0.535194
O O13 0.000000 0.000000 0.000000
O O14 0.779503 0.750000 0.470463
O O15 0.668390 0.591676 0.123165
O O16 0.081619 0.750000 0.587370
O O17 0.181372 0.508673 0.727057
O O18 0.000000 0.500000 0.500000
O O19 0.259999 0.250000 0.908430
#
# Coordination Sequence:
#
# PCOD9157744 Si02
#       8
#     4   4   4   4   4   4   4   2
#     4  10  18  36  62  86 118 157 198 245 299 358
#     4  11  21  42  69  98 126 156 200 249 316 374
#     4  10  20  35  57  80 113 159 210 260 305 351
#     4  12  25  38  56  84 123 166 214 261 308 359
#     4  11  22  39  64  91 127 165 205 256 311 370
#     4  11  21  35  53  79 119 167 215 263 304 351
#     4  10  22  38  58  86 120 167 212 249 300 364
#     4  10  24  40  70 102 124 152 196 256 310 390
#
# _framework density 23.435108
#
# number of rings (size 3 to 8) (size 9 to 14) (size 15 to 20)
#    0.000    1.333    4.000    2.400    0.933    3.733 
#    1.200    0.000    0.000    4.800    0.000    0.000 
#    0.000    0.000    0.000    0.000    0.000    0.000 
#
# Total GULP energy -167055.908917 kJ/mol
# GULP energy per Si atom -5568.530297 kJ/mol
# Density = 2.338177 g / cm^3
# Si number density = 23.435108 Si / 1000 Ang^3
#
#
#
# Elastic Constant Matrix: (Units=GPa)
#
#
# Indices 1 2 3 4 5 6 
#
# 1 88.9877 27.0054 30.2375 0.0000 -21.4518 0.0000
# 2 27.0054 206.1552 44.7587 0.0000 -15.2662 0.0000
# 3 30.2375 44.7587 120.0025 0.0000 -46.3027 0.0000
# 4 0.0000 0.0000 0.0000 94.1097 0.0000 23.6058
# 5 -21.4518 -15.2662 -46.3027 0.0000 39.6245 0.0000
# 6 0.0000 0.0000 0.0000 23.6058 0.0000 43.2037
#
#
#
# Elastic Compliance Matrix: (Units=1/GPa)
#
#
# Indices 1 2 3 4 5 6 
#
# 1 0.013244 -0.001163 -0.000564 0.000000 0.006063 0.000000
# 2 -0.001163 0.005385 -0.002109 0.000000 -0.001019 0.000000
# 3 -0.000564 -0.002109 0.016081 0.000000 0.017674 0.000000
# 4 0.000000 0.000000 0.000000 0.012313 0.000000 -0.006728
# 5 0.006063 -0.001019 0.017674 0.000000 0.048779 0.000000
# 6 0.000000 0.000000 0.000000 -0.006728 0.000000 0.026822
#
#
# Mechanical properties :
#
#
# Convention : Reuss Voigt Hill
#
# Bulk Modulus (GPa) = 36.98474 68.79428 52.88951
# Shear Modulus (GPa) = 35.89127 56.26385 46.07756
#
# Velocity S-wave (km/s) = 3.91771 4.90515 4.43897
# Velocity P-wave (km/s) = 6.02334 7.84217 6.99214
#
# Compressibility (1/GPa) = 0.02703818
#
# Stress axis : x y z
#
# Youngs Moduli (GPa) = 75.50761 185.68404 62.18473
#
# Poissons Ratio (x) = 0.21604 0.03506
# Poissons Ratio (y) = 0.08785 0.13113
# Poissons Ratio (z) = 0.04257 0.39156
#
# Static dielectric constant tensor:
#      x y z
#    x 2.002550 0.000000 0.051360 
#    y 0.000000 1.815530 0.000000 
#    z 0.051360 0.000000 1.998780 
# 
# From -- ./inp_files/45085.got.cif
#   From: 2010.05.17/outbox.cif.g08.bks.cpg/sg11_23_cif.got.tgz:45085.got - 2010.06.03 12:22:45.
