data_PCOD9157864
_publ_section_title
;
Structure prediction by ZEFSAII (Michael W. Deem and Ramdas Pophale) SiO2 
 PCOD9157864
Probable space group: P 21/M
;
_chemical_formula_sum "Si O2"
_cell_formula_units_Z 24
_cell_length_a 27.186594
_cell_length_b 8.727745
_cell_length_c 11.729622
_cell_angle_alpha 90.000000
_cell_angle_beta 149.506967
_cell_angle_gamma 90.000000
_cell_volume 1412.277622
_symmetry_space_group_name_H-M "P 21/M"
_symmetry_group_IT_number 11
_symmetry_cell_setting 'monoclinic'
loop_
_space_group_symop_operation_xyz
x,y,z
-x,1/2+y,-z
-x,-y,-z
x,1/2-y,z
loop_
_atom_site_type_symbol
_atom_site_label
_atom_site_fract_x
_atom_site_fract_y
_atom_site_fract_z
Si Si1 0.388449 0.934863 0.901228
Si Si2 0.400525 0.076485 0.269554
Si Si3 0.404041 0.567336 0.667258
Si Si4 0.741004 0.922912 0.798565
Si Si5 0.752235 0.429603 0.192444
Si Si6 0.892423 0.934381 0.285894
O O1 0.393029 0.750000 0.918832
O O2 0.386485 0.978314 0.764127
O O3 0.289723 0.983120 0.769046
O O4 0.490218 0.998985 0.154071
O O5 0.409548 0.250000 0.240168
O O6 0.337939 0.088316 0.258833
O O7 0.500000 0.000000 0.500000
O O8 0.342615 0.962855 0.072530
O O9 0.411443 0.750000 0.675763
O O10 0.314171 0.513133 0.410709
O O11 0.764073 0.750000 0.804708
O O12 0.833287 0.986895 0.053831
O O13 0.775998 0.250000 0.245169
O O14 0.836034 0.513834 0.288259
O O15 0.891902 0.750000 0.281915
O O16 0.000000 0.000000 0.500000
#
# Coordination Sequence:
#
# PCOD9157864 Si02
#       6
#     4   4   4   4   4   4
#     4   9  19  33  47  69 103 138 168 201 241 281
#     4  10  19  29  42  65  97 128 160 198 241 290
#     4  10  19  30  48  73 100 134 173 205 233 278
#     4   9  19  33  47  67  97 128 156 195 245 291
#     4  10  19  32  50  70  96 129 162 199 245 293
#     4  10  21  37  56  77  99 123 157 202 253 303
#
# _framework density 16.993825999999999
#
# number of rings (size 3 to 8) (size 9 to 14) (size 15 to 20)
#    0.000    2.333    0.000    4.000    0.000   10.000 
#    0.000    0.000    0.000    1.000    0.000    0.000 
#    0.000    0.000    0.000    0.000    0.000    0.000 
#
# Total GULP energy -133651.817782 kJ/mol
# GULP energy per Si atom -5568.825741 kJ/mol
# Density = 1.695515 g / cm^3
# Si number density = 16.993826 Si / 1000 Ang^3
#
#
#
# Elastic Constant Matrix: (Units=GPa)
#
#
# Indices 1 2 3 4 5 6 
#
# 1 84.7862 19.0892 44.8901 0.0000 8.3490 0.0000
# 2 19.0892 30.3416 23.7379 0.0000 1.0697 0.0000
# 3 44.8901 23.7379 113.0088 0.0000 12.1135 0.0000
# 4 0.0000 0.0000 0.0000 23.7018 0.0000 -1.4583
# 5 8.3490 1.0697 12.1135 0.0000 24.0843 0.0000
# 6 0.0000 0.0000 0.0000 -1.4583 0.0000 21.6615
#
#
#
# Elastic Compliance Matrix: (Units=1/GPa)
#
#
# Indices 1 2 3 4 5 6 
#
# 1 0.015991 -0.006260 -0.004728 0.000000 -0.002888 0.000000
# 2 -0.006260 0.042039 -0.006740 0.000000 0.003693 0.000000
# 3 -0.004728 -0.006740 0.012615 0.000000 -0.004407 0.000000
# 4 0.000000 0.000000 0.000000 0.042366 0.000000 0.002852
# 5 -0.002888 0.003693 -0.004407 0.000000 0.044574 0.000000
# 6 0.000000 0.000000 0.000000 0.002852 0.000000 0.046357
#
#
# Mechanical properties :
#
#
# Convention : Reuss Voigt Hill
#
# Bulk Modulus (GPa) = 28.41692 44.84122 36.62907
# Shear Modulus (GPa) = 19.91019 23.25082 21.58050
#
# Velocity S-wave (km/s) = 3.42660 3.70292 3.56744
# Velocity P-wave (km/s) = 5.69330 6.68777 6.21047
#
# Compressibility (1/GPa) = 0.03519030
#
# Stress axis : x y z
#
# Youngs Moduli (GPa) = 62.53431 23.78732 79.27187
#
# Poissons Ratio (x) = 0.14892 0.37477
# Poissons Ratio (y) = 0.39148 0.53426
# Poissons Ratio (z) = 0.29564 0.16032
#
# Static dielectric constant tensor:
#      x y z
#    x 1.615150 0.000000 -0.013140 
#    y 0.000000 1.597620 0.000000 
#    z -0.013140 0.000000 1.513660 
# 
# From -- ./inp_files/40491.got.cif
#   From: 2010.05.17/outbox.cif.g08.bks.cpg/sg11_21_cif.got.tgz:40491.got - 2010.06.03 12:22:45.
