data_PCOD9157076
_publ_section_title
;
Structure prediction by ZEFSAII (Michael W. Deem and Ramdas Pophale) SiO2 
 PCOD9157076
Probable space group: P 21/M
;
_chemical_formula_sum "Si O2"
_cell_formula_units_Z 28
_cell_length_a 12.838267
_cell_length_b 15.884454
_cell_length_c 23.593847
_cell_angle_alpha 90.000000
_cell_angle_beta 18.736485
_cell_angle_gamma 90.000000
_cell_volume 1545.520427
_symmetry_space_group_name_H-M "P 21/M"
_symmetry_group_IT_number 11
_symmetry_cell_setting 'monoclinic'
loop_
_space_group_symop_operation_xyz
x,y,z
-x,1/2+y,-z
-x,-y,-z
x,1/2-y,z
loop_
_atom_site_type_symbol
_atom_site_label
_atom_site_fract_x
_atom_site_fract_y
_atom_site_fract_z
Si Si1 0.472411 0.077136 0.172562
Si Si2 0.248432 0.845312 0.208505
Si Si3 0.133288 0.096387 0.050331
Si Si4 0.169772 0.010377 0.513904
Si Si5 0.763005 0.078939 0.135325
Si Si6 0.793078 0.150742 0.902003
Si Si7 0.350412 0.480871 0.637495
O O1 0.647550 0.120400 0.136031
O O2 0.522817 0.124474 0.087224
O O3 0.099555 0.051527 0.373224
O O4 0.662773 0.988379 0.068878
O O5 0.117605 0.750000 0.278508
O O6 0.284117 0.870085 0.123871
O O7 0.018082 0.911379 0.359579
O O8 0.602186 0.847255 0.055136
O O9 0.960113 0.128817 0.082368
O O10 0.851621 0.062058 0.236571
O O11 0.434470 0.043278 0.333034
O O12 0.373458 0.965457 0.458432
O O13 0.000000 0.000000 0.000000
O O14 0.849527 0.250000 0.876278
O O15 0.105906 0.096792 0.758298
O O16 0.500000 0.500000 0.500000
#
# Coordination Sequence:
#
# PCOD9157076 Si02
#       7
#     4   4   4   4   4   4   4
#     4   9  18  32  56  76 103 138 177 215 257 319
#     4  10  20  35  52  78 111 138 175 225 273 317
#     4   8  18  31  52  76 101 138 174 213 261 312
#     4  10  19  32  57  83 103 138 182 227 267 316
#     4   9  17  34  54  81 105 132 177 224 265 309
#     4  10  21  36  52  76 112 146 173 219 277 324
#     4  10  18  31  52  78 107 138 180 218 263 322
#
# _framework density 18.116873999999999
#
# number of rings (size 3 to 8) (size 9 to 14) (size 15 to 20)
#    0.000    2.571    1.429    1.286    2.000    1.714 
#    0.000    5.714    0.000    0.000    0.000    0.000 
#    0.000    0.000    0.000    0.000    0.000    0.000 
#
# Total GULP energy -155921.355974 kJ/mol
# GULP energy per Si atom -5568.619856 kJ/mol
# Density = 1.807564 g / cm^3
# Si number density = 18.116874 Si / 1000 Ang^3
#
#
#
# Elastic Constant Matrix: (Units=GPa)
#
#
# Indices 1 2 3 4 5 6 
#
# 1 115.5561 22.0289 40.7923 0.0000 -6.5569 0.0000
# 2 22.0289 39.9384 8.4978 0.0000 -2.1757 0.0000
# 3 40.7923 8.4978 90.7609 0.0000 -2.4215 0.0000
# 4 0.0000 0.0000 0.0000 12.7973 0.0000 -1.4693
# 5 -6.5569 -2.1757 -2.4215 0.0000 29.3943 0.0000
# 6 0.0000 0.0000 0.0000 -1.4693 0.0000 10.8396
#
#
#
# Elastic Compliance Matrix: (Units=1/GPa)
#
#
# Indices 1 2 3 4 5 6 
#
# 1 0.011359 -0.005196 -0.004571 0.000000 0.001773 0.000000
# 2 -0.005196 0.028009 -0.000263 0.000000 0.000892 0.000000
# 3 -0.004571 -0.000263 0.013098 0.000000 0.000040 0.000000
# 4 0.000000 0.000000 0.000000 0.079377 0.000000 0.010759
# 5 0.001773 0.000892 0.000040 0.000000 0.034485 0.000000
# 6 0.000000 0.000000 0.000000 0.010759 0.000000 0.093712
#
#
# Mechanical properties :
#
#
# Convention : Reuss Voigt Hill
#
# Bulk Modulus (GPa) = 30.85959 43.21039 37.03499
# Shear Modulus (GPa) = 17.18787 22.26866 19.72826
#
# Velocity S-wave (km/s) = 3.08347 3.50975 3.30350
# Velocity P-wave (km/s) = 5.45414 6.35037 5.91924
#
# Compressibility (1/GPa) = 0.03240484
#
# Stress axis : x y z
#
# Youngs Moduli (GPa) = 88.03879 35.70264 76.34605
#
# Poissons Ratio (x) = 0.18551 0.34900
# Poissons Ratio (y) = 0.45744 0.02011
# Poissons Ratio (z) = 0.40246 0.00940
#
# Static dielectric constant tensor:
#      x y z
#    x 1.679920 0.000000 0.010810 
#    y 0.000000 1.601380 0.000000 
#    z 0.010810 0.000000 1.631280 
# 
# From -- ./inp_files/44335.got.cif
#   From: 2010.05.17/outbox.cif.g08.bks.cpg/sg11_23_cif.got.tgz:44335.got - 2010.06.03 12:22:45.
