data_PCOD9157365
_publ_section_title
;
Structure prediction by ZEFSAII (Michael W. Deem and Ramdas Pophale) SiO2 
 PCOD9157365
Probable space group: P 21/M
;
_chemical_formula_sum "Si O2"
_cell_formula_units_Z 32
_cell_length_a 12.603210
_cell_length_b 25.217892
_cell_length_c 11.873190
_cell_angle_alpha 90.000000
_cell_angle_beta 155.797236
_cell_angle_gamma 90.000000
_cell_volume 1547.056973
_symmetry_space_group_name_H-M "P 21/M"
_symmetry_group_IT_number 11
_symmetry_cell_setting 'monoclinic'
loop_
_space_group_symop_operation_xyz
x,y,z
-x,1/2+y,-z
-x,-y,-z
x,1/2-y,z
loop_
_atom_site_type_symbol
_atom_site_label
_atom_site_fract_x
_atom_site_fract_y
_atom_site_fract_z
Si Si1 0.837106 0.591852 0.848306
Si Si2 0.649110 0.810184 0.254019
Si Si3 0.277191 0.968397 0.662811
Si Si4 0.168994 0.191820 0.306958
Si Si5 0.788057 0.548085 0.030661
Si Si6 0.752475 0.137350 0.018014
Si Si7 0.620295 0.054266 0.727925
Si Si8 0.911523 0.582602 0.489649
O O1 0.763498 0.646975 0.717238
O O2 0.806203 0.592773 0.952488
O O3 0.634020 0.550994 0.594558
O O4 0.128903 0.574699 0.098560
O O5 0.683000 0.750000 0.244655
O O6 0.719446 0.809161 0.456715
O O7 0.793033 0.860582 0.338326
O O8 0.354187 0.830192 0.979269
O O9 0.555932 0.946907 0.895773
O O10 0.148231 0.937994 0.642627
O O11 0.278336 0.031818 0.688543
O O12 0.062298 0.960565 0.356529
O O13 0.214913 0.250000 0.306137
O O14 0.868479 0.179329 0.043566
O O15 0.704198 0.497166 0.876867
O O16 0.971116 0.097079 0.274744
O O17 0.563860 0.098425 0.769476
#
# Coordination Sequence:
#
# PCOD9157365 Si02
#       8
#     4   4   4   4   4   4   4   4
#     4  11  22  36  56  82 116 154 188 232 284 341
#     4  10  19  34  59  86 116 147 188 239 295 356
#     4  11  25  39  61  85 117 156 202 241 289 342
#     4   9  19  33  51  82 114 145 184 231 288 348
#     4  12  23  38  57  83 116 155 198 238 275 340
#     4  10  18  32  57  82 120 144 182 232 294 352
#     4  11  20  35  55  84 116 150 183 229 282 345
#     4  10  23  38  58  84 117 155 190 245 298 348
#
# _framework density 20.684436000000002
#
# number of rings (size 3 to 8) (size 9 to 14) (size 15 to 20)
#    0.000    1.500    2.500    3.375    3.500    1.500 
#    0.000    0.000    0.000    1.500    0.000    0.000 
#    0.000    0.000    0.000    0.000    0.000    0.000 
#
# Total GULP energy -178508.003810 kJ/mol
# GULP energy per Si atom -5578.375119 kJ/mol
# Density = 2.063736 g / cm^3
# Si number density = 20.684436 Si / 1000 Ang^3
#
#
#
# Elastic Constant Matrix: (Units=GPa)
#
#
# Indices 1 2 3 4 5 6 
#
# 1 68.3694 33.3963 9.7093 0.0000 10.6082 0.0000
# 2 33.3963 119.8644 5.9769 0.0000 6.5866 0.0000
# 3 9.7093 5.9769 57.1454 0.0000 1.7527 0.0000
# 4 0.0000 0.0000 0.0000 15.1500 0.0000 -0.2080
# 5 10.6082 6.5866 1.7527 0.0000 28.8167 0.0000
# 6 0.0000 0.0000 0.0000 -0.2080 0.0000 30.3218
#
#
#
# Elastic Compliance Matrix: (Units=1/GPa)
#
#
# Indices 1 2 3 4 5 6 
#
# 1 0.018070 -0.004614 -0.002420 0.000000 -0.005450 0.000000
# 2 -0.004614 0.009666 -0.000212 0.000000 -0.000498 0.000000
# 3 -0.002420 -0.000212 0.017937 0.000000 -0.000152 0.000000
# 4 0.000000 0.000000 0.000000 0.066013 0.000000 0.000453
# 5 -0.005450 -0.000498 -0.000152 0.000000 0.036831 0.000000
# 6 0.000000 0.000000 0.000000 0.000453 0.000000 0.032983
#
#
# Mechanical properties :
#
#
# Convention : Reuss Voigt Hill
#
# Bulk Modulus (GPa) = 32.07147 38.17159 35.12153
# Shear Modulus (GPa) = 24.22639 27.94415 26.08527
#
# Velocity S-wave (km/s) = 3.42605 3.67955 3.55506
# Velocity P-wave (km/s) = 5.58473 6.04536 5.81960
#
# Compressibility (1/GPa) = 0.03118036
#
# Stress axis : x y z
#
# Youngs Moduli (GPa) = 55.34113 103.45196 55.74990
#
# Poissons Ratio (x) = 0.47737 0.13494
# Poissons Ratio (y) = 0.25536 0.01180
# Poissons Ratio (z) = 0.13395 0.02190
#
# Static dielectric constant tensor:
#      x y z
#    x 1.789420 0.000000 0.053960 
#    y 0.000000 1.763380 0.000000 
#    z 0.053960 0.000000 1.879310 
# 
# From -- ./inp_files/36580.got.cif
#   From: 2010.05.17/outbox.cif.g08.bks.cpg/sg11_19_cif.got.tgz:36580.got - 2010.06.03 12:22:45.
