data_PCOD9157770
_publ_section_title
;
Structure prediction by ZEFSAII (Michael W. Deem and Ramdas Pophale) SiO2 
 PCOD9157770
Probable space group: P 21/M
;
_chemical_formula_sum "Si O2"
_cell_formula_units_Z 32
_cell_length_a 8.478978
_cell_length_b 24.851686
_cell_length_c 14.017150
_cell_angle_alpha 90.000000
_cell_angle_beta 146.445390
_cell_angle_gamma 90.000000
_cell_volume 1632.575697
_symmetry_space_group_name_H-M "P 21/M"
_symmetry_group_IT_number 11
_symmetry_cell_setting 'monoclinic'
loop_
_space_group_symop_operation_xyz
x,y,z
-x,1/2+y,-z
-x,-y,-z
x,1/2-y,z
loop_
_atom_site_type_symbol
_atom_site_label
_atom_site_fract_x
_atom_site_fract_y
_atom_site_fract_z
Si Si1 0.655408 0.860284 0.435928
Si Si2 0.341710 0.132748 0.944475
Si Si3 0.901527 0.189947 0.207598
Si Si4 0.683218 0.032178 0.170990
Si Si5 0.611316 0.572594 0.232356
Si Si6 0.308600 0.447696 0.394844
Si Si7 0.032038 0.109679 0.100402
Si Si8 0.048792 0.686350 0.110397
O O1 0.735774 0.897477 0.386828
O O2 0.564078 0.900088 0.476061
O O3 0.918176 0.826494 0.609014
O O4 0.388347 0.823243 0.273395
O O5 0.567561 0.181147 0.053434
O O6 0.505454 0.087322 0.091015
O O7 0.305286 0.104979 0.822459
O O8 0.062649 0.157964 0.849724
O O9 0.971976 0.250000 0.214513
O O10 0.978170 0.149037 0.162499
O O11 0.993396 0.042900 0.282033
O O12 0.695292 0.989719 0.263099
O O13 0.500000 0.000000 0.000000
O O14 0.266189 0.578408 0.067956
O O15 0.500000 0.500000 0.500000
O O16 0.262975 0.430752 0.261436
O O17 0.091520 0.149160 0.042781
O O18 0.985375 0.750000 0.072741
#
# Coordination Sequence:
#
# PCOD9157770 Si02
#       8
#     4   4   4   4   4   4   4   4
#     4  10  22  38  55  88 118 146 195 238 292 349
#     4  10  20  37  59  83 111 148 194 237 282 345
#     4  10  18  37  60  76 108 151 190 238 289 339
#     4  10  18  37  61  82 117 152 190 231 282 345
#     4   9  19  36  62  81 113 156 188 230 286 350
#     4  11  22  37  59  93 121 155 191 234 299 352
#     4   9  19  39  56  84 113 149 196 231 286 353
#     4  11  23  38  60  87 113 150 199 249 291 337
#
# _framework density 19.600929000000001
#
# number of rings (size 3 to 8) (size 9 to 14) (size 15 to 20)
#    0.000    2.000    5.000    1.125    3.500    1.500 
#    2.250    4.375    0.000    0.000    0.000    0.000 
#    0.000    0.000    0.000    0.000    0.000    0.000 
#
# Total GULP energy -178389.166387 kJ/mol
# GULP energy per Si atom -5574.661450 kJ/mol
# Density = 1.955632 g / cm^3
# Si number density = 19.600929 Si / 1000 Ang^3
#
#
#
# Elastic Constant Matrix: (Units=GPa)
#
#
# Indices 1 2 3 4 5 6 
#
# 1 38.8330 1.6857 2.5360 0.0000 -2.1270 0.0000
# 2 1.6857 72.1172 7.4943 0.0000 9.9643 0.0000
# 3 2.5360 7.4943 47.4875 0.0000 -7.1342 0.0000
# 4 0.0000 0.0000 0.0000 27.8309 0.0000 4.2399
# 5 -2.1270 9.9643 -7.1342 0.0000 16.8190 0.0000
# 6 0.0000 0.0000 0.0000 4.2399 0.0000 18.0917
#
#
#
# Elastic Compliance Matrix: (Units=1/GPa)
#
#
# Indices 1 2 3 4 5 6 
#
# 1 0.026039 -0.001037 -0.000683 0.000000 0.003618 0.000000
# 2 -0.001037 0.015883 -0.004149 0.000000 -0.011301 0.000000
# 3 -0.000683 -0.004149 0.023610 0.000000 0.012386 0.000000
# 4 0.000000 0.000000 0.000000 0.037262 0.000000 -0.008732
# 5 0.003618 -0.011301 0.012386 0.000000 0.071863 0.000000
# 6 0.000000 0.000000 0.000000 -0.008732 0.000000 0.057321
#
#
# Mechanical properties :
#
#
# Convention : Reuss Voigt Hill
#
# Bulk Modulus (GPa) = 18.58979 20.20773 19.39876
# Shear Modulus (GPa) = 19.10962 22.32977 20.71969
#
# Velocity S-wave (km/s) = 3.12578 3.37890 3.25480
# Velocity P-wave (km/s) = 4.74680 5.05515 4.90340
#
# Compressibility (1/GPa) = 0.05379296
#
# Stress axis : x y z
#
# Youngs Moduli (GPa) = 38.40378 62.95987 42.35443
#
# Poissons Ratio (x) = 0.06532 0.02894
# Poissons Ratio (y) = 0.03984 0.17573
# Poissons Ratio (z) = 0.02624 0.26122
#
# Static dielectric constant tensor:
#      x y z
#    x 1.703960 0.000000 -0.017540 
#    y 0.000000 1.717810 0.000000 
#    z -0.017540 0.000000 1.706520 
# 
# From -- ./inp_files/23381.got.cif
#   From: 2010.05.17/outbox.cif.g08.bks.cpg/sg11_12_cif.got.tgz:23381.got - 2010.06.03 12:22:45.
