data_PCOD9157130
_publ_section_title
;
Structure prediction by ZEFSAII (Michael W. Deem and Ramdas Pophale) SiO2 
 PCOD9157130
Probable space group: P 21/M
;
_chemical_formula_sum "Si O2"
_cell_formula_units_Z 32
_cell_length_a 11.576178
_cell_length_b 22.301013
_cell_length_c 12.881148
_cell_angle_alpha 90.000000
_cell_angle_beta 143.821675
_cell_angle_gamma 90.000000
_cell_volume 1962.986891
_symmetry_space_group_name_H-M "P 21/M"
_symmetry_group_IT_number 11
_symmetry_cell_setting 'monoclinic'
loop_
_space_group_symop_operation_xyz
x,y,z
-x,1/2+y,-z
-x,-y,-z
x,1/2-y,z
loop_
_atom_site_type_symbol
_atom_site_label
_atom_site_fract_x
_atom_site_fract_y
_atom_site_fract_z
Si Si1 0.392687 0.013284 0.106789
Si Si2 0.081957 0.978089 0.727404
Si Si3 0.235366 0.375121 0.117935
Si Si4 0.178964 0.929595 0.585729
Si Si5 0.635752 0.064550 0.712031
Si Si6 0.170743 0.818542 0.223094
Si Si7 0.335492 0.819268 0.574733
Si Si8 0.788647 0.954914 0.698628
O O1 0.276108 0.070794 0.067248
O O2 0.619159 0.032132 0.266810
O O3 0.368375 0.961531 0.175345
O O4 0.292446 0.994463 0.927267
O O5 0.099068 0.931803 0.644785
O O6 0.953126 0.955585 0.730534
O O7 0.972744 0.035798 0.598936
O O8 0.438927 0.339461 0.273513
O O9 0.185089 0.406754 0.191039
O O10 0.057195 0.334071 0.953775
O O11 0.232477 0.865030 0.578971
O O12 0.712181 0.131638 0.756820
O O13 0.419929 0.057608 0.506866
O O14 0.771823 0.020044 0.741745
O O15 0.209908 0.750000 0.220424
O O16 0.236502 0.825821 0.390183
O O17 0.323132 0.750000 0.597808
#
# Coordination Sequence:
#
# PCOD9157130 Si02
#       8
#     4   4   4   4   4   4   4   4
#     4  10  19  32  54  77 103 133 163 215 262 303
#     4  11  20  32  51  77 105 134 167 211 259 298
#     4  10  19  32  53  80 103 129 166 205 259 312
#     4  10  21  34  50  76 103 133 175 211 250 301
#     4  10  18  32  52  77 106 133 165 203 265 312
#     4  11  21  32  50  77 106 135 168 206 251 312
#     4  10  20  35  53  72 102 134 167 210 249 295
#     4  10  18  31  54  78 106 132 161 211 261 310
#
# _framework density 16.301689
#
# number of rings (size 3 to 8) (size 9 to 14) (size 15 to 20)
#    0.000    1.750    2.500    3.750    0.000    2.000 
#    0.000    0.000    0.000    4.500    0.000    0.000 
#    0.000    0.000    0.000    0.000    0.000    0.000 
#
# Total GULP energy -178646.050972 kJ/mol
# GULP energy per Si atom -5582.689093 kJ/mol
# Density = 1.626459 g / cm^3
# Si number density = 16.301689 Si / 1000 Ang^3
#
#
#
# Elastic Constant Matrix: (Units=GPa)
#
#
# Indices 1 2 3 4 5 6 
#
# 1 59.2849 30.2613 4.2044 0.0000 -5.8505 0.0000
# 2 30.2613 112.5113 35.2578 0.0000 -2.4146 0.0000
# 3 4.2044 35.2578 89.5388 0.0000 0.7892 0.0000
# 4 0.0000 0.0000 0.0000 20.1107 0.0000 -0.0155
# 5 -5.8505 -2.4146 0.7892 0.0000 18.9289 0.0000
# 6 0.0000 0.0000 0.0000 -0.0155 0.0000 13.4280
#
#
#
# Elastic Compliance Matrix: (Units=1/GPa)
#
#
# Indices 1 2 3 4 5 6 
#
# 1 0.020238 -0.005718 0.001253 0.000000 0.005473 0.000000
# 2 -0.005718 0.011795 -0.004375 0.000000 -0.000080 0.000000
# 3 0.001253 -0.004375 0.012839 0.000000 -0.000706 0.000000
# 4 0.000000 0.000000 0.000000 0.049725 0.000000 0.000057
# 5 0.005473 -0.000080 -0.000706 0.000000 0.054540 0.000000
# 6 0.000000 0.000000 0.000000 0.000057 0.000000 0.074471
#
#
# Mechanical properties :
#
#
# Convention : Reuss Voigt Hill
#
# Bulk Modulus (GPa) = 36.77749 44.53132 40.65441
# Shear Modulus (GPa) = 19.97176 23.26761 21.61969
#
# Velocity S-wave (km/s) = 3.50399 3.78208 3.64569
# Velocity P-wave (km/s) = 6.24341 6.81531 6.53562
#
# Compressibility (1/GPa) = 0.02719054
#
# Stress axis : x y z
#
# Youngs Moduli (GPa) = 49.41228 84.77818 77.88973
#
# Poissons Ratio (x) = 0.48480 -0.09761
# Poissons Ratio (y) = 0.28256 0.34081
# Poissons Ratio (z) = -0.06193 0.37095
#
# Static dielectric constant tensor:
#      x y z
#    x 1.541070 0.000000 0.014940 
#    y 0.000000 1.526510 0.000000 
#    z 0.014940 0.000000 1.560860 
# 
# From -- ./inp_files/36349.got.cif
#   From: 2010.05.17/outbox.cif.g08.bks.cpg/sg11_19_cif.got.tgz:36349.got - 2010.06.03 12:22:45.
