data_PCOD9157393
_publ_section_title
;
Structure prediction by ZEFSAII (Michael W. Deem and Ramdas Pophale) SiO2 
 PCOD9157393
Probable space group: P 21/M
;
_chemical_formula_sum "Si O2"
_cell_formula_units_Z 26
_cell_length_a 7.486785
_cell_length_b 12.323898
_cell_length_c 21.448948
_cell_angle_alpha 90.000000
_cell_angle_beta 143.369050
_cell_angle_gamma 90.000000
_cell_volume 1180.797027
_symmetry_space_group_name_H-M "P 21/M"
_symmetry_group_IT_number 11
_symmetry_cell_setting 'monoclinic'
loop_
_space_group_symop_operation_xyz
x,y,z
-x,1/2+y,-z
-x,-y,-z
x,1/2-y,z
loop_
_atom_site_type_symbol
_atom_site_label
_atom_site_fract_x
_atom_site_fract_y
_atom_site_fract_z
Si Si1 0.615005 0.250000 0.242859
Si Si2 0.223773 0.968333 0.506718
Si Si3 0.301432 0.624139 0.316107
Si Si4 0.104287 0.750000 0.797800
Si Si5 0.310692 0.375123 0.705274
Si Si6 0.232412 0.033643 0.118157
Si Si7 0.187366 0.525877 0.879332
Si Si8 0.567698 0.250000 0.371343
O O1 0.901373 0.250000 0.278283
O O2 0.416167 0.145590 0.168959
O O3 0.707442 0.250000 0.341306
O O4 0.357818 0.855356 0.568218
O O5 0.996604 0.942146 0.387415
O O6 0.487001 0.056587 0.577151
O O7 0.000000 0.000000 0.500000
O O8 0.256382 0.750000 0.320464
O O9 0.503344 0.623764 0.308578
O O10 0.989469 0.561896 0.213435
O O11 0.245912 0.637977 0.859832
O O12 0.781983 0.750000 0.738336
O O13 0.252759 0.250000 0.703931
O O14 0.527667 0.436927 0.812443
O O15 0.047784 0.040994 0.130513
O O16 0.000000 0.000000 0.000000
O O17 0.500000 0.500000 0.000000
#
# Coordination Sequence:
#
# PCOD9157393 Si02
#       8
#     2   4   4   2   4   4   4   2
#     4  12  24  42  65  97 132 173 225 276 331 394
#     4  10  18  32  62  97 125 172 217 270 327 402
#     4   9  18  32  52  89 132 160 210 271 319 392
#     4  12  24  42  66  93 132 181 222 277 333 398
#     4   9  18  34  59  96 126 167 221 261 330 400
#     4  11  23  41  63  95 134 173 221 282 330 397
#     4  11  22  39  61  94 131 173 224 273 334 398
#     4  12  20  42  67  98 134 164 231 273 330 406
#
# _framework density 22.019027000000001
#
# number of rings (size 3 to 8) (size 9 to 14) (size 15 to 20)
#    0.000    1.538    3.846    2.769    3.231    0.000 
#    1.385    0.000    0.000    3.692    0.000    0.000 
#    0.000    0.000    0.000    0.000    0.000    0.000 
#
# Total GULP energy -145208.741359 kJ/mol
# GULP energy per Si atom -5584.951591 kJ/mol
# Density = 2.196891 g / cm^3
# Si number density = 22.019027 Si / 1000 Ang^3
#
#
#
# Elastic Constant Matrix: (Units=GPa)
#
#
# Indices 1 2 3 4 5 6 
#
# 1 64.5869 3.1047 -0.9026 0.0000 6.0096 0.0000
# 2 3.1047 152.4329 87.5606 0.0000 8.0824 0.0000
# 3 -0.9026 87.5606 179.2070 0.0000 -1.0319 0.0000
# 4 0.0000 0.0000 0.0000 25.4732 0.0000 -3.6966
# 5 6.0096 8.0824 -1.0319 0.0000 24.8667 0.0000
# 6 0.0000 0.0000 0.0000 -3.6966 0.0000 -18.8943
#
#
#
# Elastic Compliance Matrix: (Units=1/GPa)
#
#
# Indices 1 2 3 4 5 6 
#
# 1 0.015845 -0.000219 0.000165 0.000000 -0.003751 0.000000
# 2 -0.000219 0.009376 -0.004601 0.000000 -0.003186 0.000000
# 3 0.000165 -0.004601 0.007839 0.000000 0.001781 0.000000
# 4 0.000000 0.000000 0.000000 0.038173 0.000000 -0.007469
# 5 -0.003751 -0.003186 0.001781 0.000000 0.042230 0.000000
# 6 0.000000 0.000000 0.000000 -0.007469 0.000000 -0.051465
#
#
# Mechanical properties :
#
#
# Convention : Reuss Voigt Hill
#
# Bulk Modulus (GPa) = 42.10217 63.97247 53.03732
# Shear Modulus (GPa) = 63.11135 26.72006 44.91570
#
# Velocity S-wave (km/s) = 5.35952 3.48731 4.52138
# Velocity P-wave (km/s) = 7.58034 6.73286 7.16913
#
# Compressibility (1/GPa) = 0.02375175
#
# Stress axis : x y z
#
# Youngs Moduli (GPa) = 63.11184 106.65079 127.56481
#
# Poissons Ratio (x) = 0.02332 -0.02105
# Poissons Ratio (y) = 0.01380 0.58689
# Poissons Ratio (z) = -0.01041 0.49067
#
# Static dielectric constant tensor:
#      x y z
#    x 1.853610 0.000000 0.018750 
#    y 0.000000 1.727690 0.000000 
#    z 0.018750 0.000000 1.908570 
# 
# From -- ./inp_files/71075.got.cif
#   From: 2010.05.17/outbox.cif.g08.bks.cpg/sg11_36_cif.got.tgz:71075.got - 2010.06.03 12:22:45.
