data_PCOD9157749
_publ_section_title
;
Structure prediction by ZEFSAII (Michael W. Deem and Ramdas Pophale) SiO2 
 PCOD9157749
Probable space group: P 21/M
;
_chemical_formula_sum "Si O2"
_cell_formula_units_Z 24
_cell_length_a 7.317833
_cell_length_b 10.443751
_cell_length_c 22.095930
_cell_angle_alpha 90.000000
_cell_angle_beta 38.971454
_cell_angle_gamma 90.000000
_cell_volume 1062.076392
_symmetry_space_group_name_H-M "P 21/M"
_symmetry_group_IT_number 11
_symmetry_cell_setting 'monoclinic'
loop_
_space_group_symop_operation_xyz
x,y,z
-x,1/2+y,-z
-x,-y,-z
x,1/2-y,z
loop_
_atom_site_type_symbol
_atom_site_label
_atom_site_fract_x
_atom_site_fract_y
_atom_site_fract_z
Si Si1 0.042980 0.250000 0.817396
Si Si2 0.768759 0.453523 0.332647
Si Si3 0.710159 0.250000 0.665529
Si Si4 0.351267 0.000406 0.236908
Si Si5 0.766076 0.750000 0.349209
Si Si6 0.762608 0.602388 0.036773
Si Si7 0.940804 0.464187 0.151827
Si Si8 0.302306 0.250000 0.488269
O O1 0.392788 0.250000 0.718528
O O2 0.953373 0.250000 0.769925
O O3 0.986069 0.117234 0.865684
O O4 0.674474 0.601713 0.361871
O O5 0.885326 0.426290 0.235031
O O6 0.492903 0.369605 0.419619
O O7 0.046422 0.429811 0.304839
O O8 0.714464 0.376318 0.705518
O O9 0.970907 0.250000 0.550582
O O10 0.471575 0.953957 0.140790
O O11 0.630744 0.062251 0.198003
O O12 0.753306 0.750000 0.425569
O O13 0.803540 0.750000 0.046994
O O14 0.000000 0.500000 0.000000
O O15 0.808817 0.599641 0.952766
#
# Coordination Sequence:
#
# PCOD9157749 Si02
#       8
#     2   4   2   4   2   4   4   2
#     4   8  18  38  61  91 110 163 208 241 284 374
#     4  11  23  41  61  88 122 157 200 251 305 352
#     4  10  18  36  63  83 118 157 205 248 289 363
#     4  10  19  39  64  86 117 166 203 233 293 372
#     4  10  20  40  62  81 112 164 206 239 293 367
#     4  10  21  37  65  95 124 162 200 241 301 358
#     4   9  21  38  63  89 126 153 199 245 300 354
#     4  12  24  38  60  91 120 152 197 268 310 334
#
# _framework density 22.597244
#
# number of rings (size 3 to 8) (size 9 to 14) (size 15 to 20)
#    0.000    2.000    2.500    0.500    4.667    0.667 
#    9.000    2.500    0.000    0.000    0.000    0.000 
#    0.000    0.000    0.000    0.000    0.000    0.000 
#
# Total GULP energy -133722.877683 kJ/mol
# GULP energy per Si atom -5571.786570 kJ/mol
# Density = 2.254581 g / cm^3
# Si number density = 22.597244 Si / 1000 Ang^3
#
#
#
# Elastic Constant Matrix: (Units=GPa)
#
#
# Indices 1 2 3 4 5 6 
#
# 1 62.6814 -5.7398 4.8061 0.0000 -2.0076 0.0000
# 2 -5.7398 70.8141 7.4651 0.0000 -4.5177 0.0000
# 3 4.8061 7.4651 47.7513 0.0000 -11.0478 0.0000
# 4 0.0000 0.0000 0.0000 25.5602 0.0000 2.0354
# 5 -2.0076 -4.5177 -11.0478 0.0000 36.8307 0.0000
# 6 0.0000 0.0000 0.0000 2.0354 0.0000 29.2387
#
#
#
# Elastic Compliance Matrix: (Units=1/GPa)
#
#
# Indices 1 2 3 4 5 6 
#
# 1 0.016246 0.001536 -0.001748 0.000000 0.000550 0.000000
# 2 0.001536 0.014550 -0.002146 0.000000 0.001225 0.000000
# 3 -0.001748 -0.002146 0.022964 0.000000 0.006530 0.000000
# 4 0.000000 0.000000 0.000000 0.039341 0.000000 -0.002739
# 5 0.000550 0.001225 0.006530 0.000000 0.029290 0.000000
# 6 0.000000 0.000000 0.000000 -0.002739 0.000000 0.034392
#
#
# Mechanical properties :
#
#
# Convention : Reuss Voigt Hill
#
# Bulk Modulus (GPa) = 20.38962 21.58994 20.98978
# Shear Modulus (GPa) = 28.11394 29.97363 29.04379
#
# Velocity S-wave (km/s) = 3.53105 3.64597 3.58897
# Velocity P-wave (km/s) = 5.06627 5.22485 5.14617
#
# Compressibility (1/GPa) = 0.04904456
#
# Stress axis : x y z
#
# Youngs Moduli (GPa) = 61.55364 68.72680 43.54642
#
# Poissons Ratio (x) = -0.10558 0.07612
# Poissons Ratio (y) = -0.09456 0.09345
# Poissons Ratio (z) = 0.10760 0.14748
#
# Static dielectric constant tensor:
#      x y z
#    x 2.153690 0.000000 0.012870 
#    y 0.000000 1.863260 0.000000 
#    z 0.012870 0.000000 1.841640 
# 
# From -- ./inp_files/68001.got.cif
#   From: 2010.05.17/outbox.cif.g08.bks.cpg/sg11_35_cif.got.tgz:68001.got - 2010.06.03 12:22:45.
