data_PCOD9157403
_publ_section_title
;
Structure prediction by ZEFSAII (Michael W. Deem and Ramdas Pophale) SiO2 
 PCOD9157403
Probable space group: P 21/M
;
_chemical_formula_sum "Si O2"
_cell_formula_units_Z 28
_cell_length_a 10.309007
_cell_length_b 11.779484
_cell_length_c 12.585059
_cell_angle_alpha 90.000000
_cell_angle_beta 84.853062
_cell_angle_gamma 90.000000
_cell_volume 1522.101807
_symmetry_space_group_name_H-M "P 21/M"
_symmetry_group_IT_number 11
_symmetry_cell_setting 'monoclinic'
loop_
_space_group_symop_operation_xyz
x,y,z
-x,1/2+y,-z
-x,-y,-z
x,1/2-y,z
loop_
_atom_site_type_symbol
_atom_site_label
_atom_site_fract_x
_atom_site_fract_y
_atom_site_fract_z
Si Si1 0.253677 0.382467 0.531443
Si Si2 0.019364 0.115834 0.692117
Si Si3 0.251627 0.488307 0.314303
Si Si4 0.695600 0.464583 0.920086
Si Si5 0.516845 0.614417 0.346061
Si Si6 0.591726 0.619601 0.107352
Si Si7 0.977054 0.118644 0.936031
O O1 0.255496 0.250000 0.558438
O O2 0.133227 0.431003 0.607991
O O3 0.238661 0.395625 0.406935
O O4 0.391135 0.427020 0.565740
O O5 0.003418 0.250000 0.673582
O O6 0.882992 0.056359 0.677623
O O7 0.046606 0.104167 0.816212
O O8 0.282142 0.461024 0.188789
O O9 0.374917 0.561657 0.344169
O O10 0.560421 0.397416 0.913861
O O11 0.821660 0.386261 0.923790
O O12 0.676396 0.541707 0.024684
O O13 0.499195 0.750000 0.353080
O O14 0.594988 0.589385 0.231133
O O15 0.629092 0.750000 0.091854
O O16 0.006675 0.250000 0.972804
O O17 0.000000 0.000000 0.000000
#
# Coordination Sequence:
#
# PCOD9157403 Si02
#       7
#     4   4   4   4   4   4   4
#     4  10  20  32  49  76 105 135 174 221 267 311
#     4   9  19  35  54  76 101 136 180 219 263 322
#     4  10  18  33  52  73 100 136 171 215 262 318
#     4   9  19  32  50  78 105 137 177 220 277 321
#     4   9  18  31  51  76  99 130 176 221 260 314
#     4   9  17  31  52  76 103 136 178 222 267 329
#     4  10  21  36  56  80 110 145 183 227 274 327
#
# _framework density 18.395616
#
# number of rings (size 3 to 8) (size 9 to 14) (size 15 to 20)
#    0.000    2.571    0.000    1.714    2.000    4.571 
#    0.000    2.143    0.000    1.714    0.000    0.000 
#    0.000    0.000    0.000    0.000    0.000    0.000 
#
# Total GULP energy -155876.150279 kJ/mol
# GULP energy per Si atom -5567.005367 kJ/mol
# Density = 1.835375 g / cm^3
# Si number density = 18.395616 Si / 1000 Ang^3
#
#
#
# Elastic Constant Matrix: (Units=GPa)
#
#
# Indices 1 2 3 4 5 6 
#
# 1 64.4990 12.0135 14.0290 0.0000 -10.1207 0.0000
# 2 12.0135 41.6859 21.0367 0.0000 0.5811 0.0000
# 3 14.0290 21.0367 48.2540 0.0000 -6.4523 0.0000
# 4 0.0000 0.0000 0.0000 29.0435 0.0000 0.2469
# 5 -10.1207 0.5811 -6.4523 0.0000 29.5057 0.0000
# 6 0.0000 0.0000 0.0000 0.2469 0.0000 -3.8215
#
#
#
# Elastic Compliance Matrix: (Units=1/GPa)
#
#
# Indices 1 2 3 4 5 6 
#
# 1 0.017675 -0.003784 -0.002749 0.000000 0.005536 0.000000
# 2 -0.003784 0.031950 -0.013481 0.000000 -0.004875 0.000000
# 3 -0.002749 -0.013481 0.028132 0.000000 0.005474 0.000000
# 4 0.000000 0.000000 0.000000 0.034412 0.000000 0.002223
# 5 0.005536 -0.004875 0.005474 0.000000 0.037084 0.000000
# 6 0.000000 0.000000 0.000000 0.002223 0.000000 -0.261533
#
#
# Mechanical properties :
#
#
# Convention : Reuss Voigt Hill
#
# Bulk Modulus (GPa) = 26.50365 27.62192 27.06278
# Shear Modulus (GPa) = -83.78729 18.10286 -32.84222
#
# Velocity S-wave (km/s) = -6.75620 3.14042 -4.22990
# Velocity P-wave (km/s) = 6.81343 5.31015 3.01870
#
# Compressibility (1/GPa) = 0.03773065
#
# Stress axis : x y z
#
# Youngs Moduli (GPa) = 56.57551 31.29852 35.54671
#
# Poissons Ratio (x) = 0.11843 0.09772
# Poissons Ratio (y) = 0.21407 0.47920
# Poissons Ratio (z) = 0.15552 0.42193
#
# Static dielectric constant tensor:
#      x y z
#    x 1.657660 0.000000 0.000800 
#    y 0.000000 1.610890 0.000000 
#    z 0.000800 0.000000 1.649130 
# 
# From -- ./inp_files/34313.got.cif
#   From: 2010.05.17/outbox.cif.g08.bks.cpg/sg11_18_cif.got.tgz:34313.got - 2010.06.03 12:22:45.
