data_PCOD9157990
_publ_section_title
;
Structure prediction by ZEFSAII (Michael W. Deem and Ramdas Pophale) SiO2 
 PCOD9157990
Probable space group: P 21/M
;
_chemical_formula_sum "Si O2"
_cell_formula_units_Z 32
_cell_length_a 22.211444
_cell_length_b 8.444938
_cell_length_c 22.263639
_cell_angle_alpha 90.000000
_cell_angle_beta 25.783257
_cell_angle_gamma 90.000000
_cell_volume 1816.463633
_symmetry_space_group_name_H-M "P 21/M"
_symmetry_group_IT_number 11
_symmetry_cell_setting 'monoclinic'
loop_
_space_group_symop_operation_xyz
x,y,z
-x,1/2+y,-z
-x,-y,-z
x,1/2-y,z
loop_
_atom_site_type_symbol
_atom_site_label
_atom_site_fract_x
_atom_site_fract_y
_atom_site_fract_z
Si Si1 0.617399 0.441923 0.317910
Si Si2 0.928692 0.561885 0.624152
Si Si3 0.554802 0.058223 0.244974
Si Si4 0.692477 0.060002 0.375155
Si Si5 0.304391 0.942827 0.004107
Si Si6 0.996004 0.939635 0.315971
Si Si7 0.246394 0.940267 0.551229
Si Si8 0.374684 0.560489 0.072509
O O1 0.608709 0.250000 0.327918
O O2 0.642481 0.486038 0.226082
O O3 0.465876 0.512009 0.468255
O O4 0.714997 0.493737 0.285874
O O5 0.924451 0.750000 0.626974
O O6 0.772722 0.496827 0.770073
O O7 0.000000 0.500000 0.500000
O O8 0.008054 0.505588 0.612815
O O9 0.547811 0.250000 0.249525
O O10 0.398969 0.995719 0.393565
O O11 0.623851 0.001371 0.121322
O O12 0.703856 0.250000 0.364753
O O13 0.774293 0.003359 0.360680
O O14 0.306089 0.750000 0.001153
O O15 0.380186 0.992188 0.997659
O O16 0.144062 0.991008 0.155060
O O17 0.996747 0.750000 0.318871
O O18 0.870274 0.994955 0.387890
O O19 0.243284 0.750000 0.553179
O O20 0.375194 0.750000 0.072386
O O21 0.500000 0.500000 0.000000
#
# Coordination Sequence:
#
# PCOD9157990 Si02
#       8
#     4   4   4   4   4   4   4   4
#     4   8  13  22  40  64  88 118 156 197 243 292
#     4  11  22  38  58  80 104 132 166 205 251 301
#     4   9  16  29  49  72  95 122 161 207 251 294
#     4   8  14  24  38  60  92 124 154 194 243 291
#     4   8  17  33  52  71  94 125 161 201 244 290
#     4  10  20  36  54  72  97 131 168 203 242 291
#     4  10  19  30  45  70 101 130 162 202 247 294
#     4  10  20  36  55  77 104 135 171 209 251 300
#
# _framework density 17.616647
#
# number of rings (size 3 to 8) (size 9 to 14) (size 15 to 20)
#    0.000    2.750    0.000    3.000    0.000    1.500 
#    0.000    7.500    0.000    0.750    0.000    0.000 
#    0.000    0.000    0.000    0.000    0.000    1.375 
#
# Total GULP energy -178200.559416 kJ/mol
# GULP energy per Si atom -5568.767482 kJ/mol
# Density = 1.757655 g / cm^3
# Si number density = 17.616647 Si / 1000 Ang^3
#
#
#
# Elastic Constant Matrix: (Units=GPa)
#
#
# Indices 1 2 3 4 5 6 
#
# 1 207.5916 34.9543 90.6405 0.0000 21.4806 0.0000
# 2 34.9543 37.6855 16.5347 0.0000 1.8170 0.0000
# 3 90.6405 16.5347 67.7361 0.0000 22.8837 0.0000
# 4 0.0000 0.0000 0.0000 17.1482 0.0000 1.0964
# 5 21.4806 1.8170 22.8837 0.0000 20.6856 0.0000
# 6 0.0000 0.0000 0.0000 1.0964 0.0000 17.3396
#
#
#
# Elastic Compliance Matrix: (Units=1/GPa)
#
#
# Indices 1 2 3 4 5 6 
#
# 1 0.013042 -0.004074 -0.019166 0.000000 0.008017 0.000000
# 2 -0.004074 0.031992 -0.004531 0.000000 0.006433 0.000000
# 3 -0.019166 -0.004531 0.055341 0.000000 -0.040921 0.000000
# 4 0.000000 0.000000 0.000000 0.058552 0.000000 -0.003702
# 5 0.008017 0.006433 -0.040921 0.000000 0.084721 0.000000
# 6 0.000000 0.000000 0.000000 -0.003702 0.000000 0.057906
#
#
# Mechanical properties :
#
#
# Convention : Reuss Voigt Hill
#
# Bulk Modulus (GPa) = 22.30530 66.36358 44.33444
# Shear Modulus (GPa) = 13.43940 22.42692 17.93316
#
# Velocity S-wave (km/s) = 2.76503 3.57186 3.19402
# Velocity P-wave (km/s) = 4.78360 7.40024 6.23083
#
# Compressibility (1/GPa) = 0.04483239
#
# Stress axis : x y z
#
# Youngs Moduli (GPa) = 76.67506 31.25767 18.06989
#
# Poissons Ratio (x) = 0.12735 0.34633
# Poissons Ratio (y) = 0.31239 0.08187
# Poissons Ratio (z) = 1.46957 0.14163
#
# Static dielectric constant tensor:
#      x y z
#    x 1.644700 0.000000 0.029880 
#    y 0.000000 1.578670 0.000000 
#    z 0.029880 0.000000 1.574920 
# 
# From -- ./inp_files/66438.got.cif
#   From: 2010.05.17/outbox.cif.g08.bks.cpg/sg11_34_cif.got.tgz:66438.got - 2010.06.03 12:22:45.
