data_PCOD9157345
_publ_section_title
;
Structure prediction by ZEFSAII (Michael W. Deem and Ramdas Pophale) SiO2 
 PCOD9157345
Probable space group: P 21/M
;
_chemical_formula_sum "Si O2"
_cell_formula_units_Z 24
_cell_length_a 9.570459
_cell_length_b 21.981562
_cell_length_c 7.676039
_cell_angle_alpha 90.000000
_cell_angle_beta 60.740748
_cell_angle_gamma 90.000000
_cell_volume 1408.810748
_symmetry_space_group_name_H-M "P 21/M"
_symmetry_group_IT_number 11
_symmetry_cell_setting 'monoclinic'
loop_
_space_group_symop_operation_xyz
x,y,z
-x,1/2+y,-z
-x,-y,-z
x,1/2-y,z
loop_
_atom_site_type_symbol
_atom_site_label
_atom_site_fract_x
_atom_site_fract_y
_atom_site_fract_z
Si Si1 0.121436 0.021799 0.775736
Si Si2 0.710965 0.320964 0.144155
Si Si3 0.128976 0.606974 0.237063
Si Si4 0.760039 0.395321 0.454592
Si Si5 0.563693 0.946368 0.215494
Si Si6 0.533202 0.425451 0.096166
O O1 0.274361 0.051902 0.775062
O O2 0.027907 0.069036 0.710906
O O3 0.174502 0.960941 0.644136
O O4 0.000000 0.000000 0.000000
O O5 0.678986 0.250000 0.172452
O O6 0.772013 0.348916 0.287992
O O7 0.840444 0.337647 0.914909
O O8 0.556994 0.362133 0.181454
O O9 0.149922 0.624281 0.424592
O O10 0.285853 0.565301 0.093457
O O11 0.573709 0.405734 0.615462
O O12 0.579403 0.925578 0.003752
O O13 0.503714 0.016829 0.236305
#
# Coordination Sequence:
#
# PCOD9157345 Si02
#       6
#     4   4   4   4   4   4
#     4  12  18  32  54  86 117 138 172 226 280 337
#     4  10  20  37  58  77 108 144 190 228 259 329
#     4   9  20  35  51  83 110 140 181 221 269 320
#     4  11  21  34  55  86 107 144 182 220 284 322
#     4  10  18  32  56  81 116 136 175 230 281 325
#     4   8  17  34  52  79 106 141 178 219 279 313
#
# _framework density 17.035646
#
# number of rings (size 3 to 8) (size 9 to 14) (size 15 to 20)
#    1.000    1.000    5.000    1.000    0.000    0.667 
#    0.000    0.000    0.000    2.000    0.000    0.000 
#    0.000    0.000    0.000    0.000    0.000    0.000 
#
# Total GULP energy -133634.494870 kJ/mol
# GULP energy per Si atom -5568.103953 kJ/mol
# Density = 1.699687 g / cm^3
# Si number density = 17.035646 Si / 1000 Ang^3
#
#
#
# Elastic Constant Matrix: (Units=GPa)
#
#
# Indices 1 2 3 4 5 6 
#
# 1 112.1219 48.9415 46.8952 0.0000 31.8199 0.0000
# 2 48.9415 99.3716 20.6762 0.0000 26.9787 0.0000
# 3 46.8952 20.6762 57.5320 0.0000 26.6695 0.0000
# 4 0.0000 0.0000 0.0000 3.4041 0.0000 -5.1812
# 5 31.8199 26.9787 26.6695 0.0000 29.2404 0.0000
# 6 0.0000 0.0000 0.0000 -5.1812 0.0000 13.8064
#
#
#
# Elastic Compliance Matrix: (Units=1/GPa)
#
#
# Indices 1 2 3 4 5 6 
#
# 1 0.016256 -0.004766 -0.009314 0.000000 -0.004799 0.000000
# 2 -0.004766 0.014908 0.004330 0.000000 -0.012518 0.000000
# 3 -0.009314 0.004330 0.035639 0.000000 -0.026365 0.000000
# 4 0.000000 0.000000 0.000000 0.685052 0.000000 0.257084
# 5 -0.004799 -0.012518 -0.026365 0.000000 0.075018 0.000000
# 6 0.000000 0.000000 0.000000 0.257084 0.000000 0.168908
#
#
# Mechanical properties :
#
#
# Convention : Reuss Voigt Hill
#
# Bulk Modulus (GPa) = 21.13987 55.78349 38.46168
# Shear Modulus (GPa) = 4.84943 19.45767 12.15355
#
# Velocity S-wave (km/s) = 1.68903 3.38327 2.67389
# Velocity P-wave (km/s) = 4.02987 6.93385 5.67090
#
# Compressibility (1/GPa) = 0.04730399
#
# Stress axis : x y z
#
# Youngs Moduli (GPa) = 61.51402 67.07783 28.05899
#
# Poissons Ratio (x) = 0.31968 0.26133
# Poissons Ratio (y) = 0.29316 -0.12149
# Poissons Ratio (z) = 0.57292 -0.29042
#
# Static dielectric constant tensor:
#      x y z
#    x 1.592080 0.000000 0.020860 
#    y 0.000000 1.555520 0.000000 
#    z 0.020860 0.000000 1.617450 
# 
# From -- ./inp_files/14629.got.cif
#   From: 2010.05.17/outbox.cif.g08.bks.cpg/sg11_8_cif.got.tgz:14629.got - 2010.06.03 12:22:45.
