data_PCOD9157064
_publ_section_title
;
Structure prediction by ZEFSAII (Michael W. Deem and Ramdas Pophale) SiO2 
 PCOD9157064
Probable space group: P 21/M
;
_chemical_formula_sum "Si O2"
_cell_formula_units_Z 32
_cell_length_a 29.037480
_cell_length_b 8.810874
_cell_length_c 22.602160
_cell_angle_alpha 90.000000
_cell_angle_beta 18.305063
_cell_angle_gamma 90.000000
_cell_volume 1816.197597
_symmetry_space_group_name_H-M "P 21/M"
_symmetry_group_IT_number 11
_symmetry_cell_setting 'monoclinic'
loop_
_space_group_symop_operation_xyz
x,y,z
-x,1/2+y,-z
-x,-y,-z
x,1/2-y,z
loop_
_atom_site_type_symbol
_atom_site_label
_atom_site_fract_x
_atom_site_fract_y
_atom_site_fract_z
Si Si1 0.546471 0.067314 0.747442
Si Si2 0.401304 0.433548 0.673249
Si Si3 0.140453 0.930362 0.574063
Si Si4 0.570854 0.066047 0.584387
Si Si5 0.089590 0.567080 0.836177
Si Si6 0.403335 0.575402 0.032102
Si Si7 0.725975 0.924385 0.700053
Si Si8 0.923144 0.431099 0.927293
O O1 0.535446 0.250000 0.762931
O O2 0.711462 0.030306 0.569190
O O3 0.527375 0.014108 0.703278
O O4 0.432288 0.998608 0.933223
O O5 0.500000 0.500000 0.500000
O O6 0.400499 0.250000 0.670714
O O7 0.471411 0.481099 0.650750
O O8 0.237433 0.497489 0.870231
O O9 0.118641 0.750000 0.605587
O O10 0.174012 0.977872 0.465867
O O11 0.003835 0.017182 0.768881
O O12 0.566215 0.250000 0.591754
O O13 0.739734 0.024313 0.367099
O O14 0.079282 0.750000 0.847478
O O15 0.022402 0.498988 0.858617
O O16 0.000000 0.500000 0.000000
O O17 0.359683 0.750000 0.079797
O O18 0.294994 0.488694 0.208594
O O19 0.563393 0.571263 0.868761
O O20 0.773963 0.750000 0.642240
O O21 0.915635 0.250000 0.940656
#
# Coordination Sequence:
#
# PCOD9157064 Si02
#       8
#     4   4   4   4   4   4   4   4
#     4   9  16  30  50  73 102 137 174 220 274 325
#     4  11  23  41  62  82 108 142 182 230 282 336
#     4  10  18  31  52  76 105 140 179 227 277 321
#     4   9  19  36  57  79 105 138 178 224 277 331
#     4  11  21  37  58  84 110 138 176 224 279 335
#     4   9  16  25  39  66 102 140 178 215 258 313
#     4   9  16  26  41  66 102 142 179 216 262 317
#     4  12  24  38  55  80 112 148 186 225 270 328
#
# _framework density 17.619229000000001
#
# number of rings (size 3 to 8) (size 9 to 14) (size 15 to 20)
#    0.000    2.000    1.250    3.750    0.000    4.500 
#    0.000    3.125    0.000    0.000    0.000    0.875 
#    0.000    0.000    0.000    0.000    0.000    0.000 
#
# Total GULP energy -178580.393339 kJ/mol
# GULP energy per Si atom -5580.637292 kJ/mol
# Density = 1.757913 g / cm^3
# Si number density = 17.619229 Si / 1000 Ang^3
#
#
#
# Elastic Constant Matrix: (Units=GPa)
#
#
# Indices 1 2 3 4 5 6 
#
# 1 36.7749 11.5076 8.4391 0.0000 20.0864 0.0000
# 2 11.5076 69.0510 21.3673 0.0000 5.7633 0.0000
# 3 8.4391 21.3673 51.6051 0.0000 14.5561 0.0000
# 4 0.0000 0.0000 0.0000 26.3426 0.0000 12.4649
# 5 20.0864 5.7633 14.5561 0.0000 35.2837 0.0000
# 6 0.0000 0.0000 0.0000 12.4649 0.0000 22.8117
#
#
#
# Elastic Compliance Matrix: (Units=1/GPa)
#
#
# Indices 1 2 3 4 5 6 
#
# 1 0.041267 -0.005596 0.002192 0.000000 -0.023483 0.000000
# 2 -0.005596 0.017370 -0.007215 0.000000 0.003325 0.000000
# 3 0.002192 -0.007215 0.024927 0.000000 -0.010353 0.000000
# 4 0.000000 0.000000 0.000000 0.051199 0.000000 -0.027977
# 5 -0.023483 0.003325 -0.010353 0.000000 0.045438 0.000000
# 6 0.000000 0.000000 0.000000 -0.027977 0.000000 0.059124
#
#
# Mechanical properties :
#
#
# Convention : Reuss Voigt Hill
#
# Bulk Modulus (GPa) = 16.04443 26.67321 21.35882
# Shear Modulus (GPa) = 17.77230 24.62874 21.20052
#
# Velocity S-wave (km/s) = 3.17943 3.74282 3.47257
# Velocity P-wave (km/s) = 4.75440 5.81806 5.31291
#
# Compressibility (1/GPa) = 0.06232691
#
# Stress axis : x y z
#
# Youngs Moduli (GPa) = 24.23267 57.57179 40.11730
#
# Poissons Ratio (x) = 0.32215 -0.08794
# Poissons Ratio (y) = 0.13560 0.28943
# Poissons Ratio (z) = -0.05312 0.41536
#
# Static dielectric constant tensor:
#      x y z
#    x 1.631850 0.000000 0.017350 
#    y 0.000000 1.595590 0.000000 
#    z 0.017350 0.000000 1.581490 
# 
# From -- ./inp_files/67081.got.cif
#   From: 2010.05.17/outbox.cif.g08.bks.cpg/sg11_34_cif.got.tgz:67081.got - 2010.06.03 12:22:45.
