data_PCOD9157120
_publ_section_title
;
Structure prediction by ZEFSAII (Michael W. Deem and Ramdas Pophale) SiO2 
 PCOD9157120
Probable space group: P 21/M
;
_chemical_formula_sum "Si O2"
_cell_formula_units_Z 32
_cell_length_a 12.462532
_cell_length_b 8.570095
_cell_length_c 20.628524
_cell_angle_alpha 90.000000
_cell_angle_beta 128.459290
_cell_angle_gamma 90.000000
_cell_volume 1725.240804
_symmetry_space_group_name_H-M "P 21/M"
_symmetry_group_IT_number 11
_symmetry_cell_setting 'monoclinic'
loop_
_space_group_symop_operation_xyz
x,y,z
-x,1/2+y,-z
-x,-y,-z
x,1/2-y,z
loop_
_atom_site_type_symbol
_atom_site_label
_atom_site_fract_x
_atom_site_fract_y
_atom_site_fract_z
Si Si1 0.813478 0.935712 0.634779
Si Si2 0.620682 0.560499 0.449153
Si Si3 0.303189 0.438479 0.662734
Si Si4 0.622873 0.936455 0.962542
Si Si5 0.396789 0.063135 0.188922
Si Si6 0.696050 0.433441 0.123808
Si Si7 0.098150 0.434777 0.695646
Si Si8 0.682158 0.436272 0.706781
O O1 0.801305 0.750000 0.636323
O O2 0.693753 0.995690 0.541521
O O3 0.795732 0.009830 0.698783
O O4 0.956976 0.978691 0.656226
O O5 0.619277 0.750000 0.451211
O O6 0.703862 0.515699 0.415418
O O7 0.464717 0.509219 0.378270
O O8 0.309428 0.250000 0.667897
O O9 0.448132 0.500994 0.743627
O O10 0.178756 0.489503 0.661492
O O11 0.643779 0.750000 0.976886
O O12 0.656567 0.985872 0.901950
O O13 0.460090 0.965027 0.911917
O O14 0.700197 0.021840 0.049744
O O15 0.401719 0.250000 0.191573
O O16 0.311843 0.003445 0.218613
O O17 0.723279 0.250000 0.143165
O O18 0.799598 0.530793 0.206384
O O19 0.072873 0.250000 0.681054
O O20 0.678998 0.250000 0.709853
#
# Coordination Sequence:
#
# PCOD9157120 Si02
#       8
#     4   4   4   4   4   4   4   4
#     4  11  22  36  54  75 102 139 182 222 264 311
#     4   8  17  34  55  78 103 132 171 223 269 310
#     4   9  18  33  52  75 105 140 175 213 263 314
#     4   9  18  31  50  79 111 138 169 211 258 307
#     4  10  18  31  53  81 110 136 170 215 263 309
#     4  10  19  32  51  77 108 141 176 212 253 306
#     4  11  22  35  52  74 108 146 178 214 261 316
#     4  10  20  36  56  78 105 135 175 221 267 313
#
# _framework density 18.548134999999998
#
# number of rings (size 3 to 8) (size 9 to 14) (size 15 to 20)
#    0.000    2.250    1.250    3.000    0.000    2.500 
#    0.000    5.625    0.000    0.750    0.000    0.000 
#    0.000    0.000    0.000    0.000    0.000    0.000 
#
# Total GULP energy -178560.915370 kJ/mol
# GULP energy per Si atom -5580.028605 kJ/mol
# Density = 1.850592 g / cm^3
# Si number density = 18.548135 Si / 1000 Ang^3
#
#
#
# Elastic Constant Matrix: (Units=GPa)
#
#
# Indices 1 2 3 4 5 6 
#
# 1 91.0307 11.3061 12.2349 0.0000 -31.3568 0.0000
# 2 11.3061 22.4759 2.5759 0.0000 -8.4736 0.0000
# 3 12.2349 2.5759 29.5675 0.0000 -25.8007 0.0000
# 4 0.0000 0.0000 0.0000 20.1963 0.0000 -0.3893
# 5 -31.3568 -8.4736 -25.8007 0.0000 30.3893 0.0000
# 6 0.0000 0.0000 0.0000 -0.3893 0.0000 25.3346
#
#
#
# Elastic Compliance Matrix: (Units=1/GPa)
#
#
# Indices 1 2 3 4 5 6 
#
# 1 0.033889 0.011945 0.070830 0.000000 0.098433 0.000000
# 2 0.011945 0.061915 0.059745 0.000000 0.080314 0.000000
# 3 0.070830 0.059745 0.299505 0.000000 0.344026 0.000000
# 4 0.000000 0.000000 0.000000 0.049529 0.000000 0.000761
# 5 0.098433 0.080314 0.344026 0.000000 0.448948 0.000000
# 6 0.000000 0.000000 0.000000 0.000761 0.000000 0.039483
#
#
# Mechanical properties :
#
#
# Convention : Reuss Voigt Hill
#
# Bulk Modulus (GPa) = 1.46983 21.70088 11.58535
# Shear Modulus (GPa) = 5.71421 22.98120 14.34771
#
# Velocity S-wave (km/s) = 1.75711 3.52377 2.78427
# Velocity P-wave (km/s) = 2.21602 5.31799 4.07381
#
# Compressibility (1/GPa) = 0.68034982
#
# Stress axis : x y z
#
# Youngs Moduli (GPa) = 29.50845 16.15122 3.33884
#
# Poissons Ratio (x) = -0.19293 -0.23649
# Poissons Ratio (y) = -0.35249 -0.19948
# Poissons Ratio (z) = -2.09007 -0.96496
#
# Static dielectric constant tensor:
#      x y z
#    x 1.649160 0.000000 -0.020880 
#    y 0.000000 1.620300 0.000000 
#    z -0.020880 0.000000 1.633570 
# 
# From -- ./inp_files/42854.got.cif
#   From: 2010.05.17/outbox.cif.g08.bks.cpg/sg11_22_cif.got.tgz:42854.got - 2010.06.03 12:22:45.
