data_PCOD9157674
_publ_section_title
;
Structure prediction by ZEFSAII (Michael W. Deem and Ramdas Pophale) SiO2 
 PCOD9157674
Probable space group: P 21/M
;
_chemical_formula_sum "Si O2"
_cell_formula_units_Z 32
_cell_length_a 8.981215
_cell_length_b 14.847417
_cell_length_c 18.574786
_cell_angle_alpha 90.000000
_cell_angle_beta 137.788420
_cell_angle_gamma 90.000000
_cell_volume 1664.160697
_symmetry_space_group_name_H-M "P 21/M"
_symmetry_group_IT_number 11
_symmetry_cell_setting 'monoclinic'
loop_
_space_group_symop_operation_xyz
x,y,z
-x,1/2+y,-z
-x,-y,-z
x,1/2-y,z
loop_
_atom_site_type_symbol
_atom_site_label
_atom_site_fract_x
_atom_site_fract_y
_atom_site_fract_z
Si Si1 0.773530 0.534231 0.450971
Si Si2 0.244854 0.504396 0.996617
Si Si3 0.071957 0.144801 0.352676
Si Si4 0.394566 0.853524 0.267813
Si Si5 0.517584 0.088948 0.456312
Si Si6 0.878168 0.350961 0.689224
Si Si7 0.760465 0.502717 0.178508
Si Si8 0.980198 0.355238 0.985752
O O1 0.835817 0.598798 0.540935
O O2 0.616563 0.589811 0.341749
O O3 0.626790 0.449136 0.423750
O O4 0.000000 0.500000 0.500000
O O5 0.504811 0.517516 0.106802
O O6 0.092715 0.585980 0.971530
O O7 0.225818 0.498972 0.903622
O O8 0.161119 0.413371 0.006298
O O9 0.026394 0.250000 0.346512
O O10 0.275769 0.131913 0.369359
O O11 0.864286 0.087579 0.249712
O O12 0.453061 0.750000 0.304385
O O13 0.250575 0.885156 0.285456
O O14 0.236415 0.856735 0.142980
O O15 0.695576 0.149471 0.561396
O O16 0.500000 0.000000 0.500000
O O17 0.958535 0.250000 0.733332
O O18 0.075921 0.416970 0.739569
O O19 0.037843 0.250000 0.019123
#
# Coordination Sequence:
#
# PCOD9157674 Si02
#       8
#     4   4   4   4   4   4   4   4
#     4  11  22  35  58  88 125 155 186 240 292 352
#     4  10  24  40  62  86 119 150 198 255 292 344
#     4  11  22  39  61  85 120 162 197 233 290 358
#     4  10  19  34  60  87 114 152 195 234 287 349
#     4  10  18  35  58  85 116 154 196 237 277 346
#     4  11  19  34  62  90 115 148 196 245 287 340
#     4  11  22  40  60  90 116 153 197 248 302 335
#     4  10  22  41  63  86 114 156 198 239 296 355
#
# _framework density 19.228912000000001
#
# number of rings (size 3 to 8) (size 9 to 14) (size 15 to 20)
#    0.000    1.500    6.250    0.750    1.750    1.500 
#    0.000    6.250    0.000    0.000    0.000    0.000 
#    0.000    0.000    0.000    0.000    0.000    0.000 
#
# Total GULP energy -178575.698877 kJ/mol
# GULP energy per Si atom -5580.490590 kJ/mol
# Density = 1.918515 g / cm^3
# Si number density = 19.228912 Si / 1000 Ang^3
#
#
#
# Elastic Constant Matrix: (Units=GPa)
#
#
# Indices 1 2 3 4 5 6 
#
# 1 59.4341 31.6354 -0.4876 0.0000 14.0108 0.0000
# 2 31.6354 108.4525 7.4184 0.0000 14.0705 0.0000
# 3 -0.4876 7.4184 36.2725 0.0000 17.0441 0.0000
# 4 0.0000 0.0000 0.0000 23.7108 0.0000 -2.5592
# 5 14.0108 14.0705 17.0441 0.0000 23.5672 0.0000
# 6 0.0000 0.0000 0.0000 -2.5592 0.0000 8.9631
#
#
#
# Elastic Compliance Matrix: (Units=1/GPa)
#
#
# Indices 1 2 3 4 5 6 
#
# 1 0.024085 -0.005324 0.010069 0.000000 -0.018421 0.000000
# 2 -0.005324 0.011204 -0.001071 0.000000 -0.002749 0.000000
# 3 0.010069 -0.001071 0.046103 0.000000 -0.038688 0.000000
# 4 0.000000 0.000000 0.000000 0.043516 0.000000 0.012425
# 5 -0.018421 -0.002749 -0.038688 0.000000 0.083005 0.000000
# 6 0.000000 0.000000 0.000000 0.012425 0.000000 0.115116
#
#
# Mechanical properties :
#
#
# Convention : Reuss Voigt Hill
#
# Bulk Modulus (GPa) = 11.26919 31.25462 21.26190
# Shear Modulus (GPa) = 14.48185 22.28774 18.38480
#
# Velocity S-wave (km/s) = 2.74730 3.40821 3.09544
# Velocity P-wave (km/s) = 3.99209 5.63712 4.88436
#
# Compressibility (1/GPa) = 0.08873755
#
# Stress axis : x y z
#
# Youngs Moduli (GPa) = 41.52047 89.25699 21.69068
#
# Poissons Ratio (x) = 0.47522 -0.21840
# Poissons Ratio (y) = 0.22106 0.02323
# Poissons Ratio (z) = -0.41806 0.09561
#
# Static dielectric constant tensor:
#      x y z
#    x 1.694370 0.000000 -0.015620 
#    y 0.000000 1.547860 0.000000 
#    z -0.015620 0.000000 1.668890 
# 
# From -- ./inp_files/22251.got.cif
#   From: 2010.05.17/outbox.cif.g08.bks.cpg/sg11_12_cif.got.tgz:22251.got - 2010.06.03 12:22:45.
