data_PCOD9157906
_publ_section_title
;
Structure prediction by ZEFSAII (Michael W. Deem and Ramdas Pophale) SiO2 
 PCOD9157906
Probable space group: P 21/M
;
_chemical_formula_sum "Si O2"
_cell_formula_units_Z 32
_cell_length_a 22.027437
_cell_length_b 8.695114
_cell_length_c 14.628757
_cell_angle_alpha 90.000000
_cell_angle_beta 47.026012
_cell_angle_gamma 90.000000
_cell_volume 2050.019140
_symmetry_space_group_name_H-M "P 21/M"
_symmetry_group_IT_number 11
_symmetry_cell_setting 'monoclinic'
loop_
_space_group_symop_operation_xyz
x,y,z
-x,1/2+y,-z
-x,-y,-z
x,1/2-y,z
loop_
_atom_site_type_symbol
_atom_site_label
_atom_site_fract_x
_atom_site_fract_y
_atom_site_fract_z
Si Si1 0.187716 0.063914 0.220921
Si Si2 0.402888 0.435187 0.504851
Si Si3 0.006504 0.064878 0.390987
Si Si4 0.329131 0.064387 0.388349
Si Si5 0.174739 0.565489 0.439734
Si Si6 0.597930 0.066618 0.298386
Si Si7 0.649898 0.934327 0.058210
Si Si8 0.506356 0.565242 0.891680
O O1 0.189559 0.250000 0.227257
O O2 0.099272 0.019253 0.265708
O O3 0.190404 0.996231 0.320610
O O4 0.266797 0.016610 0.080369
O O5 0.398778 0.250000 0.517813
O O6 0.350517 0.482517 0.470084
O O7 0.376798 0.510635 0.626918
O O8 0.499960 0.474611 0.388627
O O9 0.005667 0.250000 0.394602
O O10 0.919341 0.017574 0.435105
O O11 0.000000 0.000000 0.500000
O O12 0.325000 0.250000 0.390705
O O13 0.407157 0.018537 0.244716
O O14 0.244988 0.997844 0.434111
O O15 0.178605 0.750000 0.433578
O O16 0.604578 0.250000 0.284602
O O17 0.647161 0.988857 0.165534
O O18 0.644605 0.750000 0.059658
O O19 0.570390 0.005090 0.089013
O O20 0.503960 0.750000 0.896462
O O21 0.500000 0.500000 0.000000
#
# Coordination Sequence:
#
# PCOD9157906 Si02
#       8
#     4   4   4   4   4   4   4   4
#     4   9  18  32  48  66  93 129 161 189 230 279
#     4   9  18  34  51  68  89 120 157 193 233 280
#     4   8  15  29  46  65  91 120 153 194 234 274
#     4  10  20  34  48  64  93 128 158 187 228 280
#     4  10  19  29  46  72  96 121 157 198 236 271
#     4  10  19  33  51  71  93 119 151 196 242 277
#     4  11  21  32  48  70  93 125 162 193 228 277
#     4  11  22  35  46  63  93 130 164 193 228 270
#
# _framework density 15.60961
#
# number of rings (size 3 to 8) (size 9 to 14) (size 15 to 20)
#    0.000    2.250    1.250    2.250    0.000    6.500 
#    0.000    0.000    0.000    0.000    0.000    0.875 
#    0.000    0.000    0.000    0.000    0.000    0.000 
#
# Total GULP energy -178396.234331 kJ/mol
# GULP energy per Si atom -5574.882323 kJ/mol
# Density = 1.557408 g / cm^3
# Si number density = 15.609610 Si / 1000 Ang^3
#
#
#
# Elastic Constant Matrix: (Units=GPa)
#
#
# Indices 1 2 3 4 5 6 
#
# 1 134.4250 27.4349 67.6667 0.0000 -10.0135 0.0000
# 2 27.4349 19.3896 16.3680 0.0000 -1.4462 0.0000
# 3 67.6667 16.3680 49.0053 0.0000 -6.5760 0.0000
# 4 0.0000 0.0000 0.0000 18.1310 0.0000 4.3452
# 5 -10.0135 -1.4462 -6.5760 0.0000 28.8918 0.0000
# 6 0.0000 0.0000 0.0000 4.3452 0.0000 23.7824
#
#
#
# Elastic Compliance Matrix: (Units=1/GPa)
#
#
# Indices 1 2 3 4 5 6 
#
# 1 0.025470 -0.008902 -0.032050 0.000000 0.001087 0.000000
# 2 -0.008902 0.075041 -0.013082 0.000000 -0.002306 0.000000
# 3 -0.032050 -0.013082 0.069577 0.000000 0.004073 0.000000
# 4 0.000000 0.000000 0.000000 0.057680 0.000000 -0.010539
# 5 0.001087 -0.002306 0.004073 0.000000 0.035800 0.000000
# 6 0.000000 0.000000 0.000000 -0.010539 0.000000 0.043973
#
#
# Mechanical properties :
#
#
# Convention : Reuss Voigt Hill
#
# Bulk Modulus (GPa) = 16.12373 47.30656 31.71514
# Shear Modulus (GPa) = 11.46046 20.25106 15.85576
#
# Velocity S-wave (km/s) = 2.71254 3.60578 3.19057
# Velocity P-wave (km/s) = 4.49024 6.90705 5.82536
#
# Compressibility (1/GPa) = 0.06202039
#
# Stress axis : x y z
#
# Youngs Moduli (GPa) = 39.26138 13.32608 14.37257
#
# Poissons Ratio (x) = 0.11863 0.46065
# Poissons Ratio (y) = 0.34950 0.18802
# Poissons Ratio (z) = 1.25834 0.17433
#
# Static dielectric constant tensor:
#      x y z
#    x 1.517160 0.000000 -0.023350 
#    y 0.000000 1.525620 0.000000 
#    z -0.023350 0.000000 1.518660 
# 
# From -- ./inp_files/51319.got.cif
#   From: 2010.05.17/outbox.cif.g08.bks.cpg/sg11_26_cif.got.tgz:51319.got - 2010.06.03 12:22:45.
