data_PCOD9157909
_publ_section_title
;
Structure prediction by ZEFSAII (Michael W. Deem and Ramdas Pophale) SiO2 
 PCOD9157909
Probable space group: P 21/M
;
_chemical_formula_sum "Si O2"
_cell_formula_units_Z 32
_cell_length_a 20.979012
_cell_length_b 7.690025
_cell_length_c 12.697659
_cell_angle_alpha 90.000000
_cell_angle_beta 126.513269
_cell_angle_gamma 90.000000
_cell_volume 1646.420345
_symmetry_space_group_name_H-M "P 21/M"
_symmetry_group_IT_number 11
_symmetry_cell_setting 'monoclinic'
loop_
_space_group_symop_operation_xyz
x,y,z
-x,1/2+y,-z
-x,-y,-z
x,1/2-y,z
loop_
_atom_site_type_symbol
_atom_site_label
_atom_site_fract_x
_atom_site_fract_y
_atom_site_fract_z
Si Si1 0.275795 0.951902 0.202262
Si Si2 0.794291 0.463975 0.649742
Si Si3 0.467957 0.544216 0.852356
Si Si4 0.974033 0.458593 0.855642
Si Si5 0.622712 0.041674 0.883787
Si Si6 0.132918 0.456020 0.909588
Si Si7 0.761885 0.040148 0.175533
Si Si8 0.288766 0.536759 0.647632
O O1 0.295761 0.750000 0.240539
O O2 0.253174 0.026171 0.293439
O O3 0.345239 0.027833 0.196536
O O4 0.197213 0.960331 0.051714
O O5 0.794931 0.250000 0.653485
O O6 0.885532 0.523501 0.746614
O O7 0.753137 0.517566 0.501011
O O8 0.460836 0.750000 0.842054
O O9 0.533767 0.493407 0.831658
O O10 0.379746 0.474645 0.745436
O O11 0.500000 0.500000 0.000000
O O12 0.970426 0.250000 0.841443
O O13 0.044974 0.521012 0.849816
O O14 0.000000 0.500000 0.000000
O O15 0.632240 0.250000 0.889668
O O16 0.683702 0.978809 0.034322
O O17 0.135652 0.250000 0.933265
O O18 0.163443 0.486789 0.821545
O O19 0.759798 0.250000 0.174237
O O20 0.756268 0.981336 0.290190
O O21 0.289171 0.750000 0.647894
#
# Coordination Sequence:
#
# PCOD9157909 Si02
#       8
#     4   4   4   4   4   4   4   4
#     4   9  17  31  52  74  98 131 169 202 240 295
#     4   9  17  32  54  75  97 133 173 206 243 293
#     4  11  20  32  51  75 100 128 165 210 252 292
#     4  10  19  31  51  77 102 129 166 209 249 291
#     4   9  17  30  48  74 102 126 163 208 246 289
#     4  10  19  29  46  76 106 128 158 208 255 292
#     4   9  17  32  51  71  98 133 169 205 243 292
#     4   9  18  33  52  74  99 129 173 212 240 291
#
# _framework density 19.436105000000001
#
# number of rings (size 3 to 8) (size 9 to 14) (size 15 to 20)
#    0.000    2.500    2.500    1.500    0.000    2.500 
#    0.000    1.250    0.000    4.500    0.000    0.000 
#    0.000    0.000    0.000    0.000    0.000    0.000 
#
# Total GULP energy -178468.201753 kJ/mol
# GULP energy per Si atom -5577.131305 kJ/mol
# Density = 1.939187 g / cm^3
# Si number density = 19.436105 Si / 1000 Ang^3
#
#
#
# Elastic Constant Matrix: (Units=GPa)
#
#
# Indices 1 2 3 4 5 6 
#
# 1 206.3076 1.1726 99.4276 0.0000 -20.4823 0.0000
# 2 1.1726 27.8572 -3.2970 0.0000 -1.6601 0.0000
# 3 99.4276 -3.2970 130.1766 0.0000 -12.8465 0.0000
# 4 0.0000 0.0000 0.0000 8.1844 0.0000 0.9199
# 5 -20.4823 -1.6601 -12.8465 0.0000 29.2727 0.0000
# 6 0.0000 0.0000 0.0000 0.9199 0.0000 17.9194
#
#
#
# Elastic Compliance Matrix: (Units=1/GPa)
#
#
# Indices 1 2 3 4 5 6 
#
# 1 0.007937 -0.000843 -0.005791 0.000000 0.002964 0.000000
# 2 -0.000843 0.036278 0.001785 0.000000 0.002251 0.000000
# 3 -0.005791 0.001785 0.012293 0.000000 0.001444 0.000000
# 4 0.000000 0.000000 0.000000 0.122893 0.000000 -0.006308
# 5 0.002964 0.002251 0.001444 0.000000 0.036997 0.000000
# 6 0.000000 0.000000 0.000000 -0.006308 0.000000 0.056129
#
#
# Mechanical properties :
#
#
# Convention : Reuss Voigt Hill
#
# Bulk Modulus (GPa) = 21.36314 62.10531 41.73423
# Shear Modulus (GPa) = 16.78812 28.87785 22.83299
#
# Velocity S-wave (km/s) = 2.94217 3.85877 3.43121
# Velocity P-wave (km/s) = 4.74944 7.20253 6.10055
#
# Compressibility (1/GPa) = 0.04680959
#
# Stress axis : x y z
#
# Youngs Moduli (GPa) = 125.98876 27.56478 81.34850
#
# Poissons Ratio (x) = 0.02323 0.47110
# Poissons Ratio (y) = 0.10619 -0.14518
# Poissons Ratio (z) = 0.72962 -0.04920
#
# Static dielectric constant tensor:
#      x y z
#    x 1.705500 0.000000 -0.001170 
#    y 0.000000 1.725380 0.000000 
#    z -0.001170 0.000000 1.640050 
# 
# From -- ./inp_files/42478.got.cif
#   From: 2010.05.17/outbox.cif.g08.bks.cpg/sg11_22_cif.got.tgz:42478.got - 2010.06.03 12:22:45.
