data_PCOD9157030
_publ_section_title
;
Structure prediction by ZEFSAII (Michael W. Deem and Ramdas Pophale) SiO2 
 PCOD9157030
Probable space group: P 21/M
;
_chemical_formula_sum "Si O2"
_cell_formula_units_Z 28
_cell_length_a 12.164035
_cell_length_b 7.659967
_cell_length_c 16.015854
_cell_angle_alpha 90.000000
_cell_angle_beta 116.122521
_cell_angle_gamma 90.000000
_cell_volume 1339.863832
_symmetry_space_group_name_H-M "P 21/M"
_symmetry_group_IT_number 11
_symmetry_cell_setting 'monoclinic'
loop_
_space_group_symop_operation_xyz
x,y,z
-x,1/2+y,-z
-x,-y,-z
x,1/2-y,z
loop_
_atom_site_type_symbol
_atom_site_label
_atom_site_fract_x
_atom_site_fract_y
_atom_site_fract_z
Si Si1 0.175637 0.463580 0.965000
Si Si2 0.424342 0.043856 0.733781
Si Si3 0.380427 0.459674 0.905403
Si Si4 0.810519 0.537632 0.434272
Si Si5 0.993511 0.453700 0.635724
Si Si6 0.297827 0.454652 0.176689
Si Si7 0.066036 0.538650 0.200437
O O1 0.175435 0.250000 0.967013
O O2 0.261563 0.519374 0.916579
O O3 0.037081 0.519434 0.900413
O O4 0.236758 0.527396 0.071106
O O5 0.399782 0.250000 0.731170
O O6 0.396911 0.970581 0.817256
O O7 0.326499 0.979039 0.633424
O O8 0.566839 0.024010 0.761689
O O9 0.370862 0.250000 0.897029
O O10 0.500000 0.500000 0.000000
O O11 0.817296 0.750000 0.441305
O O12 0.871493 0.470043 0.539237
O O13 0.897589 0.476846 0.386547
O O14 0.023877 0.250000 0.657991
O O15 0.972432 0.526698 0.720746
O O16 0.314114 0.250000 0.168308
O O17 0.199975 0.483031 0.216633
O O18 0.065582 0.750000 0.201865
#
# Coordination Sequence:
#
# PCOD9157030 Si02
#       7
#     4   4   4   4   4   4   4
#     4   9  18  33  53  76 104 139 174 214 260 306
#     4  10  20  34  54  78 106 143 178 207 253 318
#     4  10  18  31  51  76 106 136 169 208 253 304
#     4   9  18  34  57  83 108 134 167 211 263 316
#     4   9  18  34  57  83 106 132 169 215 264 311
#     4  11  22  35  51  75 108 141 177 221 261 298
#     4  10  20  36  56  75 101 140 181 214 255 314
#
# _framework density 20.897646999999999
#
# number of rings (size 3 to 8) (size 9 to 14) (size 15 to 20)
#    0.000    2.286    1.429    1.714    0.000    4.571 
#    0.000    2.143    0.000    3.429    0.000    0.000 
#    0.000    0.000    0.000    0.000    0.000    0.000 
#
# Total GULP energy -156331.231428 kJ/mol
# GULP energy per Si atom -5583.258265 kJ/mol
# Density = 2.085008 g / cm^3
# Si number density = 20.897647 Si / 1000 Ang^3
#
#
#
# Elastic Constant Matrix: (Units=GPa)
#
#
# Indices 1 2 3 4 5 6 
#
# 1 71.3722 -13.7564 33.6970 0.0000 12.5825 0.0000
# 2 -13.7564 33.5917 -9.6687 0.0000 -2.9355 0.0000
# 3 33.6970 -9.6687 83.4000 0.0000 21.5414 0.0000
# 4 0.0000 0.0000 0.0000 17.6109 0.0000 1.8993
# 5 12.5825 -2.9355 21.5414 0.0000 28.7396 0.0000
# 6 0.0000 0.0000 0.0000 1.8993 0.0000 9.7529
#
#
#
# Elastic Compliance Matrix: (Units=1/GPa)
#
#
# Indices 1 2 3 4 5 6 
#
# 1 0.018463 0.005560 -0.006044 0.000000 -0.002985 0.000000
# 2 0.005560 0.032479 0.001601 0.000000 -0.000317 0.000000
# 3 -0.006044 0.001601 0.017228 0.000000 -0.010103 0.000000
# 4 0.000000 0.000000 0.000000 0.058001 0.000000 -0.011295
# 5 -0.002985 -0.000317 -0.010103 0.000000 0.043642 0.000000
# 6 0.000000 0.000000 0.000000 -0.011295 0.000000 0.104734
#
#
# Mechanical properties :
#
#
# Convention : Reuss Voigt Hill
#
# Bulk Modulus (GPa) = 14.20395 23.21197 18.70796
# Shear Modulus (GPa) = 16.90441 23.09347 19.99894
#
# Velocity S-wave (km/s) = 2.84723 3.32787 3.09689
# Velocity P-wave (km/s) = 4.19769 5.08900 4.66468
#
# Compressibility (1/GPa) = 0.07040295
#
# Stress axis : x y z
#
# Youngs Moduli (GPa) = 54.16376 30.78886 58.04666
#
# Poissons Ratio (x) = -0.17119 0.35083
# Poissons Ratio (y) = -0.30116 -0.09291
# Poissons Ratio (z) = 0.32737 -0.04928
#
# Static dielectric constant tensor:
#      x y z
#    x 1.727550 0.000000 0.004240 
#    y 0.000000 1.775460 0.000000 
#    z 0.004240 0.000000 1.750790 
# 
# From -- ./inp_files/37634.got.cif
#   From: 2010.05.17/outbox.cif.g08.bks.cpg/sg11_19_cif.got.tgz:37634.got - 2010.06.03 12:22:45.
