data_PCOD9157410
_publ_section_title
;
Structure prediction by ZEFSAII (Michael W. Deem and Ramdas Pophale) SiO2 
 PCOD9157410
Probable space group: P 21/M
;
_chemical_formula_sum "Si O2"
_cell_formula_units_Z 32
_cell_length_a 9.677223
_cell_length_b 21.627275
_cell_length_c 7.496055
_cell_angle_alpha 90.000000
_cell_angle_beta 50.348742
_cell_angle_gamma 90.000000
_cell_volume 1207.935406
_symmetry_space_group_name_H-M "P 21/M"
_symmetry_group_IT_number 11
_symmetry_cell_setting 'monoclinic'
loop_
_space_group_symop_operation_xyz
x,y,z
-x,1/2+y,-z
-x,-y,-z
x,1/2-y,z
loop_
_atom_site_type_symbol
_atom_site_label
_atom_site_fract_x
_atom_site_fract_y
_atom_site_fract_z
Si Si1 0.653937 0.558977 0.754414
Si Si2 0.997443 0.686098 0.454650
Si Si3 0.166294 0.546211 0.896162
Si Si4 0.044290 0.680800 0.982526
Si Si5 0.379983 0.181949 0.705762
Si Si6 0.423619 0.314807 0.245106
Si Si7 0.031203 0.563876 0.381529
Si Si8 0.572575 0.952259 0.205816
O O1 0.515712 0.616372 0.853704
O O2 0.824102 0.576133 0.491539
O O3 0.587593 0.492221 0.747699
O O4 0.698726 0.558320 0.927102
O O5 0.072413 0.750000 0.463929
O O6 0.781844 0.688056 0.658235
O O7 0.075517 0.622792 0.464672
O O8 0.034101 0.682889 0.209733
O O9 0.334479 0.500459 0.733418
O O10 0.141721 0.616522 0.845271
O O11 0.000000 0.500000 0.000000
O O12 0.159447 0.558364 0.112417
O O13 0.113588 0.750000 0.873872
O O14 0.836455 0.676477 0.092112
O O15 0.432677 0.250000 0.738015
O O16 0.415502 0.185652 0.465174
O O17 0.463166 0.116846 0.698881
O O18 0.514538 0.250000 0.114484
O O19 0.000000 0.500000 0.500000
#
# Coordination Sequence:
#
# PCOD9157410 Si02
#       8
#     4   4   4   4   4   4   4   4
#     4  10  22  36  51  77 115 146 179 220 267 328
#     4   7  12  23  44  70  93 121 165 213 246 292
#     4  11  20  33  54  80 108 135 178 226 273 320
#     4   8  14  27  48  73 100 130 170 215 259 310
#     4   9  17  32  55  80 105 138 181 226 267 315
#     4   8  15  31  53  75 100 136 181 220 259 317
#     4  10  18  33  53  73 102 142 178 214 264 314
#     4  11  22  35  51  82 115 142 176 225 277 317
#
# _framework density 26.491485000000001
#
# number of rings (size 3 to 8) (size 9 to 14) (size 15 to 20)
#    0.000    2.750    2.500    2.250    0.000    1.000 
#    0.000    0.625    0.000    2.250    0.000    0.000 
#    0.000    0.000    0.000    0.000    0.000    0.000 
#
# Total GULP energy -178384.635679 kJ/mol
# GULP energy per Si atom -5574.519865 kJ/mol
# Density = 2.643119 g / cm^3
# Si number density = 26.491485 Si / 1000 Ang^3
#
#
#
# Elastic Constant Matrix: (Units=GPa)
#
#
# Indices 1 2 3 4 5 6 
#
# 1 35.5844 39.1207 16.3646 0.0000 1.5592 0.0000
# 2 39.1207 340.4733 19.3831 0.0000 1.3818 0.0000
# 3 16.3646 19.3831 56.3269 0.0000 -4.7140 0.0000
# 4 0.0000 0.0000 0.0000 8.2617 0.0000 4.0647
# 5 1.5592 1.3818 -4.7140 0.0000 24.8323 0.0000
# 6 0.0000 0.0000 0.0000 4.0647 0.0000 26.1709
#
#
#
# Elastic Compliance Matrix: (Units=1/GPa)
#
#
# Indices 1 2 3 4 5 6 
#
# 1 0.036782 -0.003655 -0.009760 0.000000 -0.003959 0.000000
# 2 -0.003655 0.003362 -0.000093 0.000000 0.000025 0.000000
# 3 -0.009760 -0.000093 0.021007 0.000000 0.004606 0.000000
# 4 0.000000 0.000000 0.000000 0.131055 0.000000 -0.020354
# 5 -0.003959 0.000025 0.004606 0.000000 0.041392 0.000000
# 6 0.000000 0.000000 0.000000 -0.020354 0.000000 0.041372
#
#
# Mechanical properties :
#
#
# Convention : Reuss Voigt Hill
#
# Bulk Modulus (GPa) = 29.29519 64.68015 46.98767
# Shear Modulus (GPa) = 15.95594 35.68738 25.82166
#
# Velocity S-wave (km/s) = 2.45685 3.67430 3.12543
# Velocity P-wave (km/s) = 4.37384 6.51683 5.54976
#
# Compressibility (1/GPa) = 0.03413530
#
# Stress axis : x y z
#
# Youngs Moduli (GPa) = 27.18735 297.42380 47.60420
#
# Poissons Ratio (x) = 1.08696 0.46461
# Poissons Ratio (y) = 0.09936 0.00444
# Poissons Ratio (z) = 0.26535 0.02771
#
# Static dielectric constant tensor:
#      x y z
#    x 2.141730 0.000000 -0.056610 
#    y 0.000000 2.337270 0.000000 
#    z -0.056610 0.000000 2.118720 
# 
# From -- ./inp_files/19386.got.cif
#   From: 2010.05.17/outbox.cif.g08.bks.cpg/sg11_10_cif.got.tgz:19386.got - 2010.06.03 12:22:45.
