data_PCOD9157284
_publ_section_title
;
Structure prediction by ZEFSAII (Michael W. Deem and Ramdas Pophale) SiO2 
 PCOD9157284
Probable space group: P 21/M
;
_chemical_formula_sum "Si O2"
_cell_formula_units_Z 28
_cell_length_a 10.325888
_cell_length_b 8.186290
_cell_length_c 30.162184
_cell_angle_alpha 90.000000
_cell_angle_beta 34.808698
_cell_angle_gamma 90.000000
_cell_volume 1455.426784
_symmetry_space_group_name_H-M "P 21/M"
_symmetry_group_IT_number 11
_symmetry_cell_setting 'monoclinic'
loop_
_space_group_symop_operation_xyz
x,y,z
-x,1/2+y,-z
-x,-y,-z
x,1/2-y,z
loop_
_atom_site_type_symbol
_atom_site_label
_atom_site_fract_x
_atom_site_fract_y
_atom_site_fract_z
Si Si1 0.307438 0.556268 0.320947
Si Si2 0.984636 0.441469 0.914214
Si Si3 0.033164 0.550544 0.183092
Si Si4 0.483726 0.439615 0.916803
Si Si5 0.882440 0.446038 0.486951
Si Si6 0.449480 0.051014 0.655114
Si Si7 0.421504 0.936239 0.839101
O O1 0.340763 0.750000 0.307333
O O2 0.442356 0.502523 0.327641
O O3 0.412879 0.472472 0.248503
O O4 0.042756 0.519318 0.404120
O O5 0.044538 0.250000 0.898518
O O6 0.996978 0.497024 0.859720
O O7 0.167370 0.532752 0.892936
O O8 0.731271 0.467206 0.002877
O O9 0.035671 0.750000 0.183554
O O10 0.275081 0.495889 0.133543
O O11 0.810548 0.496307 0.272612
O O12 0.462619 0.250000 0.936164
O O13 0.474099 0.453309 0.866555
O O14 0.889861 0.250000 0.481478
O O15 0.621794 0.499820 0.567680
O O16 0.000000 0.500000 0.500000
O O17 0.451286 0.250000 0.654490
O O18 0.444498 0.750000 0.847215
#
# Coordination Sequence:
#
# PCOD9157284 Si02
#       7
#     4   4   4   4   4   4   4
#     4  10  18  32  54  78 109 142 178 223 276 325
#     4  11  21  38  61  82 108 140 181 229 276 323
#     4   9  18  34  58  83 109 143 181 223 271 324
#     4  11  23  38  56  80 110 145 184 223 272 327
#     4   9  16  26  46  77 112 143 177 220 270 321
#     4   8  14  28  51  79 108 139 173 216 268 317
#     4  12  24  38  56  80 110 143 184 228 273 325
#
# _framework density 19.238343
#
# number of rings (size 3 to 8) (size 9 to 14) (size 15 to 20)
#    0.000    2.000    1.429    4.714    0.000    0.000 
#    0.000    2.143    0.000    0.857    0.000    0.000 
#    0.000    0.000    0.000    0.000    0.000    0.000 
#
# Total GULP energy -156262.465877 kJ/mol
# GULP energy per Si atom -5580.802353 kJ/mol
# Density = 1.919456 g / cm^3
# Si number density = 19.238343 Si / 1000 Ang^3
#
#
#
# Elastic Constant Matrix: (Units=GPa)
#
#
# Indices 1 2 3 4 5 6 
#
# 1 22.6848 -8.0305 -6.9051 0.0000 8.5307 0.0000
# 2 -8.0305 27.4942 -8.7926 0.0000 1.3239 0.0000
# 3 -6.9051 -8.7926 101.3658 0.0000 -4.3292 0.0000
# 4 0.0000 0.0000 0.0000 -17.2215 0.0000 -17.0825
# 5 8.5307 1.3239 -4.3292 0.0000 -11.8193 0.0000
# 6 0.0000 0.0000 0.0000 -17.0825 0.0000 0.4213
#
#
#
# Elastic Compliance Matrix: (Units=1/GPa)
#
#
# Indices 1 2 3 4 5 6 
#
# 1 0.039231 0.011677 0.004874 0.000000 0.027838 0.000000
# 2 0.011677 0.040780 0.004813 0.000000 0.011233 0.000000
# 3 0.004874 0.004813 0.010622 0.000000 0.000167 0.000000
# 4 0.000000 0.000000 0.000000 -0.001409 0.000000 -0.057119
# 5 0.027838 0.011233 0.000167 0.000000 -0.063318 0.000000
# 6 0.000000 0.000000 0.000000 -0.057119 0.000000 0.057584
#
#
# Mechanical properties :
#
#
# Convention : Reuss Voigt Hill
#
# Bulk Modulus (GPa) = 7.49846 11.56536 9.53191
# Shear Modulus (GPa) = 58.67362 5.96097 32.31729
#
# Velocity S-wave (km/s) = 5.52852 1.76216 4.10303
# Velocity P-wave (km/s) = 6.68272 3.18825 5.23563
#
# Compressibility (1/GPa) = 0.13336074
#
# Stress axis : x y z
#
# Youngs Moduli (GPa) = 25.48996 24.52177 94.14550
#
# Poissons Ratio (x) = -0.28634 -0.45889
# Poissons Ratio (y) = -0.29765 -0.45308
# Poissons Ratio (z) = -0.12424 -0.11801
#
# Static dielectric constant tensor:
#      x y z
#    x 1.636500 0.000000 -0.020890 
#    y 0.000000 1.663220 0.000000 
#    z -0.020890 0.000000 1.698460 
# 
# From -- ./inp_files/70857.got.cif
#   From: 2010.05.17/outbox.cif.g08.bks.cpg/sg11_36_cif.got.tgz:70857.got - 2010.06.03 12:22:45.
