data_PCOD9157625
_publ_section_title
;
Structure prediction by ZEFSAII (Michael W. Deem and Ramdas Pophale) SiO2 
 PCOD9157625
Probable space group: P 21/M
;
_chemical_formula_sum "Si O2"
_cell_formula_units_Z 28
_cell_length_a 9.696652
_cell_length_b 8.627902
_cell_length_c 26.541269
_cell_angle_alpha 90.000000
_cell_angle_beta 38.520853
_cell_angle_gamma 90.000000
_cell_volume 1382.919505
_symmetry_space_group_name_H-M "P 21/M"
_symmetry_group_IT_number 11
_symmetry_cell_setting 'monoclinic'
loop_
_space_group_symop_operation_xyz
x,y,z
-x,1/2+y,-z
-x,-y,-z
x,1/2-y,z
loop_
_atom_site_type_symbol
_atom_site_label
_atom_site_fract_x
_atom_site_fract_y
_atom_site_fract_z
Si Si1 0.403727 0.433982 0.692202
Si Si2 0.810638 0.934087 0.518569
Si Si3 0.521568 0.065035 0.870484
Si Si4 0.357590 0.934688 0.810129
Si Si5 0.251938 0.434625 0.576834
Si Si6 0.993099 0.434554 0.255775
Si Si7 0.917333 0.064507 0.969648
O O1 0.394375 0.250000 0.699681
O O2 0.583967 0.482921 0.599270
O O3 0.469544 0.508329 0.726846
O O4 0.170297 0.500250 0.740087
O O5 0.783848 0.750000 0.533647
O O6 0.859761 0.959464 0.445703
O O7 0.000000 0.000000 0.500000
O O8 0.505790 0.250000 0.875121
O O9 0.466661 0.005063 0.829434
O O10 0.764568 0.008869 0.815713
O O11 0.333309 0.995240 0.961131
O O12 0.359837 0.750000 0.813662
O O13 0.103628 0.995762 0.879940
O O14 0.500000 0.500000 0.500000
O O15 0.260394 0.250000 0.584631
O O16 0.119851 0.517611 0.658965
O O17 0.007922 0.250000 0.247982
O O18 0.924159 0.250000 0.967012
O O19 0.000000 0.000000 0.000000
#
# Coordination Sequence:
#
# PCOD9157625 Si02
#       7
#     4   4   4   4   4   4   4
#     4  12  25  43  64  89 124 163 203 252 309 366
#     4  11  25  43  64  91 124 160 203 252 305 362
#     4  11  22  39  63  93 125 161 206 253 302 359
#     4  11  22  39  63  92 125 163 204 251 306 362
#     4  11  23  41  65  90 120 161 206 248 301 363
#     4  12  25  42  63  90 124 163 206 253 305 364
#     4  10  18  34  59  90 124 160 202 249 302 358
#
# _framework density 20.247021
#
# number of rings (size 3 to 8) (size 9 to 14) (size 15 to 20)
#    0.000    0.857    1.429    9.000    2.000    1.714 
#    0.000    0.714    0.000    0.000    0.000    0.000 
#    0.000    0.000    0.000    0.000    0.000    0.000 
#
# Total GULP energy -156637.206823 kJ/mol
# GULP energy per Si atom -5594.185958 kJ/mol
# Density = 2.020094 g / cm^3
# Si number density = 20.247021 Si / 1000 Ang^3
#
#
#
# Elastic Constant Matrix: (Units=GPa)
#
#
# Indices 1 2 3 4 5 6 
#
# 1 69.1932 23.9172 -4.2106 0.0000 -13.8774 0.0000
# 2 23.9172 167.0954 2.1467 0.0000 -2.5208 0.0000
# 3 -4.2106 2.1467 34.7234 0.0000 -12.1016 0.0000
# 4 0.0000 0.0000 0.0000 36.1798 0.0000 -5.4863
# 5 -13.8774 -2.5208 -12.1016 0.0000 37.2641 0.0000
# 6 0.0000 0.0000 0.0000 -5.4863 0.0000 29.6923
#
#
#
# Elastic Compliance Matrix: (Units=1/GPa)
#
#
# Indices 1 2 3 4 5 6 
#
# 1 0.017156 -0.002401 0.004960 0.000000 0.007837 0.000000
# 2 -0.002401 0.006329 -0.000953 0.000000 -0.000775 0.000000
# 3 0.004960 -0.000953 0.033920 0.000000 0.012798 0.000000
# 4 0.000000 0.000000 0.000000 0.028436 0.000000 0.005254
# 5 0.007837 -0.000775 0.012798 0.000000 0.033858 0.000000
# 6 0.000000 0.000000 0.000000 0.005254 0.000000 0.034650
#
#
# Mechanical properties :
#
#
# Convention : Reuss Voigt Hill
#
# Bulk Modulus (GPa) = 16.49690 34.96874 25.73282
# Shear Modulus (GPa) = 29.18147 37.23783 33.20965
#
# Velocity S-wave (km/s) = 3.80053 4.29321 4.05436
# Velocity P-wave (km/s) = 5.23681 6.47179 5.88678
#
# Compressibility (1/GPa) = 0.06061746
#
# Stress axis : x y z
#
# Youngs Moduli (GPa) = 58.28876 158.00715 29.48132
#
# Poissons Ratio (x) = 0.37939 -0.14623
# Poissons Ratio (y) = 0.13996 0.02809
# Poissons Ratio (z) = -0.28913 0.15053
#
# Static dielectric constant tensor:
#      x y z
#    x 1.678610 0.000000 -0.023130 
#    y 0.000000 1.671200 0.000000 
#    z -0.023130 0.000000 1.717500 
# 
# From -- ./inp_files/70807.got.cif
#   From: 2010.05.17/outbox.cif.g08.bks.cpg/sg11_36_cif.got.tgz:70807.got - 2010.06.03 12:22:45.
