data_PCOD9157617
_publ_section_title
;
Structure prediction by ZEFSAII (Michael W. Deem and Ramdas Pophale) SiO2 
 PCOD9157617
Probable space group: P 21/M
;
_chemical_formula_sum "Si O2"
_cell_formula_units_Z 32
_cell_length_a 19.664701
_cell_length_b 14.622338
_cell_length_c 12.495339
_cell_angle_alpha 90.000000
_cell_angle_beta 151.715497
_cell_angle_gamma 90.000000
_cell_volume 1702.523581
_symmetry_space_group_name_H-M "P 21/M"
_symmetry_group_IT_number 11
_symmetry_cell_setting 'monoclinic'
loop_
_space_group_symop_operation_xyz
x,y,z
-x,1/2+y,-z
-x,-y,-z
x,1/2-y,z
loop_
_atom_site_type_symbol
_atom_site_label
_atom_site_fract_x
_atom_site_fract_y
_atom_site_fract_z
Si Si1 0.948928 0.036456 0.076396
Si Si2 0.357790 0.644928 0.057580
Si Si3 0.227179 0.140190 0.817410
Si Si4 0.493538 0.018358 0.117085
Si Si5 0.445399 0.088403 0.489048
Si Si6 0.049029 0.859865 0.699811
Si Si7 0.242533 0.991494 0.376067
Si Si8 0.178417 0.353903 0.998316
O O1 0.938224 0.097458 0.165916
O O2 0.839775 0.066319 0.830351
O O3 0.109891 0.037445 0.253823
O O4 0.906962 0.932689 0.055606
O O5 0.370227 0.750000 0.041222
O O6 0.443227 0.577003 0.100160
O O7 0.422731 0.635363 0.267684
O O8 0.191873 0.616253 0.831855
O O9 0.243658 0.250000 0.831800
O O10 0.095568 0.110549 0.559803
O O11 0.371925 0.090584 0.982152
O O12 0.186049 0.121028 0.883727
O O13 0.645084 0.047122 0.381647
O O14 0.500000 0.000000 0.000000
O O15 0.342619 0.144151 0.268198
O O16 0.500000 0.000000 0.500000
O O17 0.339681 0.058005 0.438412
O O18 0.046982 0.750000 0.704694
O O19 0.122057 0.250000 0.932589
#
# Coordination Sequence:
#
# PCOD9157617 Si02
#       8
#     4   4   4   4   4   4   4   4
#     4  10  19  37  57  77 113 145 178 230 276 322
#     4  10  21  36  56  84 113 142 184 232 275 332
#     4  10  22  38  55  80 110 140 184 234 277 330
#     4  11  22  37  57  80 110 150 188 224 281 339
#     4  10  18  34  59  83 111 145 183 226 275 326
#     4  10  21  37  58  82 106 141 185 228 282 338
#     4   9  20  35  54  83 110 141 185 228 271 328
#     4  10  20  34  56  82 110 146 180 217 273 331
#
# _framework density 18.795627
#
# number of rings (size 3 to 8) (size 9 to 14) (size 15 to 20)
#    0.000    2.000    0.000    4.875    0.000    3.500 
#    0.000   11.875    0.000    1.500    0.000    0.000 
#    0.000    0.000    0.000    0.000    0.000    0.000 
#
# Total GULP energy -178419.772459 kJ/mol
# GULP energy per Si atom -5575.617889 kJ/mol
# Density = 1.875285 g / cm^3
# Si number density = 18.795627 Si / 1000 Ang^3
#
#
#
# Elastic Constant Matrix: (Units=GPa)
#
#
# Indices 1 2 3 4 5 6 
#
# 1 97.8481 30.5668 46.4487 0.0000 -7.6667 0.0000
# 2 30.5668 41.9560 19.1969 0.0000 3.9292 0.0000
# 3 46.4487 19.1969 146.5574 0.0000 -2.2529 0.0000
# 4 0.0000 0.0000 0.0000 23.0113 0.0000 -1.0023
# 5 -7.6667 3.9292 -2.2529 0.0000 33.8381 0.0000
# 6 0.0000 0.0000 0.0000 -1.0023 0.0000 2.5651
#
#
#
# Elastic Compliance Matrix: (Units=1/GPa)
#
#
# Indices 1 2 3 4 5 6 
#
# 1 0.015342 -0.009995 -0.003485 0.000000 0.004405 0.000000
# 2 -0.009995 0.032210 -0.001145 0.000000 -0.006081 0.000000
# 3 -0.003485 -0.001145 0.008076 0.000000 -0.000119 0.000000
# 4 0.000000 0.000000 0.000000 0.044209 0.000000 0.017274
# 5 0.004405 -0.006081 -0.000119 0.000000 0.031249 0.000000
# 6 0.000000 0.000000 0.000000 0.017274 0.000000 0.396605
#
#
# Mechanical properties :
#
#
# Convention : Reuss Voigt Hill
#
# Bulk Modulus (GPa) = 37.91157 53.19846 45.55501
# Shear Modulus (GPa) = 8.83809 24.55950 16.69880
#
# Velocity S-wave (km/s) = 2.17081 3.61870 2.98391
# Velocity P-wave (km/s) = 5.14757 6.76942 6.01342
#
# Compressibility (1/GPa) = 0.02637717
#
# Stress axis : x y z
#
# Youngs Moduli (GPa) = 65.18087 31.04669 123.82330
#
# Poissons Ratio (x) = 0.31031 0.43158
# Poissons Ratio (y) = 0.65148 0.14174
# Poissons Ratio (z) = 0.22718 0.03554
#
# Static dielectric constant tensor:
#      x y z
#    x 1.626070 0.000000 -0.016300 
#    y 0.000000 1.668160 0.000000 
#    z -0.016300 0.000000 1.693520 
# 
# From -- ./inp_files/41684.got.cif
#   From: 2010.05.17/outbox.cif.g08.bks.cpg/sg11_21_cif.got.tgz:41684.got - 2010.06.03 12:22:45.
