data_PCOD9157713
_publ_section_title
;
Structure prediction by ZEFSAII (Michael W. Deem and Ramdas Pophale) SiO2 
 PCOD9157713
Probable space group: P 21/M
;
_chemical_formula_sum "Si O2"
_cell_formula_units_Z 32
_cell_length_a 8.327079
_cell_length_b 14.995318
_cell_length_c 21.319105
_cell_angle_alpha 90.000000
_cell_angle_beta 41.791772
_cell_angle_gamma 90.000000
_cell_volume 1774.062356
_symmetry_space_group_name_H-M "P 21/M"
_symmetry_group_IT_number 11
_symmetry_cell_setting 'monoclinic'
loop_
_space_group_symop_operation_xyz
x,y,z
-x,1/2+y,-z
-x,-y,-z
x,1/2-y,z
loop_
_atom_site_type_symbol
_atom_site_label
_atom_site_fract_x
_atom_site_fract_y
_atom_site_fract_z
Si Si1 0.448929 0.974445 0.670208
Si Si2 0.060372 0.647832 0.319257
Si Si3 0.492262 0.577705 0.862038
Si Si4 0.586950 0.907293 0.198292
Si Si5 0.924766 0.478821 0.802895
Si Si6 0.238315 0.351539 0.334113
Si Si7 0.112825 0.650175 0.069508
Si Si8 0.876318 0.999549 0.467196
O O1 0.466172 0.053209 0.716964
O O2 0.594400 0.001431 0.565461
O O3 0.165994 0.963108 0.741802
O O4 0.587012 0.891782 0.662579
O O5 0.978543 0.750000 0.342094
O O6 0.349168 0.644154 0.246130
O O7 0.016880 0.594699 0.267470
O O8 0.944045 0.587983 0.408141
O O9 0.386389 0.492982 0.854832
O O10 0.702536 0.537901 0.844623
O O11 0.615690 0.638324 0.773068
O O12 0.292279 0.626427 0.961004
O O13 0.835916 0.855276 0.127666
O O14 0.863486 0.424363 0.883541
O O15 0.173360 0.250000 0.366002
O O16 0.005361 0.416151 0.397223
O O17 0.162929 0.750000 0.078750
O O18 0.000000 0.000000 0.500000
#
# Coordination Sequence:
#
# PCOD9157713 Si02
#       8
#     4   4   4   4   4   4   4   4
#     4   9  19  36  58  79 111 148 184 229 278 333
#     4  11  20  35  58  83 113 148 186 229 281 333
#     4  10  19  37  57  79 107 154 182 228 281 337
#     4   9  18  36  55  80 109 141 184 232 283 321
#     4  10  21  38  56  76 116 153 183 223 284 332
#     4  10  19  36  58  82 109 145 191 236 278 327
#     4  11  21  33  54  84 109 141 190 234 273 333
#     4  10  18  36  57  82 109 144 184 231 283 322
#
# _framework density 18.037697000000001
#
# number of rings (size 3 to 8) (size 9 to 14) (size 15 to 20)
#    0.000    2.000    5.000    1.875    0.000    2.500 
#    0.000    2.500    0.000    0.000    0.000    0.000 
#    0.000    0.000    0.000    0.000    0.000    0.000 
#
# Total GULP energy -178438.405548 kJ/mol
# GULP energy per Si atom -5576.200173 kJ/mol
# Density = 1.799664 g / cm^3
# Si number density = 18.037697 Si / 1000 Ang^3
#
#
#
# Elastic Constant Matrix: (Units=GPa)
#
#
# Indices 1 2 3 4 5 6 
#
# 1 42.6959 5.4246 16.9567 0.0000 -4.0507 0.0000
# 2 5.4246 83.3937 23.8764 0.0000 -13.2774 0.0000
# 3 16.9567 23.8764 113.2550 0.0000 -3.4991 0.0000
# 4 0.0000 0.0000 0.0000 3.0886 0.0000 4.3400
# 5 -4.0507 -13.2774 -3.4991 0.0000 18.5049 0.0000
# 6 0.0000 0.0000 0.0000 4.3400 0.0000 7.5052
#
#
#
# Elastic Compliance Matrix: (Units=1/GPa)
#
#
# Indices 1 2 3 4 5 6 
#
# 1 0.025331 0.000201 -0.003681 0.000000 0.004993 0.000000
# 2 0.000201 0.014326 -0.002747 0.000000 0.009803 0.000000
# 3 -0.003681 -0.002747 0.009932 0.000000 -0.000899 0.000000
# 4 0.000000 0.000000 0.000000 1.727194 0.000000 -0.998776
# 5 0.004993 0.009803 -0.000899 0.000000 0.061997 0.000000
# 6 0.000000 0.000000 0.000000 -0.998776 0.000000 0.710799
#
#
# Mechanical properties :
#
#
# Convention : Reuss Voigt Hill
#
# Bulk Modulus (GPa) = 26.92864 36.87332 31.90098
# Shear Modulus (GPa) = 1.94219 18.69221 10.31720
#
# Velocity S-wave (km/s) = 1.03879 3.22263 2.39420
# Velocity P-wave (km/s) = 4.04972 5.85951 5.03657
#
# Compressibility (1/GPa) = 0.03713519
#
# Stress axis : x y z
#
# Youngs Moduli (GPa) = 39.47657 69.80484 100.68316
#
# Poissons Ratio (x) = -0.01404 0.37059
# Poissons Ratio (y) = -0.00794 0.27661
# Poissons Ratio (z) = 0.14530 0.19178
#
# Static dielectric constant tensor:
#      x y z
#    x 1.626120 0.000000 0.000020 
#    y 0.000000 1.604590 0.000000 
#    z 0.000020 0.000000 1.625480 
# 
# From -- ./inp_files/21865.got.cif
#   From: 2010.05.17/outbox.cif.g08.bks.cpg/sg11_11_cif.got.tgz:21865.got - 2010.06.03 12:22:45.
