data_PCOD9157960
_publ_section_title
;
Structure prediction by ZEFSAII (Michael W. Deem and Ramdas Pophale) SiO2 
 PCOD9157960
Probable space group: P 21/M
;
_chemical_formula_sum "Si O2"
_cell_formula_units_Z 32
_cell_length_a 21.658948
_cell_length_b 9.118239
_cell_length_c 28.881184
_cell_angle_alpha 90.000000
_cell_angle_beta 20.808109
_cell_angle_gamma 90.000000
_cell_volume 2026.209207
_symmetry_space_group_name_H-M "P 21/M"
_symmetry_group_IT_number 11
_symmetry_cell_setting 'monoclinic'
loop_
_space_group_symop_operation_xyz
x,y,z
-x,1/2+y,-z
-x,-y,-z
x,1/2-y,z
loop_
_atom_site_type_symbol
_atom_site_label
_atom_site_fract_x
_atom_site_fract_y
_atom_site_fract_z
Si Si1 0.241584 0.574401 0.299354
Si Si2 0.242552 0.425212 0.494990
Si Si3 0.110864 0.581145 0.726592
Si Si4 0.551482 0.926017 0.012206
Si Si5 0.854723 0.573564 0.539808
Si Si6 0.540988 0.080288 0.581739
Si Si7 0.645651 0.074084 0.365318
Si Si8 0.904948 0.076652 0.795640
O O1 0.240612 0.750000 0.306571
O O2 0.403687 0.536393 0.153519
O O3 0.241585 0.497164 0.349066
O O4 0.058965 0.534715 0.402491
O O5 0.272810 0.250000 0.475341
O O6 0.217175 0.472026 0.459751
O O7 0.394653 0.506685 0.416068
O O8 0.061713 0.451267 0.649314
O O9 0.049856 0.750000 0.768396
O O10 0.286814 0.575524 0.571974
O O11 0.174117 0.543270 0.734107
O O12 0.975827 0.476595 0.795739
O O13 0.556306 0.750000 0.003919
O O14 0.500000 0.000000 0.000000
O O15 0.736104 0.987460 0.899245
O O16 0.842809 0.750000 0.550717
O O17 0.494010 0.250000 0.620507
O O18 0.391826 0.992892 0.658699
O O19 0.622213 0.250000 0.381384
O O20 0.500000 0.000000 0.500000
O O21 0.869549 0.250000 0.820349
#
# Coordination Sequence:
#
# PCOD9157960 Si02
#       8
#     4   4   4   4   4   4   4   4
#     4   9  19  34  49  67  89 113 143 181 224 264
#     4   9  17  29  44  63  90 121 150 183 223 263
#     4   8  15  26  38  55  81 114 150 183 217 259
#     4  11  22  35  50  67  91 119 148 183 221 263
#     4   9  17  31  50  68  87 113 146 182 220 264
#     4   9  16  24  36  57  84 114 149 184 218 261
#     4   9  15  23  36  54  79 112 148 183 219 261
#     4  10  19  30  45  65  90 119 151 185 221 263
#
# _framework density 15.793037999999999
#
# number of rings (size 3 to 8) (size 9 to 14) (size 15 to 20)
#    0.000    2.750    0.000    3.000    0.000    7.500 
#    0.000    2.500    0.000    0.000    0.000    0.000 
#    0.000    1.000    0.000    3.250    0.000    4.875 
#
# Total GULP energy -178256.629753 kJ/mol
# GULP energy per Si atom -5570.519680 kJ/mol
# Density = 1.575709 g / cm^3
# Si number density = 15.793038 Si / 1000 Ang^3
#
#
#
# Elastic Constant Matrix: (Units=GPa)
#
#
# Indices 1 2 3 4 5 6 
#
# 1 168.5176 66.7137 46.1837 0.0000 -17.4234 0.0000
# 2 66.7137 61.3302 36.1763 0.0000 -8.2552 0.0000
# 3 46.1837 36.1763 40.4446 0.0000 -5.2959 0.0000
# 4 0.0000 0.0000 0.0000 19.2418 0.0000 -4.6011
# 5 -17.4234 -8.2552 -5.2959 0.0000 17.1996 0.0000
# 6 0.0000 0.0000 0.0000 -4.6011 0.0000 31.8342
#
#
#
# Elastic Compliance Matrix: (Units=1/GPa)
#
#
# Indices 1 2 3 4 5 6 
#
# 1 0.011207 -0.009125 -0.003879 0.000000 0.005779 0.000000
# 2 -0.009125 0.042863 -0.027547 0.000000 0.002847 0.000000
# 3 -0.003879 -0.027547 0.053714 0.000000 -0.000612 0.000000
# 4 0.000000 0.000000 0.000000 0.053831 0.000000 0.007780
# 5 0.005779 0.002847 -0.000612 0.000000 0.065173 0.000000
# 6 0.000000 0.000000 0.000000 0.007780 0.000000 0.032537
#
#
# Mechanical properties :
#
#
# Convention : Reuss Voigt Hill
#
# Bulk Modulus (GPa) = 37.47712 63.15998 50.31855
# Shear Modulus (GPa) = 14.31347 21.73638 18.02492
#
# Velocity S-wave (km/s) = 3.01377 3.71391 3.38201
# Velocity P-wave (km/s) = 5.99100 7.64657 6.86885
#
# Compressibility (1/GPa) = 0.02668295
#
# Stress axis : x y z
#
# Youngs Moduli (GPa) = 89.22951 23.32987 18.61714
#
# Poissons Ratio (x) = 0.21289 0.07221
# Poissons Ratio (y) = 0.81423 0.51285
# Poissons Ratio (z) = 0.34608 0.64267
#
# Static dielectric constant tensor:
#      x y z
#    x 1.546220 0.000000 -0.012130 
#    y 0.000000 1.532700 0.000000 
#    z -0.012130 0.000000 1.504190 
# 
# From -- ./inp_files/64234.got.cif
#   From: 2010.05.17/outbox.cif.g08.bks.cpg/sg11_33_cif.got.tgz:64234.got - 2010.06.03 12:22:45.
