data_PCOD9157858
_publ_section_title
;
Structure prediction by ZEFSAII (Michael W. Deem and Ramdas Pophale) SiO2 
 PCOD9157858
Probable space group: P 21/M
;
_chemical_formula_sum "Si O2"
_cell_formula_units_Z 32
_cell_length_a 12.651978
_cell_length_b 8.840448
_cell_length_c 34.646057
_cell_angle_alpha 90.000000
_cell_angle_beta 28.016699
_cell_angle_gamma 90.000000
_cell_volume 1820.261486
_symmetry_space_group_name_H-M "P 21/M"
_symmetry_group_IT_number 11
_symmetry_cell_setting 'monoclinic'
loop_
_space_group_symop_operation_xyz
x,y,z
-x,1/2+y,-z
-x,-y,-z
x,1/2-y,z
loop_
_atom_site_type_symbol
_atom_site_label
_atom_site_fract_x
_atom_site_fract_y
_atom_site_fract_z
Si Si1 0.121621 0.568887 0.225374
Si Si2 0.117080 0.079061 0.426922
Si Si3 0.817707 0.068332 0.707846
Si Si4 0.284858 0.569301 0.090116
Si Si5 0.503205 0.571580 0.256904
Si Si6 0.191555 0.931153 0.780413
Si Si7 0.353198 0.930373 0.644475
Si Si8 0.226269 0.919543 0.533217
O O1 0.077553 0.750000 0.239140
O O2 0.220529 0.529988 0.235218
O O3 0.277742 0.534933 0.138309
O O4 0.886239 0.484417 0.294769
O O5 0.202709 0.250000 0.407603
O O6 0.933664 0.091476 0.452526
O O7 0.307124 0.967753 0.350352
O O8 0.000000 0.000000 0.500000
O O9 0.829100 0.250000 0.699850
O O10 0.613226 0.017375 0.745653
O O11 0.061051 0.003730 0.616450
O O12 0.283058 0.750000 0.086021
O O13 0.053352 0.501110 0.148185
O O14 0.500000 0.500000 0.000000
O O15 0.547554 0.750000 0.239953
O O16 0.711138 0.488542 0.210188
O O17 0.178770 0.750000 0.784591
O O18 0.343198 0.975075 0.693523
O O19 0.373177 0.750000 0.636670
O O20 0.550467 0.000318 0.554719
O O21 0.279884 0.750000 0.529936
#
# Coordination Sequence:
#
# PCOD9157858 Si02
#       8
#     4   4   4   4   4   4   4   4
#     4   9  19  36  56  76 100 132 167 205 251 303
#     4  10  19  29  42  62  90 127 172 218 261 302
#     4   9  19  35  52  71  98 135 177 214 250 295
#     4  10  20  36  60  87 111 132 158 197 249 306
#     4  10  19  31  49  72  99 132 169 209 252 299
#     4  10  20  34  53  78 107 136 169 209 254 302
#     4  10  20  32  48  71  99 133 173 218 262 301
#     4  10  20  31  44  65  95 133 176 218 257 298
#
# _framework density 17.579891
#
# number of rings (size 3 to 8) (size 9 to 14) (size 15 to 20)
#    0.000    2.250    0.000    3.000    0.000    7.000 
#    0.000    0.000    0.000    0.750    0.000    0.000 
#    0.000    0.000    0.000    0.000    0.000    0.000 
#
# Total GULP energy -178368.215024 kJ/mol
# GULP energy per Si atom -5574.006720 kJ/mol
# Density = 1.753988 g / cm^3
# Si number density = 17.579891 Si / 1000 Ang^3
#
#
#
# Elastic Constant Matrix: (Units=GPa)
#
#
# Indices 1 2 3 4 5 6 
#
# 1 112.7676 37.8000 59.3860 0.0000 13.1486 0.0000
# 2 37.8000 50.6987 36.3577 0.0000 7.4178 0.0000
# 3 59.3860 36.3577 104.3338 0.0000 9.4913 0.0000
# 4 0.0000 0.0000 0.0000 26.7359 0.0000 -5.4839
# 5 13.1486 7.4178 9.4913 0.0000 13.0118 0.0000
# 6 0.0000 0.0000 0.0000 -5.4839 0.0000 22.0650
#
#
#
# Elastic Compliance Matrix: (Units=1/GPa)
#
#
# Indices 1 2 3 4 5 6 
#
# 1 0.014641 -0.005788 -0.005646 0.000000 -0.007377 0.000000
# 2 -0.005788 0.029582 -0.006439 0.000000 -0.006318 0.000000
# 3 -0.005646 -0.006439 0.015197 0.000000 -0.001710 0.000000
# 4 0.000000 0.000000 0.000000 0.039412 0.000000 0.009795
# 5 -0.007377 -0.006318 -0.001710 0.000000 0.089157 0.000000
# 6 0.000000 0.000000 0.000000 0.009795 0.000000 0.047755
#
#
# Mechanical properties :
#
#
# Convention : Reuss Voigt Hill
#
# Bulk Modulus (GPa) = 42.23887 59.43195 50.83541
# Shear Modulus (GPa) = 17.89658 21.31298 19.60478
#
# Velocity S-wave (km/s) = 3.19409 3.48566 3.34306
# Velocity P-wave (km/s) = 6.13856 7.07672 6.62427
#
# Compressibility (1/GPa) = 0.02367488
#
# Stress axis : x y z
#
# Youngs Moduli (GPa) = 68.29998 33.80408 65.80039
#
# Poissons Ratio (x) = 0.19567 0.37148
# Poissons Ratio (y) = 0.39534 0.42371
# Poissons Ratio (z) = 0.38559 0.21767
#
# Static dielectric constant tensor:
#      x y z
#    x 1.639010 0.000000 0.005260 
#    y 0.000000 1.508520 0.000000 
#    z 0.005260 0.000000 1.546700 
# 
# From -- ./inp_files/73114.got.cif
#   From: 2010.05.17/outbox.cif.g08.bks.cpg/sg11_37_cif.got.tgz:73114.got - 2010.06.03 12:22:45.
