data_PCOD9157679
_publ_section_title
;
Structure prediction by ZEFSAII (Michael W. Deem and Ramdas Pophale) SiO2 
 PCOD9157679
Probable space group: P 21/M
;
_chemical_formula_sum "Si O2"
_cell_formula_units_Z 32
_cell_length_a 10.528933
_cell_length_b 18.500277
_cell_length_c 17.748309
_cell_angle_alpha 90.000000
_cell_angle_beta 151.424717
_cell_angle_gamma 90.000000
_cell_volume 1653.605132
_symmetry_space_group_name_H-M "P 21/M"
_symmetry_group_IT_number 11
_symmetry_cell_setting 'monoclinic'
loop_
_space_group_symop_operation_xyz
x,y,z
-x,1/2+y,-z
-x,-y,-z
x,1/2-y,z
loop_
_atom_site_type_symbol
_atom_site_label
_atom_site_fract_x
_atom_site_fract_y
_atom_site_fract_z
Si Si1 0.454417 0.668791 0.438673
Si Si2 0.833853 0.663117 0.128548
Si Si3 0.260797 0.033511 0.168371
Si Si4 0.589636 0.672560 0.685460
Si Si5 0.412091 0.920410 0.806201
Si Si6 0.064082 0.666005 0.517398
Si Si7 0.141396 0.063761 0.713198
Si Si8 0.615185 0.525078 0.479380
O O1 0.503880 0.750000 0.437889
O O2 0.498497 0.666837 0.551839
O O3 0.652977 0.610416 0.507710
O O4 0.141593 0.651494 0.263454
O O5 0.800450 0.750000 0.119577
O O6 0.799776 0.620066 0.189319
O O7 0.622111 0.628803 0.960645
O O8 0.220454 0.108642 0.191124
O O9 0.452507 0.050320 0.199083
O O10 0.400733 0.983942 0.302436
O O11 0.000000 0.000000 0.000000
O O12 0.719330 0.750000 0.764838
O O13 0.324909 0.669956 0.598688
O O14 0.166695 0.871676 0.647705
O O15 0.329525 0.993483 0.806619
O O16 0.974367 0.750000 0.479396
O O17 0.876102 0.610321 0.373354
O O18 0.858240 0.025727 0.583328
O O19 0.500000 0.500000 0.500000
#
# Coordination Sequence:
#
# PCOD9157679 Si02
#       8
#     4   4   4   4   4   4   4   4
#     4  10  19  34  59  86 115 150 199 245 284 341
#     4  11  21  38  61  88 116 155 204 252 291 342
#     4  11  22  36  58  85 118 153 189 244 301 349
#     4   9  16  32  56  85 109 142 195 240 283 337
#     4  11  24  38  55  92 121 153 195 246 306 351
#     4  10  18  35  59  84 111 149 197 245 287 347
#     4  12  22  38  63  86 118 158 200 248 291 365
#     4  12  20  37  60  89 117 152 200 240 294 349
#
# _framework density 19.351656999999999
#
# number of rings (size 3 to 8) (size 9 to 14) (size 15 to 20)
#    0.000    1.250    6.250    2.250    0.000    0.500 
#    0.000    1.875    0.000    3.000    0.000    0.000 
#    0.000    0.000    0.000    0.000    0.000    0.000 
#
# Total GULP energy -178496.132924 kJ/mol
# GULP energy per Si atom -5578.004154 kJ/mol
# Density = 1.930761 g / cm^3
# Si number density = 19.351657 Si / 1000 Ang^3
#
#
#
# Elastic Constant Matrix: (Units=GPa)
#
#
# Indices 1 2 3 4 5 6 
#
# 1 28.8371 24.0445 17.7011 0.0000 -6.9696 0.0000
# 2 24.0445 149.4306 24.2751 0.0000 -3.0934 0.0000
# 3 17.7011 24.2751 67.4850 0.0000 -19.0312 0.0000
# 4 0.0000 0.0000 0.0000 38.8155 0.0000 -1.6757
# 5 -6.9696 -3.0934 -19.0312 0.0000 17.3924 0.0000
# 6 0.0000 0.0000 0.0000 -1.6757 0.0000 26.1355
#
#
#
# Elastic Compliance Matrix: (Units=1/GPa)
#
#
# Indices 1 2 3 4 5 6 
#
# 1 0.046576 -0.006107 -0.007322 0.000000 0.009566 0.000000
# 2 -0.006107 0.007968 -0.002249 0.000000 -0.003491 0.000000
# 3 -0.007322 -0.002249 0.024019 0.000000 0.022948 0.000000
# 4 0.000000 0.000000 0.000000 0.025834 0.000000 0.001656
# 5 0.009566 -0.003491 0.022948 0.000000 0.085819 0.000000
# 6 0.000000 0.000000 0.000000 0.001656 0.000000 0.038368
#
#
# Mechanical properties :
#
#
# Convention : Reuss Voigt Hill
#
# Bulk Modulus (GPa) = 21.18326 41.97713 31.58020
# Shear Modulus (GPa) = 18.13720 28.45081 23.29401
#
# Velocity S-wave (km/s) = 3.06476 3.83848 3.47323
# Velocity P-wave (km/s) = 4.84706 6.43304 5.69553
#
# Compressibility (1/GPa) = 0.04720708
#
# Stress axis : x y z
#
# Youngs Moduli (GPa) = 21.47019 125.50604 41.63353
#
# Poissons Ratio (x) = 0.76645 0.30486
# Poissons Ratio (y) = 0.13112 0.09362
# Poissons Ratio (z) = 0.15722 0.28222
#
# Static dielectric constant tensor:
#      x y z
#    x 1.666470 0.000000 0.011120 
#    y 0.000000 1.719970 0.000000 
#    z 0.011120 0.000000 1.663500 
# 
# From -- ./inp_files/59626.got.cif
#   From: 2010.05.17/outbox.cif.g08.bks.cpg/sg11_30_cif.got.tgz:59626.got - 2010.06.03 12:22:45.
