data_PCOD9157676
_publ_section_title
;
Structure prediction by ZEFSAII (Michael W. Deem and Ramdas Pophale) SiO2 
 PCOD9157676
Probable space group: P 21/M
;
_chemical_formula_sum "Si O2"
_cell_formula_units_Z 32
_cell_length_a 21.973784
_cell_length_b 14.710426
_cell_length_c 7.265505
_cell_angle_alpha 90.000000
_cell_angle_beta 32.673176
_cell_angle_gamma 90.000000
_cell_volume 1267.844616
_symmetry_space_group_name_H-M "P 21/M"
_symmetry_group_IT_number 11
_symmetry_cell_setting 'monoclinic'
loop_
_space_group_symop_operation_xyz
x,y,z
-x,1/2+y,-z
-x,-y,-z
x,1/2-y,z
loop_
_atom_site_type_symbol
_atom_site_label
_atom_site_fract_x
_atom_site_fract_y
_atom_site_fract_z
Si Si1 0.367608 0.855629 0.719011
Si Si2 0.438255 0.916151 0.910557
Si Si3 0.255928 0.853964 0.629486
Si Si4 0.623735 0.594955 0.709048
Si Si5 0.990126 0.854286 0.920392
Si Si6 0.245714 0.345779 0.283413
Si Si7 0.139210 0.473052 0.037290
Si Si8 0.828861 0.473756 0.656885
O O1 0.388061 0.750000 0.696248
O O2 0.445999 0.905307 0.670744
O O3 0.242396 0.889185 0.088351
O O4 0.356225 0.868884 0.527795
O O5 0.320010 0.871168 0.275003
O O6 0.430406 0.015747 0.023708
O O7 0.538353 0.870060 0.772049
O O8 0.218420 0.750000 0.740724
O O9 0.154688 0.924546 0.919684
O O10 0.680244 0.657140 0.720205
O O11 0.730249 0.557691 0.322058
O O12 0.029909 0.750000 0.796907
O O13 0.930974 0.896815 0.889672
O O14 0.887483 0.851261 0.325420
O O15 0.087055 0.929409 0.703539
O O16 0.265260 0.250000 0.131415
O O17 0.258715 0.447080 0.172732
O O18 0.107920 0.482133 0.329769
#
# Coordination Sequence:
#
# PCOD9157676 Si02
#       8
#     4   4   4   4   4   4   4   4
#     4  10  20  34  56  86 117 151 195 242 291 341
#     4  10  18  35  59  82 112 158 195 237 288 342
#     4   9  19  35  54  85 123 153 193 243 286 339
#     4   9  19  37  56  80 110 149 194 230 286 346
#     4  10  21  38  60  81 109 150 191 233 289 348
#     4  10  21  37  55  78 112 149 186 236 287 343
#     4   9  20  37  58  83 112 149 184 238 290 341
#     4  11  20  37  57  85 113 147 185 241 288 345
#
# _framework density 25.239685999999999
#
# number of rings (size 3 to 8) (size 9 to 14) (size 15 to 20)
#    0.000    2.250    1.250    1.500    0.000    2.000 
#    2.250    3.125    0.000    0.000    0.000    0.000 
#    0.000    0.000    0.000    0.000    0.000    0.000 
#
# Total GULP energy -178454.687759 kJ/mol
# GULP energy per Si atom -5576.708992 kJ/mol
# Density = 2.518224 g / cm^3
# Si number density = 25.239686 Si / 1000 Ang^3
#
#
#
# Elastic Constant Matrix: (Units=GPa)
#
#
# Indices 1 2 3 4 5 6 
#
# 1 123.3592 20.1411 2.8901 0.0000 0.2611 0.0000
# 2 20.1411 131.5926 14.7871 0.0000 2.1914 0.0000
# 3 2.8901 14.7871 29.0281 0.0000 3.0636 0.0000
# 4 0.0000 0.0000 0.0000 10.4556 0.0000 3.4475
# 5 0.2611 2.1914 3.0636 0.0000 29.5239 0.0000
# 6 0.0000 0.0000 0.0000 3.4475 0.0000 19.3057
#
#
#
# Elastic Compliance Matrix: (Units=1/GPa)
#
#
# Indices 1 2 3 4 5 6 
#
# 1 0.008315 -0.001251 -0.000195 0.000000 0.000040 0.000000
# 2 -0.001251 0.008250 -0.004059 0.000000 -0.000180 0.000000
# 3 -0.000195 -0.004059 0.036909 0.000000 -0.003527 0.000000
# 4 0.000000 0.000000 0.000000 0.101626 0.000000 -0.018148
# 5 0.000040 -0.000180 -0.003527 0.000000 0.034250 0.000000
# 6 0.000000 0.000000 0.000000 -0.018148 0.000000 0.055039
#
#
# Mechanical properties :
#
#
# Convention : Reuss Voigt Hill
#
# Bulk Modulus (GPa) = 23.54945 39.95737 31.75341
# Shear Modulus (GPa) = 18.54921 28.26783 23.40852
#
# Velocity S-wave (km/s) = 2.71389 3.35023 3.04871
# Velocity P-wave (km/s) = 4.37845 5.55256 5.00009
#
# Compressibility (1/GPa) = 0.04246383
#
# Stress axis : x y z
#
# Youngs Moduli (GPa) = 120.26143 121.21410 27.09391
#
# Poissons Ratio (x) = 0.15170 0.00527
# Poissons Ratio (y) = 0.15051 0.10997
# Poissons Ratio (z) = 0.02339 0.49200
#
# Static dielectric constant tensor:
#      x y z
#    x 2.062370 0.000000 -0.049490 
#    y 0.000000 2.031410 0.000000 
#    z -0.049490 0.000000 2.019650 
# 
# From -- ./inp_files/27763.got.cif
#   From: 2010.05.17/outbox.cif.g08.bks.cpg/sg11_14_cif.got.tgz:27763.got - 2010.06.03 12:22:45.
