data_PCOD9157516
_publ_section_title
;
Structure prediction by ZEFSAII (Michael W. Deem and Ramdas Pophale) SiO2 
 PCOD9157516
Probable space group: P 21/M
;
_chemical_formula_sum "Si O2"
_cell_formula_units_Z 22
_cell_length_a 15.882610
_cell_length_b 8.287928
_cell_length_c 8.360601
_cell_angle_alpha 90.000000
_cell_angle_beta 54.625531
_cell_angle_gamma 90.000000
_cell_volume 897.363717
_symmetry_space_group_name_H-M "P 21/M"
_symmetry_group_IT_number 11
_symmetry_cell_setting 'monoclinic'
loop_
_space_group_symop_operation_xyz
x,y,z
-x,1/2+y,-z
-x,-y,-z
x,1/2-y,z
loop_
_atom_site_type_symbol
_atom_site_label
_atom_site_fract_x
_atom_site_fract_y
_atom_site_fract_z
Si Si1 0.552464 0.438864 0.609670
Si Si2 0.785885 0.064324 0.257456
Si Si3 0.286286 0.250000 0.135837
Si Si4 0.301250 0.250000 0.768877
Si Si5 0.847111 0.074512 0.741105
Si Si6 0.571408 0.750000 0.711675
Si Si7 0.022326 0.569037 0.729966
O O1 0.500000 0.500000 0.500000
O O2 0.534399 0.250000 0.648044
O O3 0.678804 0.441864 0.477929
O O4 0.513516 0.578035 0.772994
O O5 0.790110 0.250000 0.195574
O O6 0.891002 0.026619 0.235854
O O7 0.763098 0.914816 0.168555
O O8 0.219855 0.414293 0.206859
O O9 0.353869 0.250000 0.220384
O O10 0.342651 0.250000 0.903094
O O11 0.371130 0.250000 0.528899
O O12 0.793964 0.250000 0.813549
O O13 0.914838 0.079629 0.505032
O O14 0.928794 0.050255 0.796150
O O15 0.983452 0.750000 0.808415
#
# Coordination Sequence:
#
# PCOD9157516 Si02
#       7
#     4   4   2   2   4   2   4
#     4  10  18  33  59  97 122 148 196 238 287 354
#     4   9  19  34  56  81 113 156 193 238 294 351
#     4  12  24  40  60  89 119 151 209 240 290 352
#     4  10  22  38  60  86 116 156 198 240 294 348
#     4  10  20  32  53  83 117 155 194 253 292 336
#     4  10  22  40  64  89 121 161 189 242 296 346
#     4   9  17  33  55  82 114 154 201 238 295 352
#
# _framework density 24.516255000000001
#
# number of rings (size 3 to 8) (size 9 to 14) (size 15 to 20)
#    0.000    2.182    1.818    2.182    2.545    2.909 
#    0.000    0.909    0.000    4.364    0.000    0.000 
#    0.000    0.000    0.000    0.000    0.000    0.000 
#
# Total GULP energy -122666.324058 kJ/mol
# GULP energy per Si atom -5575.742003 kJ/mol
# Density = 2.446046 g / cm^3
# Si number density = 24.516255 Si / 1000 Ang^3
#
#
#
# Elastic Constant Matrix: (Units=GPa)
#
#
# Indices 1 2 3 4 5 6 
#
# 1 100.5834 62.7206 8.5886 0.0000 27.5622 0.0000
# 2 62.7206 231.6104 2.6088 0.0000 15.1426 0.0000
# 3 8.5886 2.6088 55.5218 0.0000 11.1314 0.0000
# 4 0.0000 0.0000 0.0000 -3.2190 0.0000 27.9520
# 5 27.5622 15.1426 11.1314 0.0000 32.6946 0.0000
# 6 0.0000 0.0000 0.0000 27.9520 0.0000 12.0671
#
#
#
# Elastic Compliance Matrix: (Units=1/GPa)
#
#
# Indices 1 2 3 4 5 6 
#
# 1 0.015098 -0.003357 0.000067 0.000000 -0.011195 0.000000
# 2 -0.003357 0.005201 0.000204 0.000000 0.000352 0.000000
# 3 0.000067 0.000204 0.019341 0.000000 -0.006736 0.000000
# 4 0.000000 0.000000 0.000000 -0.014713 0.000000 0.034081
# 5 -0.011195 0.000352 -0.006736 0.000000 0.042155 0.000000
# 6 0.000000 0.000000 0.000000 0.034081 0.000000 0.003925
#
#
# Mechanical properties :
#
#
# Convention : Reuss Voigt Hill
#
# Bulk Modulus (GPa) = 29.87878 59.50575 44.69227
# Shear Modulus (GPa) = 56.60266 29.22837 42.91552
#
# Velocity S-wave (km/s) = 4.81019 3.45658 4.18843
# Velocity P-wave (km/s) = 6.56234 6.34470 6.45444
#
# Compressibility (1/GPa) = 0.03346857
#
# Stress axis : x y z
#
# Youngs Moduli (GPa) = 66.23587 192.25371 51.70232
#
# Poissons Ratio (x) = 0.64545 -0.00346
# Poissons Ratio (y) = 0.22237 -0.01057
# Poissons Ratio (z) = -0.00443 -0.03931
#
# Static dielectric constant tensor:
#      x y z
#    x 0.000000 0.000000 0.000000 
#    y 0.000000 0.000000 0.000000 
#    z 0.000000 0.000000 0.000000 
# 
# From -- ./inp_files/20444.got.cif
#   From: 2010.05.17/outbox.cif.g08.bks.cpg/sg11_11_cif.got.tgz:20444.got - 2010.06.03 12:22:45.
