data_PCOD9157700
_publ_section_title
;
Structure prediction by ZEFSAII (Michael W. Deem and Ramdas Pophale) SiO2 
 PCOD9157700
Probable space group: P 21/M
;
_chemical_formula_sum "Si O2"
_cell_formula_units_Z 32
_cell_length_a 12.086078
_cell_length_b 16.444195
_cell_length_c 14.470833
_cell_angle_alpha 90.000000
_cell_angle_beta 33.296222
_cell_angle_gamma 90.000000
_cell_volume 1578.840792
_symmetry_space_group_name_H-M "P 21/M"
_symmetry_group_IT_number 11
_symmetry_cell_setting 'monoclinic'
loop_
_space_group_symop_operation_xyz
x,y,z
-x,1/2+y,-z
-x,-y,-z
x,1/2-y,z
loop_
_atom_site_type_symbol
_atom_site_label
_atom_site_fract_x
_atom_site_fract_y
_atom_site_fract_z
Si Si1 0.377986 0.605205 0.417324
Si Si2 0.295925 0.157526 0.674944
Si Si3 0.480031 0.419001 0.365284
Si Si4 0.774204 0.651697 0.624749
Si Si5 0.602823 0.650776 0.940467
Si Si6 0.978821 0.651676 0.804553
Si Si7 0.234468 0.848188 0.314038
Si Si8 0.073005 0.651557 0.947523
O O1 0.548223 0.658342 0.348530
O O2 0.461029 0.514466 0.364244
O O3 0.325911 0.629666 0.349567
O O4 0.173016 0.614272 0.619132
O O5 0.271479 0.250000 0.657548
O O6 0.391918 0.104846 0.526839
O O7 0.083077 0.127378 0.863472
O O8 0.344898 0.376961 0.381365
O O9 0.708552 0.388119 0.197949
O O10 0.777278 0.750000 0.624069
O O11 0.664901 0.623663 0.795053
O O12 0.005624 0.622300 0.463804
O O13 0.599541 0.750000 0.941321
O O14 0.776721 0.627549 0.891883
O O15 0.386805 0.622736 0.128350
O O16 0.997814 0.750000 0.783293
O O17 0.981135 0.631339 0.911098
O O18 0.227381 0.750000 0.314844
O O19 0.093969 0.750000 0.936796
#
# Coordination Sequence:
#
# PCOD9157700 Si02
#       8
#     4   4   4   4   4   4   4   4
#     4  12  23  38  61  92 125 159 192 245 314 361
#     4  11  23  42  67  90 114 156 209 252 292 349
#     4  12  26  41  56  89 131 164 194 237 300 370
#     4  10  21  39  62  83 113 159 204 247 291 350
#     4   9  18  35  62  91 112 142 200 259 299 337
#     4  10  18  35  63  90 115 150 196 251 304 350
#     4  10  20  38  64  91 115 151 208 260 295 341
#     4  10  22  40  65  89 114 154 203 250 296 350
#
# _framework density 20.268035000000001
#
# number of rings (size 3 to 8) (size 9 to 14) (size 15 to 20)
#    0.000    1.500    2.500    3.375    0.000    4.000 
#    2.250    3.125    0.000    0.000    0.000    0.000 
#    0.000    0.000    0.000    0.000    0.000    0.000 
#
# Total GULP energy -178903.402944 kJ/mol
# GULP energy per Si atom -5590.731342 kJ/mol
# Density = 2.022190 g / cm^3
# Si number density = 20.268035 Si / 1000 Ang^3
#
#
#
# Elastic Constant Matrix: (Units=GPa)
#
#
# Indices 1 2 3 4 5 6 
#
# 1 110.7357 7.2553 44.8752 0.0000 -3.6254 0.0000
# 2 7.2553 16.6053 15.8406 0.0000 -2.7955 0.0000
# 3 44.8752 15.8406 144.8219 0.0000 6.8180 0.0000
# 4 0.0000 0.0000 0.0000 -48.6150 0.0000 32.0076
# 5 -3.6254 -2.7955 6.8180 0.0000 -3.3821 0.0000
# 6 0.0000 0.0000 0.0000 32.0076 0.0000 -4.3994
#
#
#
# Elastic Compliance Matrix: (Units=1/GPa)
#
#
# Indices 1 2 3 4 5 6 
#
# 1 0.009769 -0.004192 -0.002045 0.000000 -0.011130 0.000000
# 2 -0.004192 0.056566 -0.002647 0.000000 -0.047598 0.000000
# 3 -0.002045 -0.002647 0.006961 0.000000 0.018414 0.000000
# 4 0.000000 0.000000 0.000000 0.005427 0.000000 0.039486
# 5 -0.011130 -0.047598 0.018414 0.000000 -0.207282 0.000000
# 6 0.000000 0.000000 0.000000 0.039486 0.000000 0.059974
#
#
# Mechanical properties :
#
#
# Convention : Reuss Voigt Hill
#
# Bulk Modulus (GPa) = 18.00862 45.34500 31.67681
# Shear Modulus (GPa) = -154.76466 2.33348 -76.21559
#
# Velocity S-wave (km/s) = -8.74784 1.07416 -6.13885
# Velocity P-wave (km/s) = 9.65031 4.89486 5.88085
#
# Compressibility (1/GPa) = 0.05552895
#
# Stress axis : x y z
#
# Youngs Moduli (GPa) = 102.36049 17.67852 143.65094
#
# Poissons Ratio (x) = 0.07410 0.29373
# Poissons Ratio (y) = 0.42905 0.38031
# Poissons Ratio (z) = 0.20930 0.04680
#
# Static dielectric constant tensor:
#      x y z
#    x 1.681870 0.000000 0.003430 
#    y 0.000000 1.669020 0.000000 
#    z 0.003430 0.000000 1.713450 
# 
# From -- ./inp_files/39992.got.cif
#   From: 2010.05.17/outbox.cif.g08.bks.cpg/sg11_20_cif.got.tgz:39992.got - 2010.06.03 12:22:45.
