data_PCOD9157105
_publ_section_title
;
Structure prediction by ZEFSAII (Michael W. Deem and Ramdas Pophale) SiO2 
 PCOD9157105
Probable space group: P 21/M
;
_chemical_formula_sum "Si O2"
_cell_formula_units_Z 32
_cell_length_a 12.587644
_cell_length_b 8.610280
_cell_length_c 20.712449
_cell_angle_alpha 90.000000
_cell_angle_beta 126.145416
_cell_angle_gamma 90.000000
_cell_volume 1812.791530
_symmetry_space_group_name_H-M "P 21/M"
_symmetry_group_IT_number 11
_symmetry_cell_setting 'monoclinic'
loop_
_space_group_symop_operation_xyz
x,y,z
-x,1/2+y,-z
-x,-y,-z
x,1/2-y,z
loop_
_atom_site_type_symbol
_atom_site_label
_atom_site_fract_x
_atom_site_fract_y
_atom_site_fract_z
Si Si1 0.841706 0.935671 0.309498
Si Si2 0.864781 0.438268 0.549810
Si Si3 0.909445 0.435238 0.198640
Si Si4 0.684070 0.437750 0.368147
Si Si5 0.197907 0.935847 0.330021
Si Si6 0.190883 0.934930 0.116816
Si Si7 0.387193 0.064753 0.291398
Si Si8 0.093081 0.562859 0.945277
O O1 0.840494 0.750000 0.311141
O O2 0.984218 0.990862 0.388370
O O3 0.837746 0.989010 0.233916
O O4 0.729591 0.001982 0.315150
O O5 0.867977 0.250000 0.547773
O O6 0.788019 0.494297 0.459474
O O7 0.791535 0.478311 0.590544
O O8 0.903536 0.250000 0.203209
O O9 0.859262 0.478707 0.109265
O O10 0.061937 0.488221 0.256932
O O11 0.686763 0.250000 0.368412
O O12 0.537275 0.486338 0.334940
O O13 0.183457 0.750000 0.320523
O O14 0.316828 0.990049 0.328121
O O15 0.206865 0.750000 0.129295
O O16 0.300725 0.018636 0.198288
O O17 0.186339 0.975956 0.039133
O O18 0.047383 0.983169 0.092044
O O19 0.384942 0.250000 0.298462
O O20 0.072411 0.750000 0.939427
#
# Coordination Sequence:
#
# PCOD9157105 Si02
#       8
#     4   4   4   4   4   4   4   4
#     4  10  20  34  54  79 104 128 167 218 261 302
#     4   8  17  34  54  76 101 128 165 217 263 305
#     4  10  18  31  53  78 106 134 164 205 254 308
#     4  10  21  37  54  71  98 139 179 212 255 305
#     4  10  19  32  51  76 104 134 169 210 259 305
#     4  10  19  31  50  75 105 138 167 206 253 298
#     4  11  22  34  49  72 105 142 176 209 248 307
#     4   9  18  31  50  78 106 132 167 206 250 305
#
# _framework density 17.652334
#
# number of rings (size 3 to 8) (size 9 to 14) (size 15 to 20)
#    0.000    2.250    1.250    3.000    0.000    2.500 
#    0.000    3.125    0.000    0.750    0.000    0.000 
#    0.000    0.000    0.000    0.000    0.000    0.000 
#
# Total GULP energy -178517.832755 kJ/mol
# GULP energy per Si atom -5578.682274 kJ/mol
# Density = 1.761216 g / cm^3
# Si number density = 17.652334 Si / 1000 Ang^3
#
#
#
# Elastic Constant Matrix: (Units=GPa)
#
#
# Indices 1 2 3 4 5 6 
#
# 1 92.0725 9.9587 13.9606 0.0000 -22.3706 0.0000
# 2 9.9587 17.0846 1.8766 0.0000 -1.2301 0.0000
# 3 13.9606 1.8766 34.8864 0.0000 -21.3441 0.0000
# 4 0.0000 0.0000 0.0000 17.2487 0.0000 -2.1967
# 5 -22.3706 -1.2301 -21.3441 0.0000 23.2346 0.0000
# 6 0.0000 0.0000 0.0000 -2.1967 0.0000 23.5713
#
#
#
# Elastic Compliance Matrix: (Units=1/GPa)
#
#
# Indices 1 2 3 4 5 6 
#
# 1 0.015919 -0.008526 0.007282 0.000000 0.021565 0.000000
# 2 -0.008526 0.063449 -0.006778 0.000000 -0.011076 0.000000
# 3 0.007282 -0.006778 0.068921 0.000000 0.069966 0.000000
# 4 0.000000 0.000000 0.000000 0.058672 0.000000 0.005468
# 5 0.021565 -0.011076 0.069966 0.000000 0.127489 0.000000
# 6 0.000000 0.000000 0.000000 0.005468 0.000000 0.042934
#
#
# Mechanical properties :
#
#
# Convention : Reuss Voigt Hill
#
# Bulk Modulus (GPa) = 7.56171 21.73726 14.64949
# Shear Modulus (GPa) = 11.42835 20.69409 16.06122
#
# Velocity S-wave (km/s) = 2.54719 3.42762 3.01967
# Velocity P-wave (km/s) = 3.59776 5.29203 4.52491
#
# Compressibility (1/GPa) = 0.13224514
#
# Stress axis : x y z
#
# Youngs Moduli (GPa) = 62.81941 15.76067 14.50937
#
# Poissons Ratio (x) = 0.13438 -0.10566
# Poissons Ratio (y) = 0.53562 0.09834
# Poissons Ratio (z) = -0.45746 0.10682
#
# Static dielectric constant tensor:
#      x y z
#    x 1.582000 0.000000 -0.022390 
#    y 0.000000 1.595520 0.000000 
#    z -0.022390 0.000000 1.615550 
# 
# From -- ./inp_files/64186.got.cif
#   From: 2010.05.17/outbox.cif.g08.bks.cpg/sg11_33_cif.got.tgz:64186.got - 2010.06.03 12:22:45.
