data_PCOD9157415
_publ_section_title
;
Structure prediction by ZEFSAII (Michael W. Deem and Ramdas Pophale) SiO2 
 PCOD9157415
Probable space group: P 21/M
;
_chemical_formula_sum "Si O2"
_cell_formula_units_Z 28
_cell_length_a 12.402701
_cell_length_b 22.829613
_cell_length_c 5.357747
_cell_angle_alpha 90.000000
_cell_angle_beta 114.212239
_cell_angle_gamma 90.000000
_cell_volume 1383.589810
_symmetry_space_group_name_H-M "P 21/M"
_symmetry_group_IT_number 11
_symmetry_cell_setting 'monoclinic'
loop_
_space_group_symop_operation_xyz
x,y,z
-x,1/2+y,-z
-x,-y,-z
x,1/2-y,z
loop_
_atom_site_type_symbol
_atom_site_label
_atom_site_fract_x
_atom_site_fract_y
_atom_site_fract_z
Si Si1 0.912897 0.557857 0.201123
Si Si2 0.649018 0.933250 0.025692
Si Si3 0.483157 0.422444 0.593967
Si Si4 0.423004 0.317581 0.229312
Si Si5 0.741111 0.383956 0.842087
Si Si6 0.690037 0.316783 0.294782
Si Si7 0.996841 0.069484 0.212681
O O1 0.963313 0.593757 0.482235
O O2 0.996723 0.500965 0.248273
O O3 0.779118 0.540291 0.138831
O O4 0.918074 0.586800 0.933860
O O5 0.662506 0.862511 0.996655
O O6 0.567802 0.949840 0.710550
O O7 0.582854 0.943418 0.221969
O O8 0.450912 0.353051 0.512228
O O9 0.624206 0.424089 0.744531
O O10 0.388465 0.250000 0.226219
O O11 0.548306 0.319786 0.201976
O O12 0.742131 0.355972 0.567558
O O13 0.722172 0.338305 0.050171
O O14 0.864765 0.414310 0.012672
O O15 0.727046 0.250000 0.365994
#
# Coordination Sequence:
#
# PCOD9157415 Si02
#       7
#     4   4   4   4   4   4   4
#     4  10  21  39  56  81 100 138 194 221 266 306
#     4  10  18  33  53  75 111 135 170 222 260 314
#     4   9  18  30  48  80 108 136 163 209 269 322
#     4   8  17  29  49  77 105 138 170 205 254 314
#     4  11  18  35  53  81 112 136 180 216 271 312
#     4  10  19  31  53  81 113 141 173 212 259 326
#     4  10  22  37  60  77 101 141 187 230 254 321
#
# _framework density 20.237214000000002
#
# number of rings (size 3 to 8) (size 9 to 14) (size 15 to 20)
#    0.857    1.429    1.429    2.143    0.000    1.143 
#    0.000    1.429    0.000    5.143    0.000    0.000 
#    0.000    0.000    0.000    0.000    0.000    0.000 
#
# Total GULP energy -156044.168019 kJ/mol
# GULP energy per Si atom -5573.006001 kJ/mol
# Density = 2.019115 g / cm^3
# Si number density = 20.237214 Si / 1000 Ang^3
#
#
#
# Elastic Constant Matrix: (Units=GPa)
#
#
# Indices 1 2 3 4 5 6 
#
# 1 66.6792 -4.2134 22.7940 0.0000 -8.3534 0.0000
# 2 -4.2134 49.2698 4.8786 0.0000 -4.1747 0.0000
# 3 22.7940 4.8786 98.9474 0.0000 -15.0694 0.0000
# 4 0.0000 0.0000 0.0000 14.7610 0.0000 1.4572
# 5 -8.3534 -4.1747 -15.0694 0.0000 30.9421 0.0000
# 6 0.0000 0.0000 0.0000 1.4572 0.0000 11.4595
#
#
#
# Elastic Compliance Matrix: (Units=1/GPa)
#
#
# Indices 1 2 3 4 5 6 
#
# 1 0.016701 0.002034 -0.003477 0.000000 0.003090 0.000000
# 2 0.002034 0.020816 -0.001062 0.000000 0.002840 0.000000
# 3 -0.003477 -0.001062 0.011660 0.000000 0.004597 0.000000
# 4 0.000000 0.000000 0.000000 0.068608 0.000000 -0.008724
# 5 0.003090 0.002840 0.004597 0.000000 0.035774 0.000000
# 6 0.000000 0.000000 0.000000 -0.008724 0.000000 0.088373
#
#
# Mechanical properties :
#
#
# Convention : Reuss Voigt Hill
#
# Bulk Modulus (GPa) = 22.64128 29.09054 25.86591
# Shear Modulus (GPa) = 19.10839 24.19500 21.65170
#
# Velocity S-wave (km/s) = 3.07615 3.46145 3.27447
# Velocity P-wave (km/s) = 4.88151 5.51194 5.20628
#
# Compressibility (1/GPa) = 0.04416712
#
# Stress axis : x y z
#
# Youngs Moduli (GPa) = 59.87497 48.03940 85.76465
#
# Poissons Ratio (x) = -0.09773 0.29822
# Poissons Ratio (y) = -0.12181 0.09112
# Poissons Ratio (z) = 0.20819 0.05104
#
# Static dielectric constant tensor:
#      x y z
#    x 1.704440 0.000000 -0.029000 
#    y 0.000000 1.767550 0.000000 
#    z -0.029000 0.000000 1.765430 
# 
# From -- ./inp_files/5092.got.cif
#   From: 2010.05.17/outbox.cif.g08.bks.cpg/sg11_3_cif.got.tgz:5092.got - 2010.06.03 12:22:45.
