data_PCOD9157576
_publ_section_title
;
Structure prediction by ZEFSAII (Michael W. Deem and Ramdas Pophale) SiO2 
 PCOD9157576
Probable space group: P 21/M
;
_chemical_formula_sum "Si O2"
_cell_formula_units_Z 28
_cell_length_a 6.481105
_cell_length_b 21.886714
_cell_length_c 11.177914
_cell_angle_alpha 90.000000
_cell_angle_beta 58.514054
_cell_angle_gamma 90.000000
_cell_volume 1352.139292
_symmetry_space_group_name_H-M "P 21/M"
_symmetry_group_IT_number 11
_symmetry_cell_setting 'monoclinic'
loop_
_space_group_symop_operation_xyz
x,y,z
-x,1/2+y,-z
-x,-y,-z
x,1/2-y,z
loop_
_atom_site_type_symbol
_atom_site_label
_atom_site_fract_x
_atom_site_fract_y
_atom_site_fract_z
Si Si1 0.606085 0.467629 0.785481
Si Si2 0.305305 0.921771 0.984544
Si Si3 0.552717 0.586814 0.396522
Si Si4 0.584114 0.822202 0.591540
Si Si5 0.090626 0.976754 0.640947
Si Si6 0.692226 0.681408 0.812544
Si Si7 0.081226 0.621640 0.836560
O O1 0.412261 0.518482 0.885065
O O2 0.481042 0.419220 0.735599
O O3 0.836581 0.503628 0.658427
O O4 0.718748 0.437516 0.869895
O O5 0.503787 0.868802 0.912548
O O6 0.082522 0.896285 0.974950
O O7 0.630847 0.645349 0.450665
O O8 0.742629 0.534529 0.377345
O O9 0.280418 0.568492 0.520401
O O10 0.548052 0.750000 0.585220
O O11 0.765704 0.830188 0.650571
O O12 0.348234 0.855758 0.717964
O O13 0.017070 0.939386 0.782358
O O14 0.591595 0.750000 0.845104
O O15 0.909692 0.673886 0.838648
#
# Coordination Sequence:
#
# PCOD9157576 Si02
#       7
#     4   4   4   4   4   4   4
#     4  11  21  36  55  83 116 154 184 225 284 341
#     4  10  22  35  56  84 116 146 189 231 273 337
#     4  10  21  35  55  84 116 149 184 233 286 333
#     4   9  20  36  55  80 109 142 190 236 276 340
#     4  10  20  32  55  83 114 144 183 231 285 335
#     4  10  20  36  58  81 107 146 189 233 285 329
#     4  10  18  34  56  83 111 141 182 238 285 320
#
# _framework density 20.707924999999999
#
# number of rings (size 3 to 8) (size 9 to 14) (size 15 to 20)
#    0.000    2.000    2.857    0.857    2.000    4.571 
#    0.000    0.714    0.000    0.857    0.000    0.000 
#    0.000    0.000    0.000    0.000    0.000    0.000 
#
# Total GULP energy -156065.713172 kJ/mol
# GULP energy per Si atom -5573.775470 kJ/mol
# Density = 2.066079 g / cm^3
# Si number density = 20.707925 Si / 1000 Ang^3
#
#
#
# Elastic Constant Matrix: (Units=GPa)
#
#
# Indices 1 2 3 4 5 6 
#
# 1 60.4972 10.6137 19.1485 0.0000 21.2917 0.0000
# 2 10.6137 91.3722 28.3005 0.0000 23.7249 0.0000
# 3 19.1485 28.3005 57.9599 0.0000 18.5244 0.0000
# 4 0.0000 0.0000 0.0000 21.6939 0.0000 6.4478
# 5 21.2917 23.7249 18.5244 0.0000 31.7743 0.0000
# 6 0.0000 0.0000 0.0000 6.4478 0.0000 25.6720
#
#
#
# Elastic Compliance Matrix: (Units=1/GPa)
#
#
# Indices 1 2 3 4 5 6 
#
# 1 0.022478 0.002387 -0.003943 0.000000 -0.014546 0.000000
# 2 0.002387 0.014701 -0.004851 0.000000 -0.009748 0.000000
# 3 -0.003943 -0.004851 0.023256 0.000000 -0.007294 0.000000
# 4 0.000000 0.000000 0.000000 0.049814 0.000000 -0.012511
# 5 -0.014546 -0.009748 -0.007294 0.000000 0.052750 0.000000
# 6 0.000000 0.000000 0.000000 -0.012511 0.000000 0.042095
#
#
# Mechanical properties :
#
#
# Convention : Reuss Voigt Hill
#
# Bulk Modulus (GPa) = 20.99906 36.21719 28.60812
# Shear Modulus (GPa) = 21.38746 25.94581 23.66663
#
# Velocity S-wave (km/s) = 3.21723 3.54353 3.38432
# Velocity P-wave (km/s) = 4.89524 5.85403 5.39597
#
# Compressibility (1/GPa) = 0.04762119
#
# Stress axis : x y z
#
# Youngs Moduli (GPa) = 44.48723 68.02485 43.00008
#
# Poissons Ratio (x) = -0.16238 0.16954
# Poissons Ratio (y) = -0.10619 0.20860
# Poissons Ratio (z) = 0.17540 0.33000
#
# Static dielectric constant tensor:
#      x y z
#    x 1.842110 0.000000 0.028640 
#    y 0.000000 1.726850 0.000000 
#    z 0.028640 0.000000 1.828420 
# 
# From -- ./inp_files/5079.got.cif
#   From: 2010.05.17/outbox.cif.g08.bks.cpg/sg11_3_cif.got.tgz:5079.got - 2010.06.03 12:22:45.
