data_PCOD9157414
_publ_section_title
;
Structure prediction by ZEFSAII (Michael W. Deem and Ramdas Pophale) SiO2 
 PCOD9157414
Probable space group: P 21/M
;
_chemical_formula_sum "Si O2"
_cell_formula_units_Z 28
_cell_length_a 9.241861
_cell_length_b 16.817709
_cell_length_c 15.370260
_cell_angle_alpha 90.000000
_cell_angle_beta 42.516483
_cell_angle_gamma 90.000000
_cell_volume 1614.459421
_symmetry_space_group_name_H-M "P 21/M"
_symmetry_group_IT_number 11
_symmetry_cell_setting 'monoclinic'
loop_
_space_group_symop_operation_xyz
x,y,z
-x,1/2+y,-z
-x,-y,-z
x,1/2-y,z
loop_
_atom_site_type_symbol
_atom_site_label
_atom_site_fract_x
_atom_site_fract_y
_atom_site_fract_z
Si Si1 0.996475 0.544092 0.409216
Si Si2 0.709853 0.061557 0.988028
Si Si3 0.666784 0.841788 0.621345
Si Si4 0.311353 0.842153 0.180843
Si Si5 0.809605 0.158997 0.109106
Si Si6 0.798017 0.624342 0.940429
Si Si7 0.783358 0.599575 0.759412
O O1 0.187593 0.606789 0.308161
O O2 0.042794 0.470920 0.324172
O O3 0.000000 0.500000 0.500000
O O4 0.782797 0.596897 0.505392
O O5 0.739344 0.114765 0.888817
O O6 0.785268 0.971661 0.943888
O O7 0.822459 0.101929 0.020497
O O8 0.454202 0.062012 0.121150
O O9 0.699010 0.750000 0.582051
O O10 0.414322 0.858097 0.742766
O O11 0.764792 0.855289 0.675466
O O12 0.246012 0.750000 0.209523
O O13 0.567803 0.846947 0.076655
O O14 0.792172 0.250000 0.085237
O O15 0.009017 0.150511 0.084520
O O16 0.823059 0.649988 0.828586
#
# Coordination Sequence:
#
# PCOD9157414 Si02
#       7
#     4   4   4   4   4   4   4
#     4  10  18  33  53  75 102 134 177 216 245 296
#     4  10  18  34  53  76 104 138 167 205 262 322
#     4   9  19  33  51  72 102 140 173 205 250 304
#     4  11  20  32  56  84 106 130 169 221 264 299
#     4  10  21  34  49  76 107 134 169 211 259 313
#     4  11  19  33  54  80 105 133 165 213 267 316
#     4   9  17  32  54  76 102 130 172 212 251 305
#
# _framework density 17.343267000000001
#
# number of rings (size 3 to 8) (size 9 to 14) (size 15 to 20)
#    0.000    2.000    2.857    2.571    0.000    4.000 
#    0.000    0.714    0.000    0.000    0.000    4.000 
#    0.000    0.000    0.000    0.000    0.000    0.000 
#
# Total GULP energy -156061.922020 kJ/mol
# GULP energy per Si atom -5573.640072 kJ/mol
# Density = 1.730379 g / cm^3
# Si number density = 17.343267 Si / 1000 Ang^3
#
#
#
# Elastic Constant Matrix: (Units=GPa)
#
#
# Indices 1 2 3 4 5 6 
#
# 1 61.7827 -3.3639 12.6280 0.0000 -5.2103 0.0000
# 2 -3.3639 80.2933 26.7869 0.0000 -1.7673 0.0000
# 3 12.6280 26.7869 70.3942 0.0000 4.4067 0.0000
# 4 0.0000 0.0000 0.0000 18.2022 0.0000 2.1455
# 5 -5.2103 -1.7673 4.4067 0.0000 14.4915 0.0000
# 6 0.0000 0.0000 0.0000 2.1455 0.0000 17.0874
#
#
#
# Elastic Compliance Matrix: (Units=1/GPa)
#
#
# Indices 1 2 3 4 5 6 
#
# 1 0.017970 0.002497 -0.004686 0.000000 0.008191 0.000000
# 2 0.002497 0.014784 -0.006364 0.000000 0.004636 0.000000
# 3 -0.004686 -0.006364 0.017964 0.000000 -0.007924 0.000000
# 4 0.000000 0.000000 0.000000 0.055764 0.000000 -0.007002
# 5 0.008191 0.004636 -0.007924 0.000000 0.074926 0.000000
# 6 0.000000 0.000000 0.000000 -0.007002 0.000000 0.059402
#
#
# Mechanical properties :
#
#
# Convention : Reuss Voigt Hill
#
# Bulk Modulus (GPa) = 29.75208 31.61914 30.68561
# Shear Modulus (GPa) = 18.57901 21.71749 20.14825
#
# Velocity S-wave (km/s) = 3.27655 3.54250 3.41212
# Velocity P-wave (km/s) = 5.61306 5.91637 5.76671
#
# Compressibility (1/GPa) = 0.03361110
#
# Stress axis : x y z
#
# Youngs Moduli (GPa) = 55.64728 67.64059 55.66668
#
# Poissons Ratio (x) = -0.16887 0.26088
# Poissons Ratio (y) = -0.13893 0.35425
# Poissons Ratio (z) = 0.26079 0.43045
#
# Static dielectric constant tensor:
#      x y z
#    x 1.564420 0.000000 0.011560 
#    y 0.000000 1.605110 0.000000 
#    z 0.011560 0.000000 1.607610 
# 
# From -- ./inp_files/22700.got.cif
#   From: 2010.05.17/outbox.cif.g08.bks.cpg/sg11_12_cif.got.tgz:22700.got - 2010.06.03 12:22:45.
