data_PCOD9157526
_publ_section_title
;
Structure prediction by ZEFSAII (Michael W. Deem and Ramdas Pophale) SiO2 
 PCOD9157526
Probable space group: P 21/M
;
_chemical_formula_sum "Si O2"
_cell_formula_units_Z 26
_cell_length_a 29.615224
_cell_length_b 8.069947
_cell_length_c 8.582952
_cell_angle_alpha 90.000000
_cell_angle_beta 33.077174
_cell_angle_gamma 90.000000
_cell_volume 1119.516759
_symmetry_space_group_name_H-M "P 21/M"
_symmetry_group_IT_number 11
_symmetry_cell_setting 'monoclinic'
loop_
_space_group_symop_operation_xyz
x,y,z
-x,1/2+y,-z
-x,-y,-z
x,1/2-y,z
loop_
_atom_site_type_symbol
_atom_site_label
_atom_site_fract_x
_atom_site_fract_y
_atom_site_fract_z
Si Si1 0.957979 0.949818 0.460195
Si Si2 0.680292 0.750000 0.081410
Si Si3 0.454722 0.561482 0.971782
Si Si4 0.574433 0.750000 0.072932
Si Si5 0.805416 0.444425 0.736306
Si Si6 0.737430 0.436896 0.385598
Si Si7 0.329968 0.250000 0.547171
Si Si8 0.888529 0.051223 0.175506
O O1 0.948489 0.750000 0.478933
O O2 0.024918 0.012681 0.139236
O O3 0.000000 0.000000 0.500000
O O4 0.869164 0.032779 0.693877
O O5 0.632215 0.750000 0.056186
O O6 0.733898 0.580652 0.932575
O O7 0.634524 0.750000 0.381356
O O8 0.475777 0.750000 0.881568
O O9 0.476326 0.420270 0.785037
O O10 0.353975 0.568342 0.271589
O O11 0.500000 0.500000 0.000000
O O12 0.617416 0.750000 0.770483
O O13 0.779827 0.250000 0.796635
O O14 0.863053 0.493283 0.421996
O O15 0.752545 0.250000 0.282922
O O16 0.724505 0.584903 0.303938
O O17 0.810578 0.487896 0.289903
O O18 0.895075 0.250000 0.151452
#
# Coordination Sequence:
#
# PCOD9157526 Si02
#       8
#     4   2   4   2   4   4   2   4
#     4  11  23  40  58  85 118 157 214 264 323 386
#     4  12  26  42  66  98 129 163 221 268 309 394
#     4  10  18  33  63 100 133 170 214 255 309 382
#     4  10  22  42  64  98 133 169 213 260 319 374
#     4  11  23  42  60  86 120 161 207 264 325 379
#     4   9  19  36  59  91 121 162 210 252 313 376
#     4  10  22  38  62  90 128 160 204 262 318 366
#     4   9  20  38  62  82 118 161 204 263 317 377
#
# _framework density 23.224308000000001
#
# number of rings (size 3 to 8) (size 9 to 14) (size 15 to 20)
#    0.000    1.846    1.538    2.769    2.154    2.462 
#    4.154    0.000    0.000    3.692    0.000    0.000 
#    0.000    0.000    0.000    0.000    0.000    0.000 
#
# Total GULP energy -145018.542347 kJ/mol
# GULP energy per Si atom -5577.636244 kJ/mol
# Density = 2.317145 g / cm^3
# Si number density = 23.224308 Si / 1000 Ang^3
#
#
#
# Elastic Constant Matrix: (Units=GPa)
#
#
# Indices 1 2 3 4 5 6 
#
# 1 116.5079 38.3708 14.7248 0.0000 -8.8859 0.0000
# 2 38.3708 171.3921 7.9358 0.0000 -13.5508 0.0000
# 3 14.7248 7.9358 63.4057 0.0000 -5.7604 0.0000
# 4 0.0000 0.0000 0.0000 -27.4723 0.0000 3.6203
# 5 -8.8859 -13.5508 -5.7604 0.0000 38.1859 0.0000
# 6 0.0000 0.0000 0.0000 3.6203 0.0000 34.0596
#
#
#
# Elastic Compliance Matrix: (Units=1/GPa)
#
#
# Indices 1 2 3 4 5 6 
#
# 1 0.009557 -0.001955 -0.001861 0.000000 0.001250 0.000000
# 2 -0.001955 0.006423 -0.000187 0.000000 0.001796 0.000000
# 3 -0.001861 -0.000187 0.016407 0.000000 0.001976 0.000000
# 4 0.000000 0.000000 0.000000 -0.035897 0.000000 0.003816
# 5 0.001250 0.001796 0.001976 0.000000 0.027414 0.000000
# 6 0.000000 0.000000 0.000000 0.003816 0.000000 0.028955
#
#
# Mechanical properties :
#
#
# Convention : Reuss Voigt Hill
#
# Bulk Modulus (GPa) = 41.01520 52.59650 46.80585
# Shear Modulus (GPa) = 72.47350 28.30624 50.38987
#
# Velocity S-wave (km/s) = 5.59228 3.49495 4.66306
# Velocity P-wave (km/s) = 7.70694 6.24360 7.01354
#
# Compressibility (1/GPa) = 0.02438120
#
# Stress axis : x y z
#
# Youngs Moduli (GPa) = 104.63063 155.69405 60.95120
#
# Poissons Ratio (x) = 0.30434 0.11345
# Poissons Ratio (y) = 0.20452 0.01138
# Poissons Ratio (z) = 0.19476 0.02908
#
# Static dielectric constant tensor:
#      x y z
#    x 1.844820 0.000000 -0.002800 
#    y 0.000000 1.931950 0.000000 
#    z -0.002800 0.000000 1.854740 
# 
# From -- ./inp_files/28034.got.cif
#   From: 2010.05.17/outbox.cif.g08.bks.cpg/sg11_15_cif.got.tgz:28034.got - 2010.06.03 12:22:45.
