data_PCOD9157152
_publ_section_title
;
Structure prediction by ZEFSAII (Michael W. Deem and Ramdas Pophale) SiO2 
 PCOD9157152
Probable space group: P 21/M
;
_chemical_formula_sum "Si O2"
_cell_formula_units_Z 32
_cell_length_a 11.918138
_cell_length_b 14.097092
_cell_length_c 7.755684
_cell_angle_alpha 90.000000
_cell_angle_beta 94.776645
_cell_angle_gamma 90.000000
_cell_volume 1298.515295
_symmetry_space_group_name_H-M "P 21/M"
_symmetry_group_IT_number 11
_symmetry_cell_setting 'monoclinic'
loop_
_space_group_symop_operation_xyz
x,y,z
-x,1/2+y,-z
-x,-y,-z
x,1/2-y,z
loop_
_atom_site_type_symbol
_atom_site_label
_atom_site_fract_x
_atom_site_fract_y
_atom_site_fract_z
Si Si1 0.803875 0.394866 0.509217
Si Si2 0.659251 0.852237 0.814253
Si Si3 0.583103 0.357194 0.671338
Si Si4 0.154915 0.386749 0.402215
Si Si5 0.060598 0.928457 0.812554
Si Si6 0.021638 0.350213 0.731873
Si Si7 0.269655 0.949511 0.013887
Si Si8 0.544757 0.025400 0.200550
O O1 0.674773 0.366797 0.529159
O O2 0.814183 0.505380 0.553684
O O3 0.867605 0.384453 0.336396
O O4 0.892151 0.349448 0.654121
O O5 0.659919 0.750000 0.905089
O O6 0.730546 0.844091 0.650410
O O7 0.532467 0.885878 0.759417
O O8 0.716838 0.941881 0.918226
O O9 0.540479 0.250000 0.673065
O O10 0.486639 0.437880 0.678820
O O11 0.660401 0.382828 0.848710
O O12 0.096665 0.349068 0.566066
O O13 0.062099 0.385986 0.236516
O O14 0.142381 0.913814 0.983509
O O15 0.049269 0.043782 0.803946
O O16 0.045591 0.250000 0.830214
O O17 0.327447 0.953080 0.831272
O O18 0.500000 0.000000 0.000000
#
# Coordination Sequence:
#
# PCOD9157152 Si02
#       8
#     4   4   4   4   4   4   4   4
#     4   9  16  33  53  74  97 134 177 209 248 300
#     4  10  18  31  55  78 101 134 177 216 249 300
#     4  10  18  33  57  76  97 133 180 222 250 294
#     4   9  16  32  52  74 102 135 169 210 252 303
#     4   9  20  33  53  73 110 144 157 205 269 309
#     4   9  17  29  50  77 102 136 179 206 245 310
#     4  10  21  36  50  78 109 137 168 212 265 308
#     4   8  18  33  52  74 102 132 175 214 254 300
#
# _framework density 24.643526999999999
#
# number of rings (size 3 to 8) (size 9 to 14) (size 15 to 20)
#    0.000    3.000    2.500    2.250    0.000    5.500 
#    0.000    4.375    0.000    0.000    0.000    0.000 
#    0.000    0.000    0.000    0.000    0.000    0.000 
#
# Total GULP energy -178469.780342 kJ/mol
# GULP energy per Si atom -5577.180636 kJ/mol
# Density = 2.458744 g / cm^3
# Si number density = 24.643527 Si / 1000 Ang^3
#
#
#
# Elastic Constant Matrix: (Units=GPa)
#
#
# Indices 1 2 3 4 5 6 
#
# 1 78.0736 -20.2682 25.6670 0.0000 -25.6903 0.0000
# 2 -20.2682 89.5983 8.0050 0.0000 -10.9189 0.0000
# 3 25.6670 8.0050 66.6449 0.0000 -25.3696 0.0000
# 4 0.0000 0.0000 0.0000 -7.6582 0.0000 8.0828
# 5 -25.6903 -10.9189 -25.3696 0.0000 48.0239 0.0000
# 6 0.0000 0.0000 0.0000 8.0828 0.0000 -15.0177
#
#
#
# Elastic Compliance Matrix: (Units=1/GPa)
#
#
# Indices 1 2 3 4 5 6 
#
# 1 0.018712 0.005723 -0.004491 0.000000 0.008939 0.000000
# 2 0.005723 0.013242 -0.001857 0.000000 0.005092 0.000000
# 3 -0.004491 -0.001857 0.019880 0.000000 0.007677 0.000000
# 4 0.000000 0.000000 0.000000 -0.302314 0.000000 -0.162711
# 5 0.008939 0.005092 0.007677 0.000000 0.030818 0.000000
# 6 0.000000 0.000000 0.000000 -0.162711 0.000000 -0.154162
#
#
# Mechanical properties :
#
#
# Convention : Reuss Voigt Hill
#
# Bulk Modulus (GPa) = 19.76860 29.01382 24.39121
# Shear Modulus (GPa) = -14.05628 19.79715 2.87043
#
# Velocity S-wave (km/s) = -2.39086 2.83740 1.08042
# Velocity P-wave (km/s) = 0.64622 4.74694 3.38755
#
# Compressibility (1/GPa) = 0.05058528
#
# Stress axis : x y z
#
# Youngs Moduli (GPa) = 53.44137 75.51714 50.30126
#
# Poissons Ratio (x) = -0.43222 0.22592
# Poissons Ratio (y) = -0.30587 0.09339
# Poissons Ratio (z) = 0.24003 0.14020
#
# Static dielectric constant tensor:
#      x y z
#    x 1.981970 0.000000 -0.011710 
#    y 0.000000 2.029260 0.000000 
#    z -0.011710 0.000000 2.062880 
# 
# From -- ./inp_files/21847.got.cif
#   From: 2010.05.17/outbox.cif.g08.bks.cpg/sg11_11_cif.got.tgz:21847.got - 2010.06.03 12:22:45.
