data_PCOD9157825
_publ_section_title
;
Structure prediction by ZEFSAII (Michael W. Deem and Ramdas Pophale) SiO2 
 PCOD9157825
Probable space group: P 21/M
;
_chemical_formula_sum "Si O2"
_cell_formula_units_Z 32
_cell_length_a 31.344429
_cell_length_b 9.026589
_cell_length_c 16.545809
_cell_angle_alpha 90.000000
_cell_angle_beta 150.557819
_cell_angle_gamma 90.000000
_cell_volume 2301.099118
_symmetry_space_group_name_H-M "P 21/M"
_symmetry_group_IT_number 11
_symmetry_cell_setting 'monoclinic'
loop_
_space_group_symop_operation_xyz
x,y,z
-x,1/2+y,-z
-x,-y,-z
x,1/2-y,z
loop_
_atom_site_type_symbol
_atom_site_label
_atom_site_fract_x
_atom_site_fract_y
_atom_site_fract_z
Si Si1 0.414607 0.926882 0.819925
Si Si2 0.636652 0.426791 0.743757
Si Si3 0.998718 0.572513 0.409054
Si Si4 0.467709 0.071982 0.568919
Si Si5 0.329737 0.926925 0.842060
Si Si6 0.173550 0.426965 0.679684
Si Si7 0.521870 0.927883 0.227209
Si Si8 0.805490 0.573218 0.095226
O O1 0.425072 0.750000 0.833590
O O2 0.340428 0.958254 0.763885
O O3 0.412847 0.994294 0.727677
O O4 0.500000 0.000000 0.000000
O O5 0.640242 0.250000 0.743751
O O6 0.603398 0.495467 0.604928
O O7 0.561797 0.465717 0.685987
O O8 0.727964 0.490174 0.923492
O O9 0.007368 0.750000 0.429418
O O10 0.901352 0.540233 0.217689
O O11 0.000000 0.500000 0.500000
O O12 0.082645 0.503330 0.505105
O O13 0.458214 0.250000 0.547893
O O14 0.463846 0.029663 0.656355
O O15 0.316884 0.750000 0.831019
O O16 0.252454 0.014170 0.756405
O O17 0.422582 0.963766 0.037014
O O18 0.165024 0.250000 0.660813
O O19 0.192169 0.464619 0.805011
O O20 0.530380 0.750000 0.233476
O O21 0.791885 0.750000 0.067221
#
# Coordination Sequence:
#
# PCOD9157825 Si02
#       8
#     4   4   4   4   4   4   4   4
#     4   9  17  28  41  58  81 108 138 172 207 244
#     4  10  19  29  43  61  80 107 141 174 206 239
#     4   9  17  29  43  59  81 108 137 169 205 244
#     4   9  18  31  43  58  83 110 137 172 210 244
#     4   9  17  28  41  59  84 111 138 169 206 245
#     4  10  19  28  41  62  84 109 141 172 204 243
#     4   9  17  29  44  60  80 110 143 172 208 248
#     4   9  18  30  42  58  81 109 138 168 205 244
#
# _framework density 13.906397
#
# number of rings (size 3 to 8) (size 9 to 14) (size 15 to 20)
#    0.000    2.750    0.000    3.750    0.000    7.500 
#    0.000    0.000    0.000    0.000    0.000    0.000 
#    0.000    1.000    0.000    3.250    0.000    4.000 
#
# Total GULP energy -178206.496248 kJ/mol
# GULP energy per Si atom -5568.953008 kJ/mol
# Density = 1.387475 g / cm^3
# Si number density = 13.906397 Si / 1000 Ang^3
#
#
#
# Elastic Constant Matrix: (Units=GPa)
#
#
# Indices 1 2 3 4 5 6 
#
# 1 105.7091 45.5864 56.1090 0.0000 -2.7153 0.0000
# 2 45.5864 41.5075 44.6440 0.0000 4.1955 0.0000
# 3 56.1090 44.6440 95.4599 0.0000 4.8388 0.0000
# 4 0.0000 0.0000 0.0000 22.3012 0.0000 1.9384
# 5 -2.7153 4.1955 4.8388 0.0000 22.8849 0.0000
# 6 0.0000 0.0000 0.0000 1.9384 0.0000 25.3042
#
#
#
# Elastic Compliance Matrix: (Units=1/GPa)
#
#
# Indices 1 2 3 4 5 6 
#
# 1 0.019169 -0.018566 -0.002903 0.000000 0.006292 0.000000
# 2 -0.018566 0.066849 -0.019830 0.000000 -0.010265 0.000000
# 3 -0.002903 -0.019830 0.021520 0.000000 -0.001259 0.000000
# 4 0.000000 0.000000 0.000000 0.045141 0.000000 -0.003458
# 5 0.006292 -0.010265 -0.001259 0.000000 0.046592 0.000000
# 6 0.000000 0.000000 0.000000 -0.003458 0.000000 0.039784
#
#
# Mechanical properties :
#
#
# Convention : Reuss Voigt Hill
#
# Bulk Modulus (GPa) = 40.09829 59.48392 49.79111
# Shear Modulus (GPa) = 15.15298 20.52052 17.83675
#
# Velocity S-wave (km/s) = 3.30455 3.84554 3.58527
# Velocity P-wave (km/s) = 6.59220 7.91107 7.28155
#
# Compressibility (1/GPa) = 0.02493872
#
# Stress axis : x y z
#
# Youngs Moduli (GPa) = 52.16738 14.95898 46.46845
#
# Poissons Ratio (x) = 0.27773 0.13490
# Poissons Ratio (y) = 0.96856 0.92149
# Poissons Ratio (z) = 0.15145 0.29664
#
# Static dielectric constant tensor:
#      x y z
#    x 1.472340 0.000000 0.004200 
#    y 0.000000 1.461050 0.000000 
#    z 0.004200 0.000000 1.442650 
# 
# From -- ./inp_files/52949.got.cif
#   From: 2010.05.17/outbox.cif.g08.bks.cpg/sg11_27_cif.got.tgz:52949.got - 2010.06.03 12:22:45.
