data_PCOD9157993
_publ_section_title
;
Structure prediction by ZEFSAII (Michael W. Deem and Ramdas Pophale) SiO2 
 PCOD9157993
Probable space group: P 21/M
;
_chemical_formula_sum "Si O2"
_cell_formula_units_Z 32
_cell_length_a 26.548998
_cell_length_b 9.084061
_cell_length_c 18.619056
_cell_angle_alpha 90.000000
_cell_angle_beta 150.900387
_cell_angle_gamma 90.000000
_cell_volume 2183.817942
_symmetry_space_group_name_H-M "P 21/M"
_symmetry_group_IT_number 11
_symmetry_cell_setting 'monoclinic'
loop_
_space_group_symop_operation_xyz
x,y,z
-x,1/2+y,-z
-x,-y,-z
x,1/2-y,z
loop_
_atom_site_type_symbol
_atom_site_label
_atom_site_fract_x
_atom_site_fract_y
_atom_site_fract_z
Si Si1 0.921547 0.918450 0.501887
Si Si2 0.412489 0.575127 0.298202
Si Si3 0.008122 0.076166 0.125093
Si Si4 0.373405 0.575503 0.417576
Si Si5 0.783075 0.427635 0.043703
Si Si6 0.003162 0.074313 0.739351
Si Si7 0.154455 0.581286 0.725220
Si Si8 0.838584 0.923762 0.817029
O O1 0.897125 0.750000 0.489516
O O2 0.037326 0.920098 0.611535
O O3 0.931018 0.016748 0.584614
O O4 0.847579 0.981900 0.347841
O O5 0.433869 0.750000 0.318813
O O6 0.375843 0.547992 0.334450
O O7 0.517762 0.485734 0.417799
O O8 0.320158 0.537656 0.128859
O O9 0.992855 0.250000 0.119045
O O10 0.099073 0.057566 0.179825
O O11 0.030471 0.992886 0.226645
O O12 0.905620 0.007762 0.960918
O O13 0.364658 0.750000 0.418043
O O14 0.275215 0.491590 0.327186
O O15 0.801173 0.250000 0.061870
O O16 0.777372 0.465025 0.121321
O O17 0.882162 0.509769 0.134240
O O18 0.005854 0.250000 0.744256
O O19 0.178491 0.750000 0.735935
O O20 0.835050 0.750000 0.829037
#
# Coordination Sequence:
#
# PCOD9157993 Si02
#       8
#     4   4   4   4   4   4   4   4
#     4   9  16  26  39  55  80 113 144 174 211 253
#     4   9  18  31  45  62  85 114 147 179 213 254
#     4  10  20  33  47  64  87 113 143 178 215 255
#     4  10  19  30  46  65  87 115 144 179 218 253
#     4   9  17  29  44  61  85 117 148 181 218 254
#     4  11  20  28  42  63  87 115 147 181 213 251
#     4   8  14  24  38  57  80 108 143 177 211 252
#     4  10  20  33  49  66  85 112 144 178 215 256
#
# _framework density 14.653237000000001
#
# number of rings (size 3 to 8) (size 9 to 14) (size 15 to 20)
#    0.000    2.500    0.000    4.125    0.000    6.500 
#    0.000    0.000    0.000    0.000    0.000    0.000 
#    0.000    1.000    0.000    3.000    0.000    4.250 
#
# Total GULP energy -178396.047332 kJ/mol
# GULP energy per Si atom -5574.876479 kJ/mol
# Density = 1.461989 g / cm^3
# Si number density = 14.653237 Si / 1000 Ang^3
#
#
#
# Elastic Constant Matrix: (Units=GPa)
#
#
# Indices 1 2 3 4 5 6 
#
# 1 47.8287 45.6904 32.4832 0.0000 -14.5569 0.0000
# 2 45.6904 88.8371 44.0488 0.0000 -9.4161 0.0000
# 3 32.4832 44.0488 83.2361 0.0000 -16.9168 0.0000
# 4 0.0000 0.0000 0.0000 23.7732 0.0000 -3.0322
# 5 -14.5569 -9.4161 -16.9168 0.0000 27.0587 0.0000
# 6 0.0000 0.0000 0.0000 -3.0322 0.0000 22.1124
#
#
#
# Elastic Compliance Matrix: (Units=1/GPa)
#
#
# Indices 1 2 3 4 5 6 
#
# 1 0.049479 -0.021405 -0.004680 0.000000 0.016244 0.000000
# 2 -0.021405 0.024524 -0.005992 0.000000 -0.006728 0.000000
# 3 -0.004680 -0.005992 0.018416 0.000000 0.006911 0.000000
# 4 0.000000 0.000000 0.000000 0.042813 0.000000 0.005871
# 5 0.016244 -0.006728 0.006911 0.000000 0.047675 0.000000
# 6 0.000000 0.000000 0.000000 0.005871 0.000000 0.046029
#
#
# Mechanical properties :
#
#
# Convention : Reuss Voigt Hill
#
# Bulk Modulus (GPa) = 35.38127 51.59409 43.48768
# Shear Modulus (GPa) = 16.52838 21.10083 18.81460
#
# Velocity S-wave (km/s) = 3.36217 3.79886 3.58717
# Velocity P-wave (km/s) = 6.26661 7.38433 6.84831
#
# Compressibility (1/GPa) = 0.02826354
#
# Stress axis : x y z
#
# Youngs Moduli (GPa) = 20.21070 40.77713 54.30122
#
# Poissons Ratio (x) = 0.87285 0.25414
# Poissons Ratio (y) = 0.43262 0.32536
# Poissons Ratio (z) = 0.09459 0.24433
#
# Static dielectric constant tensor:
#      x y z
#    x 1.474330 0.000000 -0.019570 
#    y 0.000000 1.489780 0.000000 
#    z -0.019570 0.000000 1.475310 
# 
# From -- ./inp_files/61801.got.cif
#   From: 2010.05.17/outbox.cif.g08.bks.cpg/sg11_31_cif.got.tgz:61801.got - 2010.06.03 12:22:45.
