data_PCOD9157150
_publ_section_title
;
Structure prediction by ZEFSAII (Michael W. Deem and Ramdas Pophale) SiO2 
 PCOD9157150
Probable space group: P 21/M
;
_chemical_formula_sum "Si O2"
_cell_formula_units_Z 32
_cell_length_a 9.946811
_cell_length_b 19.924327
_cell_length_c 11.601909
_cell_angle_alpha 90.000000
_cell_angle_beta 115.383157
_cell_angle_gamma 90.000000
_cell_volume 2077.335093
_symmetry_space_group_name_H-M "P 21/M"
_symmetry_group_IT_number 11
_symmetry_cell_setting 'monoclinic'
loop_
_space_group_symop_operation_xyz
x,y,z
-x,1/2+y,-z
-x,-y,-z
x,1/2-y,z
loop_
_atom_site_type_symbol
_atom_site_label
_atom_site_fract_x
_atom_site_fract_y
_atom_site_fract_z
Si Si1 0.971130 0.439109 0.649832
Si Si2 0.137819 0.328266 0.858811
Si Si3 0.501143 0.493353 0.194284
Si Si4 0.010148 0.609764 0.970185
Si Si5 0.460037 0.390236 0.970185
Si Si6 0.193140 0.506647 0.194284
Si Si7 0.821298 0.439109 0.350168
Si Si8 0.220992 0.671734 0.858811
O O1 0.850097 0.464943 0.697287
O O2 0.898107 0.424149 0.500000
O O3 0.054583 0.375955 0.736570
O O4 0.087822 0.500000 0.675645
O O5 0.112000 0.250000 0.828573
O O6 0.312682 0.345570 0.917510
O O7 0.073101 0.349457 0.960033
O O8 0.532063 0.563482 0.140611
O O9 0.366834 0.500000 0.233669
O O10 0.652810 0.464943 0.302713
O O11 0.451409 0.441811 0.074906
O O12 0.104828 0.654430 0.917510
O O13 0.891453 0.563482 0.859390
O O14 0.123497 0.558189 0.074906
O O15 0.613068 0.349457 0.039967
O O16 0.818012 0.375955 0.263430
O O17 0.216573 0.750000 0.828573
#
# Coordination Sequence:
#
# PCOD9157150 Si02
#       8
#     4   4   4   4   4   4   4   4
#     4  10  21  36  54  77 102 135 181 217 248 301
#     4  11  21  34  53  78 108 138 168 211 263 313
#     4  10  18  31  55  77 105 136 166 216 264 303
#     4  10  19  31  50  82 107 132 168 209 262 319
#     4  10  19  31  50  82 107 132 168 209 262 319
#     4  10  18  31  55  77 105 136 166 216 264 303
#     4  10  21  36  54  77 102 135 181 217 248 301
#     4  11  21  34  53  78 108 138 168 211 263 313
#
# _framework density 15.404351999999999
#
# number of rings (size 3 to 8) (size 9 to 14) (size 15 to 20)
#    0.000    1.750    5.000    0.750    0.000    1.000 
#    0.000    0.000    0.000    0.000    0.000    0.000 
#    0.000    0.000    0.000    0.000    0.000    0.000 
#
# Total GULP energy -178549.375377 kJ/mol
# GULP energy per Si atom -5579.667981 kJ/mol
# Density = 1.536929 g / cm^3
# Si number density = 15.404352 Si / 1000 Ang^3
#
#
#
# Elastic Constant Matrix: (Units=GPa)
#
#
# Indices 1 2 3 4 5 6 
#
# 1 126.6673 56.4132 48.9496 0.0000 3.8733 0.0000
# 2 56.4132 128.1884 62.3559 0.0000 -0.4508 0.0000
# 3 48.9496 62.3559 79.0626 0.0000 -0.2593 0.0000
# 4 0.0000 0.0000 0.0000 8.7226 0.0000 0.8668
# 5 3.8733 -0.4508 -0.2593 0.0000 13.6595 0.0000
# 6 0.0000 0.0000 0.0000 0.8668 0.0000 20.1406
#
#
#
# Elastic Compliance Matrix: (Units=1/GPa)
#
#
# Indices 1 2 3 4 5 6 
#
# 1 0.010974 -0.002484 -0.004846 0.000000 -0.003286 0.000000
# 2 -0.002484 0.013220 -0.008885 0.000000 0.000972 0.000000
# 3 -0.004846 -0.008885 0.022661 0.000000 0.001511 0.000000
# 4 0.000000 0.000000 0.000000 0.115137 0.000000 -0.004955
# 5 -0.003286 0.000972 0.001511 0.000000 0.074202 0.000000
# 6 0.000000 0.000000 0.000000 -0.004955 0.000000 0.049864
#
#
# Mechanical properties :
#
#
# Convention : Reuss Voigt Hill
#
# Bulk Modulus (GPa) = 69.32596 74.37288 71.84942
# Shear Modulus (GPa) = 15.46566 19.58451 17.52508
#
# Velocity S-wave (km/s) = 3.17200 3.56948 3.37660
# Velocity P-wave (km/s) = 7.64966 8.08539 7.87054
#
# Compressibility (1/GPa) = 0.01442461
#
# Stress axis : x y z
#
# Youngs Moduli (GPa) = 91.12361 75.64535 44.12790
#
# Poissons Ratio (x) = 0.18787 0.21386
# Poissons Ratio (y) = 0.22631 0.39209
# Poissons Ratio (z) = 0.44162 0.67213
#
# Static dielectric constant tensor:
#      x y z
#    x 1.502800 0.000000 0.001210 
#    y 0.000000 1.493160 0.000000 
#    z 0.001210 0.000000 1.486810 
# 
# From -- ./inp_files/32671.got.cif
#   From: 2010.05.17/outbox.cif.g08.bks.cpg/sg11_17_cif.got.tgz:32671.got - 2010.06.03 12:22:45.
