data_PCOD9157351
_publ_section_title
;
Structure prediction by ZEFSAII (Michael W. Deem and Ramdas Pophale) SiO2 
 PCOD9157351
Probable space group: P 21/M
;
_chemical_formula_sum "Si O2"
_cell_formula_units_Z 28
_cell_length_a 11.955048
_cell_length_b 7.675403
_cell_length_c 15.445153
_cell_angle_alpha 90.000000
_cell_angle_beta 114.303879
_cell_angle_gamma 90.000000
_cell_volume 1291.641634
_symmetry_space_group_name_H-M "P 21/M"
_symmetry_group_IT_number 11
_symmetry_cell_setting 'monoclinic'
loop_
_space_group_symop_operation_xyz
x,y,z
-x,1/2+y,-z
-x,-y,-z
x,1/2-y,z
loop_
_atom_site_type_symbol
_atom_site_label
_atom_site_fract_x
_atom_site_fract_y
_atom_site_fract_z
Si Si1 0.176279 0.456957 0.336478
Si Si2 0.011034 0.461719 0.135400
Si Si3 0.472882 0.459770 0.090692
Si Si4 0.556166 0.959360 0.611576
Si Si5 0.203461 0.046388 0.051460
Si Si6 0.139464 0.543232 0.523709
Si Si7 0.630488 0.463490 0.298611
O O1 0.179141 0.250000 0.322372
O O2 0.059247 0.519239 0.244579
O O3 0.305085 0.528437 0.341699
O O4 0.170539 0.483583 0.436803
O O5 0.002814 0.250000 0.128896
O O6 0.116339 0.522464 0.100761
O O7 0.880733 0.529203 0.060742
O O8 0.468153 0.250000 0.096184
O O9 0.339056 0.526984 0.079089
O O10 0.579456 0.521260 0.189735
O O11 0.500000 0.500000 0.000000
O O12 0.561377 0.750000 0.621091
O O13 0.467949 0.019635 0.659993
O O14 0.500000 0.000000 0.500000
O O15 0.219890 0.250000 0.077830
O O16 0.152205 0.750000 0.527244
O O17 0.237108 0.475807 0.625323
O O18 0.000000 0.500000 0.500000
O O19 0.632852 0.250000 0.298018
#
# Coordination Sequence:
#
# PCOD9157351 Si02
#       7
#     4   4   4   4   4   4   4
#     4  10  20  34  55  83 112 143 179 221 272 330
#     4   9  18  33  55  81 110 144 178 218 272 332
#     4  10  21  38  58  79 106 142 186 229 271 322
#     4  10  18  32  56  84 111 139 177 222 271 324
#     4   9  18  34  55  80 108 140 180 228 277 321
#     4  11  23  39  57  78 108 146 186 223 266 323
#     4   9  19  37  59  80 107 145 181 220 275 333
#
# _framework density 21.677838000000001
#
# number of rings (size 3 to 8) (size 9 to 14) (size 15 to 20)
#    0.000    2.286    1.429    1.286    0.000    5.714 
#    0.000    6.429    0.000    3.429    0.000    0.000 
#    0.000    0.000    0.000    0.000    0.000    0.000 
#
# Total GULP energy -156325.182644 kJ/mol
# GULP energy per Si atom -5583.042237 kJ/mol
# Density = 2.162850 g / cm^3
# Si number density = 21.677838 Si / 1000 Ang^3
#
#
#
# Elastic Constant Matrix: (Units=GPa)
#
#
# Indices 1 2 3 4 5 6 
#
# 1 97.6054 -8.8799 50.9478 0.0000 21.2630 0.0000
# 2 -8.8799 30.4717 -10.1927 0.0000 0.4369 0.0000
# 3 50.9478 -10.1927 168.0420 0.0000 23.4911 0.0000
# 4 0.0000 0.0000 0.0000 24.0054 0.0000 -2.3233
# 5 21.2630 0.4369 23.4911 0.0000 29.2954 0.0000
# 6 0.0000 0.0000 0.0000 -2.3233 0.0000 17.2874
#
#
#
# Elastic Compliance Matrix: (Units=1/GPa)
#
#
# Indices 1 2 3 4 5 6 
#
# 1 0.013715 0.003139 -0.002894 0.000000 -0.007680 0.000000
# 2 0.003139 0.034366 0.001715 0.000000 -0.004166 0.000000
# 3 -0.002894 0.001715 0.007481 0.000000 -0.003924 0.000000
# 4 0.000000 0.000000 0.000000 0.042206 0.000000 0.005672
# 5 -0.007680 -0.004166 -0.003924 0.000000 0.042918 0.000000
# 6 0.000000 0.000000 0.000000 0.005672 0.000000 0.058608
#
#
# Mechanical properties :
#
#
# Convention : Reuss Voigt Hill
#
# Bulk Modulus (GPa) = 16.81212 39.98551 28.39882
# Shear Modulus (GPa) = 23.23418 31.73392 27.48405
#
# Velocity S-wave (km/s) = 3.27738 3.83023 3.56454
# Velocity P-wave (km/s) = 4.70041 6.16816 5.48362
#
# Compressibility (1/GPa) = 0.05948090
#
# Stress axis : x y z
#
# Youngs Moduli (GPa) = 72.91467 29.09893 133.67434
#
# Poissons Ratio (x) = -0.09133 0.38686
# Poissons Ratio (y) = -0.22886 -0.22928
# Poissons Ratio (z) = 0.21102 -0.04991
#
# Static dielectric constant tensor:
#      x y z
#    x 1.770800 0.000000 0.029920 
#    y 0.000000 1.832640 0.000000 
#    z 0.029920 0.000000 1.792550 
# 
# From -- ./inp_files/37507.got.cif
#   From: 2010.05.17/outbox.cif.g08.bks.cpg/sg11_19_cif.got.tgz:37507.got - 2010.06.03 12:22:45.
