data_PCOD9157750
_publ_section_title
;
Structure prediction by ZEFSAII (Michael W. Deem and Ramdas Pophale) SiO2 
 PCOD9157750
Probable space group: P 21/M
;
_chemical_formula_sum "Si O2"
_cell_formula_units_Z 32
_cell_length_a 20.171774
_cell_length_b 14.345062
_cell_length_c 14.215958
_cell_angle_alpha 90.000000
_cell_angle_beta 159.351981
_cell_angle_gamma 90.000000
_cell_volume 1450.564413
_symmetry_space_group_name_H-M "P 21/M"
_symmetry_group_IT_number 11
_symmetry_cell_setting 'monoclinic'
loop_
_space_group_symop_operation_xyz
x,y,z
-x,1/2+y,-z
-x,-y,-z
x,1/2-y,z
loop_
_atom_site_type_symbol
_atom_site_label
_atom_site_fract_x
_atom_site_fract_y
_atom_site_fract_z
Si Si1 0.313188 0.035562 0.056133
Si Si2 0.373694 0.076039 0.778640
Si Si3 0.600917 0.141233 0.571814
Si Si4 0.231494 0.858032 0.742988
Si Si5 0.059488 0.953033 0.330399
Si Si6 0.521257 0.647519 0.372013
Si Si7 0.855470 0.639557 0.343216
Si Si8 0.857073 0.543835 0.880824
O O1 0.430125 0.108203 0.276929
O O2 0.427113 0.940519 0.197846
O O3 0.267472 0.084412 0.896919
O O4 0.121265 0.008864 0.854389
O O5 0.240479 0.121434 0.682683
O O6 0.218179 0.026028 0.508081
O O7 0.542541 0.129557 0.951978
O O8 0.500000 0.000000 0.000000
O O9 0.659339 0.250000 0.624999
O O10 0.543074 0.145721 0.604080
O O11 0.734484 0.048730 0.745862
O O12 0.201436 0.750000 0.702287
O O13 0.160902 0.893978 0.546707
O O14 0.072967 0.891075 0.609105
O O15 0.965918 0.911209 0.113599
O O16 0.479651 0.750000 0.278077
O O17 0.738285 0.622113 0.670207
O O18 0.841705 0.750000 0.308837
O O19 0.000000 0.500000 0.000000
#
# Coordination Sequence:
#
# PCOD9157750 Si02
#       8
#     4   4   4   4   4   4   4   4
#     4  10  18  36  63  90 123 155 210 254 307 370
#     4  10  22  38  59  84 122 161 201 254 323 372
#     4  10  19  35  59  85 119 161 203 252 302 361
#     4   9  20  37  60  88 120 155 204 266 317 369
#     4  10  20  37  59  84 113 160 204 241 315 371
#     4  10  20  36  60  87 121 162 204 248 300 365
#     4  10  21  38  64  95 122 162 217 266 311 373
#     4  11  22  38  58  87 124 160 203 253 305 372
#
# _framework density 22.060378
#
# number of rings (size 3 to 8) (size 9 to 14) (size 15 to 20)
#    0.000    2.000    2.500    1.500    0.000   10.000 
#    0.000    3.750    0.000    9.750    0.000    0.000 
#    0.000    0.000    0.000    0.000    0.000    0.000 
#
# Total GULP energy -178298.567592 kJ/mol
# GULP energy per Si atom -5571.830237 kJ/mol
# Density = 2.201017 g / cm^3
# Si number density = 22.060378 Si / 1000 Ang^3
#
#
#
# Elastic Constant Matrix: (Units=GPa)
#
#
# Indices 1 2 3 4 5 6 
#
# 1 71.5818 6.4650 11.5001 0.0000 15.9009 0.0000
# 2 6.4650 98.6313 6.5800 0.0000 4.3876 0.0000
# 3 11.5001 6.5800 72.4987 0.0000 10.7271 0.0000
# 4 0.0000 0.0000 0.0000 19.8086 0.0000 9.6153
# 5 15.9009 4.3876 10.7271 0.0000 28.9969 0.0000
# 6 0.0000 0.0000 0.0000 9.6153 0.0000 18.0556
#
#
#
# Elastic Compliance Matrix: (Units=1/GPa)
#
#
# Indices 1 2 3 4 5 6 
#
# 1 0.016060 -0.000601 -0.001273 0.000000 -0.008245 0.000000
# 2 -0.000601 0.010267 -0.000693 0.000000 -0.000967 0.000000
# 3 -0.001273 -0.000693 0.014747 0.000000 -0.004652 0.000000
# 4 0.000000 0.000000 0.000000 0.068082 0.000000 -0.036256
# 5 -0.008245 -0.000967 -0.004652 0.000000 0.040875 0.000000
# 6 0.000000 0.000000 0.000000 -0.036256 0.000000 0.074692
#
#
# Mechanical properties :
#
#
# Convention : Reuss Voigt Hill
#
# Bulk Modulus (GPa) = 27.82454 32.42245 30.12349
# Shear Modulus (GPa) = 20.67493 27.91669 24.29581
#
# Velocity S-wave (km/s) = 3.06469 3.56120 3.32223
# Velocity P-wave (km/s) = 5.01631 5.62482 5.32926
#
# Compressibility (1/GPa) = 0.03593950
#
# Stress axis : x y z
#
# Youngs Moduli (GPa) = 62.26514 97.39508 67.81224
#
# Poissons Ratio (x) = 0.05854 0.08633
# Poissons Ratio (y) = 0.03742 0.04702
# Poissons Ratio (z) = 0.07927 0.06753
#
# Static dielectric constant tensor:
#      x y z
#    x 1.858470 0.000000 0.046520 
#    y 0.000000 1.827660 0.000000 
#    z 0.046520 0.000000 1.841790 
# 
# From -- ./inp_files/55013.got.cif
#   From: 2010.05.17/outbox.cif.g08.bks.cpg/sg11_28_cif.got.tgz:55013.got - 2010.06.03 12:22:45.
