data_PCOD9157901
_publ_section_title
;
Structure prediction by ZEFSAII (Michael W. Deem and Ramdas Pophale) SiO2 
 PCOD9157901
Probable space group: P 21/M
;
_chemical_formula_sum "Si O2"
_cell_formula_units_Z 32
_cell_length_a 13.008353
_cell_length_b 7.426660
_cell_length_c 27.382051
_cell_angle_alpha 90.000000
_cell_angle_beta 142.818014
_cell_angle_gamma 90.000000
_cell_volume 1598.708887
_symmetry_space_group_name_H-M "P 21/M"
_symmetry_group_IT_number 11
_symmetry_cell_setting 'monoclinic'
loop_
_space_group_symop_operation_xyz
x,y,z
-x,1/2+y,-z
-x,-y,-z
x,1/2-y,z
loop_
_atom_site_type_symbol
_atom_site_label
_atom_site_fract_x
_atom_site_fract_y
_atom_site_fract_z
Si Si1 0.568316 0.536874 0.471278
Si Si2 0.470876 0.464416 0.045378
Si Si3 0.908421 0.970841 0.643049
Si Si4 0.840799 0.967718 0.009327
Si Si5 0.604003 0.530088 0.830407
Si Si6 0.781848 0.955222 0.700871
Si Si7 0.203777 0.458491 0.187249
Si Si8 0.292876 0.530364 0.778092
O O1 0.500000 0.500000 0.500000
O O2 0.567721 0.750000 0.461752
O O3 0.762823 0.472866 0.549394
O O4 0.423208 0.455089 0.382334
O O5 0.467985 0.250000 0.050551
O O6 0.619436 0.529031 0.137871
O O7 0.500000 0.500000 0.000000
O O8 0.290176 0.528118 0.997904
O O9 0.901584 0.750000 0.641252
O O10 0.857376 0.032226 0.678798
O O11 0.098206 0.027915 0.701649
O O12 0.850701 0.750000 0.012941
O O13 0.750429 0.022974 0.924683
O O14 0.027264 0.036835 0.091063
O O15 0.604891 0.750000 0.830119
O O16 0.654933 0.465310 0.796030
O O17 0.423257 0.475085 0.784751
O O18 0.847085 0.750000 0.726345
O O19 0.821606 0.039584 0.768491
O O20 0.250862 0.250000 0.213729
O O21 0.290005 0.750000 0.776801
#
# Coordination Sequence:
#
# PCOD9157901 Si02
#       8
#     4   4   4   4   4   4   4   4
#     4   9  16  28  46  67  92 118 144 177 219 269
#     4   9  18  29  43  62  89 121 148 179 221 266
#     4   8  14  25  43  65  85 109 145 178 208 261
#     4   9  18  31  44  63  90 120 153 187 226 273
#     4   8  15  29  45  63  87 116 153 190 225 261
#     4   9  18  29  42  66  94 115 144 183 223 269
#     4  10  19  29  46  69  89 114 152 196 226 257
#     4   8  14  26  45  64  84 114 148 182 218 259
#
# _framework density 20.016151000000001
#
# number of rings (size 3 to 8) (size 9 to 14) (size 15 to 20)
#    0.000    3.250    0.000    3.000    1.750    1.000 
#    0.000    0.000    0.000    2.250    0.000    0.000 
#    0.000    0.000    0.000    0.000    0.000    0.500 
#
# Total GULP energy -178307.506221 kJ/mol
# GULP energy per Si atom -5572.109569 kJ/mol
# Density = 1.997059 g / cm^3
# Si number density = 20.016151 Si / 1000 Ang^3
#
#
#
# Elastic Constant Matrix: (Units=GPa)
#
#
# Indices 1 2 3 4 5 6 
#
# 1 72.7524 -2.7869 35.9816 0.0000 10.4866 0.0000
# 2 -2.7869 62.5580 -5.1567 0.0000 -3.3539 0.0000
# 3 35.9816 -5.1567 68.7845 0.0000 28.3135 0.0000
# 4 0.0000 0.0000 0.0000 12.5038 0.0000 3.9178
# 5 10.4866 -3.3539 28.3135 0.0000 28.0041 0.0000
# 6 0.0000 0.0000 0.0000 3.9178 0.0000 3.3864
#
#
#
# Elastic Compliance Matrix: (Units=1/GPa)
#
#
# Indices 1 2 3 4 5 6 
#
# 1 0.018945 0.000127 -0.011967 0.000000 0.005021 0.000000
# 2 0.000127 0.016109 0.000628 0.000000 0.001247 0.000000
# 3 -0.011967 0.000628 0.032492 0.000000 -0.028295 0.000000
# 4 0.000000 0.000000 0.000000 0.125452 0.000000 -0.145138
# 5 0.005021 0.001247 -0.028295 0.000000 0.062586 0.000000
# 6 0.000000 0.000000 0.000000 -0.145138 0.000000 0.463208
#
#
# Mechanical properties :
#
#
# Convention : Reuss Voigt Hill
#
# Bulk Modulus (GPa) = 22.16208 28.90787 25.53497
# Shear Modulus (GPa) = 6.61149 20.51598 13.56374
#
# Velocity S-wave (km/s) = 1.81941 3.20499 2.60598
# Velocity P-wave (km/s) = 3.93825 5.30750 4.67330
#
# Compressibility (1/GPa) = 0.04512211
#
# Stress axis : x y z
#
# Youngs Moduli (GPa) = 52.78363 62.07538 30.77639
#
# Poissons Ratio (x) = -0.00786 0.36832
# Poissons Ratio (y) = -0.00669 -0.01934
# Poissons Ratio (z) = 0.63169 -0.03900
#
# Static dielectric constant tensor:
#      x y z
#    x 1.721260 0.000000 0.002670 
#    y 0.000000 1.770270 0.000000 
#    z 0.002670 0.000000 1.703500 
# 
# From -- ./inp_files/49862.got.cif
#   From: 2010.05.17/outbox.cif.g08.bks.cpg/sg11_25_cif.got.tgz:49862.got - 2010.06.03 12:22:45.
