data_PCOD9157903
_publ_section_title
;
Structure prediction by ZEFSAII (Michael W. Deem and Ramdas Pophale) SiO2 
 PCOD9157903
Probable space group: P 21/M
;
_chemical_formula_sum "Si O2"
_cell_formula_units_Z 32
_cell_length_a 24.279508
_cell_length_b 9.029705
_cell_length_c 17.588059
_cell_angle_alpha 90.000000
_cell_angle_beta 33.442613
_cell_angle_gamma 90.000000
_cell_volume 2125.019635
_symmetry_space_group_name_H-M "P 21/M"
_symmetry_group_IT_number 11
_symmetry_cell_setting 'monoclinic'
loop_
_space_group_symop_operation_xyz
x,y,z
-x,1/2+y,-z
-x,-y,-z
x,1/2-y,z
loop_
_atom_site_type_symbol
_atom_site_label
_atom_site_fract_x
_atom_site_fract_y
_atom_site_fract_z
Si Si1 0.392704 0.073166 0.606515
Si Si2 0.623863 0.427271 0.698082
Si Si3 0.106111 0.073285 0.361713
Si Si4 0.759997 0.078916 0.915654
Si Si5 0.283993 0.073270 0.273177
Si Si6 0.423623 0.922350 0.991164
Si Si7 0.417929 0.927246 0.425744
Si Si8 0.347229 0.427023 0.824760
O O1 0.403124 0.250000 0.589536
O O2 0.330320 0.040536 0.754832
O O3 0.500000 0.000000 0.500000
O O4 0.363921 0.007034 0.558247
O O5 0.623024 0.250000 0.707615
O O6 0.708989 0.499223 0.652397
O O7 0.627119 0.462143 0.604707
O O8 0.520477 0.495247 0.848429
O O9 0.097136 0.250000 0.366608
O O10 0.183837 0.039707 0.340847
O O11 0.156214 0.009492 0.227456
O O12 0.000000 0.000000 0.500000
O O13 0.789254 0.250000 0.890272
O O14 0.661123 0.073160 0.976429
O O15 0.727348 0.008603 0.032882
O O16 0.294744 0.250000 0.265864
O O17 0.374534 0.004728 0.119300
O O18 0.444878 0.750000 0.984379
O O19 0.414317 0.750000 0.441619
O O20 0.536661 0.967905 0.290081
O O21 0.339745 0.250000 0.844804
#
# Coordination Sequence:
#
# PCOD9157903 Si02
#       8
#     4   4   4   4   4   4   4   4
#     4   9  17  27  40  58  83 118 156 192 228 265
#     4  11  20  30  44  62  89 122 155 191 224 262
#     4  10  21  37  55  70  90 116 144 185 232 277
#     4  10  19  29  46  70  91 117 154 189 225 270
#     4  10  21  34  47  65  87 115 148 184 227 269
#     4  10  19  30  43  62  88 119 154 189 223 262
#     4   9  18  29  41  59  86 122 158 191 228 263
#     4   9  16  28  42  60  88 119 153 191 228 264
#
# _framework density 15.058684
#
# number of rings (size 3 to 8) (size 9 to 14) (size 15 to 20)
#    0.000    2.250    1.250    3.375    0.000    6.000 
#    0.000    0.000    0.000    0.000    0.000    0.000 
#    0.000    1.000    0.000    3.250    0.000    4.750 
#
# Total GULP energy -178425.908014 kJ/mol
# GULP energy per Si atom -5575.809625 kJ/mol
# Density = 1.502441 g / cm^3
# Si number density = 15.058684 Si / 1000 Ang^3
#
#
#
# Elastic Constant Matrix: (Units=GPa)
#
#
# Indices 1 2 3 4 5 6 
#
# 1 97.8611 57.8130 56.1735 0.0000 32.0253 0.0000
# 2 57.8130 73.0597 48.8825 0.0000 17.1692 0.0000
# 3 56.1735 48.8825 83.0359 0.0000 18.3551 0.0000
# 4 0.0000 0.0000 0.0000 24.9219 0.0000 5.6187
# 5 32.0253 17.1692 18.3551 0.0000 23.9587 0.0000
# 6 0.0000 0.0000 0.0000 5.6187 0.0000 25.6131
#
#
#
# Elastic Compliance Matrix: (Units=1/GPa)
#
#
# Indices 1 2 3 4 5 6 
#
# 1 0.030805 -0.013470 -0.007153 0.000000 -0.026044 0.000000
# 2 -0.013470 0.029560 -0.009133 0.000000 0.003820 0.000000
# 3 -0.007153 -0.009133 0.022510 0.000000 -0.001140 0.000000
# 4 0.000000 0.000000 0.000000 0.042213 0.000000 -0.009260
# 5 -0.026044 0.003820 -0.001140 0.000000 0.074687 0.000000
# 6 0.000000 0.000000 0.000000 -0.009260 0.000000 0.041074
#
#
# Mechanical properties :
#
#
# Convention : Reuss Voigt Hill
#
# Bulk Modulus (GPa) = 42.80341 64.41054 53.60698
# Shear Modulus (GPa) = 16.22590 20.97125 18.59858
#
# Velocity S-wave (km/s) = 3.28611 3.73585 3.51817
# Velocity P-wave (km/s) = 6.54860 7.84058 7.22353
#
# Compressibility (1/GPa) = 0.02336262
#
# Stress axis : x y z
#
# Youngs Moduli (GPa) = 32.46231 33.82954 44.42402
#
# Poissons Ratio (x) = 0.45570 0.31775
# Poissons Ratio (y) = 0.43728 0.40574
# Poissons Ratio (z) = 0.23219 0.30898
#
# Static dielectric constant tensor:
#      x y z
#    x 1.531060 0.000000 0.020720 
#    y 0.000000 1.501420 0.000000 
#    z 0.020720 0.000000 1.469400 
# 
# From -- ./inp_files/61781.got.cif
#   From: 2010.05.17/outbox.cif.g08.bks.cpg/sg11_31_cif.got.tgz:61781.got - 2010.06.03 12:22:45.
