data_PCOD9157369
_publ_section_title
;
Structure prediction by ZEFSAII (Michael W. Deem and Ramdas Pophale) SiO2 
 PCOD9157369
Probable space group: P 21/M
;
_chemical_formula_sum "Si O2"
_cell_formula_units_Z 24
_cell_length_a 4.932282
_cell_length_b 19.482589
_cell_length_c 12.483219
_cell_angle_alpha 90.000000
_cell_angle_beta 66.359940
_cell_angle_gamma 90.000000
_cell_volume 1098.893962
_symmetry_space_group_name_H-M "P 21/M"
_symmetry_group_IT_number 11
_symmetry_cell_setting 'monoclinic'
loop_
_space_group_symop_operation_xyz
x,y,z
-x,1/2+y,-z
-x,-y,-z
x,1/2-y,z
loop_
_atom_site_type_symbol
_atom_site_label
_atom_site_fract_x
_atom_site_fract_y
_atom_site_fract_z
Si Si1 0.263867 0.971290 0.386487
Si Si2 0.103866 0.535525 0.725425
Si Si3 0.180525 0.327799 0.215914
Si Si4 0.295026 0.673328 0.310983
Si Si5 0.838949 0.383730 0.089168
Si Si6 0.961528 0.827434 0.148651
O O1 0.283419 0.889731 0.393198
O O2 0.578367 0.006544 0.357848
O O3 0.000000 0.000000 0.500000
O O4 0.155494 0.989903 0.283025
O O5 0.109726 0.546128 0.853073
O O6 0.030484 0.613750 0.698945
O O7 0.154160 0.250000 0.258638
O O8 0.514221 0.355373 0.169451
O O9 0.076582 0.333128 0.108329
O O10 0.274054 0.750000 0.360759
O O11 0.608797 0.668045 0.200431
O O12 0.048730 0.664858 0.258575
O O13 0.889958 0.380488 0.955496
O O14 0.057938 0.750000 0.102281
#
# Coordination Sequence:
#
# PCOD9157369 Si02
#       6
#     4   4   4   4   4   4
#     4  12  24  45  68  83 117 165 209 260 328 374
#     4  10  22  40  58  95 122 158 204 251 308 372
#     4  10  18  32  57  85 130 168 197 242 287 356
#     4  10  23  41  63  90 118 153 212 262 293 358
#     4  10  19  33  58  91 129 161 207 236 295 365
#     4  10  19  35  61  93 125 166 202 241 299 361
#
# _framework density 21.840142
#
# number of rings (size 3 to 8) (size 9 to 14) (size 15 to 20)
#    1.000    0.667    1.667    4.000    0.000    1.333 
#    0.000    6.667    0.000    0.000    0.000    0.000 
#    0.000    0.000    0.000    0.000    0.000    0.000 
#
# Total GULP energy -133823.720764 kJ/mol
# GULP energy per Si atom -5575.988365 kJ/mol
# Density = 2.179043 g / cm^3
# Si number density = 21.840142 Si / 1000 Ang^3
#
#
#
# Elastic Constant Matrix: (Units=GPa)
#
#
# Indices 1 2 3 4 5 6 
#
# 1 98.1940 11.0985 -8.7955 0.0000 -15.5041 0.0000
# 2 11.0985 144.7599 31.8799 0.0000 -4.8607 0.0000
# 3 -8.7955 31.8799 35.7608 0.0000 1.3507 0.0000
# 4 0.0000 0.0000 0.0000 18.7371 0.0000 -3.4488
# 5 -15.5041 -4.8607 1.3507 0.0000 9.1150 0.0000
# 6 0.0000 0.0000 0.0000 -3.4488 0.0000 15.4083
#
#
#
# Elastic Compliance Matrix: (Units=1/GPa)
#
#
# Indices 1 2 3 4 5 6 
#
# 1 0.014297 -0.001119 0.003638 0.000000 0.023182 0.000000
# 2 -0.001119 0.008994 -0.008449 0.000000 0.004145 0.000000
# 3 0.003638 -0.008449 0.036532 0.000000 -0.003731 0.000000
# 4 0.000000 0.000000 0.000000 0.055663 0.000000 0.012459
# 5 0.023182 0.004145 -0.003731 0.000000 0.151904 0.000000
# 6 0.000000 0.000000 0.000000 0.012459 0.000000 0.067689
#
#
# Mechanical properties :
#
#
# Convention : Reuss Voigt Hill
#
# Bulk Modulus (GPa) = 20.84995 38.56452 29.70723
# Shear Modulus (GPa) = 13.77693 24.95419 19.36556
#
# Velocity S-wave (km/s) = 2.51431 3.38388 2.98097
# Velocity P-wave (km/s) = 4.24221 5.74138 5.04776
#
# Compressibility (1/GPa) = 0.04796174
#
# Stress axis : x y z
#
# Youngs Moduli (GPa) = 69.94714 111.18831 27.37335
#
# Poissons Ratio (x) = 0.12441 -0.09959
# Poissons Ratio (y) = 0.07827 0.23129
# Poissons Ratio (z) = -0.25448 0.93948
#
# Static dielectric constant tensor:
#      x y z
#    x 1.794850 0.000000 0.062360 
#    y 0.000000 1.858130 0.000000 
#    z 0.062360 0.000000 1.808240 
# 
# From -- ./inp_files/46132.got.cif
#   From: 2010.05.17/outbox.cif.g08.bks.cpg/sg11_24_cif.got.tgz:46132.got - 2010.06.03 12:22:45.
