data_PCOD9157294
_publ_section_title
;
Structure prediction by ZEFSAII (Michael W. Deem and Ramdas Pophale) SiO2 
 PCOD9157294
Probable space group: P 21/M
;
_chemical_formula_sum "Si O2"
_cell_formula_units_Z 32
_cell_length_a 10.636634
_cell_length_b 16.031445
_cell_length_c 12.494754
_cell_angle_alpha 90.000000
_cell_angle_beta 129.359638
_cell_angle_gamma 90.000000
_cell_volume 1647.348548
_symmetry_space_group_name_H-M "P 21/M"
_symmetry_group_IT_number 11
_symmetry_cell_setting 'monoclinic'
loop_
_space_group_symop_operation_xyz
x,y,z
-x,1/2+y,-z
-x,-y,-z
x,1/2-y,z
loop_
_atom_site_type_symbol
_atom_site_label
_atom_site_fract_x
_atom_site_fract_y
_atom_site_fract_z
Si Si1 0.574243 0.852113 0.314371
Si Si2 0.624323 0.648440 0.891871
Si Si3 0.089086 0.851899 0.301199
Si Si4 0.268218 0.148536 0.823529
Si Si5 0.203682 0.848196 0.124780
Si Si6 0.629804 0.923929 0.570679
Si Si7 0.387524 0.653457 0.593569
Si Si8 0.094276 0.423833 0.107209
O O1 0.578592 0.750000 0.325009
O O2 0.664898 0.877508 0.254776
O O3 0.385296 0.882089 0.205716
O O4 0.651803 0.892048 0.462242
O O5 0.630816 0.750000 0.888910
O O6 0.625459 0.624324 0.016105
O O7 0.467221 0.616786 0.742801
O O8 0.781753 0.615064 0.913348
O O9 0.089129 0.750000 0.303304
O O10 0.138542 0.873823 0.207131
O O11 0.226699 0.884402 0.455938
O O12 0.913115 0.879900 0.244418
O O13 0.265427 0.250000 0.819900
O O14 0.225470 0.750000 0.142155
O O15 0.062839 0.865047 0.962319
O O16 0.528857 0.853301 0.581033
O O17 0.793502 0.939263 0.728061
O O18 0.500000 0.000000 0.500000
O O19 0.351477 0.750000 0.595748
O O20 0.000000 0.500000 0.000000
#
# Coordination Sequence:
#
# PCOD9157294 Si02
#       8
#     4   4   4   4   4   4   4   4
#     4  10  20  35  56  84 114 143 174 215 271 325
#     4   9  17  32  53  79 105 135 176 220 267 320
#     4   9  15  27  51  79 102 132 173 214 256 309
#     4   9  17  30  52  81 112 140 169 212 268 323
#     4  10  18  32  54  80 107 138 179 221 264 316
#     4  11  22  35  53  76 109 145 181 224 274 318
#     4   9  17  30  53  80 102 130 178 228 263 306
#     4  11  22  33  52  80 107 139 184 232 271 308
#
# _framework density 19.425153999999999
#
# number of rings (size 3 to 8) (size 9 to 14) (size 15 to 20)
#    0.000    2.250    2.500    1.500    0.000    1.500 
#    0.000    1.250    0.000   14.250    0.000    0.000 
#    0.000    0.000    0.000    0.000    0.000    0.000 
#
# Total GULP energy -178302.295378 kJ/mol
# GULP energy per Si atom -5571.946731 kJ/mol
# Density = 1.938094 g / cm^3
# Si number density = 19.425154 Si / 1000 Ang^3
#
#
#
# Elastic Constant Matrix: (Units=GPa)
#
#
# Indices 1 2 3 4 5 6 
#
# 1 73.6258 6.0763 54.3882 0.0000 9.0636 0.0000
# 2 6.0763 23.1657 17.8390 0.0000 0.5970 0.0000
# 3 54.3882 17.8390 181.2778 0.0000 16.6469 0.0000
# 4 0.0000 0.0000 0.0000 20.7506 0.0000 4.7909
# 5 9.0636 0.5970 16.6469 0.0000 26.2664 0.0000
# 6 0.0000 0.0000 0.0000 4.7909 0.0000 8.8326
#
#
#
# Elastic Compliance Matrix: (Units=1/GPa)
#
#
# Indices 1 2 3 4 5 6 
#
# 1 0.017667 -0.000740 -0.004958 0.000000 -0.002937 0.000000
# 2 -0.000740 0.046834 -0.004579 0.000000 0.002093 0.000000
# 3 -0.004958 -0.004579 0.007738 0.000000 -0.003089 0.000000
# 4 0.000000 0.000000 0.000000 0.055091 0.000000 -0.029882
# 5 -0.002937 0.002093 -0.003089 0.000000 0.040995 0.000000
# 6 0.000000 0.000000 0.000000 -0.029882 0.000000 0.129425
#
#
# Mechanical properties :
#
#
# Convention : Reuss Voigt Hill
#
# Bulk Modulus (GPa) = 19.34813 48.29737 33.82275
# Shear Modulus (GPa) = 14.90165 24.48763 19.69464
#
# Velocity S-wave (km/s) = 2.77272 3.55436 3.18759
# Velocity P-wave (km/s) = 4.49807 6.46235 5.56752
#
# Compressibility (1/GPa) = 0.05168459
#
# Stress axis : x y z
#
# Youngs Moduli (GPa) = 56.60111 21.35222 129.22819
#
# Poissons Ratio (x) = 0.01581 0.64073
# Poissons Ratio (y) = 0.04191 0.59171
# Poissons Ratio (z) = 0.28064 0.09777
#
# Static dielectric constant tensor:
#      x y z
#    x 1.721690 0.000000 0.110690 
#    y 0.000000 1.252330 0.000000 
#    z 0.110690 0.000000 1.834450 
# 
# From -- ./inp_files/36049.got.cif
#   From: 2010.05.17/outbox.cif.g08.bks.cpg/sg11_19_cif.got.tgz:36049.got - 2010.06.03 12:22:45.
