data_PCOD9157435
_publ_section_title
;
Structure prediction by ZEFSAII (Michael W. Deem and Ramdas Pophale) SiO2 
 PCOD9157435
Probable space group: P 21/M
;
_chemical_formula_sum "Si O2"
_cell_formula_units_Z 32
_cell_length_a 12.936141
_cell_length_b 7.613219
_cell_length_c 29.744666
_cell_angle_alpha 90.000000
_cell_angle_beta 30.039769
_cell_angle_gamma 90.000000
_cell_volume 1466.472294
_symmetry_space_group_name_H-M "P 21/M"
_symmetry_group_IT_number 11
_symmetry_cell_setting 'monoclinic'
loop_
_space_group_symop_operation_xyz
x,y,z
-x,1/2+y,-z
-x,-y,-z
x,1/2-y,z
loop_
_atom_site_type_symbol
_atom_site_label
_atom_site_fract_x
_atom_site_fract_y
_atom_site_fract_z
Si Si1 0.716220 0.035425 0.229652
Si Si2 0.599576 0.963467 0.723805
Si Si3 0.223287 0.544673 0.692151
Si Si4 0.669000 0.036948 0.499835
Si Si5 0.064736 0.038121 0.027195
Si Si6 0.042031 0.959545 0.535420
Si Si7 0.488445 0.549602 0.145476
Si Si8 0.020489 0.459103 0.297309
O O1 0.713256 0.250000 0.231931
O O2 0.506168 0.982677 0.283006
O O3 0.744416 0.969789 0.269914
O O4 0.897498 0.980411 0.127085
O O5 0.592225 0.750000 0.729344
O O6 0.835594 0.022490 0.637763
O O7 0.489576 0.037219 0.808829
O O8 0.177293 0.750000 0.716481
O O9 0.437108 0.530719 0.583671
O O10 0.045119 0.470507 0.726996
O O11 0.656390 0.250000 0.502791
O O12 0.847470 0.976912 0.398155
O O13 0.754493 0.976054 0.516507
O O14 0.071772 0.250000 0.027383
O O15 0.294637 0.968304 0.952083
O O16 0.000000 0.000000 0.000000
O O17 0.045870 0.750000 0.538693
O O18 0.000000 0.000000 0.500000
O O19 0.485888 0.750000 0.131455
O O20 0.260684 0.481633 0.219021
O O21 0.988522 0.250000 0.308829
#
# Coordination Sequence:
#
# PCOD9157435 Si02
#       8
#     4   4   4   4   4   4   4   4
#     4   9  18  34  57  82 110 144 179 221 273 325
#     4  10  18  33  55  75 107 149 178 213 270 328
#     4  10  21  37  59  83 105 142 192 228 263 325
#     4  10  20  35  54  78 110 145 180 227 279 319
#     4  10  20  35  57  84 113 143 177 221 272 328
#     4  10  20  32  48  74 109 146 183 219 267 326
#     4  11  22  34  54  85 111 136 180 231 272 315
#     4  10  21  39  59  78 108 149 189 223 267 328
#
# _framework density 21.821073999999999
#
# number of rings (size 3 to 8) (size 9 to 14) (size 15 to 20)
#    0.000    2.000    2.500    1.500    0.000    3.500 
#    0.000    1.875    0.000    0.000    0.000    0.000 
#    0.000    0.000    0.000    0.000    0.000    0.000 
#
# Total GULP energy -178535.064462 kJ/mol
# GULP energy per Si atom -5579.220764 kJ/mol
# Density = 2.177141 g / cm^3
# Si number density = 21.821074 Si / 1000 Ang^3
#
#
#
# Elastic Constant Matrix: (Units=GPa)
#
#
# Indices 1 2 3 4 5 6 
#
# 1 143.7373 0.7379 38.4212 0.0000 -21.5920 0.0000
# 2 0.7379 37.5577 -6.7917 0.0000 2.0966 0.0000
# 3 38.4212 -6.7917 83.1799 0.0000 -15.3164 0.0000
# 4 0.0000 0.0000 0.0000 10.2035 0.0000 2.8045
# 5 -21.5920 2.0966 -15.3164 0.0000 25.8315 0.0000
# 6 0.0000 0.0000 0.0000 2.8045 0.0000 4.5523
#
#
#
# Elastic Compliance Matrix: (Units=1/GPa)
#
#
# Indices 1 2 3 4 5 6 
#
# 1 0.008598 -0.001025 -0.003049 0.000000 0.005462 0.000000
# 2 -0.001025 0.027170 0.002389 0.000000 -0.001646 0.000000
# 3 -0.003049 0.002389 0.014729 0.000000 0.005990 0.000000
# 4 0.000000 0.000000 0.000000 0.117982 0.000000 -0.072683
# 5 0.005462 -0.001646 0.005990 0.000000 0.046963 0.000000
# 6 0.000000 0.000000 0.000000 -0.072683 0.000000 0.264445
#
#
# Mechanical properties :
#
#
# Convention : Reuss Voigt Hill
#
# Bulk Modulus (GPa) = 21.22015 36.57887 28.89951
# Shear Modulus (GPa) = 10.02071 23.59130 16.80601
#
# Velocity S-wave (km/s) = 2.14527 3.29161 2.77821
# Velocity P-wave (km/s) = 3.98522 5.58979 4.85426
#
# Compressibility (1/GPa) = 0.04712501
#
# Stress axis : x y z
#
# Youngs Moduli (GPa) = 116.30601 36.80570 67.89428
#
# Poissons Ratio (x) = 0.03774 0.20704
# Poissons Ratio (y) = 0.11925 -0.16220
# Poissons Ratio (z) = 0.35467 -0.08793
#
# Static dielectric constant tensor:
#      x y z
#    x 1.813840 0.000000 0.000770 
#    y 0.000000 1.827770 0.000000 
#    z 0.000770 0.000000 1.820860 
# 
# From -- ./inp_files/38148.got.cif
#   From: 2010.05.17/outbox.cif.g08.bks.cpg/sg11_20_cif.got.tgz:38148.got - 2010.06.03 12:22:45.
