data_PCOD9157692
_publ_section_title
;
Structure prediction by ZEFSAII (Michael W. Deem and Ramdas Pophale) SiO2 
 PCOD9157692
Probable space group: P 21/M
;
_chemical_formula_sum "Si O2"
_cell_formula_units_Z 20
_cell_length_a 9.468734
_cell_length_b 19.365303
_cell_length_c 7.997243
_cell_angle_alpha 90.000000
_cell_angle_beta 147.561774
_cell_angle_gamma 90.000000
_cell_volume 786.569616
_symmetry_space_group_name_H-M "P 21/M"
_symmetry_group_IT_number 11
_symmetry_cell_setting 'monoclinic'
loop_
_space_group_symop_operation_xyz
x,y,z
-x,1/2+y,-z
-x,-y,-z
x,1/2-y,z
loop_
_atom_site_type_symbol
_atom_site_label
_atom_site_fract_x
_atom_site_fract_y
_atom_site_fract_z
Si Si1 0.998459 0.250000 0.560201
Si Si2 0.785363 0.443261 0.714055
Si Si3 0.864212 0.671683 0.872185
Si Si4 0.064333 0.110624 0.426218
Si Si5 0.496665 0.750000 0.704812
Si Si6 0.445511 0.539035 0.163685
O O1 0.978852 0.178991 0.437575
O O2 0.281849 0.250000 0.930208
O O3 0.774245 0.250000 0.474256
O O4 0.603069 0.471050 0.382029
O O5 0.607997 0.430538 0.701752
O O6 0.965036 0.378955 0.843204
O O7 0.000000 0.500000 0.000000
O O8 0.971569 0.750000 0.961554
O O9 0.580346 0.685709 0.670950
O O10 0.885058 0.637705 0.712420
O O11 0.349136 0.078899 0.750192
O O12 0.840921 0.051454 0.201875
#
# Coordination Sequence:
#
# PCOD9157692 Si02
#       6
#     2   4   4   4   2   4
#     4  12  23  44  61  88 122 176 198 260 311 368
#     4  10  18  35  60  94 133 154 194 258 324 352
#     4   9  20  41  59  99 116 160 202 265 293 374
#     4  11  21  38  64  91 120 154 217 251 298 362
#     4  10  25  40  59  86 128 162 200 250 321 366
#     4  10  20  33  57  95 119 157 193 258 302 361
#
# _framework density 25.426867000000001
#
# number of rings (size 3 to 8) (size 9 to 14) (size 15 to 20)
#    0.600    1.200    5.000    1.200    0.000    3.200 
#    1.800    0.000    0.000    7.200    0.000    0.000 
#    0.000    0.000    0.000    0.000    0.000    0.000 
#
# Total GULP energy -111672.386873 kJ/mol
# GULP energy per Si atom -5583.619344 kJ/mol
# Density = 2.536899 g / cm^3
# Si number density = 25.426867 Si / 1000 Ang^3
#
#
#
# Elastic Constant Matrix: (Units=GPa)
#
#
# Indices 1 2 3 4 5 6 
#
# 1 112.7908 32.0769 34.9687 0.0000 22.8303 0.0000
# 2 32.0769 90.6584 23.2504 0.0000 18.1835 0.0000
# 3 34.9687 23.2504 102.6667 0.0000 22.2458 0.0000
# 4 0.0000 0.0000 0.0000 30.3188 0.0000 10.6582
# 5 22.8303 18.1835 22.2458 0.0000 43.5720 0.0000
# 6 0.0000 0.0000 0.0000 10.6582 0.0000 18.3085
#
#
#
# Elastic Compliance Matrix: (Units=1/GPa)
#
#
# Indices 1 2 3 4 5 6 
#
# 1 0.011059 -0.002594 -0.002427 0.000000 -0.003473 0.000000
# 2 -0.002594 0.012964 -0.001321 0.000000 -0.003377 0.000000
# 3 -0.002427 -0.001321 0.011773 0.000000 -0.004188 0.000000
# 4 0.000000 0.000000 0.000000 0.041469 0.000000 -0.024141
# 5 -0.003473 -0.003377 -0.004188 0.000000 0.028318 0.000000
# 6 0.000000 0.000000 0.000000 -0.024141 0.000000 0.068673
#
#
# Mechanical properties :
#
#
# Convention : Reuss Voigt Hill
#
# Bulk Modulus (GPa) = 43.26429 54.07864 48.67146
# Shear Modulus (GPa) = 25.68784 32.82787 29.25786
#
# Velocity S-wave (km/s) = 3.18191 3.59704 3.39583
# Velocity P-wave (km/s) = 5.52735 6.21016 5.87868
#
# Compressibility (1/GPa) = 0.02311375
#
# Stress axis : x y z
#
# Youngs Moduli (GPa) = 90.42377 77.13539 84.93700
#
# Poissons Ratio (x) = 0.20009 0.20612
# Poissons Ratio (y) = 0.23456 0.11218
# Poissons Ratio (z) = 0.21944 0.10188
#
# Static dielectric constant tensor:
#      x y z
#    x 1.972140 0.000000 -0.001480 
#    y 0.000000 2.093710 0.000000 
#    z -0.001480 0.000000 2.089550 
# 
# From -- ./inp_files/14449.got.cif
#   From: 2010.05.17/outbox.cif.g08.bks.cpg/sg11_8_cif.got.tgz:14449.got - 2010.06.03 12:22:45.
