data_PCOD9157374
_publ_section_title
;
Structure prediction by ZEFSAII (Michael W. Deem and Ramdas Pophale) SiO2 
 PCOD9157374
Probable space group: P 21/M
;
_chemical_formula_sum "Si O2"
_cell_formula_units_Z 32
_cell_length_a 14.251733
_cell_length_b 14.158827
_cell_length_c 20.231473
_cell_angle_alpha 90.000000
_cell_angle_beta 20.108683
_cell_angle_gamma 90.000000
_cell_volume 1403.559619
_symmetry_space_group_name_H-M "P 21/M"
_symmetry_group_IT_number 11
_symmetry_cell_setting 'monoclinic'
loop_
_space_group_symop_operation_xyz
x,y,z
-x,1/2+y,-z
-x,-y,-z
x,1/2-y,z
loop_
_atom_site_type_symbol
_atom_site_label
_atom_site_fract_x
_atom_site_fract_y
_atom_site_fract_z
Si Si1 0.920286 0.855251 0.621639
Si Si2 0.693941 0.928909 0.252271
Si Si3 0.952346 0.906117 0.217450
Si Si4 0.828488 0.120842 0.327576
Si Si5 0.621729 0.648880 0.958722
Si Si6 0.571400 0.149349 0.360177
Si Si7 0.437714 0.360261 0.797587
Si Si8 0.504048 0.988545 0.866599
O O1 0.899514 0.750000 0.606719
O O2 0.734862 0.860501 0.810075
O O3 0.235510 0.868708 0.432142
O O4 0.781953 0.933926 0.667743
O O5 0.911632 0.901265 0.165069
O O6 0.429985 0.870931 0.453618
O O7 0.737402 0.891426 0.149891
O O8 0.631739 0.043166 0.291405
O O9 0.734694 0.849446 0.405167
O O10 0.851552 0.010115 0.301853
O O11 0.267396 0.909205 0.029429
O O12 0.764558 0.155242 0.296864
O O13 0.101114 0.153538 0.181644
O O14 0.474773 0.750000 0.063304
O O15 0.466095 0.558304 0.090131
O O16 0.606111 0.250000 0.299459
O O17 0.388005 0.250000 0.847781
O O18 0.403801 0.438284 0.876803
#
# Coordination Sequence:
#
# PCOD9157374 Si02
#       8
#     4   4   4   4   4   4   4   4
#     4  10  22  39  60  81 103 142 189 228 272 331
#     4   9  17  33  53  81 113 144 185 230 270 317
#     4   8  18  31  51  79 113 147 180 222 277 328
#     4   8  14  28  51  79 110 144 184 232 272 306
#     4  10  18  32  57  87 111 138 184 234 276 317
#     4   9  16  28  51  83 116 150 186 222 266 325
#     4  11  23  39  61  83 105 142 192 235 271 323
#     4  11  22  38  56  81 117 149 174 224 284 331
#
# _framework density 22.799175000000002
#
# number of rings (size 3 to 8) (size 9 to 14) (size 15 to 20)
#    0.000    2.500    1.250    3.000    0.000    3.000 
#    0.000    1.250    0.000    0.750    0.000    0.000 
#    0.000    0.000    0.000    0.000    0.000    0.000 
#
# Total GULP energy -178345.856103 kJ/mol
# GULP energy per Si atom -5573.308003 kJ/mol
# Density = 2.274728 g / cm^3
# Si number density = 22.799175 Si / 1000 Ang^3
#
#
#
# Elastic Constant Matrix: (Units=GPa)
#
#
# Indices 1 2 3 4 5 6 
#
# 1 46.8689 2.9939 6.6209 0.0000 0.6712 0.0000
# 2 2.9939 104.1800 15.0602 0.0000 -12.5607 0.0000
# 3 6.6209 15.0602 52.3654 0.0000 -14.2125 0.0000
# 4 0.0000 0.0000 0.0000 16.8395 0.0000 -14.7456
# 5 0.6712 -12.5607 -14.2125 0.0000 25.3133 0.0000
# 6 0.0000 0.0000 0.0000 -14.7456 0.0000 76.5851
#
#
#
# Elastic Compliance Matrix: (Units=1/GPa)
#
#
# Indices 1 2 3 4 5 6 
#
# 1 0.021880 -0.000468 -0.003365 0.000000 -0.002702 0.000000
# 2 -0.000468 0.010372 -0.001798 0.000000 0.004150 0.000000
# 3 -0.003365 -0.001798 0.023385 0.000000 0.012327 0.000000
# 4 0.000000 0.000000 0.000000 0.071426 0.000000 0.013752
# 5 -0.002702 0.004150 0.012327 0.000000 0.048557 0.000000
# 6 0.000000 0.000000 0.000000 0.013752 0.000000 0.015705
#
#
# Mechanical properties :
#
#
# Convention : Reuss Voigt Hill
#
# Bulk Modulus (GPa) = 22.53482 28.08490 25.30986
# Shear Modulus (GPa) = 23.00130 35.66355 29.33242
#
# Velocity S-wave (km/s) = 3.17971 3.95935 3.59075
# Velocity P-wave (km/s) = 4.83593 5.76602 5.32134
#
# Compressibility (1/GPa) = 0.04437576
#
# Stress axis : x y z
#
# Youngs Moduli (GPa) = 45.70366 96.40931 42.76307
#
# Poissons Ratio (x) = 0.04513 0.14390
# Poissons Ratio (y) = 0.02139 0.07687
# Poissons Ratio (z) = 0.15380 0.17330
#
# Static dielectric constant tensor:
#      x y z
#    x 1.864910 0.000000 0.017230 
#    y 0.000000 1.928090 0.000000 
#    z 0.017230 0.000000 1.917770 
# 
# From -- ./inp_files/65763.got.cif
#   From: 2010.05.17/outbox.cif.g08.bks.cpg/sg11_33_cif.got.tgz:65763.got - 2010.06.03 12:22:45.
