data_PCOD9157644
_publ_section_title
;
Structure prediction by ZEFSAII (Michael W. Deem and Ramdas Pophale) SiO2 
 PCOD9157644
Probable space group: P 21/M
;
_chemical_formula_sum "Si O2"
_cell_formula_units_Z 32
_cell_length_a 24.253551
_cell_length_b 8.519072
_cell_length_c 14.758056
_cell_angle_alpha 90.000000
_cell_angle_beta 147.547930
_cell_angle_gamma 90.000000
_cell_volume 1636.223032
_symmetry_space_group_name_H-M "P 21/M"
_symmetry_group_IT_number 11
_symmetry_cell_setting 'monoclinic'
loop_
_space_group_symop_operation_xyz
x,y,z
-x,1/2+y,-z
-x,-y,-z
x,1/2-y,z
loop_
_atom_site_type_symbol
_atom_site_label
_atom_site_fract_x
_atom_site_fract_y
_atom_site_fract_z
Si Si1 0.542381 0.061679 0.337612
Si Si2 0.053045 0.561330 0.982851
Si Si3 0.647297 0.559304 0.801831
Si Si4 0.853750 0.560913 0.195445
Si Si5 0.779245 0.940040 0.290086
Si Si6 0.452275 0.563447 0.026584
Si Si7 0.285257 0.061639 0.301122
Si Si8 0.040587 0.061162 0.336412
O O1 0.543836 0.250000 0.340943
O O2 0.452693 0.005145 0.282411
O O3 0.511906 0.005321 0.195823
O O4 0.649618 0.997535 0.523536
O O5 0.052822 0.750000 0.982855
O O6 0.991904 0.505442 0.808343
O O7 0.169827 0.502031 0.139646
O O8 0.000000 0.500000 0.000000
O O9 0.644653 0.750000 0.798512
O O10 0.657838 0.507817 0.712567
O O11 0.750677 0.512985 0.998466
O O12 0.861693 0.750000 0.200981
O O13 0.837762 0.517979 0.278025
O O14 0.952109 0.488233 0.283840
O O15 0.768942 0.750000 0.276942
O O16 0.849885 0.991501 0.472148
O O17 0.666380 0.011373 0.132720
O O18 0.459506 0.750000 0.038707
O O19 0.500000 0.500000 0.000000
O O20 0.281779 0.250000 0.296364
O O21 0.043656 0.250000 0.338101
#
# Coordination Sequence:
#
# PCOD9157644 Si02
#       8
#     4   4   4   4   4   4   4   4
#     4  11  22  41  65  92 126 162 202 250 305 363
#     4  11  24  42  61  85 117 159 208 259 311 362
#     4   9  18  34  60  91 124 162 199 243 302 363
#     4  10  18  34  61  90 123 162 197 241 302 365
#     4  10  21  40  63  89 125 162 198 248 307 362
#     4  12  26  44  65  90 120 160 208 257 306 362
#     4  11  22  39  62  92 126 162 204 249 303 368
#     4  10  22  38  60  91 123 156 198 250 304 362
#
# _framework density 19.557234999999999
#
# number of rings (size 3 to 8) (size 9 to 14) (size 15 to 20)
#    0.000    1.500    2.500    3.000    0.000    2.500 
#    0.000    5.625    0.000    0.000    0.000    0.000 
#    0.000    0.000    0.000    0.000    0.000    0.000 
#
# Total GULP energy -178877.151665 kJ/mol
# GULP energy per Si atom -5589.910990 kJ/mol
# Density = 1.951272 g / cm^3
# Si number density = 19.557235 Si / 1000 Ang^3
#
#
#
# Elastic Constant Matrix: (Units=GPa)
#
#
# Indices 1 2 3 4 5 6 
#
# 1 118.9405 26.4024 45.7440 0.0000 -33.7416 0.0000
# 2 26.4024 43.6895 28.2837 0.0000 -12.5152 0.0000
# 3 45.7440 28.2837 143.2526 0.0000 -45.8442 0.0000
# 4 0.0000 0.0000 0.0000 26.4276 0.0000 3.9270
# 5 -33.7416 -12.5152 -45.8442 0.0000 14.7031 0.0000
# 6 0.0000 0.0000 0.0000 3.9270 0.0000 29.4506
#
#
#
# Elastic Compliance Matrix: (Units=1/GPa)
#
#
# Indices 1 2 3 4 5 6 
#
# 1 0.000846 -0.005150 -0.016026 0.000000 -0.052410 0.000000
# 2 -0.005150 0.028380 -0.004701 0.000000 -0.002320 0.000000
# 3 -0.016026 -0.004701 -0.011004 0.000000 -0.075088 0.000000
# 4 0.000000 0.000000 0.000000 0.038604 0.000000 -0.005148
# 5 -0.052410 -0.002320 -0.075088 0.000000 -0.288359 0.000000
# 6 0.000000 0.000000 0.000000 -0.005148 0.000000 0.034642
#
#
# Mechanical properties :
#
#
# Convention : Reuss Voigt Hill
#
# Bulk Modulus (GPa) = -29.82291 56.30475 13.24092
# Shear Modulus (GPa) = -31.98693 27.81308 -2.08692
#
# Velocity S-wave (km/s) = -4.04859 3.77522 -1.03412
# Velocity P-wave (km/s) = 6.09400 6.91775 2.31499
#
# Compressibility (1/GPa) = -0.03353127
#
# Stress axis : x y z
#
# Youngs Moduli (GPa) = 1181.50726 35.23626 -90.87959
#
# Poissons Ratio (x) = 0.18146 -1.45642
# Poissons Ratio (y) = 6.08457 -0.42726
# Poissons Ratio (z) = 18.93456 0.16566
#
# Static dielectric constant tensor:
#      x y z
#    x 1.661810 0.000000 -0.017620 
#    y 0.000000 1.661340 0.000000 
#    z -0.017620 0.000000 1.676720 
# 
# From -- ./inp_files/55720.got.cif
#   From: 2010.05.17/outbox.cif.g08.bks.cpg/sg11_28_cif.got.tgz:55720.got - 2010.06.03 12:22:45.
