data_PCOD9157899
_publ_section_title
;
Structure prediction by ZEFSAII (Michael W. Deem and Ramdas Pophale) SiO2 
 PCOD9157899
Probable space group: P 21/M
;
_chemical_formula_sum "Si O2"
_cell_formula_units_Z 32
_cell_length_a 26.429371
_cell_length_b 9.113469
_cell_length_c 15.136076
_cell_angle_alpha 90.000000
_cell_angle_beta 148.969666
_cell_angle_gamma 90.000000
_cell_volume 1879.341130
_symmetry_space_group_name_H-M "P 21/M"
_symmetry_group_IT_number 11
_symmetry_cell_setting 'monoclinic'
loop_
_space_group_symop_operation_xyz
x,y,z
-x,1/2+y,-z
-x,-y,-z
x,1/2-y,z
loop_
_atom_site_type_symbol
_atom_site_label
_atom_site_fract_x
_atom_site_fract_y
_atom_site_fract_z
Si Si1 0.161060 0.924869 0.892669
Si Si2 0.380541 0.423974 0.737503
Si Si3 0.216078 0.073691 0.350075
Si Si4 0.935869 0.422855 0.753286
Si Si5 0.069388 0.424634 0.437891
Si Si6 0.169152 0.076052 0.087866
Si Si7 0.764974 0.574417 0.171240
Si Si8 0.611824 0.076368 0.066707
O O1 0.172958 0.750000 0.905978
O O2 0.044092 0.958355 0.709774
O O3 0.216573 0.003190 0.896025
O O4 0.193068 0.986135 0.035872
O O5 0.367884 0.250000 0.737433
O O6 0.309100 0.463444 0.550268
O O7 0.357719 0.513446 0.792002
O O8 0.494622 0.447891 0.884644
O O9 0.203461 0.250000 0.332686
O O10 0.224587 0.031290 0.260263
O O11 0.122173 0.000923 0.255348
O O12 0.916412 0.250000 0.725698
O O13 0.903659 0.491169 0.611341
O O14 0.053049 0.445228 0.933784
O O15 0.076490 0.250000 0.431547
O O16 0.141882 0.461164 0.626191
O O17 0.183987 0.250000 0.093729
O O18 0.757789 0.750000 0.153792
O O19 0.671224 0.507664 0.080370
O O20 0.630810 0.250000 0.090455
#
# Coordination Sequence:
#
# PCOD9157899 Si02
#       8
#     4   4   4   4   4   4   4   4
#     4  10  20  34  51  71  97 129 164 202 241 280
#     4   9  19  35  53  74 100 129 160 196 241 290
#     4  10  19  32  51  71  95 130 167 200 238 287
#     4  10  19  29  45  72 103 131 161 199 239 282
#     4   9  19  33  48  69  99 133 164 195 235 285
#     4   9  19  34  49  68  97 132 166 200 240 283
#     4  11  21  33  51  73  98 129 164 199 238 288
#     4  10  20  34  52  75 102 128 157 197 243 290
#
# _framework density 17.027244
#
# number of rings (size 3 to 8) (size 9 to 14) (size 15 to 20)
#    0.000    2.250    0.000    3.000    0.000    6.500 
#    0.000    0.000    0.000    0.750    0.000    0.000 
#    0.000    0.000    0.000    0.000    0.000    0.000 
#
# Total GULP energy -178651.229851 kJ/mol
# GULP energy per Si atom -5582.850933 kJ/mol
# Density = 1.698849 g / cm^3
# Si number density = 17.027244 Si / 1000 Ang^3
#
#
#
# Elastic Constant Matrix: (Units=GPa)
#
#
# Indices 1 2 3 4 5 6 
#
# 1 124.2559 59.6288 37.0071 0.0000 -21.3068 0.0000
# 2 59.6288 46.7591 32.5551 0.0000 -8.8742 0.0000
# 3 37.0071 32.5551 53.2701 0.0000 -19.6441 0.0000
# 4 0.0000 0.0000 0.0000 16.1812 0.0000 -0.9049
# 5 -21.3068 -8.8742 -19.6441 0.0000 21.3981 0.0000
# 6 0.0000 0.0000 0.0000 -0.9049 0.0000 34.0017
#
#
#
# Elastic Compliance Matrix: (Units=1/GPa)
#
#
# Indices 1 2 3 4 5 6 
#
# 1 0.026915 -0.039807 0.014248 0.000000 0.023371 0.000000
# 2 -0.039807 0.097085 -0.047541 0.000000 -0.043018 0.000000
# 3 0.014248 -0.047541 0.054257 0.000000 0.044280 0.000000
# 4 0.000000 0.000000 0.000000 0.061892 0.000000 0.001647
# 5 0.023371 -0.043018 0.044280 0.000000 0.092814 0.000000
# 6 0.000000 0.000000 0.000000 0.001647 0.000000 0.029454
#
#
# Mechanical properties :
#
#
# Convention : Reuss Voigt Hill
#
# Bulk Modulus (GPa) = 31.19507 53.62968 42.41238
# Shear Modulus (GPa) = 9.62830 20.65582 15.14206
#
# Velocity S-wave (km/s) = 2.38053 3.48674 2.98532
# Velocity P-wave (km/s) = 5.09081 6.91192 6.07005
#
# Compressibility (1/GPa) = 0.03205634
#
# Stress axis : x y z
#
# Youngs Moduli (GPa) = 37.15412 10.30029 18.43085
#
# Poissons Ratio (x) = 0.41002 -0.26260
# Poissons Ratio (y) = 1.47900 0.87622
# Poissons Ratio (z) = -0.52937 0.48968
#
# Static dielectric constant tensor:
#      x y z
#    x 1.549640 0.000000 -0.000830 
#    y 0.000000 1.566220 0.000000 
#    z -0.000830 0.000000 1.582720 
# 
# From -- ./inp_files/51705.got.cif
#   From: 2010.05.17/outbox.cif.g08.bks.cpg/sg11_26_cif.got.tgz:51705.got - 2010.06.03 12:22:45.
