data_PCOD9157498
_publ_section_title
;
Structure prediction by ZEFSAII (Michael W. Deem and Ramdas Pophale) SiO2 
 PCOD9157498
Probable space group: P 21/M
;
_chemical_formula_sum "Si O2"
_cell_formula_units_Z 32
_cell_length_a 12.974653
_cell_length_b 22.587977
_cell_length_c 8.366657
_cell_angle_alpha 90.000000
_cell_angle_beta 149.092049
_cell_angle_gamma 90.000000
_cell_volume 1259.508414
_symmetry_space_group_name_H-M "P 21/M"
_symmetry_group_IT_number 11
_symmetry_cell_setting 'monoclinic'
loop_
_space_group_symop_operation_xyz
x,y,z
-x,1/2+y,-z
-x,-y,-z
x,1/2-y,z
loop_
_atom_site_type_symbol
_atom_site_label
_atom_site_fract_x
_atom_site_fract_y
_atom_site_fract_z
Si Si1 0.610150 0.814615 0.425164
Si Si2 0.120965 0.924382 0.111273
Si Si3 0.738658 0.899359 0.833845
Si Si4 0.040914 0.818117 0.817957
Si Si5 0.608220 0.051912 0.252991
Si Si6 0.030541 0.015395 0.720238
Si Si7 0.599067 0.315808 0.180637
Si Si8 0.969995 0.817277 0.363898
O O1 0.608870 0.750000 0.505130
O O2 0.586698 0.870580 0.509074
O O3 0.821922 0.818500 0.611433
O O4 0.449007 0.814637 0.071861
O O5 0.308761 0.954885 0.452230
O O6 0.171668 0.860667 0.104115
O O7 0.931530 0.915934 0.978130
O O8 0.030344 0.962448 0.845952
O O9 0.748385 0.956340 0.959324
O O10 0.798346 0.848745 0.037091
O O11 0.112144 0.750000 0.909034
O O12 0.016199 0.841454 0.603349
O O13 0.830549 0.055348 0.471656
O O14 0.520951 0.119210 0.130510
O O15 0.500000 0.000000 0.000000
O O16 0.000000 0.000000 0.500000
O O17 0.533197 0.250000 0.154842
O O18 0.839550 0.316769 0.501942
O O19 0.914864 0.750000 0.323760
#
# Coordination Sequence:
#
# PCOD9157498 Si02
#       8
#     4   4   4   4   4   4   4   4
#     4   9  19  34  56  84 113 150 194 241 290 348
#     4  10  21  36  59  85 113 152 196 244 289 348
#     4  10  18  34  56  83 108 150 196 239 281 348
#     4   9  19  34  59  86 113 149 197 245 294 350
#     4  11  24  40  61  89 120 159 200 244 299 362
#     4  11  23  40  60  84 116 154 196 248 297 352
#     4  10  21  37  59  86 119 155 195 242 296 353
#     4  10  18  33  58  85 114 148 191 244 293 348
#
# _framework density 25.406738000000001
#
# number of rings (size 3 to 8) (size 9 to 14) (size 15 to 20)
#    0.000    2.000    2.500    2.625    5.250    1.000 
#    0.000    1.875    0.000    0.000    0.000    0.000 
#    0.000    0.000    0.000    0.000    0.000    0.000 
#
# Total GULP energy -178278.475293 kJ/mol
# GULP energy per Si atom -5571.202353 kJ/mol
# Density = 2.534891 g / cm^3
# Si number density = 25.406738 Si / 1000 Ang^3
#
#
#
# Elastic Constant Matrix: (Units=GPa)
#
#
# Indices 1 2 3 4 5 6 
#
# 1 46.0023 10.9545 22.7670 0.0000 7.6500 0.0000
# 2 10.9545 129.5480 40.7775 0.0000 -16.5081 0.0000
# 3 22.7670 40.7775 78.3744 0.0000 -21.2013 0.0000
# 4 0.0000 0.0000 0.0000 49.2672 0.0000 -23.2336
# 5 7.6500 -16.5081 -21.2013 0.0000 38.2361 0.0000
# 6 0.0000 0.0000 0.0000 -23.2336 0.0000 17.8991
#
#
#
# Elastic Compliance Matrix: (Units=1/GPa)
#
#
# Indices 1 2 3 4 5 6 
#
# 1 0.029848 -0.000399 -0.011912 0.000000 -0.012749 0.000000
# 2 -0.000399 0.009316 -0.004260 0.000000 0.001739 0.000000
# 3 -0.011912 -0.004260 0.021863 0.000000 0.012666 0.000000
# 4 0.000000 0.000000 0.000000 0.052331 0.000000 0.067927
# 5 -0.012749 0.001739 0.012666 0.000000 0.036478 0.000000
# 6 0.000000 0.000000 0.000000 0.067927 0.000000 0.144040
#
#
# Mechanical properties :
#
#
# Convention : Reuss Voigt Hill
#
# Bulk Modulus (GPa) = 35.86277 44.76919 40.31598
# Shear Modulus (GPa) = 14.86713 33.04219 23.95466
#
# Velocity S-wave (km/s) = 2.42164 3.61020 3.07391
# Velocity P-wave (km/s) = 4.68671 5.91923 5.33866
#
# Compressibility (1/GPa) = 0.02788407
#
# Stress axis : x y z
#
# Youngs Moduli (GPa) = 33.50252 107.34726 45.74041
#
# Poissons Ratio (x) = 0.04285 0.54485
# Poissons Ratio (y) = 0.01337 0.19487
# Poissons Ratio (z) = 0.39908 0.45733
#
# Static dielectric constant tensor:
#      x y z
#    x 2.233540 0.000000 -0.059420 
#    y 0.000000 2.005500 0.000000 
#    z -0.059420 0.000000 2.032360 
# 
# From -- ./inp_files/25366.got.cif
#   From: 2010.05.17/outbox.cif.g08.bks.cpg/sg11_13_cif.got.tgz:25366.got - 2010.06.03 12:22:45.
