data_PCOD9157818
_publ_section_title
;
Structure prediction by ZEFSAII (Michael W. Deem and Ramdas Pophale) SiO2 
 PCOD9157818
Probable space group: P 21/M
;
_chemical_formula_sum "Si O2"
_cell_formula_units_Z 28
_cell_length_a 13.987859
_cell_length_b 7.718488
_cell_length_c 15.097472
_cell_angle_alpha 90.000000
_cell_angle_beta 77.963133
_cell_angle_gamma 90.000000
_cell_volume 1594.162591
_symmetry_space_group_name_H-M "P 21/M"
_symmetry_group_IT_number 11
_symmetry_cell_setting 'monoclinic'
loop_
_space_group_symop_operation_xyz
x,y,z
-x,1/2+y,-z
-x,-y,-z
x,1/2-y,z
loop_
_atom_site_type_symbol
_atom_site_label
_atom_site_fract_x
_atom_site_fract_y
_atom_site_fract_z
Si Si1 0.373532 0.545199 0.720857
Si Si2 0.423260 0.459929 0.394993
Si Si3 0.887490 0.541914 0.535620
Si Si4 0.722884 0.958924 0.431239
Si Si5 0.427133 0.046463 0.901109
Si Si6 0.642979 0.951859 0.899483
Si Si7 0.747105 0.960786 0.711848
O O1 0.385658 0.750000 0.728212
O O2 0.471775 0.472306 0.654855
O O3 0.286921 0.511737 0.668534
O O4 0.369858 0.474247 0.820739
O O5 0.429608 0.250000 0.399874
O O6 0.372879 0.522185 0.495403
O O7 0.344915 0.500225 0.333699
O O8 0.878377 0.750000 0.538512
O O9 0.817084 0.480818 0.468994
O O10 0.841109 0.479253 0.637829
O O11 0.000000 0.500000 0.500000
O O12 0.722508 0.750000 0.434253
O O13 0.445303 0.250000 0.912773
O O14 0.534748 0.962318 0.876573
O O15 0.371655 0.975382 0.998832
O O16 0.668615 0.750000 0.905566
O O17 0.720308 0.027490 0.814665
O O18 0.751983 0.750000 0.716623
#
# Coordination Sequence:
#
# PCOD9157818 Si02
#       7
#     4   4   4   4   4   4   4
#     4  11  19  28  43  62  88 125 156 183 216 259
#     4   8  14  25  42  61  85 117 151 180 211 251
#     4   9  18  32  51  70  91 115 142 182 229 272
#     4   9  18  31  45  63  87 116 149 186 222 262
#     4  10  19  27  40  64  92 122 154 190 223 253
#     4   9  16  29  46  62  86 121 159 189 217 259
#     4   8  13  26  47  66  86 118 152 180 216 265
#
# _framework density 17.564079
#
# number of rings (size 3 to 8) (size 9 to 14) (size 15 to 20)
#    0.000    2.857    1.429    3.000    0.000    1.143 
#    0.000    1.429    0.000    0.000    0.000    1.000 
#    0.000    0.000    0.000    0.000    0.000    0.000 
#
# Total GULP energy -155980.004626 kJ/mol
# GULP energy per Si atom -5570.714451 kJ/mol
# Density = 1.752410 g / cm^3
# Si number density = 17.564079 Si / 1000 Ang^3
#
#
#
# Elastic Constant Matrix: (Units=GPa)
#
#
# Indices 1 2 3 4 5 6 
#
# 1 68.9117 -0.8231 60.3274 0.0000 -12.1027 0.0000
# 2 -0.8231 28.6250 -0.7955 0.0000 -0.1414 0.0000
# 3 60.3274 -0.7955 156.0397 0.0000 -1.8747 0.0000
# 4 0.0000 0.0000 0.0000 11.2038 0.0000 2.1876
# 5 -12.1027 -0.1414 -1.8747 0.0000 20.7545 0.0000
# 6 0.0000 0.0000 0.0000 2.1876 0.0000 15.6498
#
#
#
# Elastic Compliance Matrix: (Units=1/GPa)
#
#
# Indices 1 2 3 4 5 6 
#
# 1 0.025425 0.000532 -0.009659 0.000000 0.013957 0.000000
# 2 0.000532 0.034952 -0.000021 0.000000 0.000546 0.000000
# 3 -0.009659 -0.000021 0.010086 0.000000 -0.004722 0.000000
# 4 0.000000 0.000000 0.000000 0.091760 0.000000 -0.012826
# 5 0.013957 0.000546 -0.004722 0.000000 0.055899 0.000000
# 6 0.000000 0.000000 0.000000 -0.012826 0.000000 0.065691
#
#
# Mechanical properties :
#
#
# Convention : Reuss Voigt Hill
#
# Bulk Modulus (GPa) = 19.16955 41.22157 30.19556
# Shear Modulus (GPa) = 15.64952 22.51279 19.08116
#
# Velocity S-wave (km/s) = 2.98819 3.58404 3.29959
# Velocity P-wave (km/s) = 4.77949 6.37553 5.63431
#
# Compressibility (1/GPa) = 0.05216607
#
# Stress axis : x y z
#
# Youngs Moduli (GPa) = 39.33132 28.61078 99.14498
#
# Poissons Ratio (x) = -0.01521 0.95767
# Poissons Ratio (y) = -0.02091 0.00206
# Poissons Ratio (z) = 0.37991 0.00059
#
# Static dielectric constant tensor:
#      x y z
#    x 1.574940 0.000000 -0.009970 
#    y 0.000000 1.648950 0.000000 
#    z -0.009970 0.000000 1.658350 
# 
# From -- ./inp_files/50990.got.cif
#   From: 2010.05.17/outbox.cif.g08.bks.cpg/sg11_26_cif.got.tgz:50990.got - 2010.06.03 12:22:45.
