data_PCOD9157164
_publ_section_title
;
Structure prediction by ZEFSAII (Michael W. Deem and Ramdas Pophale) SiO2 
 PCOD9157164
Probable space group: P 21/M
;
_chemical_formula_sum "Si O2"
_cell_formula_units_Z 28
_cell_length_a 17.396587
_cell_length_b 14.690816
_cell_length_c 9.385996
_cell_angle_alpha 90.000000
_cell_angle_beta 29.009672
_cell_angle_gamma 90.000000
_cell_volume 1163.305548
_symmetry_space_group_name_H-M "P 21/M"
_symmetry_group_IT_number 11
_symmetry_cell_setting 'monoclinic'
loop_
_space_group_symop_operation_xyz
x,y,z
-x,1/2+y,-z
-x,-y,-z
x,1/2-y,z
loop_
_atom_site_type_symbol
_atom_site_label
_atom_site_fract_x
_atom_site_fract_y
_atom_site_fract_z
Si Si1 0.252332 0.151107 0.919401
Si Si2 0.569316 0.415207 0.478763
Si Si3 0.132739 0.948952 0.167299
Si Si4 0.373425 0.144209 0.397647
Si Si5 0.738025 0.359129 0.779208
Si Si6 0.056485 0.421168 0.798253
Si Si7 0.238734 0.648452 0.588797
O O1 0.171625 0.250000 0.070475
O O2 0.421946 0.151262 0.722709
O O3 0.298395 0.141621 0.677861
O O4 0.173579 0.056306 0.092116
O O5 0.500000 0.500000 0.500000
O O6 0.648966 0.420899 0.505131
O O7 0.722406 0.390615 0.137853
O O8 0.856050 0.087661 0.691849
O O9 0.989277 0.933823 0.291924
O O10 0.384259 0.250000 0.337373
O O11 0.240854 0.098081 0.515855
O O12 0.554781 0.110453 0.102514
O O13 0.747738 0.250000 0.788608
O O14 0.776750 0.376101 0.551264
O O15 0.000000 0.500000 0.000000
O O16 0.933905 0.347010 0.058852
O O17 0.310159 0.750000 0.480414
#
# Coordination Sequence:
#
# PCOD9157164 Si02
#       7
#     4   4   4   4   4   4   4
#     4  10  18  31  56  88 121 158 214 272 316 370
#     4   9  18  33  58  90 120 155 212 265 314 374
#     4  10  20  36  62  91 124 168 220 265 316 384
#     4  10  20  36  62  92 124 167 211 265 324 386
#     4  10  22  40  65  97 133 169 213 267 330 393
#     4  11  22  39  62  92 126 164 217 269 319 386
#     4  10  22  40  64  95 132 172 212 262 327 394
#
# _framework density 24.069341999999999
#
# number of rings (size 3 to 8) (size 9 to 14) (size 15 to 20)
#    0.000    2.000    2.857    0.857    0.000    2.857 
#    0.000    7.143    3.143    0.000    0.000    2.000 
#    0.000    0.000    0.000    0.000    0.000    0.000 
#
# Total GULP energy -156320.028681 kJ/mol
# GULP energy per Si atom -5582.858167 kJ/mol
# Density = 2.401456 g / cm^3
# Si number density = 24.069342 Si / 1000 Ang^3
#
#
#
# Elastic Constant Matrix: (Units=GPa)
#
#
# Indices 1 2 3 4 5 6 
#
# 1 198.4903 63.1930 57.4925 0.0000 -8.7474 0.0000
# 2 63.1930 111.2667 26.7169 0.0000 0.9294 0.0000
# 3 57.4925 26.7169 98.2134 0.0000 -17.2378 0.0000
# 4 0.0000 0.0000 0.0000 17.7378 0.0000 0.2781
# 5 -8.7474 0.9294 -17.2378 0.0000 32.9733 0.0000
# 6 0.0000 0.0000 0.0000 0.2781 0.0000 27.3835
#
#
#
# Elastic Compliance Matrix: (Units=1/GPa)
#
#
# Indices 1 2 3 4 5 6 
#
# 1 0.006991 -0.003212 -0.003168 0.000000 0.000289 0.000000
# 2 -0.003212 0.011190 -0.001507 0.000000 -0.001955 0.000000
# 3 -0.003168 -0.001507 0.013549 0.000000 0.006285 0.000000
# 4 0.000000 0.000000 0.000000 0.056386 0.000000 -0.000573
# 5 0.000289 -0.001955 0.006285 0.000000 0.033745 0.000000
# 6 0.000000 0.000000 0.000000 -0.000573 0.000000 0.036524
#
#
# Mechanical properties :
#
#
# Convention : Reuss Voigt Hill
#
# Bulk Modulus (GPa) = 62.67011 78.08613 70.37812
# Shear Modulus (GPa) = 27.85852 32.99010 30.42431
#
# Velocity S-wave (km/s) = 3.40579 3.70622 3.55917
# Velocity P-wave (km/s) = 6.44668 7.12933 6.79658
#
# Compressibility (1/GPa) = 0.01595657
#
# Stress axis : x y z
#
# Youngs Moduli (GPa) = 143.04081 89.36615 73.80398
#
# Poissons Ratio (x) = 0.28707 0.23380
# Poissons Ratio (y) = 0.45948 0.11121
# Poissons Ratio (z) = 0.45313 0.13465
#
# Static dielectric constant tensor:
#      x y z
#    x 1.919030 0.000000 0.007990 
#    y 0.000000 2.092650 0.000000 
#    z 0.007990 0.000000 1.936500 
# 
# From -- ./inp_files/43517.got.cif
#   From: 2010.05.17/outbox.cif.g08.bks.cpg/sg11_22_cif.got.tgz:43517.got - 2010.06.03 12:22:45.
