data_PCOD9157436
_publ_section_title
;
Structure prediction by ZEFSAII (Michael W. Deem and Ramdas Pophale) SiO2 
 PCOD9157436
Probable space group: P 21/M
;
_chemical_formula_sum "Si O2"
_cell_formula_units_Z 28
_cell_length_a 8.466207
_cell_length_b 16.118435
_cell_length_c 18.536845
_cell_angle_alpha 90.000000
_cell_angle_beta 26.079908
_cell_angle_gamma 90.000000
_cell_volume 1112.062495
_symmetry_space_group_name_H-M "P 21/M"
_symmetry_group_IT_number 11
_symmetry_cell_setting 'monoclinic'
loop_
_space_group_symop_operation_xyz
x,y,z
-x,1/2+y,-z
-x,-y,-z
x,1/2-y,z
loop_
_atom_site_type_symbol
_atom_site_label
_atom_site_fract_x
_atom_site_fract_y
_atom_site_fract_z
Si Si1 0.863200 0.337572 0.251323
Si Si2 0.722592 0.111605 0.605086
Si Si3 0.495554 0.923984 0.727115
Si Si4 0.424979 0.534593 0.905500
Si Si5 0.714606 0.076089 0.447950
Si Si6 0.269478 0.841546 0.090620
Si Si7 0.471904 0.843268 0.157211
O O1 0.741292 0.250000 0.271534
O O2 0.719311 0.405351 0.256221
O O3 0.706925 0.350994 0.393816
O O4 0.292558 0.339420 0.082966
O O5 0.583109 0.110078 0.579476
O O6 0.613072 0.157951 0.722900
O O7 0.143813 0.129842 0.422058
O O8 0.637390 0.017492 0.663586
O O9 0.301193 0.918163 0.883656
O O10 0.233562 0.580149 0.051552
O O11 0.366428 0.436077 0.922723
O O12 0.861190 0.547948 0.724454
O O13 0.500000 0.000000 0.500000
O O14 0.154723 0.750000 0.109701
O O15 0.169584 0.847599 0.216555
O O16 0.636395 0.750000 0.078114
#
# Coordination Sequence:
#
# PCOD9157436 Si02
#       7
#     4   4   4   4   4   4   4
#     4  10  20  32  52  79 102 135 180 225 264 309
#     4   9  18  32  51  75 104 135 167 206 269 320
#     4   9  17  32  51  76 101 131 168 218 261 315
#     4   9  19  34  56  80 104 140 184 219 268 313
#     4  10  18  33  55  75 109 139 168 218 270 318
#     4   9  19  36  55  76 106 142 183 225 268 310
#     4  10  20  34  55  78 108 145 180 219 263 323
#
# _framework density 25.178442
#
# number of rings (size 3 to 8) (size 9 to 14) (size 15 to 20)
#    0.000    2.571    1.429    1.286    0.000    1.714 
#    0.000    5.714    3.143    0.000    0.000    0.000 
#    0.000    0.000    0.000    0.000    0.000    0.000 
#
# Total GULP energy -155981.449036 kJ/mol
# GULP energy per Si atom -5570.766037 kJ/mol
# Density = 2.512113 g / cm^3
# Si number density = 25.178442 Si / 1000 Ang^3
#
#
#
# Elastic Constant Matrix: (Units=GPa)
#
#
# Indices 1 2 3 4 5 6 
#
# 1 110.0558 37.5143 60.9638 0.0000 41.6628 0.0000
# 2 37.5143 141.5402 42.6766 0.0000 24.7684 0.0000
# 3 60.9638 42.6766 100.8929 0.0000 40.0596 0.0000
# 4 0.0000 0.0000 0.0000 19.8167 0.0000 18.1269
# 5 41.6628 24.7684 40.0596 0.0000 61.1648 0.0000
# 6 0.0000 0.0000 0.0000 18.1269 0.0000 21.7502
#
#
#
# Elastic Compliance Matrix: (Units=1/GPa)
#
#
# Indices 1 2 3 4 5 6 
#
# 1 0.015183 -0.001083 -0.006465 0.000000 -0.005669 0.000000
# 2 -0.001083 0.008265 -0.002440 0.000000 -0.001011 0.000000
# 3 -0.006465 -0.002440 0.017176 0.000000 -0.005857 0.000000
# 4 0.000000 0.000000 0.000000 0.212338 0.000000 -0.176965
# 5 -0.005669 -0.001011 -0.005857 0.000000 0.024456 0.000000
# 6 0.000000 0.000000 0.000000 -0.176965 0.000000 0.193462
#
#
# Mechanical properties :
#
#
# Convention : Reuss Voigt Hill
#
# Bulk Modulus (GPa) = 48.43288 70.53315 59.48302
# Shear Modulus (GPa) = 10.04544 34.63529 22.34037
#
# Velocity S-wave (km/s) = 1.99959 3.71292 2.98196
# Velocity P-wave (km/s) = 4.96072 6.81580 5.96087
#
# Compressibility (1/GPa) = 0.02064713
#
# Stress axis : x y z
#
# Youngs Moduli (GPa) = 65.86435 120.99514 58.22117
#
# Poissons Ratio (x) = 0.13100 0.37641
# Poissons Ratio (y) = 0.07131 0.14208
# Poissons Ratio (z) = 0.42583 0.29526
#
# Static dielectric constant tensor:
#      x y z
#    x 2.060100 0.000000 0.002600 
#    y 0.000000 1.960030 0.000000 
#    z 0.002600 0.000000 2.088750 
# 
# From -- ./inp_files/17929.got.cif
#   From: 2010.05.17/outbox.cif.g08.bks.cpg/sg11_9_cif.got.tgz:17929.got - 2010.06.03 12:22:45.
