data_PCOD9157401
_publ_section_title
;
Structure prediction by ZEFSAII (Michael W. Deem and Ramdas Pophale) SiO2 
 PCOD9157401
Probable space group: P 21/M
;
_chemical_formula_sum "Si O2"
_cell_formula_units_Z 32
_cell_length_a 10.966695
_cell_length_b 20.753629
_cell_length_c 11.621321
_cell_angle_alpha 90.000000
_cell_angle_beta 139.223874
_cell_angle_gamma 90.000000
_cell_volume 1727.461598
_symmetry_space_group_name_H-M "P 21/M"
_symmetry_group_IT_number 11
_symmetry_cell_setting 'monoclinic'
loop_
_space_group_symop_operation_xyz
x,y,z
-x,1/2+y,-z
-x,-y,-z
x,1/2-y,z
loop_
_atom_site_type_symbol
_atom_site_label
_atom_site_fract_x
_atom_site_fract_y
_atom_site_fract_z
Si Si1 0.272740 0.968285 0.251125
Si Si2 0.002715 0.424571 0.120258
Si Si3 0.801876 0.506160 0.174620
Si Si4 0.037086 0.674754 0.734939
Si Si5 0.336731 0.521140 0.551250
Si Si6 0.819694 0.590822 0.399948
Si Si7 0.454140 0.914667 0.849219
Si Si8 0.518682 0.175685 0.939900
O O1 0.264270 0.951119 0.379338
O O2 0.479206 0.981159 0.354422
O O3 0.162493 0.919946 0.090206
O O4 0.167035 0.037371 0.174308
O O5 0.924537 0.470214 0.167552
O O6 0.060924 0.360022 0.226852
O O7 0.885064 0.556711 0.327438
O O8 0.690554 0.453453 0.171544
O O9 0.643985 0.544719 0.992732
O O10 0.996232 0.750000 0.694504
O O11 0.258737 0.668188 0.922843
O O12 0.964629 0.637802 0.568408
O O13 0.223604 0.467828 0.543666
O O14 0.380673 0.578977 0.669066
O O15 0.626213 0.628819 0.230657
O O16 0.492210 0.846480 0.934594
O O17 0.468199 0.250000 0.885050
#
# Coordination Sequence:
#
# PCOD9157401 Si02
#       8
#     4   4   4   4   4   4   4   4
#     4  10  21  30  52  77 106 134 173 221 264 318
#     4  11  19  35  49  79 110 137 175 219 272 315
#     4   9  17  29  53  79 106 135 161 218 278 317
#     4  11  22  35  53  79 111 143 178 216 260 326
#     4  10  18  33  51  81 103 137 168 220 277 310
#     4  10  20  35  56  82 111 134 174 220 273 327
#     4   9  16  30  52  76 107 134 167 218 268 320
#     4  10  20  33  52  78 110 145 173 213 266 322
#
# _framework density 18.524289
#
# number of rings (size 3 to 8) (size 9 to 14) (size 15 to 20)
#    0.000    2.000    3.750    1.875    0.000    1.500 
#    0.000    0.000    0.000    1.500    0.000    0.000 
#    0.000    0.000    0.000    0.000    0.000    0.000 
#
# Total GULP energy -178342.792219 kJ/mol
# GULP energy per Si atom -5573.212257 kJ/mol
# Density = 1.848213 g / cm^3
# Si number density = 18.524289 Si / 1000 Ang^3
#
#
#
# Elastic Constant Matrix: (Units=GPa)
#
#
# Indices 1 2 3 4 5 6 
#
# 1 42.3122 12.3645 18.3853 0.0000 -11.1133 0.0000
# 2 12.3645 74.2307 29.9161 0.0000 -6.3099 0.0000
# 3 18.3853 29.9161 119.3219 0.0000 -23.2826 0.0000
# 4 0.0000 0.0000 0.0000 30.1981 0.0000 1.2730
# 5 -11.1133 -6.3099 -23.2826 0.0000 31.6175 0.0000
# 6 0.0000 0.0000 0.0000 1.2730 0.0000 12.7334
#
#
#
# Elastic Compliance Matrix: (Units=1/GPa)
#
#
# Indices 1 2 3 4 5 6 
#
# 1 0.027385 -0.003129 -0.001960 0.000000 0.007558 0.000000
# 2 -0.003129 0.015345 -0.003483 0.000000 -0.000602 0.000000
# 3 -0.001960 -0.003483 0.010844 0.000000 0.006601 0.000000
# 4 0.000000 0.000000 0.000000 0.033255 0.000000 -0.003325
# 5 0.007558 -0.000602 0.006601 0.000000 0.039025 0.000000
# 6 0.000000 0.000000 0.000000 -0.003325 0.000000 0.078866
#
#
# Mechanical properties :
#
#
# Convention : Reuss Voigt Hill
#
# Bulk Modulus (GPa) = 27.44986 39.68851 33.56918
# Shear Modulus (GPa) = 21.36686 26.58976 23.97831
#
# Velocity S-wave (km/s) = 3.39993 3.79278 3.60172
# Velocity P-wave (km/s) = 5.50120 6.37588 5.95462
#
# Compressibility (1/GPa) = 0.03643006
#
# Stress axis : x y z
#
# Youngs Moduli (GPa) = 36.51641 65.16750 92.21732
#
# Poissons Ratio (x) = 0.20391 0.18078
# Poissons Ratio (y) = 0.11426 0.32116
# Poissons Ratio (z) = 0.07159 0.22695
#
# Static dielectric constant tensor:
#      x y z
#    x 1.660780 0.000000 0.036810 
#    y 0.000000 1.624690 0.000000 
#    z 0.036810 0.000000 1.726500 
# 
# From -- ./inp_files/32666.got.cif
#   From: 2010.05.17/outbox.cif.g08.bks.cpg/sg11_17_cif.got.tgz:32666.got - 2010.06.03 12:22:45.
