data_PCOD9157019
_publ_section_title
;
Structure prediction by ZEFSAII (Michael W. Deem and Ramdas Pophale) SiO2 
 PCOD9157019
Probable space group: P 21/M
;
_chemical_formula_sum "Si O2"
_cell_formula_units_Z 28
_cell_length_a 13.790209
_cell_length_b 8.571943
_cell_length_c 14.851104
_cell_angle_alpha 90.000000
_cell_angle_beta 77.531880
_cell_angle_gamma 90.000000
_cell_volume 1714.130476
_symmetry_space_group_name_H-M "P 21/M"
_symmetry_group_IT_number 11
_symmetry_cell_setting 'monoclinic'
loop_
_space_group_symop_operation_xyz
x,y,z
-x,1/2+y,-z
-x,-y,-z
x,1/2-y,z
loop_
_atom_site_type_symbol
_atom_site_label
_atom_site_fract_x
_atom_site_fract_y
_atom_site_fract_z
Si Si1 0.389750 0.935330 0.533208
Si Si2 0.083796 0.563935 0.614411
Si Si3 0.219332 0.064072 0.437782
Si Si4 0.087975 0.063910 0.106681
Si Si5 0.871506 0.561942 0.103760
Si Si6 0.869738 0.435279 0.712072
Si Si7 0.254449 0.064519 0.708555
O O1 0.387585 0.750000 0.522908
O O2 0.500000 0.000000 0.500000
O O3 0.315985 0.010743 0.474025
O O4 0.344093 0.980051 0.639805
O O5 0.092440 0.750000 0.622103
O O6 0.126264 0.512497 0.509350
O O7 0.157434 0.478754 0.669275
O O8 0.973085 0.510586 0.657463
O O9 0.210468 0.250000 0.442844
O O10 0.214154 0.003714 0.336892
O O11 0.092842 0.250000 0.117590
O O12 0.137552 0.982196 0.182046
O O13 0.134815 0.021836 0.000346
O O14 0.972259 0.014372 0.121860
O O15 0.883898 0.750000 0.107938
O O16 0.777352 0.519138 0.184053
O O17 0.874465 0.250000 0.701969
O O18 0.271222 0.250000 0.701167
#
# Coordination Sequence:
#
# PCOD9157019 Si02
#       7
#     4   4   4   4   4   4   4
#     4  11  22  38  57  79 103 129 162 205 252 301
#     4  11  20  31  46  69  98 133 170 207 244 294
#     4  11  22  36  52  72  97 129 165 206 250 302
#     4  10  19  30  46  69  98 136 177 213 247 289
#     4   9  18  31  47  69 100 135 172 211 251 293
#     4  12  22  33  46  67  99 137 173 209 248 293
#     4  10  18  31  51  75 102 134 168 207 252 299
#
# _framework density 16.334811999999999
#
# number of rings (size 3 to 8) (size 9 to 14) (size 15 to 20)
#    0.000    1.429    1.429    8.143    0.000    1.143 
#    0.000    0.000    0.000    0.000    0.000    1.000 
#    0.000    0.000    0.000    0.000    0.000    0.000 
#
# Total GULP energy -156339.862382 kJ/mol
# GULP energy per Si atom -5583.566514 kJ/mol
# Density = 1.629763 g / cm^3
# Si number density = 16.334812 Si / 1000 Ang^3
#
#
#
# Elastic Constant Matrix: (Units=GPa)
#
#
# Indices 1 2 3 4 5 6 
#
# 1 53.4902 4.4563 34.9881 0.0000 -7.7885 0.0000
# 2 4.4563 33.1044 2.6914 0.0000 4.5710 0.0000
# 3 34.9881 2.6914 101.8250 0.0000 2.4970 0.0000
# 4 0.0000 0.0000 0.0000 26.2044 0.0000 0.6089
# 5 -7.7885 4.5710 2.4970 0.0000 18.7273 0.0000
# 6 0.0000 0.0000 0.0000 0.6089 0.0000 22.2010
#
#
#
# Elastic Compliance Matrix: (Units=1/GPa)
#
#
# Indices 1 2 3 4 5 6 
#
# 1 0.027416 -0.004822 -0.009633 0.000000 0.013863 0.000000
# 2 -0.004822 0.032151 0.001052 0.000000 -0.009993 0.000000
# 3 -0.009633 0.001052 0.013251 0.000000 -0.006030 0.000000
# 4 0.000000 0.000000 0.000000 0.038186 0.000000 -0.001047
# 5 0.013863 -0.009993 -0.006030 0.000000 0.062407 0.000000
# 6 0.000000 0.000000 0.000000 -0.001047 0.000000 0.045072
#
#
# Mechanical properties :
#
#
# Convention : Reuss Voigt Hill
#
# Bulk Modulus (GPa) = 21.73317 30.29902 26.01609
# Shear Modulus (GPa) = 19.18464 23.17880 21.18172
#
# Velocity S-wave (km/s) = 3.43076 3.77102 3.60491
# Velocity P-wave (km/s) = 5.38769 6.12779 5.76962
#
# Compressibility (1/GPa) = 0.04601262
#
# Stress axis : x y z
#
# Youngs Moduli (GPa) = 36.47465 31.10340 75.46689
#
# Poissons Ratio (x) = 0.14997 0.72698
# Poissons Ratio (y) = 0.17587 -0.07939
# Poissons Ratio (z) = 0.35136 -0.03272
#
# Static dielectric constant tensor:
#      x y z
#    x 1.511770 0.000000 0.002280 
#    y 0.000000 1.542920 0.000000 
#    z 0.002280 0.000000 1.597940 
# 
# From -- ./inp_files/50991.got.cif
#   From: 2010.05.17/outbox.cif.g08.bks.cpg/sg11_26_cif.got.tgz:50991.got - 2010.06.03 12:22:45.
