data_PCOD9157205
_publ_section_title
;
Structure prediction by ZEFSAII (Michael W. Deem and Ramdas Pophale) SiO2 
 PCOD9157205
Probable space group: P 21/M
;
_chemical_formula_sum "Si O2"
_cell_formula_units_Z 28
_cell_length_a 12.570865
_cell_length_b 7.744864
_cell_length_c 15.698521
_cell_angle_alpha 90.000000
_cell_angle_beta 119.233700
_cell_angle_gamma 90.000000
_cell_volume 1333.737352
_symmetry_space_group_name_H-M "P 21/M"
_symmetry_group_IT_number 11
_symmetry_cell_setting 'monoclinic'
loop_
_space_group_symop_operation_xyz
x,y,z
-x,1/2+y,-z
-x,-y,-z
x,1/2-y,z
loop_
_atom_site_type_symbol
_atom_site_label
_atom_site_fract_x
_atom_site_fract_y
_atom_site_fract_z
Si Si1 0.414052 0.958238 0.884670
Si Si2 0.861587 0.039545 0.191489
Si Si3 0.526523 0.037873 0.283320
Si Si4 0.124488 0.044141 0.311585
Si Si5 0.264179 0.049092 0.208424
Si Si6 0.375089 0.544207 0.503495
Si Si7 0.877337 0.044983 0.001477
O O1 0.411616 0.750000 0.881503
O O2 0.273690 0.021297 0.837219
O O3 0.457700 0.018641 0.808092
O O4 0.500000 0.000000 0.000000
O O5 0.855824 0.250000 0.196325
O O6 0.989229 0.979565 0.284634
O O7 0.877764 0.991666 0.098874
O O8 0.525639 0.250000 0.280701
O O9 0.397048 0.972591 0.267887
O O10 0.617251 0.986133 0.394558
O O11 0.106696 0.250000 0.298186
O O12 0.163980 0.975121 0.233365
O O13 0.247140 0.016210 0.413510
O O14 0.274277 0.250000 0.235519
O O15 0.227224 0.037319 0.096184
O O16 0.500000 0.500000 0.500000
O O17 0.371162 0.750000 0.501718
O O18 0.861081 0.250000 0.993797
O O19 0.000000 0.000000 0.000000
#
# Coordination Sequence:
#
# PCOD9157205 Si02
#       7
#     4   4   4   4   4   4   4
#     4  10  20  38  61  82 107 145 186 223 269 326
#     4   9  19  35  54  75 107 146 180 220 273 327
#     4   9  19  35  56  79 108 144 179 220 275 327
#     4  10  19  35  54  76 110 145 178 220 274 329
#     4  10  18  32  51  74 107 141 173 216 270 324
#     4  11  21  36  56  83 113 145 185 228 275 328
#     4  11  20  31  47  74 106 138 175 217 266 324
#
# _framework density 20.993639000000002
#
# number of rings (size 3 to 8) (size 9 to 14) (size 15 to 20)
#    0.000    2.000    2.857    1.714    0.000    0.571 
#    0.000    3.571    0.000    0.000    0.000    0.000 
#    0.000    0.000    0.000    0.000    0.000    0.000 
#
# Total GULP energy -155992.876386 kJ/mol
# GULP energy per Si atom -5571.174157 kJ/mol
# Density = 2.094586 g / cm^3
# Si number density = 20.993639 Si / 1000 Ang^3
#
#
#
# Elastic Constant Matrix: (Units=GPa)
#
#
# Indices 1 2 3 4 5 6 
#
# 1 120.3423 13.7048 60.2511 0.0000 22.6675 0.0000
# 2 13.7048 29.7224 -3.8286 0.0000 -2.4253 0.0000
# 3 60.2511 -3.8286 128.7116 0.0000 17.3647 0.0000
# 4 0.0000 0.0000 0.0000 27.0083 0.0000 5.2953
# 5 22.6675 -2.4253 17.3647 0.0000 37.7872 0.0000
# 6 0.0000 0.0000 0.0000 5.2953 0.0000 11.8319
#
#
#
# Elastic Compliance Matrix: (Units=1/GPa)
#
#
# Indices 1 2 3 4 5 6 
#
# 1 0.012955 -0.007148 -0.005508 0.000000 -0.005699 0.000000
# 2 -0.007148 0.037836 0.003801 0.000000 0.004970 0.000000
# 3 -0.005508 0.003801 0.010642 0.000000 -0.001342 0.000000
# 4 0.000000 0.000000 0.000000 0.040587 0.000000 -0.018165
# 5 -0.005699 0.004970 -0.001342 0.000000 0.030818 0.000000
# 6 0.000000 0.000000 0.000000 -0.018165 0.000000 0.092647
#
#
# Mechanical properties :
#
#
# Convention : Reuss Voigt Hill
#
# Bulk Modulus (GPa) = 22.87163 46.55899 34.71531
# Shear Modulus (GPa) = 19.39728 29.23542 24.31635
#
# Velocity S-wave (km/s) = 3.04297 3.73578 3.40703
# Velocity P-wave (km/s) = 4.82332 6.39014 5.66120
#
# Compressibility (1/GPa) = 0.04372229
#
# Stress axis : x y z
#
# Youngs Moduli (GPa) = 77.19200 26.43019 93.96905
#
# Poissons Ratio (x) = 0.18892 0.51758
# Poissons Ratio (y) = 0.55175 -0.35717
# Poissons Ratio (z) = 0.42517 -0.10046
#
# Static dielectric constant tensor:
#      x y z
#    x 1.791240 0.000000 0.038170 
#    y 0.000000 1.789690 0.000000 
#    z 0.038170 0.000000 1.806390 
# 
# From -- ./inp_files/49021.got.cif
#   From: 2010.05.17/outbox.cif.g08.bks.cpg/sg11_25_cif.got.tgz:49021.got - 2010.06.03 12:22:45.
