data_PCOD9157467
_publ_section_title
;
Structure prediction by ZEFSAII (Michael W. Deem and Ramdas Pophale) SiO2 
 PCOD9157467
Probable space group: P 21/M
;
_chemical_formula_sum "Si O2"
_cell_formula_units_Z 24
_cell_length_a 12.475777
_cell_length_b 8.032605
_cell_length_c 11.783367
_cell_angle_alpha 90.000000
_cell_angle_beta 112.207414
_cell_angle_gamma 90.000000
_cell_volume 1093.253226
_symmetry_space_group_name_H-M "P 21/M"
_symmetry_group_IT_number 11
_symmetry_cell_setting 'monoclinic'
loop_
_space_group_symop_operation_xyz
x,y,z
-x,1/2+y,-z
-x,-y,-z
x,1/2-y,z
loop_
_atom_site_type_symbol
_atom_site_label
_atom_site_fract_x
_atom_site_fract_y
_atom_site_fract_z
Si Si1 0.266322 0.055661 0.104711
Si Si2 0.835279 0.448430 0.703550
Si Si3 0.613823 0.049384 0.476617
Si Si4 0.262149 0.554306 0.861382
Si Si5 0.048231 0.449804 0.642052
Si Si6 0.469060 0.953864 0.801234
O O1 0.274942 0.250000 0.133986
O O2 0.398427 0.987331 0.152689
O O3 0.191257 0.980365 0.175641
O O4 0.219343 0.030753 0.959344
O O5 0.836886 0.250000 0.688194
O O6 0.727481 0.515514 0.586062
O O7 0.955233 0.509927 0.698991
O O8 0.620454 0.250000 0.477543
O O9 0.594904 0.994441 0.340187
O O10 0.500000 0.000000 0.500000
O O11 0.271497 0.750000 0.887795
O O12 0.171428 0.525985 0.724170
O O13 0.387875 0.488940 0.871907
O O14 0.058592 0.250000 0.650519
O O15 0.000000 0.500000 0.500000
O O16 0.471106 0.750000 0.806220
#
# Coordination Sequence:
#
# PCOD9157467 Si02
#       6
#     4   4   4   4   4   4
#     4  11  22  38  61  90 123 158 203 252 299 359
#     4  10  22  39  61  88 123 161 198 245 303 359
#     4  10  18  33  56  85 117 150 188 235 293 351
#     4  11  23  41  63  87 121 163 203 247 302 358
#     4  11  24  44  67  91 120 156 201 249 298 356
#     4   9  19  36  59  87 123 160 196 246 303 356
#
# _framework density 21.952826000000002
#
# number of rings (size 3 to 8) (size 9 to 14) (size 15 to 20)
#    0.000    1.667    1.667    3.000    0.000    4.667 
#    0.000    5.833    0.000    0.000    0.000    0.000 
#    0.000    0.000    0.000    0.000    0.000    0.000 
#
# Total GULP energy -134149.042229 kJ/mol
# GULP energy per Si atom -5589.543426 kJ/mol
# Density = 2.190286 g / cm^3
# Si number density = 21.952826 Si / 1000 Ang^3
#
#
#
# Elastic Constant Matrix: (Units=GPa)
#
#
# Indices 1 2 3 4 5 6 
#
# 1 112.4585 0.3495 17.7962 0.0000 -14.9696 0.0000
# 2 0.3495 21.0606 -14.3826 0.0000 -0.7587 0.0000
# 3 17.7962 -14.3826 83.7153 0.0000 -13.5256 0.0000
# 4 0.0000 0.0000 0.0000 23.0891 0.0000 1.3122
# 5 -14.9696 -0.7587 -13.5256 0.0000 34.9678 0.0000
# 6 0.0000 0.0000 0.0000 1.3122 0.0000 21.1114
#
#
#
# Elastic Compliance Matrix: (Units=1/GPa)
#
#
# Indices 1 2 3 4 5 6 
#
# 1 0.009622 -0.001193 -0.001695 0.000000 0.003437 0.000000
# 2 -0.001193 0.054793 0.010429 0.000000 0.004712 0.000000
# 3 -0.001695 0.010429 0.014951 0.000000 0.005284 0.000000
# 4 0.000000 0.000000 0.000000 0.043464 0.000000 -0.002702
# 5 0.003437 0.004712 0.005284 0.000000 0.032215 0.000000
# 6 0.000000 0.000000 0.000000 -0.002702 0.000000 0.047536
#
#
# Mechanical properties :
#
#
# Convention : Reuss Voigt Hill
#
# Bulk Modulus (GPa) = 10.58800 24.97341 17.78070
# Shear Modulus (GPa) = 22.83284 30.06507 26.44896
#
# Velocity S-wave (km/s) = 3.22854 3.70473 3.47480
# Velocity P-wave (km/s) = 4.32799 5.44983 4.92098
#
# Compressibility (1/GPa) = 0.09444658
#
# Stress axis : x y z
#
# Youngs Moduli (GPa) = 103.93195 18.25036 66.88546
#
# Poissons Ratio (x) = 0.02178 0.11337
# Poissons Ratio (y) = 0.12403 -0.69753
# Poissons Ratio (z) = 0.17617 -0.19033
#
# Static dielectric constant tensor:
#      x y z
#    x 1.807070 0.000000 0.014280 
#    y 0.000000 1.813910 0.000000 
#    z 0.014280 0.000000 1.798020 
# 
# From -- ./inp_files/33899.got.cif
#   From: 2010.05.17/outbox.cif.g08.bks.cpg/sg11_17_cif.got.tgz:33899.got - 2010.06.03 12:22:45.
