data_PCOD9157323
_publ_section_title
;
Structure prediction by ZEFSAII (Michael W. Deem and Ramdas Pophale) SiO2 
 PCOD9157323
Probable space group: P 21/M
;
_chemical_formula_sum "Si O2"
_cell_formula_units_Z 28
_cell_length_a 23.511891
_cell_length_b 8.071919
_cell_length_c 16.957449
_cell_angle_alpha 90.000000
_cell_angle_beta 158.762873
_cell_angle_gamma 90.000000
_cell_volume 1165.755966
_symmetry_space_group_name_H-M "P 21/M"
_symmetry_group_IT_number 11
_symmetry_cell_setting 'monoclinic'
loop_
_space_group_symop_operation_xyz
x,y,z
-x,1/2+y,-z
-x,-y,-z
x,1/2-y,z
loop_
_atom_site_type_symbol
_atom_site_label
_atom_site_fract_x
_atom_site_fract_y
_atom_site_fract_z
Si Si1 0.834212 0.056126 0.625878
Si Si2 0.032148 0.942933 0.359846
Si Si3 0.836796 0.055517 0.246310
Si Si4 0.612917 0.448564 0.461058
Si Si5 0.377440 0.553398 0.273447
Si Si6 0.135713 0.951263 0.081081
Si Si7 0.656377 0.554601 0.153565
O O1 0.807450 0.250000 0.573066
O O2 0.908290 0.975393 0.644629
O O3 0.675632 0.986084 0.458793
O O4 0.968486 0.038433 0.865881
O O5 0.992633 0.750000 0.298057
O O6 0.194818 0.956987 0.618925
O O7 0.887764 0.019691 0.221734
O O8 0.815940 0.250000 0.227784
O O9 0.689137 0.972518 0.101356
O O10 0.000000 0.000000 0.500000
O O11 0.620970 0.250000 0.468651
O O12 0.445081 0.494045 0.278306
O O13 0.740057 0.502247 0.691654
O O14 0.500000 0.500000 0.500000
O O15 0.372816 0.750000 0.265836
O O16 0.214606 0.494686 0.099660
O O17 0.119273 0.750000 0.062089
O O18 0.674686 0.750000 0.190865
O O19 0.500000 0.500000 0.000000
#
# Coordination Sequence:
#
# PCOD9157323 Si02
#       7
#     4   4   4   4   4   4   4
#     4  10  21  34  51  74 104 139 176 215 260 308
#     4  10  20  36  54  77 108 143 179 216 258 311
#     4  10  18  32  55  81 106 136 170 207 249 301
#     4   9  18  33  50  73 101 134 175 220 264 310
#     4   9  17  30  48  71  94 123 162 210 261 310
#     4   9  18  31  49  72 100 131 174 223 264 309
#     4  11  21  36  59  86 111 138 171 211 255 307
#
# _framework density 24.018750000000001
#
# number of rings (size 3 to 8) (size 9 to 14) (size 15 to 20)
#    0.000    2.286    0.000    6.429    0.000    4.571 
#    0.000    1.429    0.000    5.143    0.000    0.000 
#    0.000    0.000    0.000    0.000    0.000    0.000 
#
# Total GULP energy -156152.988223 kJ/mol
# GULP energy per Si atom -5576.892437 kJ/mol
# Density = 2.396408 g / cm^3
# Si number density = 24.018750 Si / 1000 Ang^3
#
#
#
# Elastic Constant Matrix: (Units=GPa)
#
#
# Indices 1 2 3 4 5 6 
#
# 1 181.2140 25.1388 49.4227 0.0000 64.6213 0.0000
# 2 25.1388 49.9218 -15.6977 0.0000 9.0620 0.0000
# 3 49.4227 -15.6977 70.8533 0.0000 33.9136 0.0000
# 4 0.0000 0.0000 0.0000 14.4834 0.0000 12.5171
# 5 64.6213 9.0620 33.9136 0.0000 45.7400 0.0000
# 6 0.0000 0.0000 0.0000 12.5171 0.0000 22.7209
#
#
#
# Elastic Compliance Matrix: (Units=1/GPa)
#
#
# Indices 1 2 3 4 5 6 
#
# 1 0.011728 -0.004130 -0.002413 0.000000 -0.013963 0.000000
# 2 -0.004130 0.028385 0.014057 0.000000 -0.010211 0.000000
# 3 -0.002413 0.014057 0.028852 0.000000 -0.020768 0.000000
# 4 0.000000 0.000000 0.000000 0.131793 0.000000 -0.072605
# 5 -0.013963 -0.010211 -0.020768 0.000000 0.059010 0.000000
# 6 0.000000 0.000000 0.000000 -0.072605 0.000000 0.084011
#
#
# Mechanical properties :
#
#
# Convention : Reuss Voigt Hill
#
# Bulk Modulus (GPa) = 11.90575 46.63518 29.27046
# Shear Modulus (GPa) = 14.01546 32.79722 23.40634
#
# Velocity S-wave (km/s) = 2.41824 3.69925 3.12509
# Velocity P-wave (km/s) = 3.57279 6.14038 5.02340
#
# Compressibility (1/GPa) = 0.08399306
#
# Stress axis : x y z
#
# Youngs Moduli (GPa) = 85.26264 35.22993 34.66011
#
# Poissons Ratio (x) = 0.14551 0.08363
# Poissons Ratio (y) = 0.35215 -0.48722
# Poissons Ratio (z) = 0.20574 -0.49523
#
# Static dielectric constant tensor:
#      x y z
#    x 9.964360 0.000000 -0.124580 
#    y 0.000000 1.813630 0.000000 
#    z -0.124580 0.000000 1.924830 
# 
# From -- ./inp_files/66906.got.cif
#   From: 2010.05.17/outbox.cif.g08.bks.cpg/sg11_34_cif.got.tgz:66906.got - 2010.06.03 12:22:45.
