data_PCOD9157334
_publ_section_title
;
Structure prediction by ZEFSAII (Michael W. Deem and Ramdas Pophale) SiO2 
 PCOD9157334
Probable space group: P 21/M
;
_chemical_formula_sum "Si O2"
_cell_formula_units_Z 32
_cell_length_a 14.774663
_cell_length_b 15.994318
_cell_length_c 9.066688
_cell_angle_alpha 90.000000
_cell_angle_beta 126.248499
_cell_angle_gamma 90.000000
_cell_volume 1727.885117
_symmetry_space_group_name_H-M "P 21/M"
_symmetry_group_IT_number 11
_symmetry_cell_setting 'monoclinic'
loop_
_space_group_symop_operation_xyz
x,y,z
-x,1/2+y,-z
-x,-y,-z
x,1/2-y,z
loop_
_atom_site_type_symbol
_atom_site_label
_atom_site_fract_x
_atom_site_fract_y
_atom_site_fract_z
Si Si1 0.935177 0.506944 0.092236
Si Si2 0.639083 0.157413 0.884025
Si Si3 0.061502 0.655650 0.373227
Si Si4 0.536894 0.406947 0.071309
Si Si5 0.302273 0.602417 0.518683
Si Si6 0.541801 0.842016 0.710670
Si Si7 0.317023 0.004742 0.260276
Si Si8 0.898258 0.343766 0.238219
O O1 0.949226 0.420216 0.195260
O O2 0.983101 0.583967 0.232140
O O3 0.803749 0.519485 0.930343
O O4 0.000000 0.500000 0.000000
O O5 0.621501 0.250000 0.801654
O O6 0.765718 0.155825 0.071584
O O7 0.556529 0.144130 0.942339
O O8 0.631290 0.076834 0.771690
O O9 0.019577 0.750000 0.307613
O O10 0.182671 0.645745 0.410737
O O11 0.081225 0.644927 0.567607
O O12 0.654308 0.414180 0.274195
O O13 0.453969 0.364573 0.110156
O O14 0.500000 0.500000 0.000000
O O15 0.407254 0.654992 0.557010
O O16 0.298010 0.521238 0.411395
O O17 0.585829 0.750000 0.721956
O O18 0.603303 0.916071 0.684767
O O19 0.939595 0.250000 0.238012
#
# Coordination Sequence:
#
# PCOD9157334 Si02
#       8
#     4   4   4   4   4   4   4   4
#     4  11  23  38  56  86 123 155 194 239 291 346
#     4  10  18  32  55  85 115 147 187 238 287 335
#     4  11  21  37  61  88 115 151 196 242 292 344
#     4  10  19  34  57  85 116 149 187 237 296 344
#     4  10  21  36  60  84 118 146 194 242 290 339
#     4  10  21  35  58  84 113 152 191 232 286 345
#     4  11  22  39  56  85 120 156 191 235 290 351
#     4   9  19  36  59  84 111 148 194 243 289 335
#
# _framework density 18.519749999999998
#
# number of rings (size 3 to 8) (size 9 to 14) (size 15 to 20)
#    0.750    1.000    3.750    1.500    0.000    2.000 
#    0.000    0.000    0.000    0.750    0.000    0.000 
#    0.000    0.000    0.000    0.000    0.000    0.000 
#
# Total GULP energy -178346.190905 kJ/mol
# GULP energy per Si atom -5573.318466 kJ/mol
# Density = 1.847760 g / cm^3
# Si number density = 18.519750 Si / 1000 Ang^3
#
#
#
# Elastic Constant Matrix: (Units=GPa)
#
#
# Indices 1 2 3 4 5 6 
#
# 1 59.1484 49.0642 14.2688 0.0000 -11.2575 0.0000
# 2 49.0642 168.2341 37.5660 0.0000 -7.1621 0.0000
# 3 14.2688 37.5660 39.6257 0.0000 -6.1522 0.0000
# 4 0.0000 0.0000 0.0000 18.4136 0.0000 1.0689
# 5 -11.2575 -7.1621 -6.1522 0.0000 24.8973 0.0000
# 6 0.0000 0.0000 0.0000 1.0689 0.0000 24.9446
#
#
#
# Elastic Compliance Matrix: (Units=1/GPa)
#
#
# Indices 1 2 3 4 5 6 
#
# 1 0.024193 -0.006395 -0.001286 0.000000 0.008782 0.000000
# 2 -0.006395 0.009235 -0.006747 0.000000 -0.001902 0.000000
# 3 -0.001286 -0.006747 0.032969 0.000000 0.005624 0.000000
# 4 0.000000 0.000000 0.000000 0.054443 0.000000 -0.002333
# 5 0.008782 -0.001902 0.005624 0.000000 0.044978 0.000000
# 6 0.000000 0.000000 0.000000 -0.002333 0.000000 0.040189
#
#
# Mechanical properties :
#
#
# Convention : Reuss Voigt Hill
#
# Bulk Modulus (GPa) = 26.63779 52.08959 39.36369
# Shear Modulus (GPa) = 20.21216 24.72505 22.46860
#
# Velocity S-wave (km/s) = 3.30719 3.65782 3.48692
# Velocity P-wave (km/s) = 5.38498 6.78432 6.12475
#
# Compressibility (1/GPa) = 0.03754065
#
# Stress axis : x y z
#
# Youngs Moduli (GPa) = 41.33503 108.28690 30.33142
#
# Poissons Ratio (x) = 0.69245 0.03900
# Poissons Ratio (y) = 0.26432 0.20466
# Poissons Ratio (z) = 0.05315 0.73066
#
# Static dielectric constant tensor:
#      x y z
#    x 1.631380 0.000000 -0.009160 
#    y 0.000000 1.629260 0.000000 
#    z -0.009160 0.000000 1.666620 
# 
# From -- ./inp_files/21580.got.cif
#   From: 2010.05.17/outbox.cif.g08.bks.cpg/sg11_11_cif.got.tgz:21580.got - 2010.06.03 12:22:45.
