data_PCOD9157264
_publ_section_title
;
Structure prediction by ZEFSAII (Michael W. Deem and Ramdas Pophale) SiO2 
 PCOD9157264
Probable space group: P 21/M
;
_chemical_formula_sum "Si O2"
_cell_formula_units_Z 16
_cell_length_a 10.376660
_cell_length_b 5.462574
_cell_length_c 15.210538
_cell_angle_alpha 90.000000
_cell_angle_beta 134.449986
_cell_angle_gamma 90.000000
_cell_volume 615.479744
_symmetry_space_group_name_H-M "P 21/M"
_symmetry_group_IT_number 11
_symmetry_cell_setting 'monoclinic'
loop_
_space_group_symop_operation_xyz
x,y,z
-x,1/2+y,-z
-x,-y,-z
x,1/2-y,z
loop_
_atom_site_type_symbol
_atom_site_label
_atom_site_fract_x
_atom_site_fract_y
_atom_site_fract_z
Si Si1 0.901933 0.750000 0.981857
Si Si2 0.874918 0.750000 0.540089
Si Si3 0.466285 0.750000 0.229569
Si Si4 0.693700 0.750000 0.618365
Si Si5 0.469359 0.250000 0.930794
Si Si6 0.508512 0.750000 0.702246
Si Si7 0.915279 0.750000 0.349865
Si Si8 0.840549 0.250000 0.764128
O O1 0.949141 0.750000 0.107565
O O2 0.706260 0.750000 0.844811
O O3 0.000000 0.500000 0.000000
O O4 0.977186 0.500614 0.617371
O O5 0.691450 0.750000 0.512356
O O6 0.887963 0.750000 0.441688
O O7 0.407806 0.750000 0.099781
O O8 0.571615 0.498261 0.299118
O O9 0.300635 0.750000 0.219917
O O10 0.522626 0.750000 0.603175
O O11 0.792987 0.502260 0.694771
O O12 0.269802 0.250000 0.793079
O O13 0.500000 0.500000 0.000000
#
# Coordination Sequence:
#
# PCOD9157264 Si02
#       8
#     2   2   2   2   2   2   2   2
#     4  12  16  30  43  70 116 153 192 225 285 350
#     4  10  21  42  69  93 118 161 200 269 314 353
#     4  10  20  37  55  71 114 165 185 236 301 344
#     4  10  18  32  53  86 116 141 186 245 303 353
#     4  12  26  47  61  91 122 165 216 259 290 367
#     4  10  19  33  50  80 113 155 187 239 290 377
#     4  10  23  45  65  89 123 158 216 253 317 355
#     4  10  19  32  48  80 118 152 184 240 292 375
#
# _framework density 25.995982000000001
#
# number of rings (size 3 to 8) (size 9 to 14) (size 15 to 20)
#    0.000    1.500    5.000    2.250    0.000    0.000 
#   18.000    0.000    0.000    6.000    0.000    0.000 
#    0.000    0.000    0.000    0.000    0.000    0.000 
#
# Total GULP energy -89452.028695 kJ/mol
# GULP energy per Si atom -5590.751793 kJ/mol
# Density = 2.593681 g / cm^3
# Si number density = 25.995982 Si / 1000 Ang^3
#
#
#
# Elastic Constant Matrix: (Units=GPa)
#
#
# Indices 1 2 3 4 5 6 
#
# 1 107.7661 50.7764 47.1407 0.0000 -37.0907 0.0000
# 2 50.7764 278.6397 63.8001 0.0000 -18.1166 0.0000
# 3 47.1407 63.8001 111.7563 0.0000 -19.7727 0.0000
# 4 0.0000 0.0000 0.0000 84.0737 0.0000 -54.9650
# 5 -37.0907 -18.1166 -19.7727 0.0000 55.6170 0.0000
# 6 0.0000 0.0000 0.0000 -54.9650 0.0000 163.2024
#
#
#
# Elastic Compliance Matrix: (Units=1/GPa)
#
#
# Indices 1 2 3 4 5 6 
#
# 1 0.014215 -0.001184 -0.003960 0.000000 0.007686 0.000000
# 2 -0.001184 0.004242 -0.001940 0.000000 -0.000097 0.000000
# 3 -0.003960 -0.001940 0.011895 0.000000 0.000956 0.000000
# 4 0.000000 0.000000 0.000000 0.015253 0.000000 0.005137
# 5 0.007686 -0.000097 0.000956 0.000000 0.023414 0.000000
# 6 0.000000 0.000000 0.000000 0.005137 0.000000 0.007857
#
#
# Mechanical properties :
#
#
# Convention : Reuss Voigt Hill
#
# Bulk Modulus (GPa) = 61.78729 91.28853 76.53791
# Shear Modulus (GPa) = 51.84582 83.00830 67.42706
#
# Velocity S-wave (km/s) = 4.47069 5.65690 5.09841
# Velocity P-wave (km/s) = 7.10416 8.82383 8.01028
#
# Compressibility (1/GPa) = 0.01618456
#
# Stress axis : x y z
#
# Youngs Moduli (GPa) = 70.34815 235.71421 84.06818
#
# Poissons Ratio (x) = 0.27905 0.33294
# Poissons Ratio (y) = 0.08328 0.16307
# Poissons Ratio (z) = 0.27861 0.45723
#
# Static dielectric constant tensor:
#      x y z
#    x 2.067010 0.000000 -0.006140 
#    y 0.000000 2.038910 0.000000 
#    z -0.006140 0.000000 2.142220 
# 
# From -- ./inp_files/48573.got.cif
#   From: 2010.05.17/outbox.cif.g08.bks.cpg/sg11_25_cif.got.tgz:48573.got - 2010.06.03 12:22:45.
