data_PCOD9157344
_publ_section_title
;
Structure prediction by ZEFSAII (Michael W. Deem and Ramdas Pophale) SiO2 
 PCOD9157344
Probable space group: P 21/M
;
_chemical_formula_sum "Si O2"
_cell_formula_units_Z 32
_cell_length_a 16.492330
_cell_length_b 15.382667
_cell_length_c 10.362323
_cell_angle_alpha 90.000000
_cell_angle_beta 142.759054
_cell_angle_gamma 90.000000
_cell_volume 1590.914628
_symmetry_space_group_name_H-M "P 21/M"
_symmetry_group_IT_number 11
_symmetry_cell_setting 'monoclinic'
loop_
_space_group_symop_operation_xyz
x,y,z
-x,1/2+y,-z
-x,-y,-z
x,1/2-y,z
loop_
_atom_site_type_symbol
_atom_site_label
_atom_site_fract_x
_atom_site_fract_y
_atom_site_fract_z
Si Si1 0.956420 0.592971 0.106076
Si Si2 0.929404 0.848587 0.567259
Si Si3 0.376693 0.644402 0.016039
Si Si4 0.671415 0.854622 0.688604
Si Si5 0.898912 0.144098 0.451919
Si Si6 0.625403 0.355166 0.684497
Si Si7 0.325398 0.143583 0.606636
Si Si8 0.914832 0.393662 0.991345
O O1 0.958725 0.491212 0.079652
O O2 0.046717 0.615814 0.341660
O O3 0.801397 0.617295 0.931475
O O4 0.011988 0.637286 0.045619
O O5 0.893123 0.750000 0.483686
O O6 0.795022 0.889117 0.456772
O O7 0.001567 0.888363 0.535120
O O8 0.035944 0.843835 0.819222
O O9 0.376656 0.750000 0.013658
O O10 0.251028 0.614406 0.773402
O O11 0.359902 0.620772 0.145597
O O12 0.525506 0.617217 0.162303
O O13 0.667456 0.750000 0.682717
O O14 0.523685 0.884140 0.546035
O O15 0.691895 0.882923 0.565113
O O16 0.897996 0.250000 0.446331
O O17 0.629970 0.250000 0.682227
O O18 0.754772 0.389989 0.774796
O O19 0.319711 0.250000 0.598659
#
# Coordination Sequence:
#
# PCOD9157344 Si02
#       8
#     4   4   4   4   4   4   4   4
#     4  11  24  36  49  77 114 149 175 211 270 318
#     4  10  18  32  56  80  99 131 181 226 260 308
#     4   8  14  28  50  78 103 125 163 216 268 307
#     4   9  17  32  55  79 103 134 176 224 269 312
#     4  10  20  34  54  79 107 133 167 221 274 315
#     4   9  17  32  57  82  99 128 183 232 259 304
#     4   8  14  26  51  79  98 125 169 218 259 302
#     4  11  22  36  53  76 107 148 186 217 246 317
#
# _framework density 20.114215999999999
#
# number of rings (size 3 to 8) (size 9 to 14) (size 15 to 20)
#    0.000    2.500    2.500    2.250    0.000    2.500 
#    0.000    1.250    0.000    3.750    0.000    0.000 
#    0.000    0.000    0.000    0.000    0.000    0.000 
#
# Total GULP energy -178462.679964 kJ/mol
# GULP energy per Si atom -5576.958749 kJ/mol
# Density = 2.006844 g / cm^3
# Si number density = 20.114216 Si / 1000 Ang^3
#
#
#
# Elastic Constant Matrix: (Units=GPa)
#
#
# Indices 1 2 3 4 5 6 
#
# 1 73.6031 -2.2598 30.3743 0.0000 23.2380 0.0000
# 2 -2.2598 21.1671 -2.8612 0.0000 0.1369 0.0000
# 3 30.3743 -2.8612 101.7406 0.0000 25.8779 0.0000
# 4 0.0000 0.0000 0.0000 8.3518 0.0000 4.4877
# 5 23.2380 0.1369 25.8779 0.0000 36.3548 0.0000
# 6 0.0000 0.0000 0.0000 4.4877 0.0000 11.4215
#
#
#
# Elastic Compliance Matrix: (Units=1/GPa)
#
#
# Indices 1 2 3 4 5 6 
#
# 1 0.017765 0.001566 -0.002894 0.000000 -0.009302 0.000000
# 2 0.001566 0.047618 0.001431 0.000000 -0.002199 0.000000
# 3 -0.002894 0.001431 0.012533 0.000000 -0.007077 0.000000
# 4 0.000000 0.000000 0.000000 0.151780 0.000000 -0.059637
# 5 -0.009302 -0.002199 -0.007077 0.000000 0.038498 0.000000
# 6 0.000000 0.000000 0.000000 -0.059637 0.000000 0.110987
#
#
# Mechanical properties :
#
#
# Convention : Reuss Voigt Hill
#
# Bulk Modulus (GPa) = 12.80048 27.44636 20.12342
# Shear Modulus (GPa) = 12.34516 22.64276 17.49396
#
# Velocity S-wave (km/s) = 2.48009 3.35880 2.95232
# Velocity P-wave (km/s) = 3.81823 5.35882 4.65273
#
# Compressibility (1/GPa) = 0.07812207
#
# Stress axis : x y z
#
# Youngs Moduli (GPa) = 56.28912 21.00046 79.78844
#
# Poissons Ratio (x) = -0.03288 0.23090
# Poissons Ratio (y) = -0.08813 -0.11417
# Poissons Ratio (z) = 0.16289 -0.03005
#
# Static dielectric constant tensor:
#      x y z
#    x 1.725690 0.000000 0.033870 
#    y 0.000000 1.745500 0.000000 
#    z 0.033870 0.000000 1.704650 
# 
# From -- ./inp_files/23116.got.cif
#   From: 2010.05.17/outbox.cif.g08.bks.cpg/sg11_12_cif.got.tgz:23116.got - 2010.06.03 12:22:45.
