data_PCOD9157681
_publ_section_title
;
Structure prediction by ZEFSAII (Michael W. Deem and Ramdas Pophale) SiO2 
 PCOD9157681
Probable space group: P 21/M
;
_chemical_formula_sum "Si O2"
_cell_formula_units_Z 24
_cell_length_a 12.875705
_cell_length_b 17.625366
_cell_length_c 12.790033
_cell_angle_alpha 90.000000
_cell_angle_beta 24.046178
_cell_angle_gamma 90.000000
_cell_volume 1182.713190
_symmetry_space_group_name_H-M "P 21/M"
_symmetry_group_IT_number 11
_symmetry_cell_setting 'monoclinic'
loop_
_space_group_symop_operation_xyz
x,y,z
-x,1/2+y,-z
-x,-y,-z
x,1/2-y,z
loop_
_atom_site_type_symbol
_atom_site_label
_atom_site_fract_x
_atom_site_fract_y
_atom_site_fract_z
Si Si1 0.215755 0.097616 0.227645
Si Si2 0.315750 0.750000 0.987331
Si Si3 0.750999 0.947735 0.249260
Si Si4 0.880695 0.750000 0.563550
Si Si5 0.958105 0.396288 0.827290
Si Si6 0.215120 0.476197 0.423070
Si Si7 0.644479 0.946350 0.126045
O O1 0.131458 0.177848 0.348302
O O2 0.370497 0.057737 0.181711
O O3 0.331583 0.098318 0.005218
O O4 0.975888 0.041484 0.437559
O O5 0.231342 0.825336 0.001290
O O6 0.133596 0.750000 0.258514
O O7 0.613209 0.750000 0.744007
O O8 0.699518 0.906827 0.185231
O O9 0.835045 0.895701 0.269483
O O10 0.500000 0.000000 0.500000
O O11 0.000000 0.000000 0.000000
O O12 0.087097 0.403880 0.595101
O O13 0.815663 0.477421 0.964311
O O14 0.367174 0.517048 0.375358
#
# Coordination Sequence:
#
# PCOD9157681 Si02
#       7
#     4   2   4   2   4   4   4
#     4  10  22  34  56  87 118 159 199 247 299 358
#     4  12  26  40  61  87 124 164 196 247 309 365
#     4  10  20  36  61  89 116 151 195 250 298 349
#     4  12  26  42  59  85 126 166 198 243 309 377
#     4  10  21  37  59  90 121 156 204 252 304 357
#     4  10  18  35  59  86 117 151 203 256 293 350
#     4  10  20  35  60  88 119 156 203 251 300 352
#
# _framework density 20.292325000000002
#
# number of rings (size 3 to 8) (size 9 to 14) (size 15 to 20)
#    0.000    1.667    3.333    1.500    2.333    0.000 
#    0.000    0.833    0.000    0.000    0.000    0.000 
#    0.000    0.000    0.000    0.000    0.000    0.000 
#
# Total GULP energy -133635.090206 kJ/mol
# GULP energy per Si atom -5568.128759 kJ/mol
# Density = 2.024614 g / cm^3
# Si number density = 20.292325 Si / 1000 Ang^3
#
#
#
# Elastic Constant Matrix: (Units=GPa)
#
#
# Indices 1 2 3 4 5 6 
#
# 1 125.2555 28.1635 7.6570 0.0000 6.2427 0.0000
# 2 28.1635 31.7378 5.6421 0.0000 17.9004 0.0000
# 3 7.6570 5.6421 58.5521 0.0000 -6.2279 0.0000
# 4 0.0000 0.0000 0.0000 11.4037 0.0000 -0.3606
# 5 6.2427 17.9004 -6.2279 0.0000 28.4903 0.0000
# 6 0.0000 0.0000 0.0000 -0.3606 0.0000 13.6280
#
#
#
# Elastic Compliance Matrix: (Units=1/GPa)
#
#
# Indices 1 2 3 4 5 6 
#
# 1 0.010514 -0.012650 0.000455 0.000000 0.005744 0.000000
# 2 -0.012650 0.068146 -0.009390 0.000000 -0.042097 0.000000
# 3 0.000455 -0.009390 0.018982 0.000000 0.009949 0.000000
# 4 0.000000 0.000000 0.000000 0.087764 0.000000 0.002322
# 5 0.005744 -0.042097 0.009949 0.000000 0.062465 0.000000
# 6 0.000000 0.000000 0.000000 0.002322 0.000000 0.073440
#
#
# Mechanical properties :
#
#
# Convention : Reuss Voigt Hill
#
# Bulk Modulus (GPa) = 18.35807 33.16341 25.76074
# Shear Modulus (GPa) = 13.06713 22.30993 17.68853
#
# Velocity S-wave (km/s) = 2.54036 3.31936 2.95564
# Velocity P-wave (km/s) = 4.20369 5.57397 4.93661
#
# Compressibility (1/GPa) = 0.05447195
#
# Stress axis : x y z
#
# Youngs Moduli (GPa) = 95.11097 14.67433 52.68043
#
# Poissons Ratio (x) = 0.18564 -0.02397
# Poissons Ratio (y) = 1.20320 0.49466
# Poissons Ratio (z) = -0.04328 0.13779
#
# Static dielectric constant tensor:
#      x y z
#    x 1.854000 0.000000 -0.086870 
#    y 0.000000 1.598330 0.000000 
#    z -0.086870 0.000000 2.509110 
# 
# From -- ./inp_files/4657.got.cif
#   From: 2010.05.17/outbox.cif.g08.bks.cpg/sg11_3_cif.got.tgz:4657.got - 2010.06.03 12:22:45.
