data_PCOD9157521
_publ_section_title
;
Structure prediction by ZEFSAII (Michael W. Deem and Ramdas Pophale) SiO2 
 PCOD9157521
Probable space group: P 21/M
;
_chemical_formula_sum "Si O2"
_cell_formula_units_Z 30
_cell_length_a 9.082882
_cell_length_b 18.960693
_cell_length_c 16.918283
_cell_angle_alpha 90.000000
_cell_angle_beta 151.396475
_cell_angle_gamma 90.000000
_cell_volume 1394.887579
_symmetry_space_group_name_H-M "P 21/M"
_symmetry_group_IT_number 11
_symmetry_cell_setting 'monoclinic'
loop_
_space_group_symop_operation_xyz
x,y,z
-x,1/2+y,-z
-x,-y,-z
x,1/2-y,z
loop_
_atom_site_type_symbol
_atom_site_label
_atom_site_fract_x
_atom_site_fract_y
_atom_site_fract_z
Si Si1 0.444235 0.750000 0.094187
Si Si2 0.491263 0.387137 0.986438
Si Si3 0.496287 0.055138 0.605309
Si Si4 0.500556 0.667144 0.669476
Si Si5 0.025047 0.554350 0.889254
Si Si6 0.165960 0.579457 0.391861
Si Si7 0.678329 0.372867 0.835034
Si Si8 0.647454 0.667024 0.911440
O O1 0.449027 0.812270 0.028068
O O2 0.429382 0.811824 0.156901
O O3 0.169749 0.413520 0.800261
O O4 0.760838 0.438335 0.085483
O O5 0.460478 0.377474 0.065197
O O6 0.593564 0.089282 0.567703
O O7 0.446166 0.106575 0.655320
O O8 0.243458 0.995918 0.467503
O O9 0.799168 0.011038 0.775334
O O10 0.560165 0.750000 0.687662
O O11 0.229708 0.639502 0.486787
O O12 0.457521 0.652925 0.741914
O O13 0.800535 0.622517 0.786687
O O14 0.233957 0.561362 0.065890
O O15 0.997647 0.348718 0.944004
O O16 0.624125 0.750000 0.918737
#
# Coordination Sequence:
#
# PCOD9157521 Si02
#       8
#     2   4   4   4   4   4   4   4
#     4  10  22  34  58  94 128 142 194 262 324 336
#     4  11  21  36  62  97 126 149 199 265 314 349
#     4  10  20  40  63  84 125 166 219 236 294 372
#     4   9  20  37  61  85 123 165 206 242 305 375
#     4   9  21  35  61  92 120 159 202 260 305 349
#     4  10  22  38  61  90 124 168 202 251 295 370
#     4  10  18  36  61  90 118 158 202 256 287 373
#     4  10  18  33  60  92 117 153 200 249 302 369
#
# _framework density 21.507109
#
# number of rings (size 3 to 8) (size 9 to 14) (size 15 to 20)
#    0.000    2.133    2.667    0.400    6.533    0.533 
#    1.200    2.667   17.600    0.000    0.000    0.000 
#    0.000    0.000    0.000    0.000    0.000    0.000 
#
# Total GULP energy -167147.664414 kJ/mol
# GULP energy per Si atom -5571.588814 kJ/mol
# Density = 2.145816 g / cm^3
# Si number density = 21.507109 Si / 1000 Ang^3
#
#
#
# Elastic Constant Matrix: (Units=GPa)
#
#
# Indices 1 2 3 4 5 6 
#
# 1 106.9710 18.8091 20.3351 0.0000 -26.1964 0.0000
# 2 18.8091 44.9450 20.1770 0.0000 -17.1797 0.0000
# 3 20.3351 20.1770 42.7045 0.0000 -24.6612 0.0000
# 4 0.0000 0.0000 0.0000 9.8904 0.0000 -13.2811
# 5 -26.1964 -17.1797 -24.6612 0.0000 33.4904 0.0000
# 6 0.0000 0.0000 0.0000 -13.2811 0.0000 43.4800
#
#
#
# Elastic Compliance Matrix: (Units=1/GPa)
#
#
# Indices 1 2 3 4 5 6 
#
# 1 0.011671 -0.001743 0.000038 0.000000 0.008263 0.000000
# 2 -0.001743 0.029825 -0.009071 0.000000 0.007256 0.000000
# 3 0.000038 -0.009071 0.043522 0.000000 0.027424 0.000000
# 4 0.000000 0.000000 0.000000 0.171421 0.000000 0.052361
# 5 0.008263 0.007256 0.027424 0.000000 0.060239 0.000000
# 6 0.000000 0.000000 0.000000 0.052361 0.000000 0.038993
#
#
# Mechanical properties :
#
#
# Convention : Reuss Voigt Hill
#
# Bulk Modulus (GPa) = 15.75679 34.80699 25.28189
# Shear Modulus (GPa) = 12.55088 26.39209 19.47148
#
# Velocity S-wave (km/s) = 2.41834 3.50685 3.01217
# Velocity P-wave (km/s) = 3.89102 5.71108 4.88653
#
# Compressibility (1/GPa) = 0.06346472
#
# Stress axis : x y z
#
# Youngs Moduli (GPa) = 85.68133 33.52922 22.97695
#
# Poissons Ratio (x) = 0.05843 -0.00086
# Poissons Ratio (y) = 0.14932 0.20843
# Poissons Ratio (z) = -0.00322 0.30415
#
# Static dielectric constant tensor:
#      x y z
#    x 1.786130 0.000000 -0.006270 
#    y 0.000000 1.780630 0.000000 
#    z -0.006270 0.000000 1.831410 
# 
# From -- ./inp_files/58417.got.cif
#   From: 2010.05.17/outbox.cif.g08.bks.cpg/sg11_30_cif.got.tgz:58417.got - 2010.06.03 12:22:45.
