data_PCOD9157954
_publ_section_title
;
Structure prediction by ZEFSAII (Michael W. Deem and Ramdas Pophale) SiO2 
 PCOD9157954
Probable space group: P 21/M
;
_chemical_formula_sum "Si O2"
_cell_formula_units_Z 28
_cell_length_a 24.743372
_cell_length_b 7.386353
_cell_length_c 26.971189
_cell_angle_alpha 90.000000
_cell_angle_beta 163.854582
_cell_angle_gamma 90.000000
_cell_volume 1370.732811
_symmetry_space_group_name_H-M "P 21/M"
_symmetry_group_IT_number 11
_symmetry_cell_setting 'monoclinic'
loop_
_space_group_symop_operation_xyz
x,y,z
-x,1/2+y,-z
-x,-y,-z
x,1/2-y,z
loop_
_atom_site_type_symbol
_atom_site_label
_atom_site_fract_x
_atom_site_fract_y
_atom_site_fract_z
Si Si1 0.924213 0.529211 0.277072
Si Si2 0.517210 0.970789 0.870069
Si Si3 0.536720 0.528032 0.678907
Si Si4 0.038318 0.466582 0.975853
Si Si5 0.096245 0.534453 0.532082
Si Si6 0.348910 0.529774 0.616303
Si Si7 0.649077 0.466582 0.586612
O O1 0.917566 0.750000 0.270686
O O2 0.965926 0.470124 0.370655
O O3 0.123209 0.475823 0.424148
O O4 0.721139 0.467978 0.073713
O O5 0.523072 0.750000 0.876193
O O6 0.319890 0.029877 0.724618
O O7 0.473974 0.024176 0.774914
O O8 0.535858 0.750000 0.678621
O O9 0.442707 0.469243 0.647569
O O10 0.422401 0.467132 0.529318
O O11 0.756851 0.467130 0.863767
O O12 0.042183 0.250000 0.973634
O O13 0.856693 0.539603 0.785564
O O14 0.000000 0.500000 0.000000
O O15 0.108022 0.750000 0.536008
O O16 0.000000 0.500000 0.500000
O O17 0.348743 0.750000 0.616248
O O18 0.500000 0.500000 0.500000
O O19 0.663464 0.250000 0.594916
#
# Coordination Sequence:
#
# PCOD9157954 Si02
#       7
#     4   4   4   4   4   4   4
#     4   8  14  25  41  61  87 117 145 177 217 258
#     4   8  14  25  41  61  87 117 145 177 217 258
#     4   9  17  28  41  62  90 112 140 186 224 260
#     4  10  19  30  45  64  87 116 145 175 217 264
#     4   9  17  28  42  64  92 118 146 178 212 252
#     4   8  14  24  39  60  86 114 142 176 222 264
#     4  10  19  30  45  64  87 116 145 175 217 264
#
# _framework density 20.427030999999999
#
# number of rings (size 3 to 8) (size 9 to 14) (size 15 to 20)
#    0.000    3.143    1.429    1.714    0.000    1.714 
#    0.000    5.714    0.000    0.000    0.000    8.000 
#    0.000    0.000    0.000    0.000    0.000    0.000 
#
# Total GULP energy -156167.995954 kJ/mol
# GULP energy per Si atom -5577.428427 kJ/mol
# Density = 2.038054 g / cm^3
# Si number density = 20.427031 Si / 1000 Ang^3
#
#
#
# Elastic Constant Matrix: (Units=GPa)
#
#
# Indices 1 2 3 4 5 6 
#
# 1 220.6596 0.2759 146.9799 0.0000 8.0136 0.0000
# 2 0.2759 70.5338 9.9852 0.0000 -1.9695 0.0000
# 3 146.9799 9.9852 254.2722 0.0000 -14.8295 0.0000
# 4 0.0000 0.0000 0.0000 -3.9868 0.0000 3.9841
# 5 8.0136 -1.9695 -14.8295 0.0000 21.7236 0.0000
# 6 0.0000 0.0000 0.0000 3.9841 0.0000 15.6532
#
#
#
# Elastic Compliance Matrix: (Units=1/GPa)
#
#
# Indices 1 2 3 4 5 6 
#
# 1 0.008181 0.000513 -0.005126 0.000000 -0.006471 0.000000
# 2 0.000513 0.014308 -0.000827 0.000000 0.000544 0.000000
# 3 -0.005126 -0.000827 0.007326 0.000000 0.006817 0.000000
# 4 0.000000 0.000000 0.000000 -0.199968 0.000000 0.050896
# 5 -0.006471 0.000544 0.006817 0.000000 0.053123 0.000000
# 6 0.000000 0.000000 0.000000 0.050896 0.000000 0.050930
#
#
# Mechanical properties :
#
#
# Convention : Reuss Voigt Hill
#
# Bulk Modulus (GPa) = 52.81330 95.54975 74.18152
# Shear Modulus (GPa) = -102.23327 32.55965 -34.83681
#
# Velocity S-wave (km/s) = -7.08214 3.99676 -4.13416
# Velocity P-wave (km/s) = 6.40038 8.25690 3.68861
#
# Compressibility (1/GPa) = 0.01893462
#
# Stress axis : x y z
#
# Youngs Moduli (GPa) = 122.23570 69.89190 136.49729
#
# Poissons Ratio (x) = -0.03586 0.69975
# Poissons Ratio (y) = -0.06271 0.11285
# Poissons Ratio (z) = 0.62663 0.05778
#
# Static dielectric constant tensor:
#      x y z
#    x 1.686700 0.000000 -0.005960 
#    y 0.000000 1.824340 0.000000 
#    z -0.005960 0.000000 1.716100 
# 
# From -- ./inp_files/69856.got.cif
#   From: 2010.05.17/outbox.cif.g08.bks.cpg/sg11_35_cif.got.tgz:69856.got - 2010.06.03 12:22:45.
