data_PCOD9157054
_publ_section_title
;
Structure prediction by ZEFSAII (Michael W. Deem and Ramdas Pophale) SiO2 
 PCOD9157054
Probable space group: P 21/M
;
_chemical_formula_sum "Si O2"
_cell_formula_units_Z 32
_cell_length_a 12.855514
_cell_length_b 8.557075
_cell_length_c 24.734717
_cell_angle_alpha 90.000000
_cell_angle_beta 46.313834
_cell_angle_gamma 90.000000
_cell_volume 1967.616582
_symmetry_space_group_name_H-M "P 21/M"
_symmetry_group_IT_number 11
_symmetry_cell_setting 'monoclinic'
loop_
_space_group_symop_operation_xyz
x,y,z
-x,1/2+y,-z
-x,-y,-z
x,1/2-y,z
loop_
_atom_site_type_symbol
_atom_site_label
_atom_site_fract_x
_atom_site_fract_y
_atom_site_fract_z
Si Si1 0.553306 0.435542 0.423081
Si Si2 0.385109 0.937247 0.997492
Si Si3 0.409122 0.938583 0.159365
Si Si4 0.679892 0.437209 0.576359
Si Si5 0.945621 0.561313 0.413953
Si Si6 0.836206 0.439981 0.839196
Si Si7 0.131345 0.061066 0.682367
Si Si8 0.725784 0.059450 0.681237
O O1 0.500000 0.500000 0.500000
O O2 0.546368 0.250000 0.427639
O O3 0.447114 0.495966 0.414823
O O4 0.716345 0.491087 0.355991
O O5 0.390166 0.750000 0.994845
O O6 0.443551 0.000522 0.919839
O O7 0.232682 0.986149 0.078480
O O8 0.500000 0.000000 0.000000
O O9 0.412761 0.750000 0.156954
O O10 0.276399 0.986940 0.167631
O O11 0.371625 0.991241 0.233267
O O12 0.671736 0.250000 0.578369
O O13 0.830650 0.488852 0.495840
O O14 0.675090 0.491176 0.640325
O O15 0.938713 0.750000 0.420679
O O16 0.903352 0.520336 0.367604
O O17 0.108774 0.512282 0.367896
O O18 0.838676 0.250000 0.837036
O O19 0.995984 0.492365 0.767017
O O20 0.140415 0.250000 0.681819
O O21 0.725379 0.250000 0.681974
#
# Coordination Sequence:
#
# PCOD9157054 Si02
#       8
#     4   4   4   4   4   4   4   4
#     4  12  24  38  53  70  94 125 164 209 254 292
#     4   9  16  26  42  67  97 130 162 192 231 283
#     4   9  15  28  47  68  97 132 162 190 231 283
#     4  11  22  35  51  72  98 129 169 207 242 290
#     4  10  18  31  52  73  98 131 165 201 244 287
#     4   8  14  26  46  69  96 128 159 189 232 291
#     4  10  18  31  53  75  95 127 165 199 242 291
#     4   9  18  32  51  74 100 134 169 198 237 295
#
# _framework density 16.263331999999998
#
# number of rings (size 3 to 8) (size 9 to 14) (size 15 to 20)
#    0.000    2.250    2.500    3.000    0.000    0.000 
#    0.000    5.625    0.000    0.000    0.000    0.875 
#    0.000    0.000    0.000    0.000    0.000    0.000 
#
# Total GULP energy -178411.076900 kJ/mol
# GULP energy per Si atom -5575.346153 kJ/mol
# Density = 1.622632 g / cm^3
# Si number density = 16.263332 Si / 1000 Ang^3
#
#
#
# Elastic Constant Matrix: (Units=GPa)
#
#
# Indices 1 2 3 4 5 6 
#
# 1 82.7770 21.4609 71.4077 0.0000 15.2620 0.0000
# 2 21.4609 28.1241 34.9390 0.0000 3.8711 0.0000
# 3 71.4077 34.9390 188.4642 0.0000 4.7586 0.0000
# 4 0.0000 0.0000 0.0000 25.5579 0.0000 -2.4208
# 5 15.2620 3.8711 4.7586 0.0000 15.4212 0.0000
# 6 0.0000 0.0000 0.0000 -2.4208 0.0000 15.1073
#
#
#
# Elastic Compliance Matrix: (Units=1/GPa)
#
#
# Indices 1 2 3 4 5 6 
#
# 1 0.023587 -0.006264 -0.007283 0.000000 -0.019523 0.000000
# 2 -0.006264 0.049140 -0.006633 0.000000 -0.004089 0.000000
# 3 -0.007283 -0.006633 0.009142 0.000000 0.006051 0.000000
# 4 0.000000 0.000000 0.000000 0.039730 0.000000 0.006366
# 5 -0.019523 -0.004089 0.006051 0.000000 0.083327 0.000000
# 6 0.000000 0.000000 0.000000 0.006366 0.000000 0.067213
#
#
# Mechanical properties :
#
#
# Convention : Reuss Voigt Hill
#
# Bulk Modulus (GPa) = 24.09099 61.66450 42.87774
# Shear Modulus (GPa) = 15.32168 22.65447 18.98807
#
# Velocity S-wave (km/s) = 3.07269 3.73631 3.42063
# Velocity P-wave (km/s) = 5.23773 7.52409 6.48251
#
# Compressibility (1/GPa) = 0.04150930
#
# Stress axis : x y z
#
# Youngs Moduli (GPa) = 42.39692 20.34996 109.38134
#
# Poissons Ratio (x) = 0.12747 0.79658
# Poissons Ratio (y) = 0.26557 0.72557
# Poissons Ratio (z) = 0.30876 0.13499
#
# Static dielectric constant tensor:
#      x y z
#    x 1.520820 0.000000 0.007080 
#    y 0.000000 1.556510 0.000000 
#    z 0.007080 0.000000 1.576280 
# 
# From -- ./inp_files/68296.got.cif
#   From: 2010.05.17/outbox.cif.g08.bks.cpg/sg11_35_cif.got.tgz:68296.got - 2010.06.03 12:22:45.
