data_PCOD9157730
_publ_section_title
;
Structure prediction by ZEFSAII (Michael W. Deem and Ramdas Pophale) SiO2 
 PCOD9157730
Probable space group: P 21/M
;
_chemical_formula_sum "Si O2"
_cell_formula_units_Z 32
_cell_length_a 25.708979
_cell_length_b 8.797572
_cell_length_c 20.622451
_cell_angle_alpha 90.000000
_cell_angle_beta 156.874228
_cell_angle_gamma 90.000000
_cell_volume 1831.913817
_symmetry_space_group_name_H-M "P 21/M"
_symmetry_group_IT_number 11
_symmetry_cell_setting 'monoclinic'
loop_
_space_group_symop_operation_xyz
x,y,z
-x,1/2+y,-z
-x,-y,-z
x,1/2-y,z
loop_
_atom_site_type_symbol
_atom_site_label
_atom_site_fract_x
_atom_site_fract_y
_atom_site_fract_z
Si Si1 0.186812 0.430487 0.766282
Si Si2 0.100180 0.432220 0.028244
Si Si3 0.845146 0.933098 0.053487
Si Si4 0.644638 0.432459 0.427481
Si Si5 0.184525 0.431086 0.266307
Si Si6 0.878596 0.067724 0.443027
Si Si7 0.356149 0.930654 0.073980
Si Si8 0.857492 0.434684 0.564089
O O1 0.206711 0.250000 0.792770
O O2 0.190836 0.487025 0.696929
O O3 0.036523 0.462835 0.618393
O O4 0.289175 0.512585 0.930622
O O5 0.074453 0.250000 0.999048
O O6 0.168247 0.468524 0.038087
O O7 0.182407 0.469065 0.187241
O O8 0.958681 0.514251 0.871782
O O9 0.834772 0.750000 0.050181
O O10 0.738827 0.011747 0.977165
O O11 0.994209 0.979092 0.244963
O O12 0.639828 0.250000 0.421226
O O13 0.703709 0.488322 0.563424
O O14 0.500718 0.498574 0.248868
O O15 0.748440 0.484412 0.490845
O O16 0.195877 0.250000 0.286171
O O17 0.861942 0.250000 0.417866
O O18 0.832271 0.017791 0.461107
O O19 0.363912 0.750000 0.083416
O O20 0.856966 0.250000 0.563780
#
# Coordination Sequence:
#
# PCOD9157730 Si02
#       8
#     4   4   4   4   4   4   4   4
#     4  10  19  34  56  82 112 148 184 221 273 338
#     4   9  18  33  56  83 114 149 187 229 277 331
#     4  10  18  36  60  84 110 145 191 233 274 330
#     4  11  22  39  60  81 110 154 193 227 279 342
#     4  10  19  32  53  85 118 147 183 232 281 328
#     4   9  17  32  55  84 113 139 176 233 280 319
#     4  12  25  39  55  82 116 149 185 233 285 334
#     4   9  17  33  59  85 109 140 187 233 273 325
#
# _framework density 17.468070000000001
#
# number of rings (size 3 to 8) (size 9 to 14) (size 15 to 20)
#    0.000    2.000    2.500    2.250    0.000    1.500 
#    0.000    2.500    0.000    0.000    0.000    0.000 
#    0.000    0.000    0.000    0.000    0.000    0.000 
#
# Total GULP energy -178617.048772 kJ/mol
# GULP energy per Si atom -5581.782774 kJ/mol
# Density = 1.742831 g / cm^3
# Si number density = 17.468070 Si / 1000 Ang^3
#
#
#
# Elastic Constant Matrix: (Units=GPa)
#
#
# Indices 1 2 3 4 5 6 
#
# 1 125.1964 43.7598 80.3821 0.0000 -16.6536 0.0000
# 2 43.7598 55.6094 58.6765 0.0000 -9.2432 0.0000
# 3 80.3821 58.6765 133.2090 0.0000 -12.1449 0.0000
# 4 0.0000 0.0000 0.0000 27.5678 0.0000 -5.4316
# 5 -16.6536 -9.2432 -12.1449 0.0000 28.5321 0.0000
# 6 0.0000 0.0000 0.0000 -5.4316 0.0000 23.3988
#
#
#
# Elastic Compliance Matrix: (Units=1/GPa)
#
#
# Indices 1 2 3 4 5 6 
#
# 1 0.013922 -0.003350 -0.006537 0.000000 0.004258 0.000000
# 2 -0.003350 0.035040 -0.013063 0.000000 0.003836 0.000000
# 3 -0.006537 -0.013063 0.017137 0.000000 -0.000753 0.000000
# 4 0.000000 0.000000 0.000000 0.038013 0.000000 0.008824
# 5 0.004258 0.003836 -0.000753 0.000000 0.038456 0.000000
# 6 0.000000 0.000000 0.000000 0.008824 0.000000 0.044786
#
#
# Mechanical properties :
#
#
# Convention : Reuss Voigt Hill
#
# Bulk Modulus (GPa) = 49.50899 75.51683 62.51291
# Shear Modulus (GPa) = 20.83446 24.64618 22.74032
#
# Velocity S-wave (km/s) = 3.45732 3.76031 3.61199
# Velocity P-wave (km/s) = 6.65894 7.88533 7.29794
#
# Compressibility (1/GPa) = 0.02019835
#
# Stress axis : x y z
#
# Youngs Moduli (GPa) = 71.82953 28.53864 58.35255
#
# Poissons Ratio (x) = 0.09560 0.38145
# Poissons Ratio (y) = 0.24063 0.76229
# Poissons Ratio (z) = 0.46955 0.37281
#
# Static dielectric constant tensor:
#      x y z
#    x 1.599040 0.000000 -0.019000 
#    y 0.000000 1.584140 0.000000 
#    z -0.019000 0.000000 1.566720 
# 
# From -- ./inp_files/67290.got.cif
#   From: 2010.05.17/outbox.cif.g08.bks.cpg/sg11_34_cif.got.tgz:67290.got - 2010.06.03 12:22:45.
