data_PCOD9157138
_publ_section_title
;
Structure prediction by ZEFSAII (Michael W. Deem and Ramdas Pophale) SiO2 
 PCOD9157138
Probable space group: P 21/M
;
_chemical_formula_sum "Si O2"
_cell_formula_units_Z 32
_cell_length_a 21.449548
_cell_length_b 8.453648
_cell_length_c 11.307298
_cell_angle_alpha 90.000000
_cell_angle_beta 53.640734
_cell_angle_gamma 90.000000
_cell_volume 1651.152517
_symmetry_space_group_name_H-M "P 21/M"
_symmetry_group_IT_number 11
_symmetry_cell_setting 'monoclinic'
loop_
_space_group_symop_operation_xyz
x,y,z
-x,1/2+y,-z
-x,-y,-z
x,1/2-y,z
loop_
_atom_site_type_symbol
_atom_site_label
_atom_site_fract_x
_atom_site_fract_y
_atom_site_fract_z
Si Si1 0.168710 0.065720 0.367591
Si Si2 0.739498 0.437003 0.512375
Si Si3 0.120601 0.559436 0.798098
Si Si4 0.118760 0.941563 0.063069
Si Si5 0.416178 0.062441 0.238791
Si Si6 0.969507 0.061028 0.336733
Si Si7 0.261386 0.935068 0.045922
Si Si8 0.581828 0.936971 0.037963
O O1 0.171879 0.250000 0.332695
O O2 0.221611 0.032061 0.423418
O O3 0.082240 0.016407 0.503004
O O4 0.206879 0.964971 0.220894
O O5 0.749707 0.250000 0.525037
O O6 0.790997 0.474348 0.339547
O O7 0.649648 0.478997 0.610416
O O8 0.112419 0.750000 0.812342
O O9 0.068549 0.506338 0.746089
O O10 0.101001 0.499338 0.950318
O O11 0.112426 0.750000 0.074407
O O12 0.206479 0.983043 0.999192
O O13 0.058211 0.012213 0.224317
O O14 0.404582 0.250000 0.257267
O O15 0.504165 0.019863 0.171077
O O16 0.405533 0.010298 0.113091
O O17 0.961849 0.250000 0.354698
O O18 0.279398 0.750000 0.016381
O O19 0.341125 0.025747 0.976326
O O20 0.567709 0.750000 0.050641
#
# Coordination Sequence:
#
# PCOD9157138 Si02
#       8
#     4   4   4   4   4   4   4   4
#     4  11  21  34  52  75 105 140 174 213 261 312
#     4  10  18  31  54  81 109 137 169 214 262 309
#     4   8  17  34  55  79 105 134 172 217 263 307
#     4  10  21  37  55  76 103 139 178 214 259 312
#     4  10  19  31  51  80 110 139 171 210 257 307
#     4  10  20  35  56  80 104 132 171 222 269 309
#     4  11  22  35  53  75 106 143 175 212 256 311
#     4  10  20  33  51  76 108 142 172 211 256 305
#
# _framework density 19.380402
#
# number of rings (size 3 to 8) (size 9 to 14) (size 15 to 20)
#    0.000    2.000    1.250    4.125    0.000    2.500 
#    0.000    3.125    0.000    0.750    0.000    0.000 
#    0.000    0.000    0.000    0.000    0.000    0.000 
#
# Total GULP energy -178668.429310 kJ/mol
# GULP energy per Si atom -5583.388416 kJ/mol
# Density = 1.933629 g / cm^3
# Si number density = 19.380402 Si / 1000 Ang^3
#
#
#
# Elastic Constant Matrix: (Units=GPa)
#
#
# Indices 1 2 3 4 5 6 
#
# 1 48.5288 3.0091 5.6010 0.0000 -18.9430 0.0000
# 2 3.0091 23.0095 -3.2835 0.0000 -6.6884 0.0000
# 3 5.6010 -3.2835 50.5862 0.0000 -21.5752 0.0000
# 4 0.0000 0.0000 0.0000 21.5742 0.0000 -11.1195
# 5 -18.9430 -6.6884 -21.5752 0.0000 32.2545 0.0000
# 6 0.0000 0.0000 0.0000 -11.1195 0.0000 21.8346
#
#
#
# Elastic Compliance Matrix: (Units=1/GPa)
#
#
# Indices 1 2 3 4 5 6 
#
# 1 0.027993 0.003417 0.006207 0.000000 0.021300 0.000000
# 2 0.003417 0.050522 0.011508 0.000000 0.020181 0.000000
# 3 0.006207 0.011508 0.031342 0.000000 0.026997 0.000000
# 4 0.000000 0.000000 0.000000 0.062848 0.000000 0.032006
# 5 0.021300 0.020181 0.026997 0.000000 0.065756 0.000000
# 6 0.000000 0.000000 0.000000 0.032006 0.000000 0.062098
#
#
# Mechanical properties :
#
#
# Convention : Reuss Voigt Hill
#
# Bulk Modulus (GPa) = 6.57373 14.75308 10.66341
# Shear Modulus (GPa) = 16.18112 22.91919 19.55015
#
# Velocity S-wave (km/s) = 2.89264 3.44262 3.17954
# Velocity P-wave (km/s) = 3.81520 4.84057 4.35814
#
# Compressibility (1/GPa) = 0.15212065
#
# Stress axis : x y z
#
# Youngs Moduli (GPa) = 35.72372 19.79336 31.90593
#
# Poissons Ratio (x) = -0.06763 -0.19804
# Poissons Ratio (y) = -0.12205 -0.36718
# Poissons Ratio (z) = -0.22174 -0.22779
#
# Static dielectric constant tensor:
#      x y z
#    x 1.707240 0.000000 -0.001170 
#    y 0.000000 1.650820 0.000000 
#    z -0.001170 0.000000 1.671180 
# 
# From -- ./inp_files/42797.got.cif
#   From: 2010.05.17/outbox.cif.g08.bks.cpg/sg11_22_cif.got.tgz:42797.got - 2010.06.03 12:22:45.
