data_PCOD9157251
_publ_section_title
;
Structure prediction by ZEFSAII (Michael W. Deem and Ramdas Pophale) SiO2 
 PCOD9157251
Probable space group: P 21/M
;
_chemical_formula_sum "Si O2"
_cell_formula_units_Z 28
_cell_length_a 8.043218
_cell_length_b 20.260514
_cell_length_c 7.825301
_cell_angle_alpha 90.000000
_cell_angle_beta 122.395153
_cell_angle_gamma 90.000000
_cell_volume 1076.752323
_symmetry_space_group_name_H-M "P 21/M"
_symmetry_group_IT_number 11
_symmetry_cell_setting 'monoclinic'
loop_
_space_group_symop_operation_xyz
x,y,z
-x,1/2+y,-z
-x,-y,-z
x,1/2-y,z
loop_
_atom_site_type_symbol
_atom_site_label
_atom_site_fract_x
_atom_site_fract_y
_atom_site_fract_z
Si Si1 0.541316 0.384373 0.042628
Si Si2 0.771889 0.823489 0.357298
Si Si3 0.973780 0.821962 0.097259
Si Si4 0.450200 0.324411 0.325770
Si Si5 0.116177 0.960580 0.207394
Si Si6 0.246110 0.490062 0.807750
Si Si7 0.652293 0.563650 0.495209
O O1 0.577886 0.340164 0.227490
O O2 0.715897 0.435860 0.109456
O O3 0.447558 0.341763 0.837829
O O4 0.361979 0.436061 0.985875
O O5 0.779670 0.750000 0.434024
O O6 0.901034 0.823359 0.255702
O O7 0.814987 0.880772 0.517423
O O8 0.062692 0.750000 0.112558
O O9 0.112462 0.884762 0.154243
O O10 0.775780 0.826861 0.871890
O O11 0.490453 0.250000 0.406813
O O12 0.480786 0.382734 0.478341
O O13 0.980368 0.970588 0.301779
O O14 0.302119 0.005612 0.346156
O O15 0.000000 0.000000 0.000000
O O16 0.352917 0.476060 0.686563
#
# Coordination Sequence:
#
# PCOD9157251 Si02
#       7
#     4   4   4   4   4   4   4
#     4   9  17  34  53  74 104 136 178 219 272 333
#     4   9  17  32  55  79 103 137 179 227 272 317
#     4   9  17  32  51  72 100 142 186 215 266 322
#     4  10  18  32  53  78 103 138 185 228 268 321
#     4  12  20  35  53  78 115 148 183 229 277 325
#     4  10  20  32  51  79 107 139 176 224 285 325
#     4  11  20  30  52  83 114 137 180 232 270 323
#
# _framework density 26.004124000000001
#
# number of rings (size 3 to 8) (size 9 to 14) (size 15 to 20)
#    0.000    2.000    5.714    2.143    0.000    0.571 
#    0.000    1.429    0.000    6.857    0.000    0.000 
#    0.000    0.000    0.000    0.000    0.000    0.000 
#
# Total GULP energy -156178.941188 kJ/mol
# GULP energy per Si atom -5577.819328 kJ/mol
# Density = 2.594494 g / cm^3
# Si number density = 26.004124 Si / 1000 Ang^3
#
#
#
# Elastic Constant Matrix: (Units=GPa)
#
#
# Indices 1 2 3 4 5 6 
#
# 1 46.4455 15.7605 9.9500 0.0000 -2.4277 0.0000
# 2 15.7605 236.9240 35.2945 0.0000 8.3360 0.0000
# 3 9.9500 35.2945 48.3213 0.0000 -6.2753 0.0000
# 4 0.0000 0.0000 0.0000 31.0127 0.0000 -4.4445
# 5 -2.4277 8.3360 -6.2753 0.0000 40.3030 0.0000
# 6 0.0000 0.0000 0.0000 -4.4445 0.0000 28.7934
#
#
#
# Elastic Compliance Matrix: (Units=1/GPa)
#
#
# Indices 1 2 3 4 5 6 
#
# 1 0.022735 -0.000974 -0.003844 0.000000 0.000972 0.000000
# 2 -0.000974 0.004875 -0.003571 0.000000 -0.001623 0.000000
# 3 -0.003844 -0.003571 0.024659 0.000000 0.004346 0.000000
# 4 0.000000 0.000000 0.000000 0.032974 0.000000 0.005090
# 5 0.000972 -0.001623 0.004346 0.000000 0.025883 0.000000
# 6 0.000000 0.000000 0.000000 0.005090 0.000000 0.035516
#
#
# Mechanical properties :
#
#
# Convention : Reuss Voigt Hill
#
# Bulk Modulus (GPa) = 28.17548 50.41120 39.29334
# Shear Modulus (GPa) = 28.53076 38.06756 33.29916
#
# Velocity S-wave (km/s) = 3.31594 3.83025 3.58234
# Velocity P-wave (km/s) = 5.05165 6.24412 5.67927
#
# Compressibility (1/GPa) = 0.03549185
#
# Stress axis : x y z
#
# Youngs Moduli (GPa) = 43.98430 205.14626 40.55346
#
# Poissons Ratio (x) = 0.19981 0.15588
# Poissons Ratio (y) = 0.04284 0.14480
# Poissons Ratio (z) = 0.16907 0.73250
#
# Static dielectric constant tensor:
#      x y z
#    x 2.181110 0.000000 0.006690 
#    y 0.000000 2.040290 0.000000 
#    z 0.006690 0.000000 2.132330 
# 
# From -- ./inp_files/19246.got.cif
#   From: 2010.05.17/outbox.cif.g08.bks.cpg/sg11_10_cif.got.tgz:19246.got - 2010.06.03 12:22:45.
