data_PCOD9157774
_publ_section_title
;
Structure prediction by ZEFSAII (Michael W. Deem and Ramdas Pophale) SiO2 
 PCOD9157774
Probable space group: P 21/M
;
_chemical_formula_sum "Si O2"
_cell_formula_units_Z 24
_cell_length_a 7.696697
_cell_length_b 16.969275
_cell_length_c 9.845040
_cell_angle_alpha 90.000000
_cell_angle_beta 43.660471
_cell_angle_gamma 90.000000
_cell_volume 887.719057
_symmetry_space_group_name_H-M "P 21/M"
_symmetry_group_IT_number 11
_symmetry_cell_setting 'monoclinic'
loop_
_space_group_symop_operation_xyz
x,y,z
-x,1/2+y,-z
-x,-y,-z
x,1/2-y,z
loop_
_atom_site_type_symbol
_atom_site_label
_atom_site_fract_x
_atom_site_fract_y
_atom_site_fract_z
Si Si1 0.638979 0.250000 0.437617
Si Si2 0.167705 0.416309 0.976469
Si Si3 0.581129 0.250000 0.047890
Si Si4 0.206078 0.250000 0.051973
Si Si5 0.219395 0.915683 0.027855
Si Si6 0.642263 0.418918 0.445369
Si Si7 0.095666 0.750000 0.419420
Si Si8 0.132442 0.918682 0.392552
O O1 0.518089 0.334687 0.474998
O O2 0.729891 0.250000 0.543891
O O3 0.906250 0.250000 0.208351
O O4 0.917444 0.421692 0.216499
O O5 0.291392 0.333548 0.944968
O O6 0.307043 0.499405 0.921572
O O7 0.053012 0.409421 0.890577
O O8 0.646237 0.332829 0.081245
O O9 0.741420 0.250000 0.814524
O O10 0.296592 0.250000 0.155629
O O11 0.227087 0.923842 0.185046
O O12 0.500000 0.500000 0.500000
O O13 0.686125 0.411918 0.580922
O O14 0.974341 0.836924 0.484619
O O15 0.000000 0.000000 0.500000
#
# Coordination Sequence:
#
# PCOD9157774 Si02
#       8
#     2   4   2   2   4   4   2   4
#     4   8  18  39  62  83 119 161 197 244 309 372
#     4  10  21  41  62  89 125 166 201 250 318 367
#     4  10  21  39  61  95 121 154 207 267 300 362
#     4  10  21  39  66  89 121 161 203 254 318 367
#     4  10  21  40  61  89 124 160 202 255 309 366
#     4  10  20  39  62  87 119 161 205 252 299 362
#     4   8  18  35  57  83 117 150 193 249 295 349
#     4  10  18  37  61  85 117 161 201 243 305 358
#
# _framework density 27.03558
#
# number of rings (size 3 to 8) (size 9 to 14) (size 15 to 20)
#    0.000    2.333    1.667    0.500    0.000    0.667 
#   21.000    1.667    0.000    0.000    0.000    0.000 
#    0.000    0.000    0.000    0.000    0.000    0.000 
#
# Total GULP energy -134125.865915 kJ/mol
# GULP energy per Si atom -5588.577746 kJ/mol
# Density = 2.697405 g / cm^3
# Si number density = 27.035580 Si / 1000 Ang^3
#
#
#
# Elastic Constant Matrix: (Units=GPa)
#
#
# Indices 1 2 3 4 5 6 
#
# 1 123.4794 75.5970 15.9710 0.0000 34.1937 0.0000
# 2 75.5970 360.2071 33.6479 0.0000 -19.8870 0.0000
# 3 15.9710 33.6479 108.7256 0.0000 11.6398 0.0000
# 4 0.0000 0.0000 0.0000 21.2897 0.0000 4.2458
# 5 34.1937 -19.8870 11.6398 0.0000 32.3480 0.0000
# 6 0.0000 0.0000 0.0000 4.2458 0.0000 52.7932
#
#
#
# Elastic Compliance Matrix: (Units=1/GPa)
#
#
# Indices 1 2 3 4 5 6 
#
# 1 0.016689 -0.004784 0.001282 0.000000 -0.021044 0.000000
# 2 -0.004784 0.004383 -0.001543 0.000000 0.008307 0.000000
# 3 0.001282 -0.001543 0.010123 0.000000 -0.005946 0.000000
# 4 0.000000 0.000000 0.000000 0.047737 0.000000 -0.003839
# 5 -0.021044 0.008307 -0.005946 0.000000 0.060405 0.000000
# 6 0.000000 0.000000 0.000000 -0.003839 0.000000 0.019251
#
#
# Mechanical properties :
#
#
# Convention : Reuss Voigt Hill
#
# Bulk Modulus (GPa) = 47.38207 93.64932 70.51570
# Shear Modulus (GPa) = 28.45547 52.43259 40.44403
#
# Velocity S-wave (km/s) = 3.24778 4.40863 3.87195
# Velocity P-wave (km/s) = 5.62387 7.78647 6.79180
#
# Compressibility (1/GPa) = 0.02110503
#
# Stress axis : x y z
#
# Youngs Moduli (GPa) = 59.91933 228.15477 98.78227
#
# Poissons Ratio (x) = 1.09152 -0.12663
# Poissons Ratio (y) = 0.28666 0.15242
# Poissons Ratio (z) = -0.07681 0.35204
#
# Static dielectric constant tensor:
#      x y z
#    x 2.098070 0.000000 -0.068520 
#    y 0.000000 2.105810 0.000000 
#    z -0.068520 0.000000 2.204120 
# 
# From -- ./inp_files/32199.got.cif
#   From: 2010.05.17/outbox.cif.g08.bks.cpg/sg11_17_cif.got.tgz:32199.got - 2010.06.03 12:22:45.
