data_PCOD9157982
_publ_section_title
;
Structure prediction by ZEFSAII (Michael W. Deem and Ramdas Pophale) SiO2 
 PCOD9157982
Probable space group: P 21/M
;
_chemical_formula_sum "Si O2"
_cell_formula_units_Z 28
_cell_length_a 19.107013
_cell_length_b 7.646655
_cell_length_c 7.561798
_cell_angle_alpha 90.000000
_cell_angle_beta 88.744099
_cell_angle_gamma 90.000000
_cell_volume 1104.549100
_symmetry_space_group_name_H-M "P 21/M"
_symmetry_group_IT_number 11
_symmetry_cell_setting 'monoclinic'
loop_
_space_group_symop_operation_xyz
x,y,z
-x,1/2+y,-z
-x,-y,-z
x,1/2-y,z
loop_
_atom_site_type_symbol
_atom_site_label
_atom_site_fract_x
_atom_site_fract_y
_atom_site_fract_z
Si Si1 0.884729 0.047231 0.837526
Si Si2 0.453244 0.956839 0.773902
Si Si3 0.738249 0.043943 0.975049
Si Si4 0.687791 0.946404 0.355640
Si Si5 0.400521 0.450882 0.167811
Si Si6 0.836170 0.535296 0.449912
Si Si7 0.975871 0.540029 0.299683
O O1 0.889905 0.250000 0.891675
O O2 0.815186 0.971126 0.929979
O O3 0.962878 0.967059 0.830662
O O4 0.863367 0.037191 0.632930
O O5 0.459194 0.750000 0.804192
O O6 0.531636 0.025282 0.732775
O O7 0.390658 0.981832 0.638387
O O8 0.427253 0.036143 0.962016
O O9 0.743272 0.250000 0.014825
O O10 0.677549 0.028625 0.829323
O O11 0.709461 0.948236 0.148246
O O12 0.683796 0.750000 0.422848
O O13 0.757245 0.030761 0.432359
O O14 0.391910 0.250000 0.216912
O O15 0.835683 0.750000 0.454221
O O16 0.894617 0.482970 0.299628
O O17 0.976320 0.750000 0.279065
O O18 0.000000 0.500000 0.500000
#
# Coordination Sequence:
#
# PCOD9157982 Si02
#       7
#     4   4   4   4   4   4   4
#     4   9  18  31  49  70  91 118 152 188 226 268
#     4   9  16  26  42  64  88 116 150 186 223 263
#     4  10  19  30  45  68  95 122 151 184 225 269
#     4  10  19  30  45  68  95 122 151 184 225 269
#     4   9  16  26  42  64  88 116 150 186 223 263
#     4   9  18  31  49  70  91 118 152 188 226 268
#     4   8  14  28  47  66  88 114 148 188 223 260
#
# _framework density 25.349710000000002
#
# number of rings (size 3 to 8) (size 9 to 14) (size 15 to 20)
#    0.000    2.857    0.000    3.429    0.000    4.000 
#    0.000    0.714    0.000    0.857    0.000    0.000 
#    0.000    0.000    0.000    0.000    0.000    0.000 
#
# Total GULP energy -156130.544122 kJ/mol
# GULP energy per Si atom -5576.090861 kJ/mol
# Density = 2.529201 g / cm^3
# Si number density = 25.349710 Si / 1000 Ang^3
#
#
#
# Elastic Constant Matrix: (Units=GPa)
#
#
# Indices 1 2 3 4 5 6 
#
# 1 109.4056 5.0802 116.6843 0.0000 3.0472 0.0000
# 2 5.0802 74.8304 -0.5239 0.0000 -4.6663 0.0000
# 3 116.6843 -0.5239 19.3240 0.0000 -13.0620 0.0000
# 4 0.0000 0.0000 0.0000 -20.5924 0.0000 -53.1905
# 5 3.0472 -4.6663 -13.0620 0.0000 45.1453 0.0000
# 6 0.0000 0.0000 0.0000 -53.1905 0.0000 -113.3374
#
#
#
# Elastic Compliance Matrix: (Units=1/GPa)
#
#
# Indices 1 2 3 4 5 6 
#
# 1 -0.001274 0.000336 0.009673 0.000000 0.002920 0.000000
# 2 0.000336 0.013402 -0.000927 0.000000 0.001094 0.000000
# 3 0.009673 -0.000927 -0.008943 0.000000 -0.003336 0.000000
# 4 0.000000 0.000000 0.000000 0.228808 0.000000 -0.107382
# 5 0.002920 0.001094 -0.003336 0.000000 0.021101 0.000000
# 6 0.000000 0.000000 0.000000 -0.107382 0.000000 0.041572
#
#
# Mechanical properties :
#
#
# Convention : Reuss Voigt Hill
#
# Bulk Modulus (GPa) = 46.83632 49.56015 48.19823
# Shear Modulus (GPa) = 17.62922 -12.26896 2.68013
#
# Velocity S-wave (km/s) = 2.63998 -2.20236 1.02935
# Velocity P-wave (km/s) = 5.27341 3.62296 4.52409
#
# Compressibility (1/GPa) = 0.02135095
#
# Stress axis : x y z
#
# Youngs Moduli (GPa) = -785.12651 74.61309 -111.82500
#
# Poissons Ratio (x) = -0.02509 1.08174
# Poissons Ratio (y) = 0.26400 -0.10370
# Poissons Ratio (z) = 7.59490 0.06919
#
# Static dielectric constant tensor:
#      x y z
#    x 2.165300 0.000000 0.034270 
#    y 0.000000 2.019030 0.000000 
#    z 0.034270 0.000000 2.049650 
# 
# From -- ./inp_files/40386.got.cif
#   From: 2010.05.17/outbox.cif.g08.bks.cpg/sg11_21_cif.got.tgz:40386.got - 2010.06.03 12:22:45.
