data_PCOD9157043
_publ_section_title
;
Structure prediction by ZEFSAII (Michael W. Deem and Ramdas Pophale) SiO2 
 PCOD9157043
Probable space group: P 21/M
;
_chemical_formula_sum "Si O2"
_cell_formula_units_Z 28
_cell_length_a 9.924024
_cell_length_b 13.309468
_cell_length_c 15.904336
_cell_angle_alpha 90.000000
_cell_angle_beta 132.137885
_cell_angle_gamma 90.000000
_cell_volume 1557.737104
_symmetry_space_group_name_H-M "P 21/M"
_symmetry_group_IT_number 11
_symmetry_cell_setting 'monoclinic'
loop_
_space_group_symop_operation_xyz
x,y,z
-x,1/2+y,-z
-x,-y,-z
x,1/2-y,z
loop_
_atom_site_type_symbol
_atom_site_label
_atom_site_fract_x
_atom_site_fract_y
_atom_site_fract_z
Si Si1 0.238367 0.369800 0.995197
Si Si2 0.979507 0.631185 0.750522
Si Si3 0.856112 0.136352 0.771229
Si Si4 0.214890 0.437220 0.169857
Si Si5 0.644771 0.128528 0.169370
Si Si6 0.704910 0.474711 0.556674
Si Si7 0.624644 0.368026 0.354962
O O1 0.251902 0.250000 0.018480
O O2 0.177322 0.421372 0.056486
O O3 0.441789 0.405401 0.058576
O O4 0.073628 0.381677 0.861786
O O5 0.962492 0.750000 0.726830
O O6 0.930388 0.609734 0.826948
O O7 0.835223 0.567875 0.635011
O O8 0.183089 0.596846 0.813029
O O9 0.823430 0.250000 0.784845
O O10 0.774346 0.114445 0.646064
O O11 0.772040 0.053521 0.798150
O O12 0.406791 0.383155 0.268163
O O13 0.641589 0.250000 0.163756
O O14 0.674747 0.102937 0.280295
O O15 0.500000 0.500000 0.500000
O O16 0.707419 0.437686 0.462035
O O17 0.666908 0.250000 0.385376
#
# Coordination Sequence:
#
# PCOD9157043 Si02
#       7
#     4   4   4   4   4   4   4
#     4   9  17  32  54  77 103 134 165 205 251 304
#     4  10  19  32  51  78 102 127 167 214 252 292
#     4  10  20  32  49  76 105 133 167 210 257 299
#     4  10  18  31  51  78 100 129 170 209 248 299
#     4   8  17  32  52  76  99 129 168 205 250 298
#     4  11  21  33  48  75 103 132 173 207 255 298
#     4  10  18  33  53  72 100 135 169 207 248 301
#
# _framework density 17.974789999999999
#
# number of rings (size 3 to 8) (size 9 to 14) (size 15 to 20)
#    0.000    2.286    2.857    3.000    0.000    1.143 
#    0.000    2.857    0.000    0.000    0.000   16.000 
#    0.000    0.000    0.000    0.000    0.000    0.000 
#
# Total GULP energy -156068.632883 kJ/mol
# GULP energy per Si atom -5573.879746 kJ/mol
# Density = 1.793388 g / cm^3
# Si number density = 17.974790 Si / 1000 Ang^3
#
#
#
# Elastic Constant Matrix: (Units=GPa)
#
#
# Indices 1 2 3 4 5 6 
#
# 1 117.8956 8.3594 27.9813 0.0000 12.3283 0.0000
# 2 8.3594 64.0139 -1.7681 0.0000 5.1492 0.0000
# 3 27.9813 -1.7681 75.0897 0.0000 13.5463 0.0000
# 4 0.0000 0.0000 0.0000 23.6796 0.0000 1.3287
# 5 12.3283 5.1492 13.5463 0.0000 15.3753 0.0000
# 6 0.0000 0.0000 0.0000 1.3287 0.0000 19.6770
#
#
#
# Elastic Compliance Matrix: (Units=1/GPa)
#
#
# Indices 1 2 3 4 5 6 
#
# 1 0.009728 -0.000937 -0.002731 0.000000 -0.005080 0.000000
# 2 -0.000937 0.016308 0.001882 0.000000 -0.006368 0.000000
# 3 -0.002731 0.001882 0.016762 0.000000 -0.013209 0.000000
# 4 0.000000 0.000000 0.000000 0.042391 0.000000 -0.002862
# 5 -0.005080 -0.006368 -0.013209 0.000000 0.082884 0.000000
# 6 0.000000 0.000000 0.000000 -0.002862 0.000000 0.051014
#
#
# Mechanical properties :
#
#
# Convention : Reuss Voigt Hill
#
# Bulk Modulus (GPa) = 25.49249 36.23826 30.86537
# Shear Modulus (GPa) = 21.21037 26.57481 23.89259
#
# Velocity S-wave (km/s) = 3.43885 3.84923 3.64981
# Velocity P-wave (km/s) = 5.47547 6.32138 5.91357
#
# Compressibility (1/GPa) = 0.03922724
#
# Stress axis : x y z
#
# Youngs Moduli (GPa) = 102.79768 61.31870 59.65813
#
# Poissons Ratio (x) = 0.05746 0.16290
# Poissons Ratio (y) = 0.09633 -0.11228
# Poissons Ratio (z) = 0.28069 -0.11541
#
# Static dielectric constant tensor:
#      x y z
#    x 1.618740 0.000000 0.007040 
#    y 0.000000 1.629570 0.000000 
#    z 0.007040 0.000000 1.635940 
# 
# From -- ./inp_files/39452.got.cif
#   From: 2010.05.17/outbox.cif.g08.bks.cpg/sg11_20_cif.got.tgz:39452.got - 2010.06.03 12:22:45.
