data_PCOD9157614
_publ_section_title
;
Structure prediction by ZEFSAII (Michael W. Deem and Ramdas Pophale) SiO2 
 PCOD9157614
Probable space group: P 21/M
;
_chemical_formula_sum "Si O2"
_cell_formula_units_Z 28
_cell_length_a 10.562321
_cell_length_b 7.975582
_cell_length_c 31.064625
_cell_angle_alpha 90.000000
_cell_angle_beta 146.023379
_cell_angle_gamma 90.000000
_cell_volume 1462.469014
_symmetry_space_group_name_H-M "P 21/M"
_symmetry_group_IT_number 11
_symmetry_cell_setting 'monoclinic'
loop_
_space_group_symop_operation_xyz
x,y,z
-x,1/2+y,-z
-x,-y,-z
x,1/2-y,z
loop_
_atom_site_type_symbol
_atom_site_label
_atom_site_fract_x
_atom_site_fract_y
_atom_site_fract_z
Si Si1 0.910724 0.548851 0.756219
Si Si2 0.180845 0.550914 0.172275
Si Si3 0.373730 0.955114 0.842773
Si Si4 0.129947 0.047482 0.992997
Si Si5 0.585114 0.547948 0.590343
Si Si6 0.346081 0.547291 0.735005
Si Si7 0.153883 0.048480 0.422237
O O1 0.914975 0.750000 0.752897
O O2 0.873434 0.510225 0.795355
O O3 0.707501 0.487129 0.668051
O O4 0.150966 0.487057 0.805289
O O5 0.156657 0.750000 0.165623
O O6 0.435250 0.508839 0.229484
O O7 0.008681 0.482856 0.087291
O O8 0.372523 0.750000 0.842622
O O9 0.364369 0.006606 0.790093
O O10 0.610505 0.010891 0.930261
O O11 0.134330 0.250000 0.992157
O O12 0.000000 0.000000 0.000000
O O13 0.592731 0.750000 0.592186
O O14 0.731334 0.488292 0.590168
O O15 0.326630 0.498091 0.508742
O O16 0.345564 0.750000 0.734828
O O17 0.104409 0.488654 0.648249
O O18 0.146800 0.250000 0.417827
#
# Coordination Sequence:
#
# PCOD9157614 Si02
#       7
#     4   4   4   4   4   4   4
#     4  10  20  37  58  79 106 147 188 217 259 325
#     4  11  24  37  51  80 117 144 174 224 278 320
#     4   9  17  33  59  82 103 137 184 227 258 308
#     4  10  20  35  56  81 109 140 178 224 270 316
#     4   9  17  31  52  80 110 138 173 219 268 318
#     4  10  18  34  59  82 104 141 187 221 259 322
#     4   9  17  30  53  84 109 133 175 224 267 315
#
# _framework density 19.145703999999999
#
# number of rings (size 3 to 8) (size 9 to 14) (size 15 to 20)
#    0.000    2.286    2.857    0.429    0.000    2.286 
#    0.000    2.143    0.000    0.000    0.000    0.000 
#    0.000    0.000    0.000    0.000    0.000    0.000 
#
# Total GULP energy -156239.367027 kJ/mol
# GULP energy per Si atom -5579.977394 kJ/mol
# Density = 1.910213 g / cm^3
# Si number density = 19.145704 Si / 1000 Ang^3
#
#
#
# Elastic Constant Matrix: (Units=GPa)
#
#
# Indices 1 2 3 4 5 6 
#
# 1 124.4884 -0.5943 87.9002 0.0000 -1.8355 0.0000
# 2 -0.5943 11.9687 9.6597 0.0000 0.6705 0.0000
# 3 87.9002 9.6597 202.4464 0.0000 7.3689 0.0000
# 4 0.0000 0.0000 0.0000 19.4776 0.0000 -1.0505
# 5 -1.8355 0.6705 7.3689 0.0000 30.6517 0.0000
# 6 0.0000 0.0000 0.0000 -1.0505 0.0000 10.4294
#
#
#
# Elastic Compliance Matrix: (Units=1/GPa)
#
#
# Indices 1 2 3 4 5 6 
#
# 1 0.011970 0.004927 -0.005503 0.000000 0.001932 0.000000
# 2 0.004927 0.088951 -0.006379 0.000000 -0.000117 0.000000
# 3 -0.005503 -0.006379 0.007708 0.000000 -0.002043 0.000000
# 4 0.000000 0.000000 0.000000 0.051622 0.000000 0.005200
# 5 0.001932 -0.000117 -0.002043 0.000000 0.033234 0.000000
# 6 0.000000 0.000000 0.000000 0.005200 0.000000 0.096407
#
#
# Mechanical properties :
#
#
# Convention : Reuss Voigt Hill
#
# Bulk Modulus (GPa) = 10.55752 59.20384 34.88068
# Shear Modulus (GPa) = 14.90872 28.24094 21.57483
#
# Velocity S-wave (km/s) = 2.79354 3.84481 3.36054
# Velocity P-wave (km/s) = 3.99142 7.12039 5.77198
#
# Compressibility (1/GPa) = 0.09471924
#
# Stress axis : x y z
#
# Youngs Moduli (GPa) = 83.53935 11.24214 129.74173
#
# Poissons Ratio (x) = -0.05539 0.71395
# Poissons Ratio (y) = -0.41163 0.82768
# Poissons Ratio (z) = 0.45971 0.07172
#
# Static dielectric constant tensor:
#      x y z
#    x 1.626990 0.000000 0.004900 
#    y 0.000000 1.693400 0.000000 
#    z 0.004900 0.000000 1.693050 
# 
# From -- ./inp_files/28531.got.cif
#   From: 2010.05.17/outbox.cif.g08.bks.cpg/sg11_15_cif.got.tgz:28531.got - 2010.06.03 12:22:45.
