data_PCOD9157710
_publ_section_title
;
Structure prediction by ZEFSAII (Michael W. Deem and Ramdas Pophale) SiO2 
 PCOD9157710
Probable space group: P 21/M
;
_chemical_formula_sum "Si O2"
_cell_formula_units_Z 32
_cell_length_a 15.458151
_cell_length_b 16.174633
_cell_length_c 12.394952
_cell_angle_alpha 90.000000
_cell_angle_beta 29.555389
_cell_angle_gamma 90.000000
_cell_volume 1528.681060
_symmetry_space_group_name_H-M "P 21/M"
_symmetry_group_IT_number 11
_symmetry_cell_setting 'monoclinic'
loop_
_space_group_symop_operation_xyz
x,y,z
-x,1/2+y,-z
-x,-y,-z
x,1/2-y,z
loop_
_atom_site_type_symbol
_atom_site_label
_atom_site_fract_x
_atom_site_fract_y
_atom_site_fract_z
Si Si1 0.823145 0.594253 0.770430
Si Si2 0.453829 0.499363 0.673916
Si Si3 0.941975 0.344982 0.105078
Si Si4 0.746384 0.655630 0.076782
Si Si5 0.560180 0.411785 0.886128
Si Si6 0.153113 0.607381 0.264431
Si Si7 0.769816 0.474017 0.452938
Si Si8 0.905623 0.096191 0.902317
O O1 0.826110 0.493560 0.771173
O O2 0.975804 0.620559 0.524106
O O3 0.859010 0.630908 0.849812
O O4 0.627229 0.623831 0.949091
O O5 0.500000 0.500000 0.500000
O O6 0.416301 0.405216 0.747827
O O7 0.611237 0.529221 0.577533
O O8 0.274027 0.546571 0.885363
O O9 0.892046 0.250000 0.182419
O O10 0.824185 0.409703 0.299653
O O11 0.940153 0.359785 0.978994
O O12 0.135995 0.357931 0.944683
O O13 0.694086 0.750000 0.128005
O O14 0.676219 0.367038 0.851761
O O15 0.693294 0.430539 0.642704
O O16 0.500000 0.500000 0.000000
O O17 0.128195 0.644072 0.172455
O O18 0.934575 0.533223 0.293558
#
# Coordination Sequence:
#
# PCOD9157710 Si02
#       8
#     4   4   4   4   4   4   4   4
#     4  10  18  36  55  89 117 146 192 243 295 354
#     4  12  22  37  59  90 117 156 202 248 299 364
#     4  11  24  40  59  85 121 162 202 248 305 365
#     4  11  22  40  61  87 125 157 193 253 318 364
#     4  10  19  32  55  91 118 144 188 246 293 350
#     4  10  19  32  61  83 118 153 191 242 291 341
#     4  12  21  36  65  88 119 155 200 253 305 355
#     4  12  22  40  60  89 122 157 204 254 295 355
#
# _framework density 20.933077999999998
#
# number of rings (size 3 to 8) (size 9 to 14) (size 15 to 20)
#    0.000    1.000    5.000    4.875    0.000    0.500 
#    0.000    0.625    0.000    1.500    0.000    0.000 
#    0.000    1.000    0.000    0.000    0.000    0.000 
#
# Total GULP energy -178721.893355 kJ/mol
# GULP energy per Si atom -5585.059167 kJ/mol
# Density = 2.088543 g / cm^3
# Si number density = 20.933078 Si / 1000 Ang^3
#
#
#
# Elastic Constant Matrix: (Units=GPa)
#
#
# Indices 1 2 3 4 5 6 
#
# 1 162.4245 4.7068 50.1901 0.0000 2.4511 0.0000
# 2 4.7068 20.9336 5.5082 0.0000 -3.6419 0.0000
# 3 50.1901 5.5082 110.0697 0.0000 0.1634 0.0000
# 4 0.0000 0.0000 0.0000 -0.4390 0.0000 3.4616
# 5 2.4511 -3.6419 0.1634 0.0000 49.0803 0.0000
# 6 0.0000 0.0000 0.0000 3.4616 0.0000 4.9980
#
#
#
# Elastic Compliance Matrix: (Units=1/GPa)
#
#
# Indices 1 2 3 4 5 6 
#
# 1 0.007187 -0.000836 -0.003235 0.000000 -0.000410 0.000000
# 2 -0.000836 0.049149 -0.002084 0.000000 0.003696 0.000000
# 3 -0.003235 -0.002084 0.010664 0.000000 -0.000029 0.000000
# 4 0.000000 0.000000 0.000000 -0.352550 0.000000 0.244174
# 5 -0.000410 0.003696 -0.000029 0.000000 0.020670 0.000000
# 6 0.000000 0.000000 0.000000 0.244174 0.000000 0.030965
#
#
# Mechanical properties :
#
#
# Convention : Reuss Voigt Hill
#
# Bulk Modulus (GPa) = 18.28443 46.02645 32.15544
# Shear Modulus (GPa) = -24.58504 26.26272 0.83884
#
# Velocity S-wave (km/s) = -3.43076 3.54588 0.63371
# Velocity P-wave (km/s) = 2.63435 6.22893 3.99122
#
# Compressibility (1/GPa) = 0.05469133
#
# Stress axis : x y z
#
# Youngs Moduli (GPa) = 139.14754 20.34619 93.77019
#
# Poissons Ratio (x) = 0.01701 0.30330
# Poissons Ratio (y) = 0.11634 0.19540
# Poissons Ratio (z) = 0.45008 0.04240
#
# Static dielectric constant tensor:
#      x y z
#    x 1.829540 0.000000 -0.010060 
#    y 0.000000 1.727310 0.000000 
#    z -0.010060 0.000000 1.790120 
# 
# From -- ./inp_files/39985.got.cif
#   From: 2010.05.17/outbox.cif.g08.bks.cpg/sg11_20_cif.got.tgz:39985.got - 2010.06.03 12:22:45.
