data_PCOD9157057
_publ_section_title
;
Structure prediction by ZEFSAII (Michael W. Deem and Ramdas Pophale) SiO2 
 PCOD9157057
Probable space group: P 21/M
;
_chemical_formula_sum "Si O2"
_cell_formula_units_Z 24
_cell_length_a 15.947965
_cell_length_b 12.261914
_cell_length_c 9.426467
_cell_angle_alpha 90.000000
_cell_angle_beta 146.730814
_cell_angle_gamma 90.000000
_cell_volume 1011.223391
_symmetry_space_group_name_H-M "P 21/M"
_symmetry_group_IT_number 11
_symmetry_cell_setting 'monoclinic'
loop_
_space_group_symop_operation_xyz
x,y,z
-x,1/2+y,-z
-x,-y,-z
x,1/2-y,z
loop_
_atom_site_type_symbol
_atom_site_label
_atom_site_fract_x
_atom_site_fract_y
_atom_site_fract_z
Si Si1 0.572081 0.626891 0.238778
Si Si2 0.779883 0.589380 0.105680
Si Si3 0.959112 0.630456 0.097089
Si Si4 0.102490 0.863067 0.712875
Si Si5 0.453752 0.873236 0.765250
Si Si6 0.094875 0.409660 0.309053
O O1 0.553509 0.750000 0.282111
O O2 0.582887 0.503776 0.327090
O O3 0.742848 0.631922 0.413395
O O4 0.460127 0.621921 0.945489
O O5 0.809447 0.608525 0.980642
O O6 0.942063 0.627197 0.402104
O O7 0.784971 0.461872 0.149429
O O8 0.624165 0.635797 0.941600
O O9 0.015356 0.750000 0.208882
O O10 0.082684 0.539595 0.308793
O O11 0.924199 0.619531 0.881963
O O12 0.177639 0.750000 0.784467
O O13 0.043869 0.867534 0.792223
O O14 0.382813 0.750000 0.628884
#
# Coordination Sequence:
#
# PCOD9157057 Si02
#       6
#     4   4   4   4   4   4
#     4  10  20  35  55  76 101 138 180 217 256 308
#     4  10  20  32  50  78 105 134 171 213 265 311
#     4  10  20  33  52  79 109 137 169 214 262 313
#     4  10  18  31  52  75 103 137 171 212 259 309
#     4  10  20  35  54  76 104 137 175 219 263 306
#     4  10  20  34  54  78 104 141 178 208 258 317
#
# _framework density 23.733628
#
# number of rings (size 3 to 8) (size 9 to 14) (size 15 to 20)
#    0.000    2.000    1.667    3.000    0.000    1.333 
#    0.000    0.833    0.000    0.000    0.000    0.000 
#    0.000    0.000    0.000    0.000    0.000    0.000 
#
# Total GULP energy -133636.702232 kJ/mol
# GULP energy per Si atom -5568.195926 kJ/mol
# Density = 2.367961 g / cm^3
# Si number density = 23.733628 Si / 1000 Ang^3
#
#
#
# Elastic Constant Matrix: (Units=GPa)
#
#
# Indices 1 2 3 4 5 6 
#
# 1 87.5215 -5.3478 4.9418 0.0000 -3.5388 0.0000
# 2 -5.3478 270.5620 6.1698 0.0000 9.6873 0.0000
# 3 4.9418 6.1698 15.6701 0.0000 9.3350 0.0000
# 4 0.0000 0.0000 0.0000 -9.1569 0.0000 8.2060
# 5 -3.5388 9.6873 9.3350 0.0000 27.7618 0.0000
# 6 0.0000 0.0000 0.0000 8.2060 0.0000 -7.1924
#
#
#
# Elastic Compliance Matrix: (Units=1/GPa)
#
#
# Indices 1 2 3 4 5 6 
#
# 1 0.011911 0.000248 -0.005886 0.000000 0.003411 0.000000
# 2 0.000248 0.003757 -0.000994 0.000000 -0.000945 0.000000
# 3 -0.005886 -0.000994 0.082912 0.000000 -0.028283 0.000000
# 4 0.000000 0.000000 0.000000 4.867556 0.000000 5.553490
# 5 0.003411 -0.000945 -0.028283 0.000000 0.046296 0.000000
# 6 0.000000 0.000000 0.000000 5.553490 0.000000 6.197050
#
#
# Mechanical properties :
#
#
# Convention : Reuss Voigt Hill
#
# Bulk Modulus (GPa) = 11.72122 42.80903 27.26512
# Shear Modulus (GPa) = 0.44440 26.81515 13.62977
#
# Velocity S-wave (km/s) = 0.43319 3.36495 2.39902
# Velocity P-wave (km/s) = 2.28026 5.75966 4.38025
#
# Compressibility (1/GPa) = 0.08531538
#
# Stress axis : x y z
#
# Youngs Moduli (GPa) = 83.95500 266.13995 12.06093
#
# Poissons Ratio (x) = -0.06587 0.07099
# Poissons Ratio (y) = -0.02078 0.01199
# Poissons Ratio (z) = 0.49415 0.26465
#
# Static dielectric constant tensor:
#      x y z
#    x 1.909750 0.000000 -0.025030 
#    y 0.000000 2.077030 0.000000 
#    z -0.025030 0.000000 1.858800 
# 
# From -- ./inp_files/41073.got.cif
#   From: 2010.05.17/outbox.cif.g08.bks.cpg/sg11_21_cif.got.tgz:41073.got - 2010.06.03 12:22:45.
