data_PCOD9157278
_publ_section_title
;
Structure prediction by ZEFSAII (Michael W. Deem and Ramdas Pophale) SiO2 
 PCOD9157278
Probable space group: P 21/M
;
_chemical_formula_sum "Si O2"
_cell_formula_units_Z 28
_cell_length_a 28.905365
_cell_length_b 8.988503
_cell_length_c 9.824742
_cell_angle_alpha 90.000000
_cell_angle_beta 38.817811
_cell_angle_gamma 90.000000
_cell_volume 1600.102748
_symmetry_space_group_name_H-M "P 21/M"
_symmetry_group_IT_number 11
_symmetry_cell_setting 'monoclinic'
loop_
_space_group_symop_operation_xyz
x,y,z
-x,1/2+y,-z
-x,-y,-z
x,1/2-y,z
loop_
_atom_site_type_symbol
_atom_site_label
_atom_site_fract_x
_atom_site_fract_y
_atom_site_fract_z
Si Si1 0.199282 0.927648 0.735467
Si Si2 0.544707 0.925096 0.195727
Si Si3 0.920206 0.573587 0.183459
Si Si4 0.682605 0.427761 0.759848
Si Si5 0.760008 0.428254 0.052114
Si Si6 0.398738 0.425216 0.622397
Si Si7 0.802808 0.927295 0.682316
O O1 0.187433 0.750000 0.751433
O O2 0.274377 0.960482 0.479181
O O3 0.208557 0.966517 0.871541
O O4 0.132458 0.009237 0.813617
O O5 0.535498 0.750000 0.190813
O O6 0.579194 0.941829 0.268888
O O7 0.466312 0.007075 0.381801
O O8 0.603087 0.998016 0.959512
O O9 0.927086 0.750000 0.151824
O O10 0.875878 0.544966 0.425706
O O11 0.000000 0.500000 0.000000
O O12 0.676952 0.250000 0.789436
O O13 0.735858 0.495162 0.754236
O O14 0.760390 0.250000 0.035844
O O15 0.676613 0.488368 0.232228
O O16 0.804658 0.504315 0.827601
O O17 0.389689 0.250000 0.616336
O O18 0.789358 0.750000 0.718667
#
# Coordination Sequence:
#
# PCOD9157278 Si02
#       7
#     4   4   4   4   4   4   4
#     4   9  21  38  56  81 112 144 179 219 265 320
#     4  10  19  31  49  75 106 138 182 232 273 317
#     4  10  21  38  62  87 112 141 176 218 262 314
#     4  10  18  32  54  77 104 140 182 226 270 317
#     4  11  21  35  55  80 111 145 180 221 269 319
#     4  10  20  32  49  74 107 142 180 228 274 318
#     4  10  20  34  54  82 110 140 179 219 261 315
#
# _framework density 17.498877
#
# number of rings (size 3 to 8) (size 9 to 14) (size 15 to 20)
#    0.000    2.000    1.429    2.571    0.000    4.571 
#    0.000    1.429    0.000    0.000    0.000    0.000 
#    0.000    0.000    0.000    0.000    0.000    0.000 
#
# Total GULP energy -156340.206752 kJ/mol
# GULP energy per Si atom -5583.578813 kJ/mol
# Density = 1.745905 g / cm^3
# Si number density = 17.498877 Si / 1000 Ang^3
#
#
#
# Elastic Constant Matrix: (Units=GPa)
#
#
# Indices 1 2 3 4 5 6 
#
# 1 71.6518 46.5865 59.3042 0.0000 11.6421 0.0000
# 2 46.5865 72.1424 58.4983 0.0000 4.8546 0.0000
# 3 59.3042 58.4983 108.1313 0.0000 1.7210 0.0000
# 4 0.0000 0.0000 0.0000 34.4032 0.0000 -3.8330
# 5 11.6421 4.8546 1.7210 0.0000 29.9858 0.0000
# 6 0.0000 0.0000 0.0000 -3.8330 0.0000 22.2231
#
#
#
# Elastic Compliance Matrix: (Units=1/GPa)
#
#
# Indices 1 2 3 4 5 6 
#
# 1 0.032245 -0.010567 -0.011807 0.000000 -0.010131 0.000000
# 2 -0.010567 0.028475 -0.009610 0.000000 0.000044 0.000000
# 3 -0.011807 -0.009610 0.020844 0.000000 0.004944 0.000000
# 4 0.000000 0.000000 0.000000 0.029637 0.000000 0.005112
# 5 -0.010131 0.000044 0.004944 0.000000 0.036992 0.000000
# 6 0.000000 0.000000 0.000000 0.005112 0.000000 0.045880
#
#
# Mechanical properties :
#
#
# Convention : Reuss Voigt Hill
#
# Bulk Modulus (GPa) = 56.83106 64.52262 60.67684
# Shear Modulus (GPa) = 18.94632 23.15819 21.05226
#
# Velocity S-wave (km/s) = 3.29404 3.64182 3.47228
# Velocity P-wave (km/s) = 6.85675 7.39163 7.12921
#
# Compressibility (1/GPa) = 0.01759601
#
# Stress axis : x y z
#
# Youngs Moduli (GPa) = 31.01261 35.11906 47.97649
#
# Poissons Ratio (x) = 0.37110 0.56644
# Poissons Ratio (y) = 0.32771 0.46105
# Poissons Ratio (z) = 0.36616 0.33749
#
# Static dielectric constant tensor:
#      x y z
#    x 1.563050 0.000000 0.016210 
#    y 0.000000 1.579880 0.000000 
#    z 0.016210 0.000000 1.600180 
# 
# From -- ./inp_files/28451.got.cif
#   From: 2010.05.17/outbox.cif.g08.bks.cpg/sg11_15_cif.got.tgz:28451.got - 2010.06.03 12:22:45.
