data_PCOD9157488
_publ_section_title
;
Structure prediction by ZEFSAII (Michael W. Deem and Ramdas Pophale) SiO2 
 PCOD9157488
Probable space group: P 21/M
;
_chemical_formula_sum "Si O2"
_cell_formula_units_Z 32
_cell_length_a 11.973200
_cell_length_b 19.252955
_cell_length_c 9.533926
_cell_angle_alpha 90.000000
_cell_angle_beta 52.915311
_cell_angle_gamma 90.000000
_cell_volume 1753.248805
_symmetry_space_group_name_H-M "P 21/M"
_symmetry_group_IT_number 11
_symmetry_cell_setting 'monoclinic'
loop_
_space_group_symop_operation_xyz
x,y,z
-x,1/2+y,-z
-x,-y,-z
x,1/2-y,z
loop_
_atom_site_type_symbol
_atom_site_label
_atom_site_fract_x
_atom_site_fract_y
_atom_site_fract_z
Si Si1 0.278179 0.330254 0.784391
Si Si2 0.301106 0.169876 0.428781
Si Si3 0.012704 0.669137 0.352073
Si Si4 0.460536 0.563571 0.727530
Si Si5 0.976812 0.912964 0.886870
Si Si6 0.857421 0.440073 0.959099
Si Si7 0.164542 0.668916 0.531470
Si Si8 0.558245 0.410607 0.591694
O O1 0.265082 0.250000 0.835066
O O2 0.281212 0.333913 0.612786
O O3 0.423282 0.363399 0.724977
O O4 0.150704 0.374802 0.939416
O O5 0.332962 0.250000 0.367894
O O6 0.428114 0.118775 0.297159
O O7 0.147843 0.150652 0.487012
O O8 0.008415 0.750000 0.307912
O O9 0.072510 0.619582 0.187035
O O10 0.110308 0.664299 0.413834
O O11 0.529640 0.487442 0.672129
O O12 0.432571 0.582712 0.584791
O O13 0.310561 0.562618 0.916593
O O14 0.046038 0.863509 0.720570
O O15 0.918255 0.985011 0.869297
O O16 0.092007 0.930574 0.918357
O O17 0.188271 0.750000 0.547961
O O18 0.304002 0.624899 0.452512
#
# Coordination Sequence:
#
# PCOD9157488 Si02
#       8
#     4   4   4   4   4   4   4   4
#     4  10  18  33  57  85 116 150 192 243 294 343
#     4   9  19  35  57  84 113 154 198 237 294 351
#     4  10  23  42  61  83 121 161 195 242 299 357
#     4  10  20  35  59  88 121 150 188 250 291 343
#     4  11  22  36  60  91 120 150 195 251 291 346
#     4  11  22  38  60  90 120 152 199 243 296 349
#     4  11  24  41  60  88 121 157 198 242 296 354
#     4  10  20  36  57  88 121 153 188 240 298 346
#
# _framework density 18.251830999999999
#
# number of rings (size 3 to 8) (size 9 to 14) (size 15 to 20)
#    0.000    1.750    3.750    0.750    1.750    2.000 
#    0.000    1.875    0.000    3.000    0.000    0.000 
#    0.000    0.000    0.000    0.000    0.000    0.000 
#
# Total GULP energy -178667.907899 kJ/mol
# GULP energy per Si atom -5583.372122 kJ/mol
# Density = 1.821029 g / cm^3
# Si number density = 18.251831 Si / 1000 Ang^3
#
#
#
# Elastic Constant Matrix: (Units=GPa)
#
#
# Indices 1 2 3 4 5 6 
#
# 1 96.2928 60.8794 28.9278 0.0000 -32.9948 0.0000
# 2 60.8794 110.4351 29.0940 0.0000 -16.0709 0.0000
# 3 28.9278 29.0940 38.4794 0.0000 -23.1380 0.0000
# 4 0.0000 0.0000 0.0000 23.5128 0.0000 -10.3865
# 5 -32.9948 -16.0709 -23.1380 0.0000 28.1476 0.0000
# 6 0.0000 0.0000 0.0000 -10.3865 0.0000 31.3491
#
#
#
# Elastic Compliance Matrix: (Units=1/GPa)
#
#
# Indices 1 2 3 4 5 6 
#
# 1 0.025767 -0.011839 0.007273 0.000000 0.029423 0.000000
# 2 -0.011839 0.016765 -0.012586 0.000000 -0.014651 0.000000
# 3 0.007273 -0.012586 0.060988 0.000000 0.051472 0.000000
# 4 0.000000 0.000000 0.000000 0.049822 0.000000 0.016507
# 5 0.029423 -0.014651 0.051472 0.000000 0.103963 0.000000
# 6 0.000000 0.000000 0.000000 0.016507 0.000000 0.037368
#
#
# Mechanical properties :
#
#
# Convention : Reuss Voigt Hill
#
# Bulk Modulus (GPa) = 14.44761 53.66775 34.05768
# Shear Modulus (GPa) = 14.20262 25.02230 19.61246
#
# Velocity S-wave (km/s) = 2.79256 3.70665 3.28159
# Velocity P-wave (km/s) = 4.28144 6.91280 5.74968
#
# Compressibility (1/GPa) = 0.06921561
#
# Stress axis : x y z
#
# Youngs Moduli (GPa) = 38.80975 59.64808 16.39678
#
# Poissons Ratio (x) = 0.70615 -0.11925
# Poissons Ratio (y) = 0.45945 0.20637
# Poissons Ratio (z) = -0.28225 0.75072
#
# Static dielectric constant tensor:
#      x y z
#    x 1.624840 0.000000 -0.004010 
#    y 0.000000 1.619600 0.000000 
#    z -0.004010 0.000000 1.594000 
# 
# From -- ./inp_files/19389.got.cif
#   From: 2010.05.17/outbox.cif.g08.bks.cpg/sg11_10_cif.got.tgz:19389.got - 2010.06.03 12:22:45.
