data_PCOD9157483
_publ_section_title
;
Structure prediction by ZEFSAII (Michael W. Deem and Ramdas Pophale) SiO2 
 PCOD9157483
Probable space group: P 21/M
;
_chemical_formula_sum "Si O2"
_cell_formula_units_Z 32
_cell_length_a 11.738029
_cell_length_b 16.542391
_cell_length_c 17.267581
_cell_angle_alpha 90.000000
_cell_angle_beta 31.323391
_cell_angle_gamma 90.000000
_cell_volume 1743.082589
_symmetry_space_group_name_H-M "P 21/M"
_symmetry_group_IT_number 11
_symmetry_cell_setting 'monoclinic'
loop_
_space_group_symop_operation_xyz
x,y,z
-x,1/2+y,-z
-x,-y,-z
x,1/2-y,z
loop_
_atom_site_type_symbol
_atom_site_label
_atom_site_fract_x
_atom_site_fract_y
_atom_site_fract_z
Si Si1 0.815556 0.049189 0.381174
Si Si2 0.596518 0.838624 0.412990
Si Si3 0.350574 0.541110 0.815383
Si Si4 0.869554 0.336683 0.637580
Si Si5 0.693005 0.878462 0.528684
Si Si6 0.926060 0.957557 0.160832
Si Si7 0.923508 0.656457 0.649708
Si Si8 0.753618 0.501589 0.680464
O O1 0.591193 0.095219 0.491523
O O2 0.960682 0.112919 0.344887
O O3 0.762170 0.970382 0.464255
O O4 0.916949 0.014151 0.242588
O O5 0.532465 0.750000 0.421721
O O6 0.644661 0.836695 0.476077
O O7 0.814707 0.872906 0.247098
O O8 0.473454 0.617798 0.707001
O O9 0.227550 0.496490 0.816499
O O10 0.555959 0.495299 0.734908
O O11 0.166842 0.553569 0.986704
O O12 0.767616 0.250000 0.716475
O O13 0.747858 0.418834 0.732517
O O14 0.108091 0.341880 0.538651
O O15 0.911300 0.339111 0.520429
O O16 0.855387 0.750000 0.703364
O O17 0.744541 0.588882 0.727209
O O18 0.000000 0.500000 0.500000
#
# Coordination Sequence:
#
# PCOD9157483 Si02
#       8
#     4   4   4   4   4   4   4   4
#     4  11  19  36  57  84 112 152 194 245 290 349
#     4  11  22  35  54  86 118 156 197 244 296 347
#     4  11  19  38  63  85 112 154 199 242 295 355
#     4  10  19  31  54  88 114 143 191 249 295 335
#     4  11  17  35  61  83 109 145 198 246 288 339
#     4  10  23  37  60  84 117 157 193 237 304 357
#     4  10  19  30  52  83 112 144 188 242 293 337
#     4  10  18  33  57  84 114 146 193 247 286 340
#
# _framework density 18.358281999999999
#
# number of rings (size 3 to 8) (size 9 to 14) (size 15 to 20)
#    0.000    1.500    6.250    2.250    0.000    0.000 
#    0.000    2.500    0.000    1.500    0.000    0.000 
#    0.000    0.000    0.000    0.000    0.000    0.000 
#
# Total GULP energy -178212.056389 kJ/mol
# GULP energy per Si atom -5569.126762 kJ/mol
# Density = 1.831650 g / cm^3
# Si number density = 18.358282 Si / 1000 Ang^3
#
#
#
# Elastic Constant Matrix: (Units=GPa)
#
#
# Indices 1 2 3 4 5 6 
#
# 1 89.9732 20.4313 30.6225 0.0000 -1.3658 0.0000
# 2 20.4313 144.8430 14.1558 0.0000 9.2021 0.0000
# 3 30.6225 14.1558 76.6054 0.0000 11.7688 0.0000
# 4 0.0000 0.0000 0.0000 -4.1279 0.0000 -3.9731
# 5 -1.3658 9.2021 11.7688 0.0000 19.1613 0.0000
# 6 0.0000 0.0000 0.0000 -3.9731 0.0000 17.3928
#
#
#
# Elastic Compliance Matrix: (Units=1/GPa)
#
#
# Indices 1 2 3 4 5 6 
#
# 1 0.013609 -0.001682 -0.005965 0.000000 0.005442 0.000000
# 2 -0.001682 0.007383 -0.000142 0.000000 -0.003578 0.000000
# 3 -0.005965 -0.000142 0.017137 0.000000 -0.010882 0.000000
# 4 0.000000 0.000000 0.000000 -0.198589 0.000000 -0.045364
# 5 0.005442 -0.003578 -0.010882 0.000000 0.060979 0.000000
# 6 0.000000 0.000000 0.000000 -0.045364 0.000000 0.047132
#
#
# Mechanical properties :
#
#
# Convention : Reuss Voigt Hill
#
# Bulk Modulus (GPa) = 44.34801 49.09343 46.72072
# Shear Modulus (GPa) = -170.91739 22.89937 -74.00901
#
# Velocity S-wave (km/s) = -9.65935 3.53563 -6.35619
# Velocity P-wave (km/s) = 10.00973 6.59299 5.32575
#
# Compressibility (1/GPa) = 0.02254893
#
# Stress axis : x y z
#
# Youngs Moduli (GPa) = 73.47852 135.45450 58.35460
#
# Poissons Ratio (x) = 0.22790 0.34811
# Poissons Ratio (y) = 0.12362 0.00828
# Poissons Ratio (z) = 0.43833 0.01923
#
# Static dielectric constant tensor:
#      x y z
#    x 1.668480 0.000000 0.013220 
#    y 0.000000 1.701830 0.000000 
#    z 0.013220 0.000000 1.609040 
# 
# From -- ./inp_files/59611.got.cif
#   From: 2010.05.17/outbox.cif.g08.bks.cpg/sg11_30_cif.got.tgz:59611.got - 2010.06.03 12:22:45.
