data_PCOD9157776
_publ_section_title
;
Structure prediction by ZEFSAII (Michael W. Deem and Ramdas Pophale) SiO2 
 PCOD9157776
Probable space group: P 21/M
;
_chemical_formula_sum "Si O2"
_cell_formula_units_Z 20
_cell_length_a 13.151795
_cell_length_b 10.452540
_cell_length_c 9.361335
_cell_angle_alpha 90.000000
_cell_angle_beta 136.508257
_cell_angle_gamma 90.000000
_cell_volume 885.708673
_symmetry_space_group_name_H-M "P 21/M"
_symmetry_group_IT_number 11
_symmetry_cell_setting 'monoclinic'
loop_
_space_group_symop_operation_xyz
x,y,z
-x,1/2+y,-z
-x,-y,-z
x,1/2-y,z
loop_
_atom_site_type_symbol
_atom_site_label
_atom_site_fract_x
_atom_site_fract_y
_atom_site_fract_z
Si Si1 0.820157 0.250000 0.322126
Si Si2 0.417579 0.750000 0.731915
Si Si3 0.082237 0.402364 0.188593
Si Si4 0.168994 0.250000 0.727098
Si Si5 0.886526 0.016338 0.253982
Si Si6 0.422944 0.014353 0.576563
Si Si7 0.441713 0.250000 0.806096
O O1 0.758543 0.250000 0.417653
O O2 0.773846 0.123212 0.192111
O O3 0.996849 0.250000 0.509861
O O4 0.450080 0.879301 0.682048
O O5 0.483192 0.750000 0.959774
O O6 0.081961 0.250000 0.151708
O O7 0.249490 0.452485 0.376528
O O8 0.983948 0.425478 0.228805
O O9 0.000000 0.500000 0.000000
O O10 0.189653 0.378894 0.840403
O O11 0.269663 0.250000 0.687692
O O12 0.000000 0.000000 0.500000
O O13 0.500000 0.000000 0.500000
O O14 0.470511 0.127779 0.733773
#
# Coordination Sequence:
#
# PCOD9157776 Si02
#       7
#     2   2   4   2   4   4   2
#     4  10  18  37  61  99 136 175 230 300 364 420
#     4  12  27  43  75 113 145 195 264 314 366 456
#     4  12  28  49  76 110 153 196 251 312 380 459
#     4  10  20  35  69 101 138 181 226 300 374 430
#     4  10  20  38  68 103 135 178 233 296 373 428
#     4  12  27  51  75 105 157 211 251 309 386 453
#     4  12  25  49  75 111 151 197 262 318 374 448
#
# _framework density 22.580787999999998
#
# number of rings (size 3 to 8) (size 9 to 14) (size 15 to 20)
#    0.000    0.800    2.000    7.200    2.800    3.200 
#    0.000    0.000    0.000    0.000    0.000    0.000 
#    0.000    0.000    0.000    0.000    0.000    0.000 
#
# Total GULP energy -111645.999960 kJ/mol
# GULP energy per Si atom -5582.299998 kJ/mol
# Density = 2.252939 g / cm^3
# Si number density = 22.580788 Si / 1000 Ang^3
#
#
#
# Elastic Constant Matrix: (Units=GPa)
#
#
# Indices 1 2 3 4 5 6 
#
# 1 143.2029 67.2881 31.2072 0.0000 -24.9622 0.0000
# 2 67.2881 281.1669 67.9853 0.0000 -20.5796 0.0000
# 3 31.2072 67.9853 118.3209 0.0000 -15.2530 0.0000
# 4 0.0000 0.0000 0.0000 18.6462 0.0000 -22.2701
# 5 -24.9622 -20.5796 -15.2530 0.0000 29.6280 0.0000
# 6 0.0000 0.0000 0.0000 -22.2701 0.0000 35.8120
#
#
#
# Elastic Compliance Matrix: (Units=1/GPa)
#
#
# Indices 1 2 3 4 5 6 
#
# 1 0.008910 -0.001519 -0.000691 0.000000 0.006096 0.000000
# 2 -0.001519 0.004477 -0.002074 0.000000 0.000763 0.000000
# 3 -0.000691 -0.002074 0.010245 0.000000 0.003251 0.000000
# 4 0.000000 0.000000 0.000000 0.208453 0.000000 0.129628
# 5 0.006096 0.000763 0.003251 0.000000 0.041091 0.000000
# 6 0.000000 0.000000 0.000000 0.129628 0.000000 0.108534
#
#
# Mechanical properties :
#
#
# Convention : Reuss Voigt Hill
#
# Bulk Modulus (GPa) = 66.38403 97.29466 81.83934
# Shear Modulus (GPa) = 12.64863 41.89791 27.27327
#
# Velocity S-wave (km/s) = 2.36932 4.31219 3.47912
# Velocity P-wave (km/s) = 6.07842 8.24464 7.24297
#
# Compressibility (1/GPa) = 0.01506386
#
# Stress axis : x y z
#
# Youngs Moduli (GPa) = 112.23210 223.34642 97.61271
#
# Poissons Ratio (x) = 0.33926 0.06749
# Poissons Ratio (y) = 0.17048 0.20242
# Poissons Ratio (z) = 0.07760 0.46315
#
# Static dielectric constant tensor:
#      x y z
#    x 1.881190 0.000000 -0.027850 
#    y 0.000000 2.004090 0.000000 
#    z -0.027850 0.000000 1.973000 
# 
# From -- ./inp_files/17102.got.cif
#   From: 2010.05.17/outbox.cif.g08.bks.cpg/sg11_9_cif.got.tgz:17102.got - 2010.06.03 12:22:45.
