data_PCOD9157812
_publ_section_title
;
Structure prediction by ZEFSAII (Michael W. Deem and Ramdas Pophale) SiO2 
 PCOD9157812
Probable space group: P 21/M
;
_chemical_formula_sum "Si O2"
_cell_formula_units_Z 24
_cell_length_a 12.487659
_cell_length_b 12.281765
_cell_length_c 10.660141
_cell_angle_alpha 90.000000
_cell_angle_beta 128.675234
_cell_angle_gamma 90.000000
_cell_volume 1276.407283
_symmetry_space_group_name_H-M "P 21/M"
_symmetry_group_IT_number 11
_symmetry_cell_setting 'monoclinic'
loop_
_space_group_symop_operation_xyz
x,y,z
-x,1/2+y,-z
-x,-y,-z
x,1/2-y,z
loop_
_atom_site_type_symbol
_atom_site_label
_atom_site_fract_x
_atom_site_fract_y
_atom_site_fract_z
Si Si1 0.923563 0.750000 0.123259
Si Si2 0.213812 0.514734 0.613294
Si Si3 0.062622 0.126978 0.304903
Si Si4 0.799702 0.250000 0.522066
Si Si5 0.507327 0.750000 0.727615
Si Si6 0.185672 0.486841 0.890714
Si Si7 0.485252 0.480526 0.137739
Si Si8 0.219930 0.250000 0.235281
O O1 0.079409 0.750000 0.287014
O O2 0.848896 0.859846 0.115667
O O3 0.898998 0.750000 0.956685
O O4 0.114301 0.435944 0.464574
O O5 0.187993 0.638485 0.548807
O O6 0.195131 0.507562 0.748389
O O7 0.371469 0.478494 0.700056
O O8 0.015595 0.250000 0.301169
O O9 0.188413 0.146842 0.301060
O O10 0.940750 0.058485 0.154616
O O11 0.640557 0.250000 0.449151
O O12 0.514687 0.854442 0.822660
O O13 0.634875 0.750000 0.726228
O O14 0.331860 0.519168 0.057968
O O15 0.500000 0.500000 0.000000
#
# Coordination Sequence:
#
# PCOD9157812 Si02
#       8
#     2   4   4   2   2   4   4   2
#     4  12  22  37  62  90 110 162 202 236 301 360
#     4  10  21  38  61  92 123 152 195 254 298 364
#     4  10  24  40  57  86 121 159 199 251 297 337
#     4  10  22  35  62  91 117 147 207 239 305 349
#     4  10  18  42  58  81 125 158 189 246 300 344
#     4  11  21  36  64  91 121 153 198 248 309 351
#     4   9  19  36  59  92 116 154 195 239 302 356
#     4  10  24  42  60  78 126 165 200 243 296 353
#
# _framework density 18.802776000000001
#
# number of rings (size 3 to 8) (size 9 to 14) (size 15 to 20)
#    0.500    1.333    3.333    0.500    2.333    0.667 
#    3.000    5.000    0.000    0.000    0.000    0.000 
#    0.000    0.000    0.000    0.000    0.000    0.000 
#
# Total GULP energy -133646.834850 kJ/mol
# GULP energy per Si atom -5568.618119 kJ/mol
# Density = 1.875998 g / cm^3
# Si number density = 18.802776 Si / 1000 Ang^3
#
#
#
# Elastic Constant Matrix: (Units=GPa)
#
#
# Indices 1 2 3 4 5 6 
#
# 1 64.6703 15.2446 4.9791 0.0000 17.4174 0.0000
# 2 15.2446 73.7950 3.1265 0.0000 8.9236 0.0000
# 3 4.9791 3.1265 71.0837 0.0000 22.4080 0.0000
# 4 0.0000 0.0000 0.0000 -10.7277 0.0000 5.0490
# 5 17.4174 8.9236 22.4080 0.0000 36.9472 0.0000
# 6 0.0000 0.0000 0.0000 5.0490 0.0000 24.1101
#
#
#
# Elastic Compliance Matrix: (Units=1/GPa)
#
#
# Indices 1 2 3 4 5 6 
#
# 1 0.018422 -0.002785 0.001679 0.000000 -0.009030 0.000000
# 2 -0.002785 0.014397 0.000302 0.000000 -0.002348 0.000000
# 3 0.001679 0.000302 0.017568 0.000000 -0.011519 0.000000
# 4 0.000000 0.000000 0.000000 -0.084854 0.000000 0.017770
# 5 -0.009030 -0.002348 -0.011519 0.000000 0.038876 0.000000
# 6 0.000000 0.000000 0.000000 0.017770 0.000000 0.037755
#
#
# Mechanical properties :
#
#
# Convention : Reuss Voigt Hill
#
# Bulk Modulus (GPa) = 20.50047 28.47215 24.48631
# Shear Modulus (GPa) = 83.28639 22.47919 52.88279
#
# Velocity S-wave (km/s) = 6.66265 3.46139 5.30905
# Velocity P-wave (km/s) = 8.37344 5.58125 7.11564
#
# Compressibility (1/GPa) = 0.04877937
#
# Stress axis : x y z
#
# Youngs Moduli (GPa) = 54.28207 69.45682 56.92064
#
# Poissons Ratio (x) = 0.19343 -0.09555
# Poissons Ratio (y) = 0.15117 -0.01718
# Poissons Ratio (z) = -0.09112 -0.02097
#
# Static dielectric constant tensor:
#      x y z
#    x 1.688170 0.000000 0.047580 
#    y 0.000000 1.633120 0.000000 
#    z 0.047580 0.000000 1.664310 
# 
# From -- ./inp_files/34943.got.cif
#   From: 2010.05.17/outbox.cif.g08.bks.cpg/sg11_18_cif.got.tgz:34943.got - 2010.06.03 12:22:45.
