data_PCOD9157153
_publ_section_title
;
Structure prediction by ZEFSAII (Michael W. Deem and Ramdas Pophale) SiO2 
 PCOD9157153
Probable space group: P 21/M
;
_chemical_formula_sum "Si O2"
_cell_formula_units_Z 20
_cell_length_a 20.502272
_cell_length_b 8.796266
_cell_length_c 9.556965
_cell_angle_alpha 90.000000
_cell_angle_beta 134.783965
_cell_angle_gamma 90.000000
_cell_volume 1223.310492
_symmetry_space_group_name_H-M "P 21/M"
_symmetry_group_IT_number 11
_symmetry_cell_setting 'monoclinic'
loop_
_space_group_symop_operation_xyz
x,y,z
-x,1/2+y,-z
-x,-y,-z
x,1/2-y,z
loop_
_atom_site_type_symbol
_atom_site_label
_atom_site_fract_x
_atom_site_fract_y
_atom_site_fract_z
Si Si1 0.736304 0.071658 0.943260
Si Si2 0.419569 0.430937 0.474125
Si Si3 0.899280 0.569775 0.339499
Si Si4 0.580902 0.066890 0.217277
Si Si5 0.745432 0.071438 0.267913
O O1 0.738339 0.250000 0.910853
O O2 0.675620 0.979710 0.743375
O O3 0.838476 0.005977 0.123415
O O4 0.695265 0.057229 0.039869
O O5 0.500000 0.500000 0.500000
O O6 0.428546 0.250000 0.493273
O O7 0.424179 0.500613 0.635479
O O8 0.097373 0.250000 0.670910
O O9 0.837956 0.523761 0.382714
O O10 0.000000 0.500000 0.500000
O O11 0.574662 0.250000 0.210761
O O12 0.677315 0.026040 0.287488
O O13 0.500000 0.000000 0.000000
O O14 0.769078 0.250000 0.318051
#
# Coordination Sequence:
#
# PCOD9157153 Si02
#       5
#     4   4   4   4   4
#     4   9  18  35  55  79 108 139 180 226 272 323
#     4  12  24  37  54  78 109 147 188 228 275 329
#     4  10  18  31  55  84 112 143 181 227 274 323
#     4  11  22  37  56  78 110 147 185 228 275 328
#     4   8  18  34  53  77 107 140 179 223 270 322
#
# _framework density 16.349080000000001
#
# number of rings (size 3 to 8) (size 9 to 14) (size 15 to 20)
#    1.200    0.800    0.000    5.400    0.000    3.200 
#    0.000    0.000    0.000    1.200    0.000    0.000 
#    0.000    0.000    0.000    0.000    0.000    0.000 
#
# Total GULP energy -111403.944245 kJ/mol
# GULP energy per Si atom -5570.197212 kJ/mol
# Density = 1.631187 g / cm^3
# Si number density = 16.349080 Si / 1000 Ang^3
#
#
#
# Elastic Constant Matrix: (Units=GPa)
#
#
# Indices 1 2 3 4 5 6 
#
# 1 115.0552 63.4215 65.8765 0.0000 2.6208 0.0000
# 2 63.4215 111.4295 46.9913 0.0000 1.3210 0.0000
# 3 65.8765 46.9913 108.1919 0.0000 5.0208 0.0000
# 4 0.0000 0.0000 0.0000 31.3855 0.0000 2.1340
# 5 2.6208 1.3210 5.0208 0.0000 26.1508 0.0000
# 6 0.0000 0.0000 0.0000 2.1340 0.0000 27.6984
#
#
#
# Elastic Compliance Matrix: (Units=1/GPa)
#
#
# Indices 1 2 3 4 5 6 
#
# 1 0.016226 -0.006205 -0.007188 0.000000 0.000067 0.000000
# 2 -0.006205 0.013363 -0.002042 0.000000 0.000339 0.000000
# 3 -0.007188 -0.002042 0.014598 0.000000 -0.001979 0.000000
# 4 0.000000 0.000000 0.000000 0.032030 0.000000 -0.002468
# 5 0.000067 0.000339 -0.001979 0.000000 0.038596 0.000000
# 6 0.000000 0.000000 0.000000 -0.002468 0.000000 0.036293
#
#
# Mechanical properties :
#
#
# Convention : Reuss Voigt Hill
#
# Bulk Modulus (GPa) = 75.08565 76.36169 75.72367
# Shear Modulus (GPa) = 26.82223 27.60609 27.21416
#
# Velocity S-wave (km/s) = 4.05482 4.11364 4.08434
# Velocity P-wave (km/s) = 8.24308 8.32894 8.28612
#
# Compressibility (1/GPa) = 0.01331812
#
# Stress axis : x y z
#
# Youngs Moduli (GPa) = 61.63120 74.83511 68.50257
#
# Poissons Ratio (x) = 0.46432 0.49238
# Poissons Ratio (y) = 0.38240 0.13986
# Poissons Ratio (z) = 0.44299 0.15279
#
# Static dielectric constant tensor:
#      x y z
#    x 1.548140 0.000000 -0.000410 
#    y 0.000000 1.568150 0.000000 
#    z -0.000410 0.000000 1.537050 
# 
# From -- ./inp_files/23829.got.cif
#   From: 2010.05.17/outbox.cif.g08.bks.cpg/sg11_12_cif.got.tgz:23829.got - 2010.06.03 12:22:45.
