data_PCOD9157971
_publ_section_title
;
Structure prediction by ZEFSAII (Michael W. Deem and Ramdas Pophale) SiO2 
 PCOD9157971
Probable space group: P 21/M
;
_chemical_formula_sum "Si O2"
_cell_formula_units_Z 24
_cell_length_a 21.587950
_cell_length_b 8.229791
_cell_length_c 12.366815
_cell_angle_alpha 90.000000
_cell_angle_beta 141.369342
_cell_angle_gamma 90.000000
_cell_volume 1371.670501
_symmetry_space_group_name_H-M "P 21/M"
_symmetry_group_IT_number 11
_symmetry_cell_setting 'monoclinic'
loop_
_space_group_symop_operation_xyz
x,y,z
-x,1/2+y,-z
-x,-y,-z
x,1/2-y,z
loop_
_atom_site_type_symbol
_atom_site_label
_atom_site_fract_x
_atom_site_fract_y
_atom_site_fract_z
Si Si1 0.927727 0.553156 0.049933
Si Si2 0.221254 0.054712 0.961868
Si Si3 0.387228 0.053910 0.354053
Si Si4 0.892183 0.057299 0.395565
Si Si5 0.240544 0.446012 0.340562
Si Si6 0.858464 0.053679 0.593140
O O1 0.931205 0.750000 0.046418
O O2 0.869451 0.515522 0.080857
O O3 0.039134 0.492474 0.212168
O O4 0.857576 0.493740 0.857943
O O5 0.225921 0.250000 0.959390
O O6 0.191943 0.985892 0.806283
O O7 0.319746 0.998785 0.159986
O O8 0.383552 0.250000 0.348313
O O9 0.332449 0.000705 0.390454
O O10 0.500000 0.000000 0.500000
O O11 0.900309 0.250000 0.415443
O O12 0.863211 0.995233 0.475675
O O13 0.000000 0.000000 0.500000
O O14 0.239836 0.250000 0.338042
O O15 0.230706 0.501441 0.450340
O O16 0.860240 0.250000 0.594220
#
# Coordination Sequence:
#
# PCOD9157971 Si02
#       6
#     4   4   4   4   4   4
#     4   8  14  28  46  65  97 132 160 196 241 287
#     4   9  17  33  52  72 101 134 166 206 251 293
#     4   9  19  35  57  79 101 127 159 208 263 304
#     4  11  21  32  48  71 102 140 176 207 240 287
#     4   9  18  31  48  71  97 128 164 201 246 298
#     4  10  19  30  45  67 100 137 165 199 243 285
#
# _framework density 17.496912999999999
#
# number of rings (size 3 to 8) (size 9 to 14) (size 15 to 20)
#    0.000    2.667    1.667    3.000    0.000    2.667 
#    0.000    2.500    0.000    1.000    0.000    0.000 
#    0.000    0.000    0.000    0.000    0.000    0.000 
#
# Total GULP energy -133715.515793 kJ/mol
# GULP energy per Si atom -5571.479825 kJ/mol
# Density = 1.745709 g / cm^3
# Si number density = 17.496913 Si / 1000 Ang^3
#
#
#
# Elastic Constant Matrix: (Units=GPa)
#
#
# Indices 1 2 3 4 5 6 
#
# 1 150.6466 18.7113 87.1509 0.0000 -17.5812 0.0000
# 2 18.7113 12.1001 12.7672 0.0000 -1.8785 0.0000
# 3 87.1509 12.7672 83.9927 0.0000 1.7749 0.0000
# 4 0.0000 0.0000 0.0000 22.9205 0.0000 -0.5322
# 5 -17.5812 -1.8785 1.7749 0.0000 26.7825 0.0000
# 6 0.0000 0.0000 0.0000 -0.5322 0.0000 24.4256
#
#
#
# Elastic Compliance Matrix: (Units=1/GPa)
#
#
# Indices 1 2 3 4 5 6 
#
# 1 0.022428 -0.008767 -0.022268 0.000000 0.015583 0.000000
# 2 -0.008767 0.103558 -0.006686 0.000000 0.001952 0.000000
# 3 -0.022268 -0.006686 0.036397 0.000000 -0.017499 0.000000
# 4 0.000000 0.000000 0.000000 0.043651 0.000000 0.000951
# 5 0.015583 0.001952 -0.017499 0.000000 0.048864 0.000000
# 6 0.000000 0.000000 0.000000 0.000951 0.000000 0.040961
#
#
# Mechanical properties :
#
#
# Convention : Reuss Voigt Hill
#
# Bulk Modulus (GPa) = 11.50197 53.77757 32.63977
# Shear Modulus (GPa) = 12.49122 23.36640 17.92881
#
# Velocity S-wave (km/s) = 2.67481 3.65836 3.20454
# Velocity P-wave (km/s) = 4.01590 6.97474 5.69098
#
# Compressibility (1/GPa) = 0.08694165
#
# Stress axis : x y z
#
# Youngs Moduli (GPa) = 44.58743 9.65641 27.47481
#
# Poissons Ratio (x) = 0.08466 0.61180
# Poissons Ratio (y) = 0.39090 0.18369
# Poissons Ratio (z) = 0.99287 0.06456
#
# Static dielectric constant tensor:
#      x y z
#    x 1.612000 0.000000 -0.023050 
#    y 0.000000 1.615850 0.000000 
#    z -0.023050 0.000000 1.607800 
# 
# From -- ./inp_files/36972.got.cif
#   From: 2010.05.17/outbox.cif.g08.bks.cpg/sg11_19_cif.got.tgz:36972.got - 2010.06.03 12:22:45.
