data_PCOD9157407
_publ_section_title
;
Structure prediction by ZEFSAII (Michael W. Deem and Ramdas Pophale) SiO2 
 PCOD9157407
Probable space group: P 21/M
;
_chemical_formula_sum "Si O2"
_cell_formula_units_Z 28
_cell_length_a 8.556827
_cell_length_b 21.867369
_cell_length_c 15.193302
_cell_angle_alpha 90.000000
_cell_angle_beta 32.660440
_cell_angle_gamma 90.000000
_cell_volume 1534.196599
_symmetry_space_group_name_H-M "P 21/M"
_symmetry_group_IT_number 11
_symmetry_cell_setting 'monoclinic'
loop_
_space_group_symop_operation_xyz
x,y,z
-x,1/2+y,-z
-x,-y,-z
x,1/2-y,z
loop_
_atom_site_type_symbol
_atom_site_label
_atom_site_fract_x
_atom_site_fract_y
_atom_site_fract_z
Si Si1 0.864092 0.997724 0.163270
Si Si2 0.265741 0.088299 0.285874
Si Si3 0.224025 0.946250 0.288393
Si Si4 0.260562 0.178397 0.645575
Si Si5 0.271232 0.912801 0.077800
Si Si6 0.583132 0.599795 0.593969
Si Si7 0.612136 0.391590 0.614406
O O1 0.605708 0.948271 0.294077
O O2 0.105987 0.970429 0.112652
O O3 0.710964 0.060500 0.264564
O O4 0.000000 0.000000 0.000000
O O5 0.365206 0.120427 0.329355
O O6 0.931242 0.099822 0.423659
O O7 0.289494 0.014674 0.290088
O O8 0.472989 0.105056 0.108282
O O9 0.371862 0.932895 0.126074
O O10 0.322510 0.895639 0.312298
O O11 0.876866 0.940408 0.438789
O O12 0.216401 0.250000 0.655668
O O13 0.407059 0.148995 0.488653
O O14 0.456126 0.163511 0.638579
O O15 0.960351 0.141729 0.801492
#
# Coordination Sequence:
#
# PCOD9157407 Si02
#       7
#     4   4   4   4   4   4   4
#     4  11  18  32  54  91 121 150 177 225 283 356
#     4  11  18  35  54  95 120 142 170 229 291 360
#     4  10  18  33  52  89 125 146 171 220 287 360
#     4  10  24  43  57  74 105 152 207 241 265 322
#     4  10  22  32  59  86 119 150 179 224 292 336
#     4  10  19  34  58  81 118 153 185 220 287 339
#     4  10  20  35  57  79 117 147 188 227 286 333
#
# _framework density 18.250595000000001
#
# number of rings (size 3 to 8) (size 9 to 14) (size 15 to 20)
#    0.000    1.714    4.286    1.286    2.000    1.714 
#    0.000    7.857    0.000    0.000    0.000    0.000 
#    0.000    0.000    0.000    0.000    0.000    0.000 
#
# Total GULP energy -156114.521258 kJ/mol
# GULP energy per Si atom -5575.518616 kJ/mol
# Density = 1.820906 g / cm^3
# Si number density = 18.250595 Si / 1000 Ang^3
#
#
#
# Elastic Constant Matrix: (Units=GPa)
#
#
# Indices 1 2 3 4 5 6 
#
# 1 77.3080 32.4648 38.1323 0.0000 10.4759 0.0000
# 2 32.4648 81.4638 35.5181 0.0000 5.1007 0.0000
# 3 38.1323 35.5181 135.6402 0.0000 11.8572 0.0000
# 4 0.0000 0.0000 0.0000 10.7752 0.0000 2.2487
# 5 10.4759 5.1007 11.8572 0.0000 31.7388 0.0000
# 6 0.0000 0.0000 0.0000 2.2487 0.0000 16.4980
#
#
#
# Elastic Compliance Matrix: (Units=1/GPa)
#
#
# Indices 1 2 3 4 5 6 
#
# 1 0.017183 -0.005252 -0.003136 0.000000 -0.003656 0.000000
# 2 -0.005252 0.015487 -0.002598 0.000000 0.000215 0.000000
# 3 -0.003136 -0.002598 0.009105 0.000000 -0.001949 0.000000
# 4 0.000000 0.000000 0.000000 0.095523 0.000000 -0.013020
# 5 -0.003656 0.000215 -0.001949 0.000000 0.033407 0.000000
# 6 0.000000 0.000000 0.000000 -0.013020 0.000000 0.062388
#
#
# Mechanical properties :
#
#
# Convention : Reuss Voigt Hill
#
# Bulk Modulus (GPa) = 50.49394 56.29361 53.39378
# Shear Modulus (GPa) = 19.10841 24.35553 21.73197
#
# Velocity S-wave (km/s) = 3.23925 3.65705 3.45447
# Velocity P-wave (km/s) = 6.45890 6.98168 6.72537
#
# Compressibility (1/GPa) = 0.01980436
#
# Stress axis : x y z
#
# Youngs Moduli (GPa) = 58.19782 64.56843 109.83397
#
# Poissons Ratio (x) = 0.33908 0.34442
# Poissons Ratio (y) = 0.30563 0.28534
# Poissons Ratio (z) = 0.18250 0.16774
#
# Static dielectric constant tensor:
#      x y z
#    x 1.690500 0.000000 0.001650 
#    y 0.000000 1.596230 0.000000 
#    z 0.001650 0.000000 1.654180 
# 
# From -- ./inp_files/48308.got.cif
#   From: 2010.05.17/outbox.cif.g08.bks.cpg/sg11_25_cif.got.tgz:48308.got - 2010.06.03 12:22:45.
