data_PCOD9157117
_publ_section_title
;
Structure prediction by ZEFSAII (Michael W. Deem and Ramdas Pophale) SiO2 
 PCOD9157117
Probable space group: P 21/M
;
_chemical_formula_sum "Si O2"
_cell_formula_units_Z 24
_cell_length_a 14.784458
_cell_length_b 8.511468
_cell_length_c 15.456297
_cell_angle_alpha 90.000000
_cell_angle_beta 31.405726
_cell_angle_gamma 90.000000
_cell_volume 1013.519669
_symmetry_space_group_name_H-M "P 21/M"
_symmetry_group_IT_number 11
_symmetry_cell_setting 'monoclinic'
loop_
_space_group_symop_operation_xyz
x,y,z
-x,1/2+y,-z
-x,-y,-z
x,1/2-y,z
loop_
_atom_site_type_symbol
_atom_site_label
_atom_site_fract_x
_atom_site_fract_y
_atom_site_fract_z
Si Si1 0.623460 0.934914 0.825116
Si Si2 0.830314 0.434783 0.958382
Si Si3 0.588063 0.566985 0.305229
Si Si4 0.089954 0.937359 0.297431
Si Si5 0.695329 0.939970 0.578935
Si Si6 0.877798 0.436517 0.177990
O O1 0.598620 0.750000 0.842075
O O2 0.601057 0.991941 0.745250
O O3 0.816750 0.973841 0.701280
O O4 0.500000 0.000000 0.000000
O O5 0.799215 0.250000 0.000875
O O6 0.805612 0.464848 0.877401
O O7 0.031122 0.474805 0.817013
O O8 0.710366 0.531826 0.121377
O O9 0.588378 0.750000 0.324907
O O10 0.400650 0.511821 0.425150
O O11 0.684079 0.477232 0.305041
O O12 0.092974 0.750000 0.311940
O O13 0.893903 0.983653 0.435365
O O14 0.685931 0.750000 0.579374
O O15 0.895794 0.250000 0.173029
O O16 0.000000 0.500000 0.000000
#
# Coordination Sequence:
#
# PCOD9157117 Si02
#       6
#     4   4   4   4   4   4
#     4  11  23  38  60  85 112 143 182 227 271 322
#     4  10  19  34  56  82 110 143 182 228 275 324
#     4  11  21  34  55  83 111 144 185 229 271 322
#     4  10  22  39  59  81 111 146 182 224 275 327
#     4  10  22  40  57  79 111 148 183 223 274 326
#     4  10  18  31  53  80 110 144 181 227 274 321
#
# _framework density 23.679856999999998
#
# number of rings (size 3 to 8) (size 9 to 14) (size 15 to 20)
#    0.000    1.667    0.000    7.500    0.000    7.333 
#    0.000    0.833    0.000    0.000    0.000    0.000 
#    0.000    0.000    0.000    0.000    0.000    0.000 
#
# Total GULP energy -134290.494686 kJ/mol
# GULP energy per Si atom -5595.437279 kJ/mol
# Density = 2.362596 g / cm^3
# Si number density = 23.679857 Si / 1000 Ang^3
#
#
#
# Elastic Constant Matrix: (Units=GPa)
#
#
# Indices 1 2 3 4 5 6 
#
# 1 127.1721 7.4190 4.1436 0.0000 -14.8456 0.0000
# 2 7.4190 43.6524 -7.7813 0.0000 1.7616 0.0000
# 3 4.1436 -7.7813 74.9147 0.0000 -12.8906 0.0000
# 4 0.0000 0.0000 0.0000 26.1100 0.0000 -15.8431
# 5 -14.8456 1.7616 -12.8906 0.0000 39.0050 0.0000
# 6 0.0000 0.0000 0.0000 -15.8431 0.0000 26.2406
#
#
#
# Elastic Compliance Matrix: (Units=1/GPa)
#
#
# Indices 1 2 3 4 5 6 
#
# 1 0.008332 -0.001558 -0.000069 0.000000 0.003219 0.000000
# 2 -0.001558 0.023634 0.002391 0.000000 -0.000870 0.000000
# 3 -0.000069 0.002391 0.014396 0.000000 0.004624 0.000000
# 4 0.000000 0.000000 0.000000 0.060443 0.000000 0.036493
# 5 0.003219 -0.000870 0.004624 0.000000 0.028430 0.000000
# 6 0.000000 0.000000 0.000000 0.036493 0.000000 0.060142
#
#
# Mechanical properties :
#
#
# Convention : Reuss Voigt Hill
#
# Bulk Modulus (GPa) = 20.88055 28.14465 24.51260
# Shear Modulus (GPa) = 23.83060 34.40163 29.11611
#
# Velocity S-wave (km/s) = 3.17577 3.81567 3.51033
# Velocity P-wave (km/s) = 4.72063 5.59676 5.17726
#
# Compressibility (1/GPa) = 0.04789146
#
# Stress axis : x y z
#
# Youngs Moduli (GPa) = 120.01512 42.31103 69.46234
#
# Poissons Ratio (x) = 0.06593 0.00478
# Poissons Ratio (y) = 0.18702 -0.16611
# Poissons Ratio (z) = 0.00826 -0.10118
#
# Static dielectric constant tensor:
#      x y z
#    x 1.955170 0.000000 0.049770 
#    y 0.000000 1.781340 0.000000 
#    z 0.049770 0.000000 2.135430 
# 
# From -- ./inp_files/53340.got.cif
#   From: 2010.05.17/outbox.cif.g08.bks.cpg/sg11_27_cif.got.tgz:53340.got - 2010.06.03 12:22:45.
