data_PCOD9157789
_publ_section_title
;
Structure prediction by ZEFSAII (Michael W. Deem and Ramdas Pophale) SiO2 
 PCOD9157789
Probable space group: P 21/M
;
_chemical_formula_sum "Si O2"
_cell_formula_units_Z 24
_cell_length_a 6.206651
_cell_length_b 23.143229
_cell_length_c 7.370788
_cell_angle_alpha 90.000000
_cell_angle_beta 68.017492
_cell_angle_gamma 90.000000
_cell_volume 981.780957
_symmetry_space_group_name_H-M "P 21/M"
_symmetry_group_IT_number 11
_symmetry_cell_setting 'monoclinic'
loop_
_space_group_symop_operation_xyz
x,y,z
-x,1/2+y,-z
-x,-y,-z
x,1/2-y,z
loop_
_atom_site_type_symbol
_atom_site_label
_atom_site_fract_x
_atom_site_fract_y
_atom_site_fract_z
Si Si1 0.177997 0.978667 0.276120
Si Si2 0.803267 0.888745 0.302792
Si Si3 0.293368 0.920530 0.602349
Si Si4 0.489876 0.422972 0.101416
Si Si5 0.417455 0.183824 0.928411
Si Si6 0.114938 0.684439 0.468688
O O1 0.184301 0.964281 0.489038
O O2 0.973159 0.943593 0.243887
O O3 0.248238 0.044216 0.211806
O O4 0.404404 0.945523 0.120255
O O5 0.557683 0.910043 0.454456
O O6 0.766657 0.853129 0.130188
O O7 0.915700 0.844156 0.410065
O O8 0.329471 0.939234 0.796790
O O9 0.166389 0.859386 0.615796
O O10 0.463588 0.354386 0.091877
O O11 0.350691 0.250000 0.981012
O O12 0.653260 0.184327 0.731909
O O13 0.066213 0.750000 0.536878
#
# Coordination Sequence:
#
# PCOD9157789 Si02
#       6
#     4   4   4   4   4   4
#     4  10  22  41  59  84 118 154 193 232 289 346
#     4  10  18  38  59  84 116 152 190 235 288 341
#     4  10  21  38  58  86 117 148 191 242 290 334
#     4  11  21  40  61  85 118 153 189 240 288 340
#     4  10  20  37  59  85 116 150 191 238 286 338
#     4   9  18  36  59  81 114 157 193 234 286 342
#
# _framework density 24.44537
#
# number of rings (size 3 to 8) (size 9 to 14) (size 15 to 20)
#    0.000    2.000    5.000    1.000    0.000    2.667 
#    6.000    0.000    0.000    0.000    0.000    0.000 
#    0.000    0.000    0.000    0.000    0.000    0.000 
#
# Total GULP energy -134352.235528 kJ/mol
# GULP energy per Si atom -5598.009814 kJ/mol
# Density = 2.438973 g / cm^3
# Si number density = 24.445370 Si / 1000 Ang^3
#
#
#
# Elastic Constant Matrix: (Units=GPa)
#
#
# Indices 1 2 3 4 5 6 
#
# 1 82.4799 25.0495 7.5638 0.0000 15.4455 0.0000
# 2 25.0495 158.7271 19.3326 0.0000 10.3702 0.0000
# 3 7.5638 19.3326 77.5764 0.0000 12.4865 0.0000
# 4 0.0000 0.0000 0.0000 27.1841 0.0000 5.1529
# 5 15.4455 10.3702 12.4865 0.0000 36.3992 0.0000
# 6 0.0000 0.0000 0.0000 5.1529 0.0000 29.9390
#
#
#
# Elastic Compliance Matrix: (Units=1/GPa)
#
#
# Indices 1 2 3 4 5 6 
#
# 1 0.013663 -0.001808 -0.000033 0.000000 -0.005271 0.000000
# 2 -0.001808 0.006802 -0.001408 0.000000 -0.000688 0.000000
# 3 -0.000033 -0.001408 0.013948 0.000000 -0.004369 0.000000
# 4 0.000000 0.000000 0.000000 0.038027 0.000000 -0.006545
# 5 -0.005271 -0.000688 -0.004369 0.000000 0.031405 0.000000
# 6 0.000000 0.000000 0.000000 -0.006545 0.000000 0.034528
#
#
# Mechanical properties :
#
#
# Convention : Reuss Voigt Hill
#
# Bulk Modulus (GPa) = 35.82312 46.96389 41.39351
# Shear Modulus (GPa) = 32.43049 36.49363 34.46206
#
# Velocity S-wave (km/s) = 3.64627 3.86795 3.75875
# Velocity P-wave (km/s) = 5.69326 6.26111 5.98393
#
# Compressibility (1/GPa) = 0.02791493
#
# Stress axis : x y z
#
# Youngs Moduli (GPa) = 73.18815 147.01868 71.69502
#
# Poissons Ratio (x) = 0.26579 0.00238
# Poissons Ratio (y) = 0.13231 0.10095
# Poissons Ratio (z) = 0.00243 0.20702
#
# Static dielectric constant tensor:
#      x y z
#    x 1.972900 0.000000 -0.032970 
#    y 0.000000 1.915130 0.000000 
#    z -0.032970 0.000000 1.935090 
# 
# From -- ./inp_files/10445.got.cif
#   From: 2010.05.17/outbox.cif.g08.bks.cpg/sg11_6_cif.got.tgz:10445.got - 2010.06.03 12:22:45.
