data_PCOD9157103
_publ_section_title
;
Structure prediction by ZEFSAII (Michael W. Deem and Ramdas Pophale) SiO2 
 PCOD9157103
Probable space group: P 21/M
;
_chemical_formula_sum "Si O2"
_cell_formula_units_Z 32
_cell_length_a 19.761095
_cell_length_b 12.348600
_cell_length_c 9.842895
_cell_angle_alpha 90.000000
_cell_angle_beta 32.419714
_cell_angle_gamma 90.000000
_cell_volume 1287.690176
_symmetry_space_group_name_H-M "P 21/M"
_symmetry_group_IT_number 11
_symmetry_cell_setting 'monoclinic'
loop_
_space_group_symop_operation_xyz
x,y,z
-x,1/2+y,-z
-x,-y,-z
x,1/2-y,z
loop_
_atom_site_type_symbol
_atom_site_label
_atom_site_fract_x
_atom_site_fract_y
_atom_site_fract_z
Si Si1 0.059322 0.127671 0.687502
Si Si2 0.426664 0.629164 0.491620
Si Si3 0.623532 0.133014 0.714063
Si Si4 0.329204 0.497927 0.859772
Si Si5 0.706676 0.869983 0.358420
Si Si6 0.996784 0.623741 0.818557
Si Si7 0.094591 0.128845 0.331567
Si Si8 0.341665 0.087827 0.253043
O O1 0.015575 0.250000 0.813349
O O2 0.016140 0.122249 0.603118
O O3 0.211347 0.136448 0.426818
O O4 0.038724 0.003329 0.780110
O O5 0.477574 0.750000 0.395138
O O6 0.337929 0.616253 0.508621
O O7 0.356669 0.616327 0.755179
O O8 0.545932 0.548825 0.282950
O O9 0.663815 0.250000 0.691546
O O10 0.667999 0.041520 0.740311
O O11 0.471249 0.127164 0.970048
O O12 0.320695 0.441154 0.725643
O O13 0.204200 0.461328 0.146932
O O14 0.668434 0.750000 0.383198
O O15 0.645249 0.893466 0.607095
O O16 0.857659 0.872762 0.121459
O O17 0.047882 0.750000 0.760616
O O18 0.979967 0.621369 0.683346
O O19 0.153812 0.250000 0.228073
#
# Coordination Sequence:
#
# PCOD9157103 Si02
#       8
#     4   4   4   4   4   4   4   4
#     4  11  22  37  59  86 114 146 188 234 280 334
#     4  10  19  32  51  77 109 141 181 230 278 323
#     4  10  21  38  56  77 110 150 188 232 278 328
#     4  10  18  31  53  78 105 141 182 222 271 330
#     4  10  19  35  55  79 108 145 184 226 273 328
#     4   9  20  38  60  83 111 143 186 234 284 335
#     4   9  18  35  58  81 108 145 182 223 276 334
#     4  11  22  36  56  81 109 148 191 227 271 331
#
# _framework density 24.850698999999999
#
# number of rings (size 3 to 8) (size 9 to 14) (size 15 to 20)
#    0.000    2.000    1.250    4.125    0.000    3.000 
#    0.000    3.750    0.000    0.000    0.000    0.000 
#    0.000    0.000    0.000    0.000    0.000    0.000 
#
# Total GULP energy -178291.320356 kJ/mol
# GULP energy per Si atom -5571.603761 kJ/mol
# Density = 2.479414 g / cm^3
# Si number density = 24.850699 Si / 1000 Ang^3
#
#
#
# Elastic Constant Matrix: (Units=GPa)
#
#
# Indices 1 2 3 4 5 6 
#
# 1 48.2221 16.4545 12.9664 0.0000 12.2610 0.0000
# 2 16.4545 183.6780 21.2660 0.0000 -5.6250 0.0000
# 3 12.9664 21.2660 41.4200 0.0000 9.0469 0.0000
# 4 0.0000 0.0000 0.0000 18.6463 0.0000 2.9350
# 5 12.2610 -5.6250 9.0469 0.0000 32.3976 0.0000
# 6 0.0000 0.0000 0.0000 2.9350 0.0000 -2.8495
#
#
#
# Elastic Compliance Matrix: (Units=1/GPa)
#
#
# Indices 1 2 3 4 5 6 
#
# 1 0.024848 -0.001905 -0.004978 0.000000 -0.008344 0.000000
# 2 -0.001905 0.006053 -0.003087 0.000000 0.002634 0.000000
# 3 -0.004978 -0.003087 0.028745 0.000000 -0.006679 0.000000
# 4 0.000000 0.000000 0.000000 0.046148 0.000000 0.047533
# 5 -0.008344 0.002634 -0.006679 0.000000 0.036347 0.000000
# 6 0.000000 0.000000 0.000000 0.047533 0.000000 -0.301983
#
#
# Mechanical properties :
#
#
# Convention : Reuss Voigt Hill
#
# Bulk Modulus (GPa) = 25.18493 41.63267 33.40880
# Shear Modulus (GPa) = -39.47318 24.48110 -7.49604
#
# Velocity S-wave (km/s) = -3.98981 3.14208 -1.73867
# Velocity P-wave (km/s) = 3.32691 5.47294 3.07284
#
# Compressibility (1/GPa) = 0.03970629
#
# Stress axis : x y z
#
# Youngs Moduli (GPa) = 40.24541 165.20710 34.78898
#
# Poissons Ratio (x) = 0.31475 0.17317
# Poissons Ratio (y) = 0.07667 0.10738
# Poissons Ratio (z) = 0.20033 0.50994
#
# Static dielectric constant tensor:
#      x y z
#    x 1.963890 0.000000 0.009570 
#    y 0.000000 2.332030 0.000000 
#    z 0.009570 0.000000 1.956880 
# 
# From -- ./inp_files/44216.got.cif
#   From: 2010.05.17/outbox.cif.g08.bks.cpg/sg11_23_cif.got.tgz:44216.got - 2010.06.03 12:22:45.
