data_PCOD9157032
_publ_section_title
;
Structure prediction by ZEFSAII (Michael W. Deem and Ramdas Pophale) SiO2 
 PCOD9157032
Probable space group: P 21/M
;
_chemical_formula_sum "Si O2"
_cell_formula_units_Z 28
_cell_length_a 12.273428
_cell_length_b 7.754443
_cell_length_c 13.846037
_cell_angle_alpha 90.000000
_cell_angle_beta 76.217958
_cell_angle_gamma 90.000000
_cell_volume 1279.837028
_symmetry_space_group_name_H-M "P 21/M"
_symmetry_group_IT_number 11
_symmetry_cell_setting 'monoclinic'
loop_
_space_group_symop_operation_xyz
x,y,z
-x,1/2+y,-z
-x,-y,-z
x,1/2-y,z
loop_
_atom_site_type_symbol
_atom_site_label
_atom_site_fract_x
_atom_site_fract_y
_atom_site_fract_z
Si Si1 0.938746 0.041713 0.230861
Si Si2 0.710143 0.045717 0.200709
Si Si3 0.524402 0.955154 0.383884
Si Si4 0.194319 0.956803 0.171039
Si Si5 0.893496 0.042984 0.456673
Si Si6 0.290073 0.961249 0.356190
Si Si7 0.620307 0.457810 0.018796
O O1 0.933390 0.250000 0.233971
O O2 0.836377 0.977339 0.186535
O O3 0.913989 0.976580 0.344796
O O4 0.065172 0.996211 0.176835
O O5 0.720890 0.250000 0.183234
O O6 0.638832 0.022725 0.313407
O O7 0.643046 0.975648 0.122391
O O8 0.528620 0.750000 0.375654
O O9 0.417961 0.017880 0.343297
O O10 0.500000 0.000000 0.500000
O O11 0.204671 0.750000 0.171856
O O12 0.232166 0.020084 0.269251
O O13 0.280862 0.021482 0.072489
O O14 0.884345 0.250000 0.452137
O O15 0.783651 0.980895 0.536663
O O16 0.000000 0.000000 0.500000
O O17 0.289448 0.750000 0.356013
O O18 0.626100 0.250000 0.019641
O O19 0.500000 0.500000 0.000000
#
# Coordination Sequence:
#
# PCOD9157032 Si02
#       7
#     4   4   4   4   4   4   4
#     4  10  21  36  55  81 116 154 192 236 289 345
#     4  10  22  41  60  82 118 157 192 237 294 348
#     4  11  22  38  60  86 116 153 195 237 288 347
#     4  10  20  36  58  84 112 146 192 239 286 342
#     4  10  18  31  51  76 107 146 185 225 276 333
#     4   9  18  33  54  78 111 149 184 231 286 339
#     4  10  22  40  63  88 115 150 193 244 295 346
#
# _framework density 21.877787999999999
#
# number of rings (size 3 to 8) (size 9 to 14) (size 15 to 20)
#    0.000    2.000    1.429    2.143    0.000    5.714 
#    0.000    4.286    0.000    0.000    0.000    0.000 
#    0.000    0.000    0.000    0.000    0.000    0.000 
#
# Total GULP energy -156449.659261 kJ/mol
# GULP energy per Si atom -5587.487831 kJ/mol
# Density = 2.182799 g / cm^3
# Si number density = 21.877788 Si / 1000 Ang^3
#
#
#
# Elastic Constant Matrix: (Units=GPa)
#
#
# Indices 1 2 3 4 5 6 
#
# 1 177.9676 1.2018 67.7074 0.0000 -3.8715 0.0000
# 2 1.2018 30.6755 2.3163 0.0000 3.8596 0.0000
# 3 67.7074 2.3163 121.0258 0.0000 -5.5129 0.0000
# 4 0.0000 0.0000 0.0000 11.0149 0.0000 0.0913
# 5 -3.8715 3.8596 -5.5129 0.0000 37.7316 0.0000
# 6 0.0000 0.0000 0.0000 0.0913 0.0000 24.5929
#
#
#
# Elastic Compliance Matrix: (Units=1/GPa)
#
#
# Indices 1 2 3 4 5 6 
#
# 1 0.007139 0.000003 -0.003987 0.000000 0.000150 0.000000
# 2 0.000003 0.033100 -0.000794 0.000000 -0.003502 0.000000
# 3 -0.003987 -0.000794 0.010564 0.000000 0.001216 0.000000
# 4 0.000000 0.000000 0.000000 0.090789 0.000000 -0.000337
# 5 0.000150 -0.003502 0.001216 0.000000 0.027054 0.000000
# 6 0.000000 0.000000 0.000000 -0.000337 0.000000 0.040663
#
#
# Mechanical properties :
#
#
# Convention : Reuss Voigt Hill
#
# Bulk Modulus (GPa) = 24.24558 52.45777 38.35168
# Shear Modulus (GPa) = 21.49469 31.89744 26.69607
#
# Velocity S-wave (km/s) = 3.13787 3.82250 3.49698
# Velocity P-wave (km/s) = 4.92287 6.59634 5.82006
#
# Compressibility (1/GPa) = 0.04124463
#
# Stress axis : x y z
#
# Youngs Moduli (GPa) = 140.07241 30.21173 94.66196
#
# Poissons Ratio (x) = -0.00008 0.37744
# Poissons Ratio (y) = -0.00036 0.07520
# Poissons Ratio (z) = 0.55850 0.02400
#
# Static dielectric constant tensor:
#      x y z
#    x 1.793270 0.000000 0.019450 
#    y 0.000000 1.805760 0.000000 
#    z 0.019450 0.000000 1.772720 
# 
# From -- ./inp_files/48918.got.cif
#   From: 2010.05.17/outbox.cif.g08.bks.cpg/sg11_25_cif.got.tgz:48918.got - 2010.06.03 12:22:45.
