data_PCOD9157849
_publ_section_title
;
Structure prediction by ZEFSAII (Michael W. Deem and Ramdas Pophale) SiO2 
 PCOD9157849
Probable space group: P 21/M
;
_chemical_formula_sum "Si O2"
_cell_formula_units_Z 32
_cell_length_a 12.709649
_cell_length_b 7.821005
_cell_length_c 23.065469
_cell_angle_alpha 90.000000
_cell_angle_beta 134.012686
_cell_angle_gamma 90.000000
_cell_volume 1648.920133
_symmetry_space_group_name_H-M "P 21/M"
_symmetry_group_IT_number 11
_symmetry_cell_setting 'monoclinic'
loop_
_space_group_symop_operation_xyz
x,y,z
-x,1/2+y,-z
-x,-y,-z
x,1/2-y,z
loop_
_atom_site_type_symbol
_atom_site_label
_atom_site_fract_x
_atom_site_fract_y
_atom_site_fract_z
Si Si1 0.946964 0.044821 0.352904
Si Si2 0.054096 0.955914 0.779812
Si Si3 0.496946 0.544971 0.699524
Si Si4 0.387397 0.955451 0.906804
Si Si5 0.224246 0.544641 0.517094
Si Si6 0.227869 0.952776 0.272782
Si Si7 0.331806 0.955589 0.435043
Si Si8 0.391017 0.541292 0.779116
O O1 0.950144 0.250000 0.352088
O O2 0.986677 0.982503 0.301983
O O3 0.778331 0.993262 0.297102
O O4 0.051090 0.992080 0.446164
O O5 0.053013 0.750000 0.776938
O O6 0.220702 0.014522 0.853984
O O7 0.944823 0.008490 0.789663
O O8 0.483335 0.750000 0.695471
O O9 0.350757 0.481075 0.609220
O O10 0.651378 0.510049 0.727344
O O11 0.487158 0.481829 0.761830
O O12 0.380288 0.750000 0.901137
O O13 0.431659 0.017122 0.859292
O O14 0.500000 0.000000 0.000000
O O15 0.236243 0.750000 0.523451
O O16 0.268272 0.476074 0.470396
O O17 0.242920 0.750000 0.279913
O O18 0.273523 0.028330 0.352709
O O19 0.311468 0.750000 0.427477
O O20 0.500000 0.000000 0.500000
O O21 0.395149 0.750000 0.781392
#
# Coordination Sequence:
#
# PCOD9157849 Si02
#       8
#     4   4   4   4   4   4   4   4
#     4   9  17  30  49  69  93 129 171 213 251 288
#     4   9  18  32  51  75 102 131 163 198 243 301
#     4  10  20  34  50  66  95 141 180 205 240 294
#     4   9  18  35  60  87 107 124 153 195 245 301
#     4  10  19  29  42  66  96 131 174 215 254 289
#     4  11  21  31  46  70 101 132 168 215 256 285
#     4  10  19  29  41  62  93 128 171 219 256 284
#     4   8  17  35  54  73  99 132 167 200 241 300
#
# _framework density 19.406642000000002
#
# number of rings (size 3 to 8) (size 9 to 14) (size 15 to 20)
#    0.000    2.500    2.500    1.875    0.000    2.500 
#    0.000    3.125    0.000    0.750    0.000    0.000 
#    0.000    0.000    0.000    0.000    0.000    0.000 
#
# Total GULP energy -178167.646127 kJ/mol
# GULP energy per Si atom -5567.738941 kJ/mol
# Density = 1.936247 g / cm^3
# Si number density = 19.406642 Si / 1000 Ang^3
#
#
#
# Elastic Constant Matrix: (Units=GPa)
#
#
# Indices 1 2 3 4 5 6 
#
# 1 131.3324 9.3998 74.9941 0.0000 -16.8082 0.0000
# 2 9.3998 23.6833 8.1476 0.0000 -4.8446 0.0000
# 3 74.9941 8.1476 120.2671 0.0000 -3.6167 0.0000
# 4 0.0000 0.0000 0.0000 21.9270 0.0000 6.1936
# 5 -16.8082 -4.8446 -3.6167 0.0000 17.1916 0.0000
# 6 0.0000 0.0000 0.0000 6.1936 0.0000 10.6002
#
#
#
# Elastic Compliance Matrix: (Units=1/GPa)
#
#
# Indices 1 2 3 4 5 6 
#
# 1 0.013857 -0.000254 -0.008271 0.000000 0.011737 0.000000
# 2 -0.000254 0.045682 -0.002573 0.000000 0.012084 0.000000
# 3 -0.008271 -0.002573 0.013467 0.000000 -0.005978 0.000000
# 4 0.000000 0.000000 0.000000 0.054620 0.000000 -0.031914
# 5 0.011737 0.012084 -0.005978 0.000000 0.071790 0.000000
# 6 0.000000 0.000000 0.000000 -0.031914 0.000000 0.112985
#
#
# Mechanical properties :
#
#
# Convention : Reuss Voigt Hill
#
# Bulk Modulus (GPa) = 19.68107 51.15177 35.41642
# Shear Modulus (GPa) = 14.22339 22.12651 18.17495
#
# Velocity S-wave (km/s) = 2.71017 3.38028 3.06360
# Velocity P-wave (km/s) = 4.46731 6.45369 5.55009
#
# Compressibility (1/GPa) = 0.05081024
#
# Stress axis : x y z
#
# Youngs Moduli (GPa) = 72.16369 21.89069 74.25703
#
# Poissons Ratio (x) = 0.00555 0.61417
# Poissons Ratio (y) = 0.01831 0.19107
# Poissons Ratio (z) = 0.59685 0.05633
#
# Static dielectric constant tensor:
#      x y z
#    x 1.748240 0.000000 0.017540 
#    y 0.000000 1.708260 0.000000 
#    z 0.017540 0.000000 1.699220 
# 
# From -- ./inp_files/61805.got.cif
#   From: 2010.05.17/outbox.cif.g08.bks.cpg/sg11_31_cif.got.tgz:61805.got - 2010.06.03 12:22:45.
