data_PCOD9157086
_publ_section_title
;
Structure prediction by ZEFSAII (Michael W. Deem and Ramdas Pophale) SiO2 
 PCOD9157086
Probable space group: P 21/M
;
_chemical_formula_sum "Si O2"
_cell_formula_units_Z 32
_cell_length_a 26.241710
_cell_length_b 8.873266
_cell_length_c 17.314728
_cell_angle_alpha 90.000000
_cell_angle_beta 155.433641
_cell_angle_gamma 90.000000
_cell_volume 1676.178594
_symmetry_space_group_name_H-M "P 21/M"
_symmetry_group_IT_number 11
_symmetry_cell_setting 'monoclinic'
loop_
_space_group_symop_operation_xyz
x,y,z
-x,1/2+y,-z
-x,-y,-z
x,1/2-y,z
loop_
_atom_site_type_symbol
_atom_site_label
_atom_site_fract_x
_atom_site_fract_y
_atom_site_fract_z
Si Si1 0.684425 0.429716 0.117250
Si Si2 0.737286 0.569908 0.354036
Si Si3 0.800191 0.073625 0.896487
Si Si4 0.645668 0.430721 0.543356
Si Si5 0.591395 0.569049 0.307565
Si Si6 0.814561 0.929640 0.160833
Si Si7 0.611025 0.073546 0.770636
Si Si8 0.996725 0.570151 0.278508
O O1 0.694182 0.250000 0.133851
O O2 0.688604 0.495871 0.208564
O O3 0.793016 0.494498 0.213697
O O4 0.552685 0.468905 0.898126
O O5 0.733688 0.750000 0.341448
O O6 0.657240 0.527671 0.318390
O O7 0.875661 0.513488 0.555473
O O8 0.837385 0.250000 0.948426
O O9 0.760709 0.027750 0.756146
O O10 0.677030 0.063258 0.778851
O O11 0.902831 0.977869 0.081561
O O12 0.634311 0.250000 0.529945
O O13 0.650634 0.488448 0.462700
O O14 0.523196 0.504722 0.409856
O O15 0.600801 0.750000 0.330405
O O16 0.812731 0.750000 0.166469
O O17 0.932547 0.972036 0.271915
O O18 0.700226 0.984733 0.951369
O O19 0.607322 0.250000 0.788075
O O20 0.013915 0.750000 0.301872
#
# Coordination Sequence:
#
# PCOD9157086 Si02
#       8
#     4   4   4   4   4   4   4   4
#     4  11  22  38  62  90 119 149 188 237 293 350
#     4  11  24  42  63  84 112 153 197 241 291 346
#     4   9  20  36  55  83 117 155 195 235 284 340
#     4  11  21  33  55  86 118 153 193 236 285 344
#     4  10  23  41  60  86 118 152 192 240 291 342
#     4  10  20  35  57  87 120 153 190 234 288 344
#     4  10  18  31  52  80 119 157 189 231 285 341
#     4  10  22  40  61  86 117 153 197 243 286 339
#
# _framework density 19.091044
#
# number of rings (size 3 to 8) (size 9 to 14) (size 15 to 20)
#    0.000    1.750    1.250    3.000    0.000    5.000 
#    0.000    0.625    0.000    0.000    0.000    0.000 
#    0.000    0.000    0.000    0.000    0.000    0.000 
#
# Total GULP energy -178776.610261 kJ/mol
# GULP energy per Si atom -5586.769071 kJ/mol
# Density = 1.904759 g / cm^3
# Si number density = 19.091044 Si / 1000 Ang^3
#
#
#
# Elastic Constant Matrix: (Units=GPa)
#
#
# Indices 1 2 3 4 5 6 
#
# 1 158.6836 54.7396 43.1880 0.0000 -5.0098 0.0000
# 2 54.7396 49.4861 17.5910 0.0000 -1.6338 0.0000
# 3 43.1880 17.5910 39.1517 0.0000 -11.2625 0.0000
# 4 0.0000 0.0000 0.0000 23.1469 0.0000 -3.0385
# 5 -5.0098 -1.6338 -11.2625 0.0000 31.1242 0.0000
# 6 0.0000 0.0000 0.0000 -3.0385 0.0000 29.6840
#
#
#
# Elastic Compliance Matrix: (Units=1/GPa)
#
#
# Indices 1 2 3 4 5 6 
#
# 1 0.012456 -0.010417 -0.009644 0.000000 -0.002032 0.000000
# 2 -0.010417 0.033007 -0.003709 0.000000 -0.001286 0.000000
# 3 -0.009644 -0.003709 0.041683 0.000000 0.013336 0.000000
# 4 0.000000 0.000000 0.000000 0.043791 0.000000 0.004482
# 5 -0.002032 -0.001286 0.013336 0.000000 0.036561 0.000000
# 6 0.000000 0.000000 0.000000 0.004482 0.000000 0.034147
#
#
# Mechanical properties :
#
#
# Convention : Reuss Voigt Hill
#
# Bulk Modulus (GPa) = 25.24924 53.15097 39.20010
# Shear Modulus (GPa) = 19.05587 25.57786 22.31686
#
# Velocity S-wave (km/s) = 3.16279 3.66428 3.42273
# Velocity P-wave (km/s) = 5.15675 6.76785 6.01647
#
# Compressibility (1/GPa) = 0.03960516
#
# Stress axis : x y z
#
# Youngs Moduli (GPa) = 80.28238 30.29679 23.99070
#
# Poissons Ratio (x) = 0.31561 0.23137
# Poissons Ratio (y) = 0.83632 0.08898
# Poissons Ratio (z) = 0.77425 0.11237
#
# Static dielectric constant tensor:
#      x y z
#    x 1.673570 0.000000 -0.014390 
#    y 0.000000 1.635090 0.000000 
#    z -0.014390 0.000000 1.650070 
# 
# From -- ./inp_files/55755.got.cif
#   From: 2010.05.17/outbox.cif.g08.bks.cpg/sg11_28_cif.got.tgz:55755.got - 2010.06.03 12:22:45.
