data_PCOD9157677
_publ_section_title
;
Structure prediction by ZEFSAII (Michael W. Deem and Ramdas Pophale) SiO2 
 PCOD9157677
Probable space group: P 21/M
;
_chemical_formula_sum "Si O2"
_cell_formula_units_Z 32
_cell_length_a 14.682045
_cell_length_b 8.720899
_cell_length_c 25.319132
_cell_angle_alpha 90.000000
_cell_angle_beta 150.164368
_cell_angle_gamma 90.000000
_cell_volume 1612.877977
_symmetry_space_group_name_H-M "P 21/M"
_symmetry_group_IT_number 11
_symmetry_cell_setting 'monoclinic'
loop_
_space_group_symop_operation_xyz
x,y,z
-x,1/2+y,-z
-x,-y,-z
x,1/2-y,z
loop_
_atom_site_type_symbol
_atom_site_label
_atom_site_fract_x
_atom_site_fract_y
_atom_site_fract_z
Si Si1 0.878878 0.935547 0.391832
Si Si2 0.917776 0.565414 0.012547
Si Si3 0.210054 0.571383 0.249808
Si Si4 0.910842 0.929022 0.183443
Si Si5 0.446563 0.567597 0.530274
Si Si6 0.956364 0.063555 0.637594
Si Si7 0.517766 0.063945 0.837528
Si Si8 0.440326 0.571684 0.025031
O O1 0.885340 0.750000 0.396020
O O2 0.664047 0.979807 0.286191
O O3 0.963135 0.986871 0.377795
O O4 0.000000 0.000000 0.500000
O O5 0.909563 0.750000 0.007531
O O6 0.061114 0.522692 0.131263
O O7 0.712453 0.502833 0.917938
O O8 0.000000 0.500000 0.000000
O O9 0.254841 0.750000 0.262321
O O10 0.394312 0.476341 0.348451
O O11 0.107167 0.563506 0.254512
O O12 0.851623 0.750000 0.149855
O O13 0.922837 0.976800 0.250366
O O14 0.774902 0.035331 0.082657
O O15 0.500000 0.500000 0.500000
O O16 0.435717 0.750000 0.518901
O O17 0.250165 0.512045 0.453294
O O18 0.955176 0.250000 0.636258
O O19 0.532112 0.250000 0.844319
O O20 0.482602 0.013958 0.880678
O O21 0.481093 0.750000 0.043089
O O22 0.500000 0.500000 0.000000
#
# Coordination Sequence:
#
# PCOD9157677 Si02
#       8
#     4   4   4   4   4   4   4   4
#     4  10  22  42  64  86 115 155 203 252 299 352
#     4  11  24  42  65  92 125 162 203 253 305 367
#     4  10  21  38  59  85 118 158 200 248 305 357
#     4  10  18  35  59  82 116 154 193 243 300 358
#     4  11  21  35  58  88 123 163 205 250 303 368
#     4   9  19  37  60  84 117 160 198 237 298 362
#     4  10  22  41  64  89 120 158 203 252 305 365
#     4  11  22  35  56  88 122 157 198 243 298 364
#
# _framework density 19.840311
#
# number of rings (size 3 to 8) (size 9 to 14) (size 15 to 20)
#    0.000    1.750    2.500    1.875    0.000    5.500 
#    0.000    5.625    0.000    0.000    0.000    0.000 
#    0.000    0.000    0.000    0.000    0.000    0.000 
#
# Total GULP energy -178629.714191 kJ/mol
# GULP energy per Si atom -5582.178568 kJ/mol
# Density = 1.979515 g / cm^3
# Si number density = 19.840311 Si / 1000 Ang^3
#
#
#
# Elastic Constant Matrix: (Units=GPa)
#
#
# Indices 1 2 3 4 5 6 
#
# 1 96.2579 21.2830 55.2399 0.0000 -6.6927 0.0000
# 2 21.2830 17.2216 24.9993 0.0000 0.2507 0.0000
# 3 55.2399 24.9993 149.7041 0.0000 -3.8795 0.0000
# 4 0.0000 0.0000 0.0000 33.3022 0.0000 1.0222
# 5 -6.6927 0.2507 -3.8795 0.0000 33.7114 0.0000
# 6 0.0000 0.0000 0.0000 1.0222 0.0000 26.2983
#
#
#
# Elastic Compliance Matrix: (Units=1/GPa)
#
#
# Indices 1 2 3 4 5 6 
#
# 1 0.015717 -0.014723 -0.003267 0.000000 0.002854 0.000000
# 2 -0.014723 0.090579 -0.009816 0.000000 -0.004726 0.000000
# 3 -0.003267 -0.009816 0.009538 0.000000 0.000522 0.000000
# 4 0.000000 0.000000 0.000000 0.030064 0.000000 -0.001169
# 5 0.002854 -0.004726 0.000522 0.000000 0.030325 0.000000
# 6 0.000000 0.000000 0.000000 -0.001169 0.000000 0.038071
#
#
# Mechanical properties :
#
#
# Convention : Reuss Voigt Hill
#
# Bulk Modulus (GPa) = 16.60491 51.80310 34.20400
# Shear Modulus (GPa) = 17.24252 29.43983 23.34117
#
# Velocity S-wave (km/s) = 2.95119 3.85624 3.43367
# Velocity P-wave (km/s) = 4.47215 6.78190 5.74432
#
# Compressibility (1/GPa) = 0.06022317
#
# Stress axis : x y z
#
# Youngs Moduli (GPa) = 63.62382 11.04003 104.84349
#
# Poissons Ratio (x) = 0.16254 0.34253
# Poissons Ratio (y) = 0.93674 1.02912
# Poissons Ratio (z) = 0.20786 0.10837
#
# Static dielectric constant tensor:
#      x y z
#    x 1.720050 0.000000 0.014800 
#    y 0.000000 1.682860 0.000000 
#    z 0.014800 0.000000 1.723650 
# 
# From -- ./inp_files/51744.got.cif
#   From: 2010.05.17/outbox.cif.g08.bks.cpg/sg11_26_cif.got.tgz:51744.got - 2010.06.03 12:22:45.
