data_PCOD9157540
_publ_section_title
;
Structure prediction by ZEFSAII (Michael W. Deem and Ramdas Pophale) SiO2 
 PCOD9157540
Probable space group: P 21/M
;
_chemical_formula_sum "Si O2"
_cell_formula_units_Z 30
_cell_length_a 9.673767
_cell_length_b 23.731734
_cell_length_c 7.706310
_cell_angle_alpha 90.000000
_cell_angle_beta 130.982512
_cell_angle_gamma 90.000000
_cell_volume 1335.569914
_symmetry_space_group_name_H-M "P 21/M"
_symmetry_group_IT_number 11
_symmetry_cell_setting 'monoclinic'
loop_
_space_group_symop_operation_xyz
x,y,z
-x,1/2+y,-z
-x,-y,-z
x,1/2-y,z
loop_
_atom_site_type_symbol
_atom_site_label
_atom_site_fract_x
_atom_site_fract_y
_atom_site_fract_z
Si Si1 0.035829 0.190051 0.417292
Si Si2 0.951773 0.366938 0.872510
Si Si3 0.718784 0.565067 0.683713
Si Si4 0.937736 0.750000 0.923849
Si Si5 0.250987 0.609027 0.953208
Si Si6 0.202917 0.000765 0.746792
Si Si7 0.678835 0.445401 0.493178
Si Si8 0.670457 0.886083 0.254070
O O1 0.958564 0.250000 0.413315
O O2 0.090615 0.202626 0.260117
O O3 0.210071 0.169550 0.666686
O O4 0.889389 0.140594 0.288208
O O5 0.837580 0.398570 0.628790
O O6 0.796741 0.368175 0.896908
O O7 0.117699 0.406667 0.074711
O O8 0.015165 0.302388 0.904710
O O9 0.736765 0.498126 0.663513
O O10 0.520040 0.574611 0.606975
O O11 0.714633 0.591425 0.485797
O O12 0.216744 0.542202 0.916039
O O13 0.456098 0.622964 0.070284
O O14 0.331583 0.972429 0.706182
O O15 0.265145 0.064459 0.820063
O O16 0.000000 0.000000 0.500000
#
# Coordination Sequence:
#
# PCOD9157540 Si02
#       8
#     4   4   4   2   4   4   4   4
#     4   9  18  35  53  86 113 141 190 238 282 323
#     4  11  19  38  59  83 112 148 186 234 286 327
#     4  10  18  34  53  82 114 143 179 229 276 339
#     4   8  18  32  58  84 110 138 192 234 274 334
#     4  11  20  34  59  84 116 146 189 237 279 341
#     4  11  22  40  56  82 121 156 185 231 292 345
#     4  10  22  34  55  83 113 147 185 223 282 340
#     4  11  19  34  57  83 118 148 184 236 286 338
#
# _framework density 22.462320999999999
#
# number of rings (size 3 to 8) (size 9 to 14) (size 15 to 20)
#    0.400    1.333    5.333    1.600    0.000    0.533 
#    2.400    0.667    1.467    0.000    0.000    0.000 
#    0.000    0.000    0.000    0.000    0.000    0.000 
#
# Total GULP energy -167099.109616 kJ/mol
# GULP energy per Si atom -5569.970321 kJ/mol
# Density = 2.241120 g / cm^3
# Si number density = 22.462321 Si / 1000 Ang^3
#
#
#
# Elastic Constant Matrix: (Units=GPa)
#
#
# Indices 1 2 3 4 5 6 
#
# 1 60.8464 20.7993 22.5819 0.0000 13.5307 0.0000
# 2 20.7993 88.7016 16.6395 0.0000 1.2136 0.0000
# 3 22.5819 16.6395 47.4609 0.0000 14.3386 0.0000
# 4 0.0000 0.0000 0.0000 -51.2798 0.0000 -14.1207
# 5 13.5307 1.2136 14.3386 0.0000 38.9430 0.0000
# 6 0.0000 0.0000 0.0000 -14.1207 0.0000 7.6861
#
#
#
# Elastic Compliance Matrix: (Units=1/GPa)
#
#
# Indices 1 2 3 4 5 6 
#
# 1 0.021482 -0.003549 -0.007601 0.000000 -0.004555 0.000000
# 2 -0.003549 0.012715 -0.003400 0.000000 0.002089 0.000000
# 3 -0.007601 -0.003400 0.028184 0.000000 -0.007630 0.000000
# 4 0.000000 0.000000 0.000000 -0.012950 0.000000 -0.023791
# 5 -0.004555 0.002089 -0.007630 0.000000 0.030005 0.000000
# 6 0.000000 0.000000 0.000000 -0.023791 0.000000 0.086397
#
#
# Mechanical properties :
#
#
# Convention : Reuss Voigt Hill
#
# Bulk Modulus (GPa) = 30.04761 35.22783 32.63772
# Shear Modulus (GPa) = 24.26868 8.20240 16.23554
#
# Velocity S-wave (km/s) = 3.29054 1.91300 2.69139
# Velocity P-wave (km/s) = 5.27663 4.53834 4.92135
#
# Compressibility (1/GPa) = 0.03328052
#
# Stress axis : x y z
#
# Youngs Moduli (GPa) = 46.55127 78.64584 35.48151
#
# Poissons Ratio (x) = 0.27912 0.26968
# Poissons Ratio (y) = 0.16521 0.12065
# Poissons Ratio (z) = 0.35382 0.26742
#
# Static dielectric constant tensor:
#      x y z
#    x 1.917730 0.000000 -0.069420 
#    y 0.000000 1.853020 0.000000 
#    z -0.069420 0.000000 1.882260 
# 
# From -- ./inp_files/19730.got.cif
#   From: 2010.05.17/outbox.cif.g08.bks.cpg/sg11_10_cif.got.tgz:19730.got - 2010.06.03 12:22:45.
