data_PCOD9157537
_publ_section_title
;
Structure prediction by ZEFSAII (Michael W. Deem and Ramdas Pophale) SiO2 
 PCOD9157537
Probable space group: P 21/M
;
_chemical_formula_sum "Si O2"
_cell_formula_units_Z 32
_cell_length_a 30.425405
_cell_length_b 7.425820
_cell_length_c 12.970045
_cell_angle_alpha 90.000000
_cell_angle_beta 24.292586
_cell_angle_gamma 90.000000
_cell_volume 1205.543200
_symmetry_space_group_name_H-M "P 21/M"
_symmetry_group_IT_number 11
_symmetry_cell_setting 'monoclinic'
loop_
_space_group_symop_operation_xyz
x,y,z
-x,1/2+y,-z
-x,-y,-z
x,1/2-y,z
loop_
_atom_site_type_symbol
_atom_site_label
_atom_site_fract_x
_atom_site_fract_y
_atom_site_fract_z
Si Si1 0.520761 0.961486 0.074880
Si Si2 0.823474 0.043065 0.354311
Si Si3 0.656188 0.462074 0.953687
Si Si4 0.201989 0.954334 0.993956
Si Si5 0.142856 0.970416 0.340380
Si Si6 0.288623 0.972581 0.601672
Si Si7 0.968392 0.469142 0.223735
Si Si8 0.554352 0.964249 0.492611
O O1 0.521125 0.750000 0.084645
O O2 0.409802 0.033074 0.362853
O O3 0.634934 0.023979 0.876434
O O4 0.500000 0.000000 0.000000
O O5 0.795228 0.250000 0.432339
O O6 0.742496 0.960857 0.445111
O O7 0.866552 0.970716 0.371337
O O8 0.929755 0.041403 0.053404
O O9 0.657327 0.250000 0.973055
O O10 0.541915 0.538439 0.231782
O O11 0.751698 0.531222 0.820652
O O12 0.162515 0.750000 0.068061
O O13 0.209780 0.034199 0.862019
O O14 0.328677 0.950716 0.751911
O O15 0.145257 0.034787 0.216886
O O16 0.144277 0.750000 0.332504
O O17 0.048526 0.020836 0.621068
O O18 0.286107 0.750000 0.607201
O O19 0.970794 0.250000 0.213704
O O20 0.568560 0.750000 0.475939
O O21 0.500000 0.000000 0.500000
#
# Coordination Sequence:
#
# PCOD9157537 Si02
#       8
#     4   4   4   4   4   4   4   4
#     4  11  23  37  53  77 109 144 182 220 263 313
#     4   9  18  35  57  78 100 131 172 217 266 318
#     4  10  20  34  52  75 105 143 182 218 261 309
#     4  10  18  34  53  75 106 140 183 218 256 315
#     4   9  18  32  54  79 105 140 177 217 263 317
#     4   9  19  34  56  78 102 143 182 213 257 321
#     4   9  18  34  57  80 101 129 170 218 268 319
#     4  11  20  31  49  73 104 141 182 220 259 303
#
# _framework density 26.544052000000001
#
# number of rings (size 3 to 8) (size 9 to 14) (size 15 to 20)
#    0.000    2.250    2.500    0.750    1.750    0.500 
#    0.000    3.750    0.000    0.000    0.000    0.000 
#    0.000    0.000    0.000    0.000    0.000    0.000 
#
# Total GULP energy -178661.518936 kJ/mol
# GULP energy per Si atom -5583.172467 kJ/mol
# Density = 2.648364 g / cm^3
# Si number density = 26.544052 Si / 1000 Ang^3
#
#
#
# Elastic Constant Matrix: (Units=GPa)
#
#
# Indices 1 2 3 4 5 6 
#
# 1 64.6377 -0.0764 17.7702 0.0000 22.5935 0.0000
# 2 -0.0764 116.1167 8.8996 0.0000 5.5810 0.0000
# 3 17.7702 8.8996 83.7029 0.0000 31.6545 0.0000
# 4 0.0000 0.0000 0.0000 16.2460 0.0000 -2.1256
# 5 22.5935 5.5810 31.6545 0.0000 65.7868 0.0000
# 6 0.0000 0.0000 0.0000 -2.1256 0.0000 13.4493
#
#
#
# Elastic Compliance Matrix: (Units=1/GPa)
#
#
# Indices 1 2 3 4 5 6 
#
# 1 0.017818 0.000406 -0.001832 0.000000 -0.005272 0.000000
# 2 0.000406 0.008699 -0.000830 0.000000 -0.000478 0.000000
# 3 -0.001832 -0.000830 0.014865 0.000000 -0.006453 0.000000
# 4 0.000000 0.000000 0.000000 0.062853 0.000000 0.009933
# 5 -0.005272 -0.000478 -0.006453 0.000000 0.020157 0.000000
# 6 0.000000 0.000000 0.000000 0.009933 0.000000 0.075923
#
#
# Mechanical properties :
#
#
# Convention : Reuss Voigt Hill
#
# Bulk Modulus (GPa) = 27.12417 35.29380 31.20899
# Shear Modulus (GPa) = 23.02904 34.95402 28.99153
#
# Velocity S-wave (km/s) = 2.94866 3.63275 3.30844
# Velocity P-wave (km/s) = 4.67264 5.56067 5.13588
#
# Compressibility (1/GPa) = 0.03686748
#
# Stress axis : x y z
#
# Youngs Moduli (GPa) = 56.12354 114.95717 67.27438
#
# Poissons Ratio (x) = -0.04662 0.12325
# Poissons Ratio (y) = -0.02276 0.05586
# Poissons Ratio (z) = 0.10282 0.09545
#
# Static dielectric constant tensor:
#      x y z
#    x 2.256760 0.000000 0.163430 
#    y 0.000000 1.998960 0.000000 
#    z 0.163430 0.000000 2.294560 
# 
# From -- ./inp_files/45123.got.cif
#   From: 2010.05.17/outbox.cif.g08.bks.cpg/sg11_23_cif.got.tgz:45123.got - 2010.06.03 12:22:45.
