data_PCOD9157398
_publ_section_title
;
Structure prediction by ZEFSAII (Michael W. Deem and Ramdas Pophale) SiO2 
 PCOD9157398
Probable space group: P 21/M
;
_chemical_formula_sum "Si O2"
_cell_formula_units_Z 32
_cell_length_a 29.043061
_cell_length_b 8.378750
_cell_length_c 14.801515
_cell_angle_alpha 90.000000
_cell_angle_beta 29.143067
_cell_angle_gamma 90.000000
_cell_volume 1754.080970
_symmetry_space_group_name_H-M "P 21/M"
_symmetry_group_IT_number 11
_symmetry_cell_setting 'monoclinic'
loop_
_space_group_symop_operation_xyz
x,y,z
-x,1/2+y,-z
-x,-y,-z
x,1/2-y,z
loop_
_atom_site_type_symbol
_atom_site_label
_atom_site_fract_x
_atom_site_fract_y
_atom_site_fract_z
Si Si1 0.230936 0.056558 0.852276
Si Si2 0.604722 0.441777 0.791599
Si Si3 0.920213 0.058726 0.755112
Si Si4 0.870341 0.057997 0.642880
Si Si5 0.558966 0.061785 0.193486
Si Si6 0.644156 0.556930 0.522673
Si Si7 0.396048 0.437335 0.700460
Si Si8 0.708589 0.440337 0.785719
O O1 0.227275 0.250000 0.860565
O O2 0.265573 0.009600 0.692573
O O3 0.313817 0.997342 0.777902
O O4 0.135402 0.992711 0.060140
O O5 0.602467 0.250000 0.799587
O O6 0.634016 0.493767 0.641099
O O7 0.682172 0.502540 0.731982
O O8 0.500000 0.500000 0.000000
O O9 0.927307 0.250000 0.739727
O O10 0.866259 0.003889 0.755063
O O11 0.024798 0.985992 0.569921
O O12 0.859481 0.250000 0.664107
O O13 0.792861 0.994754 0.704409
O O14 0.558087 0.250000 0.217072
O O15 0.451259 0.006722 0.367255
O O16 0.616565 0.976324 0.173123
O O17 0.612793 0.041398 0.007525
O O18 0.641573 0.750000 0.530765
O O19 0.500000 0.500000 0.500000
O O20 0.397145 0.250000 0.683364
O O21 0.726600 0.250000 0.745474
#
# Coordination Sequence:
#
# PCOD9157398 Si02
#       8
#     4   4   4   4   4   4   4   4
#     4  10  21  36  52  72 105 147 180 212 263 321
#     4  11  21  35  54  78 107 141 184 228 268 313
#     4  10  20  34  56  84 109 135 174 221 263 313
#     4   9  18  35  57  80 107 141 174 210 266 325
#     4  10  18  33  51  71 104 141 174 213 258 314
#     4  10  20  36  53  72 104 144 180 217 264 315
#     4  11  21  32  46  70 102 138 177 213 252 304
#     4   9  18  33  55  77 103 140 176 213 265 322
#
# _framework density 18.243172000000001
#
# number of rings (size 3 to 8) (size 9 to 14) (size 15 to 20)
#    0.000    2.000    2.500    1.875    0.000    3.500 
#    0.000    1.875    0.000    0.750    0.000    0.000 
#    0.000    0.000    0.000    0.000    0.000    0.000 
#
# Total GULP energy -178452.710210 kJ/mol
# GULP energy per Si atom -5576.647194 kJ/mol
# Density = 1.820165 g / cm^3
# Si number density = 18.243172 Si / 1000 Ang^3
#
#
#
# Elastic Constant Matrix: (Units=GPa)
#
#
# Indices 1 2 3 4 5 6 
#
# 1 98.1061 7.9629 42.3602 0.0000 12.2477 0.0000
# 2 7.9629 6.8150 -1.1739 0.0000 2.2785 0.0000
# 3 42.3602 -1.1739 70.5062 0.0000 5.4435 0.0000
# 4 0.0000 0.0000 0.0000 24.4800 0.0000 4.4846
# 5 12.2477 2.2785 5.4435 0.0000 23.7476 0.0000
# 6 0.0000 0.0000 0.0000 4.4846 0.0000 21.6354
#
#
#
# Elastic Compliance Matrix: (Units=1/GPa)
#
#
# Indices 1 2 3 4 5 6 
#
# 1 0.016660 -0.019715 -0.009997 0.000000 -0.004409 0.000000
# 2 -0.019715 0.175888 0.015566 0.000000 -0.010276 0.000000
# 3 -0.009997 0.015566 0.020529 0.000000 -0.001043 0.000000
# 4 0.000000 0.000000 0.000000 0.042462 0.000000 -0.008802
# 5 -0.004409 -0.010276 -0.001043 0.000000 0.045609 0.000000
# 6 0.000000 0.000000 0.000000 -0.008802 0.000000 0.048045
#
#
# Mechanical properties :
#
#
# Convention : Reuss Voigt Hill
#
# Bulk Modulus (GPa) = 5.41165 30.41397 17.91281
# Shear Modulus (GPa) = 11.38746 22.39115 16.88930
#
# Velocity S-wave (km/s) = 2.50112 3.50719 3.04598
# Velocity P-wave (km/s) = 3.36357 5.75396 4.71284
#
# Compressibility (1/GPa) = 0.18478665
#
# Stress axis : x y z
#
# Youngs Moduli (GPa) = 60.02287 5.68544 48.71083
#
# Poissons Ratio (x) = 0.11209 0.48698
# Poissons Ratio (y) = 1.18332 -0.75826
# Poissons Ratio (z) = 0.60007 -0.08850
#
# Static dielectric constant tensor:
#      x y z
#    x 1.666190 0.000000 0.012040 
#    y 0.000000 1.663020 0.000000 
#    z 0.012040 0.000000 1.636430 
# 
# From -- ./inp_files/56471.got.cif
#   From: 2010.05.17/outbox.cif.g08.bks.cpg/sg11_29_cif.got.tgz:56471.got - 2010.06.03 12:22:45.
