data_PCOD9157508
_publ_section_title
;
Structure prediction by ZEFSAII (Michael W. Deem and Ramdas Pophale) SiO2 
 PCOD9157508
Probable space group: P 21/M
;
_chemical_formula_sum "Si O2"
_cell_formula_units_Z 28
_cell_length_a 20.978313
_cell_length_b 16.147659
_cell_length_c 9.124290
_cell_angle_alpha 90.000000
_cell_angle_beta 30.700325
_cell_angle_gamma 90.000000
_cell_volume 1578.031309
_symmetry_space_group_name_H-M "P 21/M"
_symmetry_group_IT_number 11
_symmetry_cell_setting 'monoclinic'
loop_
_space_group_symop_operation_xyz
x,y,z
-x,1/2+y,-z
-x,-y,-z
x,1/2-y,z
loop_
_atom_site_type_symbol
_atom_site_label
_atom_site_fract_x
_atom_site_fract_y
_atom_site_fract_z
Si Si1 0.355111 0.412460 0.205359
Si Si2 0.974448 0.518968 0.377744
Si Si3 0.355333 0.488937 0.761483
Si Si4 0.371283 0.845266 0.257965
Si Si5 0.765613 0.010975 0.305047
Si Si6 0.273465 0.929745 0.191344
Si Si7 0.222909 0.156287 0.201567
O O1 0.263911 0.439401 0.517923
O O2 0.354384 0.495358 0.105424
O O3 0.297177 0.346430 0.208526
O O4 0.490616 0.384662 0.993073
O O5 0.871267 0.456481 0.512164
O O6 0.906655 0.608262 0.512811
O O7 0.000000 0.500000 0.500000
O O8 0.097223 0.514456 0.036033
O O9 0.500000 0.500000 0.500000
O O10 0.323600 0.495256 0.655813
O O11 0.296225 0.563766 0.973617
O O12 0.297289 0.404069 0.942211
O O13 0.373390 0.750000 0.299989
O O14 0.276414 0.903208 0.536582
O O15 0.321316 0.853042 0.189510
O O16 0.209187 0.250000 0.176787
#
# Coordination Sequence:
#
# PCOD9157508 Si02
#       7
#     4   4   4   4   4   4   4
#     4   9  19  35  57  81 110 149 184 229 278 346
#     4  10  19  38  60  82 109 152 192 232 275 339
#     4  10  18  33  59  83 107 145 195 231 277 344
#     4  11  22  36  54  84 121 148 180 239 295 333
#     4  11  19  35  62  84 106 149 202 225 275 341
#     4   9  19  35  56  79 108 148 187 223 280 336
#     4  10  21  37  57  83 117 150 186 241 289 325
#
# _framework density 17.743628999999999
#
# number of rings (size 3 to 8) (size 9 to 14) (size 15 to 20)
#    0.000    2.286    2.857    4.714    0.000    5.714 
#    0.000    5.000    0.000    0.000    0.000    0.000 
#    0.000    0.000    0.000    0.000    0.000    0.000 
#
# Total GULP energy -155883.749090 kJ/mol
# GULP energy per Si atom -5567.276753 kJ/mol
# Density = 1.770324 g / cm^3
# Si number density = 17.743629 Si / 1000 Ang^3
#
#
#
# Elastic Constant Matrix: (Units=GPa)
#
#
# Indices 1 2 3 4 5 6 
#
# 1 74.2201 11.5599 -5.1921 0.0000 -0.0973 0.0000
# 2 11.5599 63.8323 14.9963 0.0000 -3.7625 0.0000
# 3 -5.1921 14.9963 86.1723 0.0000 -9.9167 0.0000
# 4 0.0000 0.0000 0.0000 10.2144 0.0000 1.4735
# 5 -0.0973 -3.7625 -9.9167 0.0000 38.7155 0.0000
# 6 0.0000 0.0000 0.0000 1.4735 0.0000 12.5414
#
#
#
# Elastic Compliance Matrix: (Units=1/GPa)
#
#
# Indices 1 2 3 4 5 6 
#
# 1 0.014012 -0.002849 0.001352 0.000000 0.000105 0.000000
# 2 -0.002849 0.016943 -0.003021 0.000000 0.000866 0.000000
# 3 0.001352 -0.003021 0.012548 0.000000 0.002924 0.000000
# 4 0.000000 0.000000 0.000000 0.099589 0.000000 -0.011701
# 5 0.000105 0.000866 0.002924 0.000000 0.026663 0.000000
# 6 0.000000 0.000000 0.000000 -0.011701 0.000000 0.081110
#
#
# Mechanical properties :
#
#
# Convention : Reuss Voigt Hill
#
# Bulk Modulus (GPa) = 29.01244 29.66143 29.33693
# Shear Modulus (GPa) = 18.42371 25.81831 22.12101
#
# Velocity S-wave (km/s) = 3.22581 3.81868 3.53470
# Velocity P-wave (km/s) = 5.50098 6.01632 5.76441
#
# Compressibility (1/GPa) = 0.03446798
#
# Stress axis : x y z
#
# Youngs Moduli (GPa) = 71.36797 59.02265 79.69229
#
# Poissons Ratio (x) = 0.16816 -0.10775
# Poissons Ratio (y) = 0.20333 0.24071
# Poissons Ratio (z) = -0.09650 0.17828
#
# Static dielectric constant tensor:
#      x y z
#    x 1.651380 0.000000 0.001640 
#    y 0.000000 1.621760 0.000000 
#    z 0.001640 0.000000 1.636090 
# 
# From -- ./inp_files/27007.got.cif
#   From: 2010.05.17/outbox.cif.g08.bks.cpg/sg11_14_cif.got.tgz:27007.got - 2010.06.03 12:22:45.
