data_PCOD9157572
_publ_section_title
;
Structure prediction by ZEFSAII (Michael W. Deem and Ramdas Pophale) SiO2 
 PCOD9157572
Probable space group: P 21/M
;
_chemical_formula_sum "Si O2"
_cell_formula_units_Z 28
_cell_length_a 9.894136
_cell_length_b 8.642554
_cell_length_c 28.736281
_cell_angle_alpha 90.000000
_cell_angle_beta 140.746043
_cell_angle_gamma 90.000000
_cell_volume 1554.850863
_symmetry_space_group_name_H-M "P 21/M"
_symmetry_group_IT_number 11
_symmetry_cell_setting 'monoclinic'
loop_
_space_group_symop_operation_xyz
x,y,z
-x,1/2+y,-z
-x,-y,-z
x,1/2-y,z
loop_
_atom_site_type_symbol
_atom_site_label
_atom_site_fract_x
_atom_site_fract_y
_atom_site_fract_z
Si Si1 0.570395 0.565165 0.737682
Si Si2 0.244990 0.935844 0.817850
Si Si3 0.302629 0.565736 0.046838
Si Si4 0.786388 0.433885 0.706027
Si Si5 0.299096 0.435859 0.418708
Si Si6 0.173858 0.562482 0.691668
Si Si7 0.875545 0.433691 0.896971
O O1 0.562969 0.750000 0.729248
O O2 0.631427 0.484886 0.705993
O O3 0.346312 0.509725 0.700157
O O4 0.750183 0.523255 0.823610
O O5 0.244734 0.750000 0.820094
O O6 0.241273 0.983226 0.762053
O O7 0.460101 0.002010 0.897352
O O8 0.023851 0.999903 0.779188
O O9 0.295958 0.750000 0.038727
O O10 0.235209 0.532165 0.082591
O O11 0.120454 0.486456 0.967267
O O12 0.797594 0.250000 0.705317
O O13 0.710435 0.504282 0.636722
O O14 0.500000 0.500000 0.500000
O O15 0.305480 0.250000 0.419858
O O16 0.071518 0.485143 0.380482
O O17 0.178606 0.750000 0.692445
O O18 0.862718 0.250000 0.885382
#
# Coordination Sequence:
#
# PCOD9157572 Si02
#       7
#     4   4   4   4   4   4   4
#     4  11  20  36  57  81 111 148 186 230 280 332
#     4  10  18  34  56  80 107 144 189 236 279 329
#     4  10  19  31  50  78 109 145 189 236 281 329
#     4  11  23  38  56  83 115 149 183 226 275 333
#     4  10  20  39  63  90 115 145 181 224 271 326
#     4   8  17  32  56  83 109 140 182 225 269 322
#     4  10  20  32  49  77 111 147 186 234 281 329
#
# _framework density 18.008157000000001
#
# number of rings (size 3 to 8) (size 9 to 14) (size 15 to 20)
#    0.000    2.000    1.429    4.286    0.000    1.143 
#    0.000    3.571    0.000    0.000    0.000    0.000 
#    0.000    0.000    0.000    0.000    0.000    0.000 
#
# Total GULP energy -156328.107113 kJ/mol
# GULP energy per Si atom -5583.146683 kJ/mol
# Density = 1.796717 g / cm^3
# Si number density = 18.008157 Si / 1000 Ang^3
#
#
#
# Elastic Constant Matrix: (Units=GPa)
#
#
# Indices 1 2 3 4 5 6 
#
# 1 110.2198 21.6603 41.3700 0.0000 18.3557 0.0000
# 2 21.6603 56.8969 21.0744 0.0000 2.1494 0.0000
# 3 41.3700 21.0744 100.4356 0.0000 26.3598 0.0000
# 4 0.0000 0.0000 0.0000 32.4569 0.0000 0.4884
# 5 18.3557 2.1494 26.3598 0.0000 20.5309 0.0000
# 6 0.0000 0.0000 0.0000 0.4884 0.0000 22.7668
#
#
#
# Elastic Compliance Matrix: (Units=1/GPa)
#
#
# Indices 1 2 3 4 5 6 
#
# 1 0.011795 -0.003390 -0.002221 0.000000 -0.007339 0.000000
# 2 -0.003390 0.020341 -0.004688 0.000000 0.006921 0.000000
# 3 -0.002221 -0.004688 0.016900 0.000000 -0.019222 0.000000
# 4 0.000000 0.000000 0.000000 0.030820 0.000000 -0.000661
# 5 -0.007339 0.006921 -0.019222 0.000000 0.079223 0.000000
# 6 0.000000 0.000000 0.000000 -0.000661 0.000000 0.043938
#
#
# Mechanical properties :
#
#
# Convention : Reuss Voigt Hill
#
# Bulk Modulus (GPa) = 35.16483 48.41798 41.79141
# Shear Modulus (GPa) = 21.45054 27.38075 24.41564
#
# Velocity S-wave (km/s) = 3.45506 3.90354 3.68613
# Velocity P-wave (km/s) = 5.95702 6.87473 6.43226
#
# Compressibility (1/GPa) = 0.02843750
#
# Stress axis : x y z
#
# Youngs Moduli (GPa) = 84.78301 49.16089 59.17188
#
# Poissons Ratio (x) = 0.16667 0.13141
# Poissons Ratio (y) = 0.28745 0.27740
# Poissons Ratio (z) = 0.18829 0.23047
#
# Static dielectric constant tensor:
#      x y z
#    x 1.623530 0.000000 0.013000 
#    y 0.000000 1.598140 0.000000 
#    z 0.013000 0.000000 1.592830 
# 
# From -- ./inp_files/28293.got.cif
#   From: 2010.05.17/outbox.cif.g08.bks.cpg/sg11_15_cif.got.tgz:28293.got - 2010.06.03 12:22:45.
