data_PCOD9157922
_publ_section_title
;
Structure prediction by ZEFSAII (Michael W. Deem and Ramdas Pophale) SiO2 
 PCOD9157922
Probable space group: P 21/M
;
_chemical_formula_sum "Si O2"
_cell_formula_units_Z 32
_cell_length_a 20.112431
_cell_length_b 8.589391
_cell_length_c 11.303987
_cell_angle_alpha 90.000000
_cell_angle_beta 59.527371
_cell_angle_gamma 90.000000
_cell_volume 1683.065894
_symmetry_space_group_name_H-M "P 21/M"
_symmetry_group_IT_number 11
_symmetry_cell_setting 'monoclinic'
loop_
_space_group_symop_operation_xyz
x,y,z
-x,1/2+y,-z
-x,-y,-z
x,1/2-y,z
loop_
_atom_site_type_symbol
_atom_site_label
_atom_site_fract_x
_atom_site_fract_y
_atom_site_fract_z
Si Si1 0.735387 0.061729 0.032913
Si Si2 0.749379 0.063701 0.553632
Si Si3 0.406609 0.063446 0.211498
Si Si4 0.116860 0.433053 0.702419
Si Si5 0.877198 0.063482 0.049033
Si Si6 0.419087 0.561456 0.934592
Si Si7 0.161199 0.937117 0.288841
Si Si8 0.031402 0.066137 0.258682
O O1 0.734126 0.250000 0.039942
O O2 0.790344 0.011592 0.090404
O O3 0.647580 0.008821 0.095523
O O4 0.781333 0.021360 0.871177
O O5 0.751300 0.250000 0.542660
O O6 0.796914 0.015908 0.628763
O O7 0.662280 0.007836 0.650304
O O8 0.796836 0.988661 0.404342
O O9 0.400868 0.250000 0.217467
O O10 0.493034 0.017975 0.174544
O O11 0.400410 0.003650 0.081865
O O12 0.108744 0.250000 0.694810
O O13 0.097576 0.482376 0.853560
O O14 0.057689 0.519118 0.667737
O O15 0.879395 0.250000 0.062631
O O16 0.929316 0.018528 0.889661
O O17 0.416098 0.750000 0.945371
O O18 0.152301 0.750000 0.297379
O O19 0.079457 0.011702 0.329401
O O20 0.039110 0.250000 0.238144
#
# Coordination Sequence:
#
# PCOD9157922 Si02
#       8
#     4   4   4   4   4   4   4   4
#     4   8  14  29  54  80 105 138 175 217 262 310
#     4  11  22  38  57  75 107 148 183 218 266 325
#     4  10  19  29  48  80 114 144 177 218 262 312
#     4  12  25  40  56  77 105 139 182 225 270 320
#     4  10  20  37  59  82 107 138 180 224 270 314
#     4   9  16  30  51  78 111 146 179 214 262 315
#     4   9  18  34  55  78 106 142 179 217 266 318
#     4  11  22  37  58  83 109 137 174 222 272 316
#
# _framework density 19.012920999999999
#
# number of rings (size 3 to 8) (size 9 to 14) (size 15 to 20)
#    0.000    2.000    1.250    4.500    0.000    2.000 
#    0.000    0.625    0.000    0.750    0.000    0.000 
#    0.000    0.000    0.000    0.000    0.000    0.000 
#
# Total GULP energy -178646.739483 kJ/mol
# GULP energy per Si atom -5582.710609 kJ/mol
# Density = 1.896965 g / cm^3
# Si number density = 19.012921 Si / 1000 Ang^3
#
#
#
# Elastic Constant Matrix: (Units=GPa)
#
#
# Indices 1 2 3 4 5 6 
#
# 1 90.0844 3.9263 2.9494 0.0000 -22.2605 0.0000
# 2 3.9263 28.6838 -1.4830 0.0000 -0.3585 0.0000
# 3 2.9494 -1.4830 38.0202 0.0000 -15.2378 0.0000
# 4 0.0000 0.0000 0.0000 23.2617 0.0000 -2.7943
# 5 -22.2605 -0.3585 -15.2378 0.0000 26.5685 0.0000
# 6 0.0000 0.0000 0.0000 -2.7943 0.0000 25.1545
#
#
#
# Elastic Compliance Matrix: (Units=1/GPa)
#
#
# Indices 1 2 3 4 5 6 
#
# 1 0.014746 -0.001579 0.004853 0.000000 0.015117 0.000000
# 2 -0.001579 0.035157 0.001498 0.000000 0.000011 0.000000
# 3 0.004853 0.001498 0.035866 0.000000 0.024657 0.000000
# 4 0.000000 0.000000 0.000000 0.043571 0.000000 0.004840
# 5 0.015117 0.000011 0.024657 0.000000 0.064446 0.000000
# 6 0.000000 0.000000 0.000000 0.004840 0.000000 0.040292
#
#
# Mechanical properties :
#
#
# Convention : Reuss Voigt Hill
#
# Bulk Modulus (GPa) = 10.49164 18.61932 14.55548
# Shear Modulus (GPa) = 19.50816 25.08997 22.29907
#
# Velocity S-wave (km/s) = 3.20667 3.63661 3.42839
# Velocity P-wave (km/s) = 4.38640 5.23903 4.83156
#
# Compressibility (1/GPa) = 0.09531402
#
# Stress axis : x y z
#
# Youngs Moduli (GPa) = 67.81402 28.44422 27.88178
#
# Poissons Ratio (x) = 0.04490 -0.13532
# Poissons Ratio (y) = 0.10705 -0.04177
# Poissons Ratio (z) = -0.32912 -0.04261
#
# Static dielectric constant tensor:
#      x y z
#    x 1.692950 0.000000 -0.025900 
#    y 0.000000 1.633990 0.000000 
#    z -0.025900 0.000000 1.650870 
# 
# From -- ./inp_files/42784.got.cif
#   From: 2010.05.17/outbox.cif.g08.bks.cpg/sg11_22_cif.got.tgz:42784.got - 2010.06.03 12:22:45.
