data_PCOD9157795
_publ_section_title
;
Structure prediction by ZEFSAII (Michael W. Deem and Ramdas Pophale) SiO2 
 PCOD9157795
Probable space group: P 21/M
;
_chemical_formula_sum "Si O2"
_cell_formula_units_Z 24
_cell_length_a 6.959026
_cell_length_b 15.282831
_cell_length_c 16.095250
_cell_angle_alpha 90.000000
_cell_angle_beta 144.635380
_cell_angle_gamma 90.000000
_cell_volume 990.744803
_symmetry_space_group_name_H-M "P 21/M"
_symmetry_group_IT_number 11
_symmetry_cell_setting 'monoclinic'
loop_
_space_group_symop_operation_xyz
x,y,z
-x,1/2+y,-z
-x,-y,-z
x,1/2-y,z
loop_
_atom_site_type_symbol
_atom_site_label
_atom_site_fract_x
_atom_site_fract_y
_atom_site_fract_z
Si Si1 0.752217 0.492758 0.492289
Si Si2 0.222063 0.891544 0.090416
Si Si3 0.105240 0.648384 0.691100
Si Si4 0.632239 0.647523 0.009840
Si Si5 0.901394 0.651859 0.278383
Si Si6 0.681530 0.574482 0.791058
O O1 0.405995 0.465655 0.328527
O O2 0.000000 0.500000 0.500000
O O3 0.810761 0.584067 0.559909
O O4 0.867214 0.415013 0.592203
O O5 0.564676 0.841712 0.213522
O O6 0.943637 0.861607 0.056898
O O7 0.320417 0.990906 0.147588
O O8 0.038921 0.884682 0.936549
O O9 0.010895 0.750000 0.666045
O O10 0.390053 0.638563 0.719474
O O11 0.307124 0.617537 0.844541
O O12 0.573085 0.750000 0.004862
O O13 0.765666 0.611628 0.143956
O O14 0.039382 0.750000 0.314869
#
# Coordination Sequence:
#
# PCOD9157795 Si02
#       6
#     4   4   4   4   4   4
#     4  10  19  36  54  89 121 149 199 238 293 360
#     4  10  18  38  62  84 115 155 192 245 291 343
#     4   9  17  33  56  81 117 158 194 244 295 344
#     4   9  20  36  57  89 118 151 201 245 293 348
#     4  11  22  37  63  90 116 155 202 245 290 351
#     4   9  19  35  55  85 120 147 197 240 287 359
#
# _framework density 24.224201000000001
#
# number of rings (size 3 to 8) (size 9 to 14) (size 15 to 20)
#    0.000    2.333    3.333    0.500    0.000    4.000 
#    0.000    0.833    0.000    0.000    0.000    0.000 
#    0.000    0.000    0.000    0.000    0.000    0.000 
#
# Total GULP energy -134028.648393 kJ/mol
# GULP energy per Si atom -5584.527016 kJ/mol
# Density = 2.416907 g / cm^3
# Si number density = 24.224201 Si / 1000 Ang^3
#
#
#
# Elastic Constant Matrix: (Units=GPa)
#
#
# Indices 1 2 3 4 5 6 
#
# 1 65.0943 6.5590 32.3806 0.0000 -7.9830 0.0000
# 2 6.5590 109.4459 54.6317 0.0000 -9.6255 0.0000
# 3 32.3806 54.6317 154.8732 0.0000 -20.0966 0.0000
# 4 0.0000 0.0000 0.0000 11.7284 0.0000 -21.5505
# 5 -7.9830 -9.6255 -20.0966 0.0000 36.4491 0.0000
# 6 0.0000 0.0000 0.0000 -21.5505 0.0000 -0.6415
#
#
#
# Elastic Compliance Matrix: (Units=1/GPa)
#
#
# Indices 1 2 3 4 5 6 
#
# 1 0.017359 0.000993 -0.003718 0.000000 0.002014 0.000000
# 2 0.000993 0.011170 -0.004025 0.000000 0.000948 0.000000
# 3 -0.003718 -0.004025 0.009059 0.000000 0.003117 0.000000
# 4 0.000000 0.000000 0.000000 0.001359 0.000000 -0.045663
# 5 0.002014 0.000948 0.003117 0.000000 0.029846 0.000000
# 6 0.000000 0.000000 0.000000 -0.045663 0.000000 -0.024851
#
#
# Mechanical properties :
#
#
# Convention : Reuss Voigt Hill
#
# Bulk Modulus (GPa) = 41.51620 57.39511 49.45565
# Shear Modulus (GPa) = 76.37061 25.23002 50.80031
#
# Velocity S-wave (km/s) = 5.62094 3.23076 4.58437
# Velocity P-wave (km/s) = 7.70079 6.13692 6.96290
#
# Compressibility (1/GPa) = 0.02408699
#
# Stress axis : x y z
#
# Youngs Moduli (GPa) = 57.60741 89.52695 110.39318
#
# Poissons Ratio (x) = -0.08889 0.41047
# Poissons Ratio (y) = -0.05720 0.44430
# Poissons Ratio (z) = 0.21420 0.36032
#
# Static dielectric constant tensor:
#      x y z
#    x 1.978960 0.000000 -0.016750 
#    y 0.000000 1.954590 0.000000 
#    z -0.016750 0.000000 1.960770 
# 
# From -- ./inp_files/58278.got.cif
#   From: 2010.05.17/outbox.cif.g08.bks.cpg/sg11_30_cif.got.tgz:58278.got - 2010.06.03 12:22:45.
