data_PCOD9157441
_publ_section_title
;
Structure prediction by ZEFSAII (Michael W. Deem and Ramdas Pophale) SiO2 
 PCOD9157441
Probable space group: P 21/M
;
_chemical_formula_sum "Si O2"
_cell_formula_units_Z 28
_cell_length_a 16.828157
_cell_length_b 13.842838
_cell_length_c 9.426333
_cell_angle_alpha 90.000000
_cell_angle_beta 42.859220
_cell_angle_gamma 90.000000
_cell_volume 1493.621850
_symmetry_space_group_name_H-M "P 21/M"
_symmetry_group_IT_number 11
_symmetry_cell_setting 'monoclinic'
loop_
_space_group_symop_operation_xyz
x,y,z
-x,1/2+y,-z
-x,-y,-z
x,1/2-y,z
loop_
_atom_site_type_symbol
_atom_site_label
_atom_site_fract_x
_atom_site_fract_y
_atom_site_fract_z
Si Si1 0.111028 0.023129 0.167575
Si Si2 0.180764 0.135435 0.652692
Si Si3 0.080698 0.635851 0.970778
Si Si4 0.151895 0.991091 0.442384
Si Si5 0.572533 0.359799 0.465945
Si Si6 0.726074 0.138706 0.520473
Si Si7 0.323465 0.435152 0.720669
O O1 0.107473 0.927195 0.074125
O O2 0.975416 0.054703 0.352306
O O3 0.149820 0.005351 0.277940
O O4 0.210415 0.087141 0.964029
O O5 0.198563 0.250000 0.622281
O O6 0.166934 0.088390 0.515614
O O7 0.281506 0.087177 0.615434
O O8 0.054281 0.116515 0.891643
O O9 0.091255 0.750000 0.986410
O O10 0.170687 0.612302 0.727400
O O11 0.254448 0.924205 0.367172
O O12 0.610268 0.250000 0.376196
O O13 0.607632 0.370530 0.585551
O O14 0.436465 0.373449 0.613292
O O15 0.637149 0.452423 0.311950
O O16 0.742221 0.250000 0.535643
#
# Coordination Sequence:
#
# PCOD9157441 Si02
#       7
#     4   4   4   4   4   4   4
#     4  10  20  33  53  78 113 145 171 213 263 322
#     4  10  19  33  54  78 105 139 178 220 265 318
#     4   9  17  30  52  80 107 137 176 220 264 310
#     4  10  20  35  51  80 115 143 172 209 265 323
#     4  10  21  35  55  81 106 134 178 232 272 303
#     4  10  18  33  55  77 105 138 177 223 263 308
#     4  11  20  35  58  80 103 140 181 223 265 313
#
# _framework density 18.746376999999999
#
# number of rings (size 3 to 8) (size 9 to 14) (size 15 to 20)
#    0.000    2.000    2.857    1.286    0.000    2.857 
#    0.000    5.000    0.000    0.000    0.000    0.000 
#    0.000    0.000    0.000    0.000    0.000    0.000 
#
# Total GULP energy -156056.236128 kJ/mol
# GULP energy per Si atom -5573.437005 kJ/mol
# Density = 1.870371 g / cm^3
# Si number density = 18.746377 Si / 1000 Ang^3
#
#
#
# Elastic Constant Matrix: (Units=GPa)
#
#
# Indices 1 2 3 4 5 6 
#
# 1 140.2409 28.0226 29.0267 0.0000 -3.4797 0.0000
# 2 28.0226 65.0027 -1.1098 0.0000 -8.8420 0.0000
# 3 29.0267 -1.1098 30.3696 0.0000 2.0109 0.0000
# 4 0.0000 0.0000 0.0000 10.6880 0.0000 -7.7326
# 5 -3.4797 -8.8420 2.0109 0.0000 23.8120 0.0000
# 6 0.0000 0.0000 0.0000 -7.7326 0.0000 22.2717
#
#
#
# Elastic Compliance Matrix: (Units=1/GPa)
#
#
# Indices 1 2 3 4 5 6 
#
# 1 0.010062 -0.004416 -0.009822 0.000000 0.000660 0.000000
# 2 -0.004416 0.018141 0.004505 0.000000 0.005711 0.000000
# 3 -0.009822 0.004505 0.042703 0.000000 -0.003369 0.000000
# 4 0.000000 0.000000 0.000000 0.124950 0.000000 0.043382
# 5 0.000660 0.005711 -0.003369 0.000000 0.044497 0.000000
# 6 0.000000 0.000000 0.000000 0.043382 0.000000 0.059962
#
#
# Mechanical properties :
#
#
# Convention : Reuss Voigt Hill
#
# Bulk Modulus (GPa) = 19.43963 38.61026 29.02494
# Shear Modulus (GPa) = 14.83990 23.33256 19.08623
#
# Velocity S-wave (km/s) = 2.81662 3.53178 3.19428
# Velocity P-wave (km/s) = 4.57931 6.10509 5.39640
#
# Compressibility (1/GPa) = 0.05144131
#
# Stress axis : x y z
#
# Youngs Moduli (GPa) = 99.38035 55.12281 23.41729
#
# Poissons Ratio (x) = 0.24341 0.23002
# Poissons Ratio (y) = 0.43884 -0.10550
# Poissons Ratio (z) = 0.97616 -0.24835
#
# Static dielectric constant tensor:
#      x y z
#    x 1.657150 0.000000 -0.033540 
#    y 0.000000 1.684040 0.000000 
#    z -0.033540 0.000000 1.644460 
# 
# From -- ./inp_files/17460.got.cif
#   From: 2010.05.17/outbox.cif.g08.bks.cpg/sg11_9_cif.got.tgz:17460.got - 2010.06.03 12:22:45.
