data_PCOD9157582
_publ_section_title
;
Structure prediction by ZEFSAII (Michael W. Deem and Ramdas Pophale) SiO2 
 PCOD9157582
Probable space group: P 21/M
;
_chemical_formula_sum "Si O2"
_cell_formula_units_Z 32
_cell_length_a 12.096836
_cell_length_b 7.735970
_cell_length_c 29.467257
_cell_angle_alpha 90.000000
_cell_angle_beta 31.486401
_cell_angle_gamma 90.000000
_cell_volume 1440.267393
_symmetry_space_group_name_H-M "P 21/M"
_symmetry_group_IT_number 11
_symmetry_cell_setting 'monoclinic'
loop_
_space_group_symop_operation_xyz
x,y,z
-x,1/2+y,-z
-x,-y,-z
x,1/2-y,z
loop_
_atom_site_type_symbol
_atom_site_label
_atom_site_fract_x
_atom_site_fract_y
_atom_site_fract_z
Si Si1 0.949903 0.537428 0.284750
Si Si2 0.373403 0.459063 0.850547
Si Si3 0.653723 0.058243 0.906162
Si Si4 0.841782 0.961261 0.167874
Si Si5 0.597890 0.957477 0.342881
Si Si6 0.287468 0.951980 0.977588
Si Si7 0.105411 0.045730 0.510998
Si Si8 0.863087 0.461715 0.684776
O O1 0.957371 0.750000 0.282820
O O2 0.724009 0.484123 0.343622
O O3 0.129966 0.473272 0.186290
O O4 0.015805 0.481976 0.312006
O O5 0.365737 0.250000 0.854295
O O6 0.279479 0.515391 0.835322
O O7 0.247510 0.526670 0.938263
O O8 0.617643 0.514671 0.770081
O O9 0.718192 0.250000 0.896873
O O10 0.498562 0.053130 0.917101
O O11 0.500000 0.000000 0.000000
O O12 0.842898 0.750000 0.167831
O O13 0.722275 0.021351 0.254639
O O14 0.086243 0.013566 0.076903
O O15 0.614299 0.750000 0.336136
O O16 0.351899 0.999581 0.426768
O O17 0.325522 0.750000 0.973964
O O18 0.090083 0.250000 0.520219
O O19 0.979112 0.974594 0.598703
O O20 0.000000 0.000000 0.500000
O O21 0.862823 0.250000 0.684923
#
# Coordination Sequence:
#
# PCOD9157582 Si02
#       8
#     4   4   4   4   4   4   4   4
#     4   9  18  35  60  85 111 151 197 233 279 351
#     4  10  18  34  57  78 107 151 200 238 282 346
#     4  11  21  36  58  82 112 154 201 241 283 340
#     4   9  19  34  54  79 112 158 198 233 287 357
#     4  10  20  38  62  85 112 148 191 237 285 343
#     4  11  21  34  52  82 117 148 192 244 294 345
#     4  11  23  40  63  89 118 150 190 238 290 347
#     4   9  18  35  60  85 111 151 196 235 283 352
#
# _framework density 22.218097
#
# number of rings (size 3 to 8) (size 9 to 14) (size 15 to 20)
#    0.000    2.000    1.250    3.000    0.000    4.500 
#    0.000    7.500    0.000    0.000    0.000    0.000 
#    0.000    0.000    0.000    0.000    0.000    0.000 
#
# Total GULP energy -178789.039431 kJ/mol
# GULP energy per Si atom -5587.157482 kJ/mol
# Density = 2.216753 g / cm^3
# Si number density = 22.218097 Si / 1000 Ang^3
#
#
#
# Elastic Constant Matrix: (Units=GPa)
#
#
# Indices 1 2 3 4 5 6 
#
# 1 109.1621 1.4896 35.4330 0.0000 -7.8773 0.0000
# 2 1.4896 33.0736 1.8602 0.0000 1.9270 0.0000
# 3 35.4330 1.8602 122.3227 0.0000 -0.5340 0.0000
# 4 0.0000 0.0000 0.0000 20.2186 0.0000 1.5442
# 5 -7.8773 1.9270 -0.5340 0.0000 42.1300 0.0000
# 6 0.0000 0.0000 0.0000 1.5442 0.0000 13.7243
#
#
#
# Elastic Compliance Matrix: (Units=1/GPa)
#
#
# Indices 1 2 3 4 5 6 
#
# 1 0.010264 -0.000407 -0.002959 0.000000 0.001900 0.000000
# 2 -0.000407 0.030359 -0.000350 0.000000 -0.001469 0.000000
# 3 -0.002959 -0.000350 0.009036 0.000000 -0.000423 0.000000
# 4 0.000000 0.000000 0.000000 0.049888 0.000000 -0.005613
# 5 0.001900 -0.001469 -0.000423 0.000000 0.024153 0.000000
# 6 0.000000 0.000000 0.000000 -0.005613 0.000000 0.073495
#
#
# Mechanical properties :
#
#
# Convention : Reuss Voigt Hill
#
# Bulk Modulus (GPa) = 23.68125 38.01379 30.84752
# Shear Modulus (GPa) = 22.86221 30.26629 26.56425
#
# Velocity S-wave (km/s) = 3.21127 3.69485 3.46152
# Velocity P-wave (km/s) = 4.94281 5.94551 5.46719
#
# Compressibility (1/GPa) = 0.04222750
#
# Stress axis : x y z
#
# Youngs Moduli (GPa) = 97.43095 32.93893 110.67352
#
# Poissons Ratio (x) = 0.01339 0.32744
# Poissons Ratio (y) = 0.03961 0.03877
# Poissons Ratio (z) = 0.28826 0.01154
#
# Static dielectric constant tensor:
#      x y z
#    x 1.810260 0.000000 0.024100 
#    y 0.000000 1.847950 0.000000 
#    z 0.024100 0.000000 1.795110 
# 
# From -- ./inp_files/73128.got.cif
#   From: 2010.05.17/outbox.cif.g08.bks.cpg/sg11_37_cif.got.tgz:73128.got - 2010.06.03 12:22:45.
