data_PCOD9157318
_publ_section_title
;
Structure prediction by ZEFSAII (Michael W. Deem and Ramdas Pophale) SiO2 
 PCOD9157318
Probable space group: P 21/M
;
_chemical_formula_sum "Si O2"
_cell_formula_units_Z 32
_cell_length_a 18.942153
_cell_length_b 7.664895
_cell_length_c 23.711020
_cell_angle_alpha 90.000000
_cell_angle_beta 24.543617
_cell_angle_gamma 90.000000
_cell_volume 1430.004732
_symmetry_space_group_name_H-M "P 21/M"
_symmetry_group_IT_number 11
_symmetry_cell_setting 'monoclinic'
loop_
_space_group_symop_operation_xyz
x,y,z
-x,1/2+y,-z
-x,-y,-z
x,1/2-y,z
loop_
_atom_site_type_symbol
_atom_site_label
_atom_site_fract_x
_atom_site_fract_y
_atom_site_fract_z
Si Si1 0.023548 0.460976 0.277856
Si Si2 0.857623 0.459766 0.276802
Si Si3 0.683216 0.463611 0.578057
Si Si4 0.196606 0.953809 0.980009
Si Si5 0.802793 0.043548 0.141828
Si Si6 0.494905 0.550466 0.179634
Si Si7 0.591752 0.539508 0.991585
Si Si8 0.529589 0.042440 0.569781
O O1 0.029212 0.250000 0.275651
O O2 0.947228 0.503109 0.271789
O O3 0.880163 0.514514 0.427032
O O4 0.213711 0.526679 0.148926
O O5 0.855974 0.250000 0.270149
O O6 0.663759 0.524385 0.425776
O O7 0.994044 0.529758 0.133474
O O8 0.672615 0.250000 0.585493
O O9 0.600497 0.527065 0.696520
O O10 0.591611 0.522972 0.586559
O O11 0.239071 0.750000 0.952958
O O12 0.252296 0.029604 0.879236
O O13 0.305343 0.048520 0.948550
O O14 0.791081 0.250000 0.147517
O O15 0.671122 0.990421 0.285799
O O16 0.000000 0.000000 0.000000
O O17 0.434590 0.750000 0.219504
O O18 0.491276 0.471674 0.119867
O O19 0.599501 0.750000 0.992094
O O20 0.500000 0.500000 0.000000
O O21 0.552963 0.250000 0.552948
#
# Coordination Sequence:
#
# PCOD9157318 Si02
#       8
#     4   4   4   4   4   4   4   4
#     4   8  14  28  49  75 102 130 169 213 256 306
#     4   9  17  32  56  83 107 135 177 219 261 321
#     4   8  14  26  51  80 100 125 167 217 261 305
#     4  11  22  34  52  82 113 138 172 222 269 310
#     4  11  24  39  55  78 111 147 181 217 263 321
#     4  10  18  32  55  78 100 134 179 220 259 315
#     4  10  20  33  50  72 104 141 177 215 258 314
#     4   9  17  32  57  84 107 135 173 220 271 318
#
# _framework density 22.377548999999998
#
# number of rings (size 3 to 8) (size 9 to 14) (size 15 to 20)
#    0.000    2.500    2.500    2.250    0.000    2.500 
#    0.000    1.250    0.000    0.750    0.000    0.000 
#    0.000    0.000    0.000    0.000    0.000    0.000 
#
# Total GULP energy -178538.227841 kJ/mol
# GULP energy per Si atom -5579.319620 kJ/mol
# Density = 2.232662 g / cm^3
# Si number density = 22.377549 Si / 1000 Ang^3
#
#
#
# Elastic Constant Matrix: (Units=GPa)
#
#
# Indices 1 2 3 4 5 6 
#
# 1 67.8121 -3.8051 25.9547 0.0000 19.3600 0.0000
# 2 -3.8051 46.9622 -0.3133 0.0000 3.8149 0.0000
# 3 25.9547 -0.3133 151.1840 0.0000 27.9272 0.0000
# 4 0.0000 0.0000 0.0000 13.2253 0.0000 -3.1048
# 5 19.3600 3.8149 27.9272 0.0000 34.9637 0.0000
# 6 0.0000 0.0000 0.0000 -3.1048 0.0000 8.6773
#
#
#
# Elastic Compliance Matrix: (Units=1/GPa)
#
#
# Indices 1 2 3 4 5 6 
#
# 1 0.018001 0.002187 -0.001408 0.000000 -0.009081 0.000000
# 2 0.002187 0.021790 0.000390 0.000000 -0.003900 0.000000
# 3 -0.001408 0.000390 0.007884 0.000000 -0.005560 0.000000
# 4 0.000000 0.000000 0.000000 0.082546 0.000000 0.029536
# 5 -0.009081 -0.003900 -0.005560 0.000000 0.038496 0.000000
# 6 0.000000 0.000000 0.000000 0.029536 0.000000 0.125812
#
#
# Mechanical properties :
#
#
# Convention : Reuss Voigt Hill
#
# Bulk Modulus (GPa) = 19.99487 34.40344 27.19915
# Shear Modulus (GPa) = 16.18838 27.64807 21.91823
#
# Velocity S-wave (km/s) = 2.69257 3.51882 3.13305
# Velocity P-wave (km/s) = 4.31523 5.64951 5.02683
#
# Compressibility (1/GPa) = 0.05001283
#
# Stress axis : x y z
#
# Youngs Moduli (GPa) = 55.55245 45.89196 126.83690
#
# Poissons Ratio (x) = -0.10036 0.17863
# Poissons Ratio (y) = -0.12148 -0.04949
# Poissons Ratio (z) = 0.07823 -0.01791
#
# Static dielectric constant tensor:
#      x y z
#    x 1.841270 0.000000 0.016800 
#    y 0.000000 1.823720 0.000000 
#    z 0.016800 0.000000 1.880100 
# 
# From -- ./inp_files/72041.got.cif
#   From: 2010.05.17/outbox.cif.g08.bks.cpg/sg11_37_cif.got.tgz:72041.got - 2010.06.03 12:22:45.
