data_PCOD9157786
_publ_section_title
;
Structure prediction by ZEFSAII (Michael W. Deem and Ramdas Pophale) SiO2 
 PCOD9157786
Probable space group: P 21/M
;
_chemical_formula_sum "Si O2"
_cell_formula_units_Z 28
_cell_length_a 7.877980
_cell_length_b 16.623961
_cell_length_c 13.199826
_cell_angle_alpha 90.000000
_cell_angle_beta 55.399969
_cell_angle_gamma 90.000000
_cell_volume 1422.948624
_symmetry_space_group_name_H-M "P 21/M"
_symmetry_group_IT_number 11
_symmetry_cell_setting 'monoclinic'
loop_
_space_group_symop_operation_xyz
x,y,z
-x,1/2+y,-z
-x,-y,-z
x,1/2-y,z
loop_
_atom_site_type_symbol
_atom_site_label
_atom_site_fract_x
_atom_site_fract_y
_atom_site_fract_z
Si Si1 0.442150 0.392230 0.421641
Si Si2 0.028457 0.655791 0.394381
Si Si3 0.519889 0.007588 0.113173
Si Si4 0.098123 0.069989 0.033361
Si Si5 0.695369 0.428679 0.526008
Si Si6 0.933083 0.002261 0.731267
Si Si7 0.287138 0.661734 0.856670
O O1 0.210429 0.357597 0.489993
O O2 0.540870 0.383020 0.500846
O O3 0.426295 0.488661 0.405512
O O4 0.597098 0.352761 0.289070
O O5 0.064335 0.750000 0.365417
O O6 0.193002 0.620741 0.421556
O O7 0.042036 0.598290 0.290496
O O8 0.294282 0.012508 0.235570
O O9 0.630567 0.090732 0.100805
O O10 0.667057 0.931516 0.086194
O O11 0.500000 0.000000 0.000000
O O12 0.071775 0.036370 0.156357
O O13 0.042496 0.852114 0.927905
O O14 0.000000 0.000000 0.000000
O O15 0.887653 0.461230 0.393763
O O16 0.334787 0.750000 0.879120
#
# Coordination Sequence:
#
# PCOD9157786 Si02
#       7
#     4   4   4   4   4   4   4
#     4  10  20  36  60  84 117 159 193 235 289 362
#     4  11  23  36  54  87 124 153 193 245 286 340
#     4   9  19  36  60  80 107 151 194 235 285 352
#     4   9  19  36  57  80 108 147 190 233 283 350
#     4  10  20  36  60  85 117 160 201 230 282 367
#     4  10  18  38  58  81 109 153 197 227 283 356
#     4  11  20  34  57  87 116 144 188 249 300 336
#
# _framework density 19.677448999999999
#
# number of rings (size 3 to 8) (size 9 to 14) (size 15 to 20)
#    0.000    2.000    1.429    3.857    0.000    1.143 
#    0.000   10.000    0.000    0.000    0.000    0.000 
#    0.000    0.000    0.000    0.000    0.000    0.000 
#
# Total GULP energy -155893.435632 kJ/mol
# GULP energy per Si atom -5567.622701 kJ/mol
# Density = 1.963266 g / cm^3
# Si number density = 19.677449 Si / 1000 Ang^3
#
#
#
# Elastic Constant Matrix: (Units=GPa)
#
#
# Indices 1 2 3 4 5 6 
#
# 1 85.4464 18.3313 10.9917 0.0000 -10.4527 0.0000
# 2 18.3313 97.9801 11.2793 0.0000 -1.5869 0.0000
# 3 10.9917 11.2793 16.3203 0.0000 -3.8133 0.0000
# 4 0.0000 0.0000 0.0000 8.8017 0.0000 -2.8568
# 5 -10.4527 -1.5869 -3.8133 0.0000 37.1757 0.0000
# 6 0.0000 0.0000 0.0000 -2.8568 0.0000 14.5710
#
#
#
# Elastic Compliance Matrix: (Units=1/GPa)
#
#
# Indices 1 2 3 4 5 6 
#
# 1 0.013334 -0.001621 -0.007172 0.000000 0.002944 0.000000
# 2 -0.001621 0.011289 -0.006869 0.000000 -0.000679 0.000000
# 3 -0.007172 -0.006869 0.072037 0.000000 0.005080 0.000000
# 4 0.000000 0.000000 0.000000 0.121336 0.000000 0.023789
# 5 0.002944 -0.000679 0.005080 0.000000 0.028219 0.000000
# 6 0.000000 0.000000 0.000000 0.023789 0.000000 0.073294
#
#
# Mechanical properties :
#
#
# Convention : Reuss Voigt Hill
#
# Bulk Modulus (GPa) = 15.30536 31.21682 23.26109
# Shear Modulus (GPa) = 13.41880 22.71932 18.06906
#
# Velocity S-wave (km/s) = 2.61423 3.40161 3.03357
# Velocity P-wave (km/s) = 4.11184 5.59702 4.91090
#
# Compressibility (1/GPa) = 0.06533659
#
# Stress axis : x y z
#
# Youngs Moduli (GPa) = 74.99724 88.57997 13.88168
#
# Poissons Ratio (x) = 0.14362 0.09956
# Poissons Ratio (y) = 0.12160 0.09535
# Poissons Ratio (z) = 0.53786 0.60844
#
# Static dielectric constant tensor:
#      x y z
#    x 1.841960 0.000000 0.045000 
#    y 0.000000 1.647710 0.000000 
#    z 0.045000 0.000000 1.831490 
# 
# From -- ./inp_files/47569.got.cif
#   From: 2010.05.17/outbox.cif.g08.bks.cpg/sg11_24_cif.got.tgz:47569.got - 2010.06.03 12:22:45.
