data_PCOD9157087
_publ_section_title
;
Structure prediction by ZEFSAII (Michael W. Deem and Ramdas Pophale) SiO2 
 PCOD9157087
Probable space group: P 21/M
;
_chemical_formula_sum "Si O2"
_cell_formula_units_Z 24
_cell_length_a 19.536263
_cell_length_b 8.196448
_cell_length_c 15.311043
_cell_angle_alpha 90.000000
_cell_angle_beta 23.131564
_cell_angle_gamma 90.000000
_cell_volume 963.145371
_symmetry_space_group_name_H-M "P 21/M"
_symmetry_group_IT_number 11
_symmetry_cell_setting 'monoclinic'
loop_
_space_group_symop_operation_xyz
x,y,z
-x,1/2+y,-z
-x,-y,-z
x,1/2-y,z
loop_
_atom_site_type_symbol
_atom_site_label
_atom_site_fract_x
_atom_site_fract_y
_atom_site_fract_z
Si Si1 0.824208 0.059953 0.890609
Si Si2 0.880165 0.059623 0.559317
Si Si3 0.586926 0.564100 0.014521
Si Si4 0.374606 0.553872 0.569005
Si Si5 0.696379 0.557573 0.530640
Si Si6 0.078274 0.948791 0.037422
O O1 0.777104 0.250000 0.935310
O O2 0.810628 0.008722 0.006559
O O3 0.029350 0.039773 0.624658
O O4 0.711296 0.960734 0.953862
O O5 0.906727 0.250000 0.511774
O O6 0.000000 0.000000 0.500000
O O7 0.683916 0.033090 0.823610
O O8 0.588950 0.750000 0.985022
O O9 0.400177 0.516457 0.272576
O O10 0.500000 0.500000 0.500000
O O11 0.378194 0.750000 0.556226
O O12 0.410634 0.474812 0.433140
O O13 0.183682 0.498318 0.828719
O O14 0.708174 0.750000 0.531069
O O15 0.885451 0.487610 0.283267
O O16 0.069250 0.750000 0.045389
#
# Coordination Sequence:
#
# PCOD9157087 Si02
#       6
#     4   4   4   4   4   4
#     4  10  18  34  58  84 111 146 187 233 280 330
#     4  10  18  31  52  81 112 146 184 231 281 329
#     4  11  21  35  55  83 112 146 189 234 277 330
#     4  11  22  39  61  88 114 145 185 229 274 327
#     4  11  22  39  58  81 112 149 185 228 279 331
#     4   9  21  38  58  81 112 148 185 225 276 331
#
# _framework density 24.918357
#
# number of rings (size 3 to 8) (size 9 to 14) (size 15 to 20)
#    0.000    1.667    0.000    8.000    0.000    1.333 
#    0.000    9.167    0.000    0.000    0.000    0.000 
#    0.000    0.000    0.000    0.000    0.000    0.000 
#
# Total GULP energy -134310.165659 kJ/mol
# GULP energy per Si atom -5596.256902 kJ/mol
# Density = 2.486164 g / cm^3
# Si number density = 24.918357 Si / 1000 Ang^3
#
#
#
# Elastic Constant Matrix: (Units=GPa)
#
#
# Indices 1 2 3 4 5 6 
#
# 1 72.9998 -9.0544 19.2007 0.0000 16.0884 0.0000
# 2 -9.0544 78.4704 -5.1576 0.0000 5.1256 0.0000
# 3 19.2007 -5.1576 138.5531 0.0000 11.7729 0.0000
# 4 0.0000 0.0000 0.0000 32.3430 0.0000 1.3252
# 5 16.0884 5.1256 11.7729 0.0000 54.1826 0.0000
# 6 0.0000 0.0000 0.0000 1.3252 0.0000 15.6866
#
#
#
# Elastic Compliance Matrix: (Units=1/GPa)
#
#
# Indices 1 2 3 4 5 6 
#
# 1 0.015347 0.001946 -0.001683 0.000000 -0.004375 0.000000
# 2 0.001946 0.013117 0.000380 0.000000 -0.001901 0.000000
# 3 -0.001683 0.000380 0.007565 0.000000 -0.001180 0.000000
# 4 0.000000 0.000000 0.000000 0.031026 0.000000 -0.002621
# 5 -0.004375 -0.001901 -0.001180 0.000000 0.020192 0.000000
# 6 0.000000 0.000000 0.000000 -0.002621 0.000000 0.063970
#
#
# Mechanical properties :
#
#
# Convention : Reuss Voigt Hill
#
# Bulk Modulus (GPa) = 26.79770 33.33339 30.06555
# Shear Modulus (GPa) = 30.79416 39.44476 35.11946
#
# Velocity S-wave (km/s) = 3.51921 3.98296 3.75825
# Velocity P-wave (km/s) = 5.22405 5.87861 5.56097
#
# Compressibility (1/GPa) = 0.03731663
#
# Stress axis : x y z
#
# Youngs Moduli (GPa) = 65.15975 76.23473 132.18698
#
# Poissons Ratio (x) = -0.14836 0.22241
# Poissons Ratio (y) = -0.12680 -0.05025
# Poissons Ratio (z) = 0.10963 -0.02898
#
# Static dielectric constant tensor:
#      x y z
#    x 1.635180 0.000000 0.056260 
#    y 0.000000 1.829590 0.000000 
#    z 0.056260 0.000000 2.012690 
# 
# From -- ./inp_files/46582.got.cif
#   From: 2010.05.17/outbox.cif.g08.bks.cpg/sg11_24_cif.got.tgz:46582.got - 2010.06.03 12:22:45.
