data_PCOD9157911
_publ_section_title
;
Structure prediction by ZEFSAII (Michael W. Deem and Ramdas Pophale) SiO2 
 PCOD9157911
Probable space group: P 21/M
;
_chemical_formula_sum "Si O2"
_cell_formula_units_Z 24
_cell_length_a 15.333101
_cell_length_b 18.321258
_cell_length_c 5.089273
_cell_angle_alpha 90.000000
_cell_angle_beta 62.204291
_cell_angle_gamma 90.000000
_cell_volume 1264.724049
_symmetry_space_group_name_H-M "P 21/M"
_symmetry_group_IT_number 11
_symmetry_cell_setting 'monoclinic'
loop_
_space_group_symop_operation_xyz
x,y,z
-x,1/2+y,-z
-x,-y,-z
x,1/2-y,z
loop_
_atom_site_type_symbol
_atom_site_label
_atom_site_fract_x
_atom_site_fract_y
_atom_site_fract_z
Si Si1 0.661474 0.334244 0.462515
Si Si2 0.857171 0.570676 0.172923
Si Si3 0.514156 0.551985 0.230620
Si Si4 0.229835 0.611056 0.196409
Si Si5 0.957899 0.060255 0.770790
Si Si6 0.263780 0.063249 0.151343
O O1 0.635843 0.250000 0.530821
O O2 0.568169 0.385919 0.644914
O O3 0.743627 0.357457 0.559048
O O4 0.705124 0.348895 0.113474
O O5 0.771139 0.579273 0.505594
O O6 0.955580 0.597804 0.183308
O O7 0.890838 0.486731 0.068366
O O8 0.813765 0.594760 0.953451
O O9 0.500000 0.500000 0.500000
O O10 0.500000 0.500000 0.000000
O O11 0.624567 0.583835 0.067035
O O12 0.114878 0.613139 0.282054
O O13 0.257839 0.525105 0.142854
O O14 0.000000 0.000000 0.500000
#
# Coordination Sequence:
#
# PCOD9157911 Si02
#       6
#     4   4   4   4   4   4
#     4  12  25  41  56  83 120 159 197 240 293 369
#     4  10  19  29  46  81 119 142 173 225 287 333
#     4  12  22  36  59  85 110 153 199 247 296 344
#     4  11  21  35  58  81 119 153 190 234 300 347
#     4  10  19  29  52  82 120 144 175 222 287 337
#     4  11  19  32  53  80 116 142 188 239 296 331
#
# _framework density 18.976471
#
# number of rings (size 3 to 8) (size 9 to 14) (size 15 to 20)
#    0.000    1.000    6.667    3.500    2.333    0.000 
#    0.000    0.000    0.000    0.000    0.000    7.000 
#    0.000    0.000    0.000    0.000    0.000    0.000 
#
# Total GULP energy -133931.873802 kJ/mol
# GULP energy per Si atom -5580.494742 kJ/mol
# Density = 1.893328 g / cm^3
# Si number density = 18.976471 Si / 1000 Ang^3
#
#
#
# Elastic Constant Matrix: (Units=GPa)
#
#
# Indices 1 2 3 4 5 6 
#
# 1 62.8647 4.1431 1.0824 0.0000 3.5373 0.0000
# 2 4.1431 53.3472 -3.3992 0.0000 1.4830 0.0000
# 3 1.0824 -3.3992 81.3333 0.0000 8.6096 0.0000
# 4 0.0000 0.0000 0.0000 5.7242 0.0000 -1.8962
# 5 3.5373 1.4830 8.6096 0.0000 38.3576 0.0000
# 6 0.0000 0.0000 0.0000 -1.8962 0.0000 7.0472
#
#
#
# Elastic Compliance Matrix: (Units=1/GPa)
#
#
# Indices 1 2 3 4 5 6 
#
# 1 0.016069 -0.001216 -0.000116 0.000000 -0.001409 0.000000
# 2 -0.001216 0.018919 0.000894 0.000000 -0.000820 0.000000
# 3 -0.000116 0.000894 0.012637 0.000000 -0.002860 0.000000
# 4 0.000000 0.000000 0.000000 0.191793 0.000000 0.051606
# 5 -0.001409 -0.000820 -0.002860 0.000000 0.026874 0.000000
# 6 0.000000 0.000000 0.000000 0.051606 0.000000 0.155785
#
#
# Mechanical properties :
#
#
# Convention : Reuss Voigt Hill
#
# Bulk Modulus (GPa) = 21.39100 22.35535 21.87317
# Shear Modulus (GPa) = 11.40158 23.27372 17.33765
#
# Velocity S-wave (km/s) = 2.45384 3.50587 3.02593
# Velocity P-wave (km/s) = 4.39605 5.30983 4.87440
#
# Compressibility (1/GPa) = 0.04674863
#
# Stress axis : x y z
#
# Youngs Moduli (GPa) = 62.23325 52.85605 79.13427
#
# Poissons Ratio (x) = 0.06428 0.00914
# Poissons Ratio (y) = 0.07568 -0.07072
# Poissons Ratio (z) = 0.00719 -0.04724
#
# Static dielectric constant tensor:
#      x y z
#    x 1.734970 0.000000 -0.010260 
#    y 0.000000 1.646880 0.000000 
#    z -0.010260 0.000000 1.678520 
# 
# From -- ./inp_files/8211.got.cif
#   From: 2010.05.17/outbox.cif.g08.bks.cpg/sg11_5_cif.got.tgz:8211.got - 2010.06.03 12:22:45.
