data_PCOD9157343
_publ_section_title
;
Structure prediction by ZEFSAII (Michael W. Deem and Ramdas Pophale) SiO2 
 PCOD9157343
Probable space group: P 21/M
;
_chemical_formula_sum "Si O2"
_cell_formula_units_Z 22
_cell_length_a 5.052197
_cell_length_b 31.103405
_cell_length_c 5.052318
_cell_angle_alpha 90.000000
_cell_angle_beta 95.254079
_cell_angle_gamma 90.000000
_cell_volume 790.588183
_symmetry_space_group_name_H-M "P 21/M"
_symmetry_group_IT_number 11
_symmetry_cell_setting 'monoclinic'
loop_
_space_group_symop_operation_xyz
x,y,z
-x,1/2+y,-z
-x,-y,-z
x,1/2-y,z
loop_
_atom_site_type_symbol
_atom_site_label
_atom_site_fract_x
_atom_site_fract_y
_atom_site_fract_z
Si Si1 0.489598 0.047551 0.109297
Si Si2 0.409311 0.123522 0.770545
Si Si3 0.521151 0.204346 0.466729
Si Si4 0.050226 0.176240 0.115834
Si Si5 0.020070 0.911690 0.666052
Si Si6 0.232263 0.750000 0.028356
O O1 0.200176 0.060976 0.190587
O O2 0.721444 0.058759 0.339777
O O3 0.554134 0.081158 0.881228
O O4 0.500000 0.000000 0.000000
O O5 0.562400 0.159152 0.611578
O O6 0.150210 0.105415 0.595786
O O7 0.299813 0.150912 0.003096
O O8 0.562545 0.250000 0.661544
O O9 0.213351 0.202490 0.356264
O O10 0.680304 0.213692 0.211293
O O11 0.896842 0.133675 0.192432
O O12 0.960079 0.210298 0.888851
#
# Coordination Sequence:
#
# PCOD9157343 Si02
#       6
#     4   4   4   4   4   2
#     4  11  24  44  71 102 133 170 220 277 335 400
#     4  10  23  40  63  89 134 178 216 275 335 390
#     4   9  20  35  54  85 123 166 224 267 324 389
#     4  10  20  38  57  87 127 169 218 268 323 387
#     4  10  24  43  67  98 133 171 218 265 330 402
#     4  10  18  32  56  80 120 168 212 268 320 372
#
# _framework density 27.827383999999999
#
# number of rings (size 3 to 8) (size 9 to 14) (size 15 to 20)
#    0.545    1.455    0.909    1.636    1.273    8.727 
#    0.000    3.636    0.000    0.000    0.000    0.000 
#    0.000    0.000    0.000    0.000    0.000    0.000 
#
# Total GULP energy -122742.398176 kJ/mol
# GULP energy per Si atom -5579.199917 kJ/mol
# Density = 2.776405 g / cm^3
# Si number density = 27.827384 Si / 1000 Ang^3
#
#
#
# Elastic Constant Matrix: (Units=GPa)
#
#
# Indices 1 2 3 4 5 6 
#
# 1 88.7806 39.7731 20.8090 0.0000 24.7095 0.0000
# 2 39.7731 191.7815 46.4802 0.0000 37.2333 0.0000
# 3 20.8090 46.4802 119.2176 0.0000 1.2998 0.0000
# 4 0.0000 0.0000 0.0000 23.2089 0.0000 2.2219
# 5 24.7095 37.2333 1.2998 0.0000 45.0447 0.0000
# 6 0.0000 0.0000 0.0000 2.2219 0.0000 41.8036
#
#
#
# Elastic Compliance Matrix: (Units=1/GPa)
#
#
# Indices 1 2 3 4 5 6 
#
# 1 0.014107 -0.001148 -0.001941 0.000000 -0.006734 0.000000
# 2 -0.001148 0.007052 -0.002493 0.000000 -0.005128 0.000000
# 3 -0.001941 -0.002493 0.009668 0.000000 0.002847 0.000000
# 4 0.000000 0.000000 0.000000 0.043307 0.000000 -0.002302
# 5 -0.006734 -0.005128 0.002847 0.000000 0.030050 0.000000
# 6 0.000000 0.000000 0.000000 -0.002302 0.000000 0.024044
#
#
# Mechanical properties :
#
#
# Convention : Reuss Voigt Hill
#
# Bulk Modulus (GPa) = 50.85896 68.21159 59.53528
# Shear Modulus (GPa) = 34.25899 41.52594 37.89246
#
# Velocity S-wave (km/s) = 3.51255 3.86718 3.69412
# Velocity P-wave (km/s) = 5.89635 6.67126 6.29574
#
# Compressibility (1/GPa) = 0.01966222
#
# Stress axis : x y z
#
# Youngs Moduli (GPa) = 70.88620 141.80311 103.43527
#
# Poissons Ratio (x) = 0.16276 0.20081
# Poissons Ratio (y) = 0.08136 0.25788
# Poissons Ratio (z) = 0.13762 0.35354
#
# Static dielectric constant tensor:
#      x y z
#    x 2.497630 0.000000 0.056400 
#    y 0.000000 2.202980 0.000000 
#    z 0.056400 0.000000 2.485000 
# 
# From -- ./inp_files/999.got.cif
#   From: 2010.05.17/outbox.cif.g08.bks.cpg/sg11_1_cif.got.tgz:999.got - 2010.06.03 12:22:45.
