data_PCOD9157456
_publ_section_title
;
Structure prediction by ZEFSAII (Michael W. Deem and Ramdas Pophale) SiO2 
 PCOD9157456
Probable space group: P 21/M
;
_chemical_formula_sum "Si O2"
_cell_formula_units_Z 28
_cell_length_a 19.125137
_cell_length_b 9.464823
_cell_length_c 20.825784
_cell_angle_alpha 90.000000
_cell_angle_beta 157.179071
_cell_angle_gamma 90.000000
_cell_volume 1462.125936
_symmetry_space_group_name_H-M "P 21/M"
_symmetry_group_IT_number 11
_symmetry_cell_setting 'monoclinic'
loop_
_space_group_symop_operation_xyz
x,y,z
-x,1/2+y,-z
-x,-y,-z
x,1/2-y,z
loop_
_atom_site_type_symbol
_atom_site_label
_atom_site_fract_x
_atom_site_fract_y
_atom_site_fract_z
Si Si1 0.883174 0.921617 0.454504
Si Si2 0.920412 0.078977 0.245885
Si Si3 0.131395 0.595330 0.070309
Si Si4 0.196013 0.079542 0.367166
Si Si5 0.527108 0.078195 0.874400
Si Si6 0.440757 0.921704 0.246474
Si Si7 0.329189 0.905337 0.367485
O O1 0.894647 0.750000 0.458507
O O2 0.671766 0.962586 0.269597
O O3 0.966839 0.960808 0.595159
O O4 0.000000 0.000000 0.500000
O O5 0.915936 0.250000 0.242569
O O6 0.032946 0.041644 0.277119
O O7 0.711712 0.030141 0.065533
O O8 0.056044 0.750000 0.987894
O O9 0.249466 0.529909 0.113328
O O10 0.272294 0.617341 0.246539
O O11 0.000000 0.500000 0.000000
O O12 0.194806 0.250000 0.356285
O O13 0.384292 0.042186 0.562907
O O14 0.195396 0.993546 0.300227
O O15 0.529509 0.250000 0.877647
O O16 0.536825 0.034644 0.807986
O O17 0.430913 0.750000 0.239146
O O18 0.361990 0.750000 0.424245
O O19 0.500000 0.000000 0.500000
#
# Coordination Sequence:
#
# PCOD9157456 Si02
#       7
#     4   4   4   4   4   4   4
#     4  10  20  36  58  84 114 143 177 222 268 323
#     4   9  18  32  55  84 108 140 183 221 267 328
#     4  10  22  36  50  74 108 142 181 231 280 327
#     4  10  18  33  56  79 103 133 178 231 279 329
#     4   9  17  31  54  83 110 139 184 231 267 315
#     4   9  16  31  52  75 103 136 177 228 272 313
#     4  11  22  36  52  74 105 142 186 232 280 332
#
# _framework density 19.150195
#
# number of rings (size 3 to 8) (size 9 to 14) (size 15 to 20)
#    0.000    2.286    2.857    0.429    2.000    1.714 
#    0.000    0.714    0.000    1.714    0.000    0.000 
#    0.000    0.000    0.000    0.000    0.000    0.000 
#
# Total GULP energy -155868.269564 kJ/mol
# GULP energy per Si atom -5566.723913 kJ/mol
# Density = 1.910661 g / cm^3
# Si number density = 19.150195 Si / 1000 Ang^3
#
#
#
# Elastic Constant Matrix: (Units=GPa)
#
#
# Indices 1 2 3 4 5 6 
#
# 1 106.7788 20.4298 31.4426 0.0000 33.4419 0.0000
# 2 20.4298 35.4665 14.2264 0.0000 14.6475 0.0000
# 3 31.4426 14.2264 96.9354 0.0000 30.8832 0.0000
# 4 0.0000 0.0000 0.0000 11.4523 0.0000 3.6925
# 5 33.4419 14.6475 30.8832 0.0000 38.7030 0.0000
# 6 0.0000 0.0000 0.0000 3.6925 0.0000 22.7604
#
#
#
# Elastic Compliance Matrix: (Units=1/GPa)
#
#
# Indices 1 2 3 4 5 6 
#
# 1 0.013222 -0.003371 -0.000752 0.000000 -0.009549 0.000000
# 2 -0.003371 0.034378 -0.000985 0.000000 -0.009312 0.000000
# 3 -0.000752 -0.000985 0.013917 0.000000 -0.010083 0.000000
# 4 0.000000 0.000000 0.000000 0.092138 0.000000 -0.014948
# 5 -0.009549 -0.009312 -0.010083 0.000000 0.045658 0.000000
# 6 0.000000 0.000000 0.000000 -0.014948 0.000000 0.046361
#
#
# Mechanical properties :
#
#
# Convention : Reuss Voigt Hill
#
# Bulk Modulus (GPa) = 19.49272 41.26423 30.37847
# Shear Modulus (GPa) = 18.31558 26.12193 22.21876
#
# Velocity S-wave (km/s) = 3.09596 3.69732 3.40992
# Velocity P-wave (km/s) = 4.79384 6.31042 5.60367
#
# Compressibility (1/GPa) = 0.05130120
#
# Stress axis : x y z
#
# Youngs Moduli (GPa) = 75.63047 29.08801 71.85527
#
# Poissons Ratio (x) = 0.09806 0.05402
# Poissons Ratio (y) = 0.25496 0.07080
# Poissons Ratio (z) = 0.05686 0.02866
#
# Static dielectric constant tensor:
#      x y z
#    x 1.659570 0.000000 0.004830 
#    y 0.000000 1.009870 0.000000 
#    z 0.004830 0.000000 1.723420 
# 
# From -- ./inp_files/29110.got.cif
#   From: 2010.05.17/outbox.cif.g08.bks.cpg/sg11_15_cif.got.tgz:29110.got - 2010.06.03 12:22:45.
