data_PCOD9157969
_publ_section_title
;
Structure prediction by ZEFSAII (Michael W. Deem and Ramdas Pophale) SiO2 
 PCOD9157969
Probable space group: P 21/M
;
_chemical_formula_sum "Si O2"
_cell_formula_units_Z 32
_cell_length_a 12.288329
_cell_length_b 8.300234
_cell_length_c 17.462500
_cell_angle_alpha 90.000000
_cell_angle_beta 96.026534
_cell_angle_gamma 90.000000
_cell_volume 1771.261768
_symmetry_space_group_name_H-M "P 21/M"
_symmetry_group_IT_number 11
_symmetry_cell_setting 'monoclinic'
loop_
_space_group_symop_operation_xyz
x,y,z
-x,1/2+y,-z
-x,-y,-z
x,1/2-y,z
loop_
_atom_site_type_symbol
_atom_site_label
_atom_site_fract_x
_atom_site_fract_y
_atom_site_fract_z
Si Si1 0.382813 0.554883 0.959825
Si Si2 0.364174 0.943821 0.783811
Si Si3 0.874675 0.052870 0.269470
Si Si4 0.946391 0.938021 0.827902
Si Si5 0.402112 0.556808 0.242232
Si Si6 0.755031 0.443193 0.909101
Si Si7 0.033791 0.057005 0.418903
Si Si8 0.797253 0.442016 0.678610
O O1 0.381102 0.750000 0.958768
O O2 0.368778 0.497401 0.872066
O O3 0.500000 0.500000 0.000000
O O4 0.289094 0.499900 0.012228
O O5 0.359940 0.750000 0.785569
O O6 0.250524 0.000623 0.738692
O O7 0.476091 0.991295 0.750995
O O8 0.877136 0.250000 0.268757
O O9 0.937736 0.999783 0.196294
O O10 0.944335 0.002284 0.348753
O O11 0.958598 0.750000 0.844764
O O12 0.877201 0.011596 0.892168
O O13 0.868626 0.966322 0.748095
O O14 0.408595 0.750000 0.237455
O O15 0.331600 0.500149 0.162692
O O16 0.327920 0.516933 0.310661
O O17 0.750030 0.250000 0.908080
O O18 0.038461 0.250000 0.417377
O O19 0.149876 0.988721 0.397935
O O20 0.000000 0.000000 0.500000
O O21 0.810399 0.250000 0.692241
#
# Coordination Sequence:
#
# PCOD9157969 Si02
#       8
#     4   4   4   4   4   4   4   4
#     4  10  19  30  45  66  93 126 164 207 247 288
#     4  10  19  31  49  69  92 129 168 198 238 292
#     4   8  17  33  49  70  99 126 155 195 240 285
#     4   9  16  28  47  67  90 123 163 204 243 286
#     4   9  17  29  45  67  98 128 157 200 246 279
#     4   9  17  29  43  63  94 124 157 206 255 288
#     4  10  19  33  55  80 104 127 155 193 235 282
#     4   9  17  30  48  72 102 128 155 195 241 283
#
# _framework density 18.066217000000002
#
# number of rings (size 3 to 8) (size 9 to 14) (size 15 to 20)
#    0.000    2.750    1.250    2.625    0.000    3.000 
#    0.000    4.375    0.000    0.750    0.000    0.000 
#    0.000    0.000    0.000    0.000    0.000    0.000 
#
# Total GULP energy -178238.429333 kJ/mol
# GULP energy per Si atom -5569.950917 kJ/mol
# Density = 1.802510 g / cm^3
# Si number density = 18.066217 Si / 1000 Ang^3
#
#
#
# Elastic Constant Matrix: (Units=GPa)
#
#
# Indices 1 2 3 4 5 6 
#
# 1 143.0721 14.0746 57.5891 0.0000 -28.0698 0.0000
# 2 14.0746 7.8476 9.8046 0.0000 -2.6703 0.0000
# 3 57.5891 9.8046 79.8001 0.0000 -28.7170 0.0000
# 4 0.0000 0.0000 0.0000 15.4076 0.0000 -13.0527
# 5 -28.0698 -2.6703 -28.7170 0.0000 30.4993 0.0000
# 6 0.0000 0.0000 0.0000 -13.0527 0.0000 20.6504
#
#
#
# Elastic Compliance Matrix: (Units=1/GPa)
#
#
# Indices 1 2 3 4 5 6 
#
# 1 0.011020 -0.012196 -0.004823 0.000000 0.004533 0.000000
# 2 -0.012196 0.164864 -0.015577 0.000000 -0.011457 0.000000
# 3 -0.004823 -0.015577 0.023954 0.000000 0.016752 0.000000
# 4 0.000000 0.000000 0.000000 0.139717 0.000000 0.088312
# 5 0.004533 -0.011457 0.016752 0.000000 0.051729 0.000000
# 6 0.000000 0.000000 0.000000 0.088312 0.000000 0.104245
#
#
# Mechanical properties :
#
#
# Convention : Reuss Voigt Hill
#
# Bulk Modulus (GPa) = 7.42694 43.73962 25.58328
# Shear Modulus (GPa) = 8.25624 23.26158 15.75891
#
# Velocity S-wave (km/s) = 2.14007 3.59217 2.95665
# Velocity P-wave (km/s) = 3.19788 6.43958 5.08403
#
# Compressibility (1/GPa) = 0.13464496
#
# Stress axis : x y z
#
# Youngs Moduli (GPa) = 90.74431 6.06562 41.74663
#
# Poissons Ratio (x) = 0.07398 0.20134
# Poissons Ratio (y) = 1.10672 0.65030
# Poissons Ratio (z) = 0.43766 0.09449
#
# Static dielectric constant tensor:
#      x y z
#    x 1.642180 0.000000 -0.025750 
#    y 0.000000 1.635530 0.000000 
#    z -0.025750 0.000000 1.620650 
# 
# From -- ./inp_files/40681.got.cif
#   From: 2010.05.17/outbox.cif.g08.bks.cpg/sg11_21_cif.got.tgz:40681.got - 2010.06.03 12:22:45.
