data_PCOD9157014
_publ_section_title
;
Structure prediction by ZEFSAII (Michael W. Deem and Ramdas Pophale) SiO2 
 PCOD9157014
Probable space group: P 21/M
;
_chemical_formula_sum "Si O2"
_cell_formula_units_Z 32
_cell_length_a 24.918638
_cell_length_b 7.434317
_cell_length_c 15.713522
_cell_angle_alpha 90.000000
_cell_angle_beta 151.451735
_cell_angle_gamma 90.000000
_cell_volume 1391.153132
_symmetry_space_group_name_H-M "P 21/M"
_symmetry_group_IT_number 11
_symmetry_cell_setting 'monoclinic'
loop_
_space_group_symop_operation_xyz
x,y,z
-x,1/2+y,-z
-x,-y,-z
x,1/2-y,z
loop_
_atom_site_type_symbol
_atom_site_label
_atom_site_fract_x
_atom_site_fract_y
_atom_site_fract_z
Si Si1 0.491145 0.466961 0.715016
Si Si2 0.117477 0.965897 0.301679
Si Si3 0.438908 0.964080 0.003171
Si Si4 0.216956 0.967599 0.607985
Si Si5 0.263273 0.529875 0.994518
Si Si6 0.121681 0.536593 0.636073
Si Si7 0.136327 0.534662 0.987916
Si Si8 0.760915 0.462323 0.695794
O O1 0.491188 0.250000 0.715625
O O2 0.506483 0.533194 0.834212
O O3 0.604669 0.522696 0.822936
O O4 0.369804 0.519329 0.510283
O O5 0.127591 0.750000 0.311509
O O6 0.203043 0.035112 0.493684
O O7 0.157659 0.035464 0.265864
O O8 0.992836 0.000087 0.164238
O O9 0.430787 0.750000 0.003902
O O10 0.316485 0.031794 0.807547
O O11 0.500000 0.000000 0.000000
O O12 0.227042 0.750000 0.613617
O O13 0.116379 0.020770 0.529748
O O14 0.261716 0.750000 0.991997
O O15 0.208125 0.468722 0.828333
O O16 0.188601 0.468484 0.971190
O O17 0.144473 0.750000 0.663564
O O18 0.000000 0.500000 0.500000
O O19 0.146824 0.750000 0.997197
O O20 0.208994 0.465191 0.169327
O O21 0.784959 0.250000 0.733919
#
# Coordination Sequence:
#
# PCOD9157014 Si02
#       8
#     4   4   4   4   4   4   4   4
#     4  10  20  36  58  81 107 145 190 226 263 324
#     4  10  20  35  55  79 109 141 178 224 274 330
#     4  10  19  33  53  77 106 141 177 212 256 313
#     4   9  17  31  51  73 100 136 169 200 253 316
#     4   9  18  35  56  78 108 144 181 224 271 320
#     4  10  18  31  51  74 102 135 171 210 255 310
#     4  10  21  37  57  79 107 143 182 228 281 329
#     4  10  22  38  55  79 110 144 180 228 288 328
#
# _framework density 23.002500999999999
#
# number of rings (size 3 to 8) (size 9 to 14) (size 15 to 20)
#    0.000    2.250    1.250    1.875    0.000    3.000 
#    0.000    2.500    0.000    0.000    0.000    0.000 
#    0.000    0.000    0.000    0.000    0.000    0.000 
#
# Total GULP energy -178434.726892 kJ/mol
# GULP energy per Si atom -5576.085215 kJ/mol
# Density = 2.295015 g / cm^3
# Si number density = 23.002501 Si / 1000 Ang^3
#
#
#
# Elastic Constant Matrix: (Units=GPa)
#
#
# Indices 1 2 3 4 5 6 
#
# 1 139.7024 3.1734 33.9593 0.0000 -11.5471 0.0000
# 2 3.1734 70.7557 -8.5500 0.0000 -10.2275 0.0000
# 3 33.9593 -8.5500 94.3600 0.0000 -13.1397 0.0000
# 4 0.0000 0.0000 0.0000 7.4077 0.0000 10.9034
# 5 -11.5471 -10.2275 -13.1397 0.0000 36.6760 0.0000
# 6 0.0000 0.0000 0.0000 10.9034 0.0000 13.9888
#
#
#
# Elastic Compliance Matrix: (Units=1/GPa)
#
#
# Indices 1 2 3 4 5 6 
#
# 1 0.007943 -0.000482 -0.002708 0.000000 0.001396 0.000000
# 2 -0.000482 0.015126 0.002221 0.000000 0.004862 0.000000
# 3 -0.002708 0.002221 0.012357 0.000000 0.004194 0.000000
# 4 0.000000 0.000000 0.000000 -0.916794 0.000000 0.714580
# 5 0.001396 0.004862 0.004194 0.000000 0.030564 0.000000
# 6 0.000000 0.000000 0.000000 0.714580 0.000000 -0.485481
#
#
# Mechanical properties :
#
#
# Convention : Reuss Voigt Hill
#
# Bulk Modulus (GPa) = 29.86028 40.22039 35.04034
# Shear Modulus (GPa) = -3.77876 30.03020 13.12572
#
# Velocity S-wave (km/s) = -1.28309 3.61712 2.39136
# Velocity P-wave (km/s) = 3.28853 5.91337 4.78447
#
# Compressibility (1/GPa) = 0.03348930
#
# Stress axis : x y z
#
# Youngs Moduli (GPa) = 125.90309 66.11171 80.92290
#
# Poissons Ratio (x) = 0.03184 0.21911
# Poissons Ratio (y) = 0.06063 -0.17972
# Poissons Ratio (z) = 0.34090 -0.14683
#
# Static dielectric constant tensor:
#      x y z
#    x 2.911440 0.000000 0.455440 
#    y 0.000000 1.869790 0.000000 
#    z 0.455440 0.000000 2.061300 
# 
# From -- ./inp_files/55559.got.cif
#   From: 2010.05.17/outbox.cif.g08.bks.cpg/sg11_28_cif.got.tgz:55559.got - 2010.06.03 12:22:45.
