data_PCOD9157817
_publ_section_title
;
Structure prediction by ZEFSAII (Michael W. Deem and Ramdas Pophale) SiO2 
 PCOD9157817
Probable space group: P 21/M
;
_chemical_formula_sum "Si O2"
_cell_formula_units_Z 24
_cell_length_a 21.194960
_cell_length_b 17.547930
_cell_length_c 21.391329
_cell_angle_alpha 90.000000
_cell_angle_beta 14.698125
_cell_angle_gamma 90.000000
_cell_volume 2018.653282
_symmetry_space_group_name_H-M "P 21/M"
_symmetry_group_IT_number 11
_symmetry_cell_setting 'monoclinic'
loop_
_space_group_symop_operation_xyz
x,y,z
-x,1/2+y,-z
-x,-y,-z
x,1/2-y,z
loop_
_atom_site_type_symbol
_atom_site_label
_atom_site_fract_x
_atom_site_fract_y
_atom_site_fract_z
Si Si1 0.600969 0.524811 0.204472
Si Si2 0.820751 0.417215 0.248256
Si Si3 0.155635 0.159816 0.735945
Si Si4 0.320722 0.582785 0.748285
Si Si5 0.655605 0.840184 0.235975
Si Si6 0.100969 0.024811 0.704471
O O1 0.639350 0.476681 0.233268
O O2 0.619267 0.612640 0.206381
O O3 0.328502 0.501392 0.444182
O O4 0.828502 0.498608 0.944182
O O5 0.750011 0.454587 0.249989
O O6 0.584604 0.365180 0.493365
O O7 0.860659 0.476681 0.266723
O O8 0.076595 0.369992 0.996324
O O9 0.161768 0.250000 0.723399
O O10 0.423438 0.130010 0.503644
O O11 0.119286 0.112640 0.706362
O O12 0.915429 0.134818 0.006603
O O13 0.661744 0.750000 0.223423
#
# Coordination Sequence:
#
# PCOD9157817 Si02
#       6
#     4   4   4   4   4   4
#     4   8  16  27  36  41  47  58  66  69  76  89
#     4  10  19  28  34  39  48  59  65  68  77  90
#     4  10  19  27  34  43  50  54  62  74  81  83
#     4  10  19  28  34  39  48  59  65  68  77  90
#     4  10  19  27  34  43  50  54  62  74  81  83
#     4   8  16  27  36  41  47  58  66  69  76  89
#
# _framework density 11.889115
#
# number of rings (size 3 to 8) (size 9 to 14) (size 15 to 20)
#    0.000    2.667    0.000    2.000    0.000   16.000 
#    0.000    0.000    0.000    0.000    0.000    0.000 
#    0.000    0.000    0.000    0.000    0.000    0.000 
#
# Total GULP energy -133666.654483 kJ/mol
# GULP energy per Si atom -5569.443937 kJ/mol
# Density = 1.186205 g / cm^3
# Si number density = 11.889115 Si / 1000 Ang^3
#
#
#
# Elastic Constant Matrix: (Units=GPa)
#
#
# Indices 1 2 3 4 5 6 
#
# 1 0.0548 0.3424 2.4345 0.0000 -0.3774 0.0000
# 2 0.3424 68.7895 14.3588 0.0000 -2.2240 0.0000
# 3 2.4345 14.3588 101.6036 0.0000 -15.7271 0.0000
# 4 0.0000 0.0000 0.0000 17.7653 0.0000 -2.7491
# 5 -0.3774 -2.2240 -15.7271 0.0000 2.4350 0.0000
# 6 0.0000 0.0000 0.0000 -2.7491 0.0000 0.4292
#
#
#
# Elastic Compliance Matrix: (Units=1/GPa)
#
#
# Indices 1 2 3 4 5 6 
#
# 1 ********** -0.011051-30.179587 0.000000********** 0.000000
# 2 -0.011051 0.014979 0.001781 0.000000 0.023473 0.000000
# 3 -30.179587 0.001781 33.675251 0.000000212.822342 0.000000
# 4 0.000000 0.000000 0.000000 6.422740 0.000000 41.141243
# 5 ********** 0.023473212.822342 0.000000********** 0.000000
# 6 0.000000 0.000000 0.000000 41.141243 0.000000265.862726
#
#
# Mechanical properties :
#
#
# Convention : Reuss Voigt Hill
#
# Bulk Modulus (GPa) = -0.00369 22.74659 11.37145
# Shear Modulus (GPa) = 0.00365 14.34673 7.17519
#
# Velocity S-wave (km/s) = 0.05546 3.47754 2.45931
# Velocity P-wave (km/s) = 0.03150 5.94123 4.20114
#
# Compressibility (1/GPa) = -271.18363255
#
# Stress axis : x y z
#
# Youngs Moduli (GPa) = -0.00409 66.75926 0.02970
#
# Poissons Ratio (x) = 0.73773 0.89619
# Poissons Ratio (y) = -0.00005 -0.00005
# Poissons Ratio (z) = -0.12344 -0.11891
#
# Static dielectric constant tensor:
#      x y z
#    x 1.323600 0.000000 -0.023430 
#    y 0.000000 1.407430 0.000000 
#    z -0.023430 0.000000 1.485640 
# 
# From -- ./inp_files/61099.got.cif
#   From: 2010.05.17/outbox.cif.g08.bks.cpg/sg11_31_cif.got.tgz:61099.got - 2010.06.03 12:22:45.
