data_PCOD9157753
_publ_section_title
;
Structure prediction by ZEFSAII (Michael W. Deem and Ramdas Pophale) SiO2 
 PCOD9157753
Probable space group: P 21/M
;
_chemical_formula_sum "Si O2"
_cell_formula_units_Z 28
_cell_length_a 8.507318
_cell_length_b 27.047689
_cell_length_c 9.471226
_cell_angle_alpha 90.000000
_cell_angle_beta 34.876593
_cell_angle_gamma 90.000000
_cell_volume 1246.181677
_symmetry_space_group_name_H-M "P 21/M"
_symmetry_group_IT_number 11
_symmetry_cell_setting 'monoclinic'
loop_
_space_group_symop_operation_xyz
x,y,z
-x,1/2+y,-z
-x,-y,-z
x,1/2-y,z
loop_
_atom_site_type_symbol
_atom_site_label
_atom_site_fract_x
_atom_site_fract_y
_atom_site_fract_z
Si Si1 0.994025 0.195794 0.075816
Si Si2 0.749998 0.543398 0.500001
Si Si3 0.285602 0.401799 0.187211
Si Si4 0.749998 0.150029 0.500002
Si Si5 0.249999 0.018955 0.000001
Si Si6 0.505969 0.304206 0.924188
Si Si7 0.214397 0.401799 0.812791
O O1 0.974871 0.250000 0.024027
O O2 0.249997 0.197482 0.000003
O O3 0.033378 0.148050 0.948331
O O4 0.743651 0.183800 0.365776
O O5 0.796598 0.577956 0.600825
O O6 0.483609 0.511507 0.743383
O O7 0.703397 0.577956 0.399177
O O8 0.016387 0.511507 0.256619
O O9 0.011004 0.384836 0.309589
O O10 0.397425 0.446605 0.009770
O O11 0.466621 0.351951 0.051669
O O12 0.756343 0.183801 0.634227
O O13 0.488993 0.115164 0.690417
O O14 0.102571 0.053395 0.990234
O O15 0.525123 0.250000 0.975979
#
# Coordination Sequence:
#
# PCOD9157753 Si02
#       7
#     4   4   4   4   4   4   4
#     4   9  18  34  62  93 122 159 208 259 312 372
#     4  12  29  40  66  94 131 167 212 261 322 364
#     4  11  23  41  63  92 128 162 211 264 310 377
#     4  10  18  36  65  88 130 159 212 251 317 362
#     4  12  24  44  65  92 123 174 218 256 306 376
#     4   9  18  34  62  93 122 159 208 259 312 372
#     4  11  23  41  63  92 128 162 211 264 310 377
#
# _framework density 22.468636
#
# number of rings (size 3 to 8) (size 9 to 14) (size 15 to 20)
#    0.000    1.429    4.286    3.000    4.000    1.143 
#    0.000    0.714    0.000    1.714    0.000    0.000 
#    0.000    0.000    0.000    0.000    0.000    0.000 
#
# Total GULP energy -156256.756458 kJ/mol
# GULP energy per Si atom -5580.598445 kJ/mol
# Density = 2.241750 g / cm^3
# Si number density = 22.468636 Si / 1000 Ang^3
#
#
#
# Elastic Constant Matrix: (Units=GPa)
#
#
# Indices 1 2 3 4 5 6 
#
# 1 21.1126 31.4463 17.5296 0.0000 16.9786 0.0000
# 2 31.4463 195.6828 93.8067 0.0000 23.7078 0.0000
# 3 17.5296 93.8067 145.6789 0.0000 24.0349 0.0000
# 4 0.0000 0.0000 0.0000 20.7579 0.0000 -6.7546
# 5 16.9786 23.7078 24.0349 0.0000 37.0436 0.0000
# 6 0.0000 0.0000 0.0000 -6.7546 0.0000 -20.5106
#
#
#
# Elastic Compliance Matrix: (Units=1/GPa)
#
#
# Indices 1 2 3 4 5 6 
#
# 1 0.091551 -0.011443 0.002315 0.000000 -0.036140 0.000000
# 2 -0.011443 0.008936 -0.004814 0.000000 0.002650 0.000000
# 3 0.002315 -0.004814 0.010474 0.000000 -0.004776 0.000000
# 4 0.000000 0.000000 0.000000 0.043512 0.000000 -0.014329
# 5 -0.036140 0.002650 -0.004776 0.000000 0.044962 0.000000
# 6 0.000000 0.000000 0.000000 -0.014329 0.000000 -0.044036
#
#
# Mechanical properties :
#
#
# Convention : Reuss Voigt Hill
#
# Bulk Modulus (GPa) = 12.03733 72.00438 42.02086
# Shear Modulus (GPa) = 23.69936 22.10428 22.90182
#
# Velocity S-wave (km/s) = 3.25125 3.13994 3.19608
# Velocity P-wave (km/s) = 4.41171 6.72769 5.68881
#
# Compressibility (1/GPa) = 0.08307489
#
# Stress axis : x y z
#
# Youngs Moduli (GPa) = 10.92290 111.90418 95.47544
#
# Poissons Ratio (x) = 1.28057 -0.22102
# Poissons Ratio (y) = 0.12500 0.45966
# Poissons Ratio (z) = -0.02529 0.53875
#
# Static dielectric constant tensor:
#      x y z
#    x 1.847100 0.000000 -0.000860 
#    y 0.000000 1.903380 0.000000 
#    z -0.000860 0.000000 1.942690 
# 
# From -- ./inp_files/15249.got.cif
#   From: 2010.05.17/outbox.cif.g08.bks.cpg/sg11_8_cif.got.tgz:15249.got - 2010.06.03 12:22:45.
