data_PCOD9157452
_publ_section_title
;
Structure prediction by ZEFSAII (Michael W. Deem and Ramdas Pophale) SiO2 
 PCOD9157452
Probable space group: P 21/M
;
_chemical_formula_sum "Si O2"
_cell_formula_units_Z 28
_cell_length_a 9.543973
_cell_length_b 16.924551
_cell_length_c 14.813103
_cell_angle_alpha 90.000000
_cell_angle_beta 140.019744
_cell_angle_gamma 90.000000
_cell_volume 1537.380898
_symmetry_space_group_name_H-M "P 21/M"
_symmetry_group_IT_number 11
_symmetry_cell_setting 'monoclinic'
loop_
_space_group_symop_operation_xyz
x,y,z
-x,1/2+y,-z
-x,-y,-z
x,1/2-y,z
loop_
_atom_site_type_symbol
_atom_site_label
_atom_site_fract_x
_atom_site_fract_y
_atom_site_fract_z
Si Si1 0.252757 0.841710 0.361653
Si Si2 0.905871 0.921016 0.074459
Si Si3 0.620523 0.942469 0.485805
Si Si4 0.019912 0.661090 0.746671
Si Si5 0.574464 0.407890 0.365797
Si Si6 0.953460 0.901582 0.899312
Si Si7 0.443152 0.656860 0.836914
O O1 0.207422 0.750000 0.328903
O O2 0.450191 0.871130 0.395193
O O3 0.327231 0.860286 0.500868
O O4 0.047675 0.893040 0.228721
O O5 0.991664 0.881654 0.022932
O O6 0.657231 0.894519 0.963410
O O7 0.941120 0.013614 0.072691
O O8 0.844535 0.904659 0.630028
O O9 0.500000 0.000000 0.500000
O O10 0.644163 0.000784 0.413108
O O11 0.947382 0.750000 0.685299
O O12 0.034731 0.656305 0.862086
O O13 0.250231 0.646028 0.813047
O O14 0.310213 0.406551 0.239765
O O15 0.636761 0.370035 0.301580
O O16 0.501460 0.750000 0.862889
#
# Coordination Sequence:
#
# PCOD9157452 Si02
#       7
#     4   4   4   4   4   4   4
#     4  11  19  30  56  88 111 139 183 241 294 324
#     4  10  21  36  58  83 115 144 186 239 281 336
#     4  10  18  33  55  83 110 137 184 236 277 324
#     4  11  22  37  59  85 117 152 191 234 279 337
#     4  10  19  36  60  81 112 148 190 234 277 340
#     4  10  19  37  59  83 108 149 192 232 278 331
#     4  10  23  39  56  83 116 154 194 229 277 347
#
# _framework density 18.212792
#
# number of rings (size 3 to 8) (size 9 to 14) (size 15 to 20)
#    0.000    1.714    4.286    2.143    0.000    4.000 
#    0.000    0.000    3.143    0.000    0.000    0.000 
#    0.000    0.000    0.000    0.000    0.000    0.000 
#
# Total GULP energy -156114.662198 kJ/mol
# GULP energy per Si atom -5575.523650 kJ/mol
# Density = 1.817134 g / cm^3
# Si number density = 18.212792 Si / 1000 Ang^3
#
#
#
# Elastic Constant Matrix: (Units=GPa)
#
#
# Indices 1 2 3 4 5 6 
#
# 1 79.7709 32.7127 21.4358 0.0000 7.7390 0.0000
# 2 32.7127 49.7766 18.0342 0.0000 11.5664 0.0000
# 3 21.4358 18.0342 74.7027 0.0000 1.7317 0.0000
# 4 0.0000 0.0000 0.0000 18.6513 0.0000 -6.5272
# 5 7.7390 11.5664 1.7317 0.0000 15.4040 0.0000
# 6 0.0000 0.0000 0.0000 -6.5272 0.0000 17.6301
#
#
#
# Elastic Compliance Matrix: (Units=1/GPa)
#
#
# Indices 1 2 3 4 5 6 
#
# 1 0.017573 -0.010488 -0.002495 0.000000 -0.000673 0.000000
# 2 -0.010488 0.033046 -0.004527 0.000000 -0.019035 0.000000
# 3 -0.002495 -0.004527 0.015127 0.000000 0.002952 0.000000
# 4 0.000000 0.000000 0.000000 0.061596 0.000000 0.022805
# 5 -0.000673 -0.019035 0.002952 0.000000 0.079217 0.000000
# 6 0.000000 0.000000 0.000000 0.022805 0.000000 0.065164
#
#
# Mechanical properties :
#
#
# Convention : Reuss Voigt Hill
#
# Bulk Modulus (GPa) = 32.54671 38.73505 35.64088
# Shear Modulus (GPa) = 15.77365 19.14158 17.45762
#
# Velocity S-wave (km/s) = 2.94611 3.24542 3.09938
# Velocity P-wave (km/s) = 5.42971 5.94625 5.69384
#
# Compressibility (1/GPa) = 0.03072507
#
# Stress axis : x y z
#
# Youngs Moduli (GPa) = 56.90647 30.26109 66.10841
#
# Poissons Ratio (x) = 0.31739 0.16493
# Poissons Ratio (y) = 0.59686 0.29926
# Poissons Ratio (z) = 0.14197 0.13699
#
# Static dielectric constant tensor:
#      x y z
#    x 1.624430 0.000000 -0.026350 
#    y 0.000000 1.656990 0.000000 
#    z -0.026350 0.000000 1.653460 
# 
# From -- ./inp_files/48034.got.cif
#   From: 2010.05.17/outbox.cif.g08.bks.cpg/sg11_25_cif.got.tgz:48034.got - 2010.06.03 12:22:45.
