data_PCOD9157058
_publ_section_title
;
Structure prediction by ZEFSAII (Michael W. Deem and Ramdas Pophale) SiO2 
 PCOD9157058
Probable space group: P 21/M
;
_chemical_formula_sum "Si O2"
_cell_formula_units_Z 32
_cell_length_a 20.360843
_cell_length_b 9.135470
_cell_length_c 25.546553
_cell_angle_alpha 90.000000
_cell_angle_beta 21.052947
_cell_angle_gamma 90.000000
_cell_volume 1706.994744
_symmetry_space_group_name_H-M "P 21/M"
_symmetry_group_IT_number 11
_symmetry_cell_setting 'monoclinic'
loop_
_space_group_symop_operation_xyz
x,y,z
-x,1/2+y,-z
-x,-y,-z
x,1/2-y,z
loop_
_atom_site_type_symbol
_atom_site_label
_atom_site_fract_x
_atom_site_fract_y
_atom_site_fract_z
Si Si1 0.431680 0.081971 0.909800
Si Si2 0.380666 0.082913 0.822913
Si Si3 0.786633 0.427601 0.506672
Si Si4 0.164735 0.928512 0.408874
Si Si5 0.968244 0.928747 0.774954
Si Si6 0.373345 0.582345 0.655779
Si Si7 0.212107 0.424823 0.681634
Si Si8 0.146896 0.914987 0.924202
O O1 0.442738 0.250000 0.920383
O O2 0.396742 0.084870 0.873342
O O3 0.637282 0.021010 0.761286
O O4 0.243037 0.020036 0.073071
O O5 0.355812 0.250000 0.822973
O O6 0.575934 0.025319 0.657143
O O7 0.212270 0.989856 0.928246
O O8 0.781956 0.250000 0.510086
O O9 0.845586 0.469408 0.521739
O O10 0.915755 0.471781 0.362797
O O11 0.160112 0.750000 0.409675
O O12 0.000000 0.000000 0.500000
O O13 0.968341 0.750000 0.779336
O O14 0.064845 0.995523 0.754487
O O15 0.353984 0.750000 0.650793
O O16 0.237811 0.484081 0.721591
O O17 0.584483 0.539771 0.492313
O O18 0.318790 0.581344 0.756657
O O19 0.185013 0.250000 0.700922
O O20 0.088371 0.750000 0.976709
O O21 0.000000 0.000000 0.000000
#
# Coordination Sequence:
#
# PCOD9157058 Si02
#       8
#     4   4   4   4   4   4   4   4
#     4   8  17  32  52  75 102 133 166 200 247 306
#     4   9  17  33  52  70  94 129 167 209 254 303
#     4   8  16  31  54  78 100 130 171 205 239 296
#     4   9  17  34  56  79 105 136 169 201 238 291
#     4  10  18  31  52  75  98 131 169 205 248 301
#     4   9  20  37  50  64  92 131 172 206 254 318
#     4  10  20  33  51  73  97 126 162 214 263 302
#     4  11  23  35  48  68  95 129 169 215 261 307
#
# _framework density 18.746396000000001
#
# number of rings (size 3 to 8) (size 9 to 14) (size 15 to 20)
#    0.000    2.750    0.000    3.000    1.750    1.500 
#    0.000    4.375    0.000    0.000    0.000    0.000 
#    0.000    0.000    0.000    0.000    0.000    0.000 
#
# Total GULP energy -178322.550112 kJ/mol
# GULP energy per Si atom -5572.579691 kJ/mol
# Density = 1.870373 g / cm^3
# Si number density = 18.746396 Si / 1000 Ang^3
#
#
#
# Elastic Constant Matrix: (Units=GPa)
#
#
# Indices 1 2 3 4 5 6 
#
# 1 65.6768 26.5944 28.0370 0.0000 -23.4156 0.0000
# 2 26.5944 41.9041 18.3170 0.0000 -17.8421 0.0000
# 3 28.0370 18.3170 96.8491 0.0000 -8.9464 0.0000
# 4 0.0000 0.0000 0.0000 18.7696 0.0000 -9.3560
# 5 -23.4156 -17.8421 -8.9464 0.0000 34.8966 0.0000
# 6 0.0000 0.0000 0.0000 -9.3560 0.0000 26.7204
#
#
#
# Elastic Compliance Matrix: (Units=1/GPa)
#
#
# Indices 1 2 3 4 5 6 
#
# 1 0.024634 -0.009138 -0.004412 0.000000 0.010726 0.000000
# 2 -0.009138 0.035874 -0.003084 0.000000 0.011419 0.000000
# 3 -0.004412 -0.003084 0.012052 0.000000 -0.001448 0.000000
# 4 0.000000 0.000000 0.000000 0.064543 0.000000 0.022599
# 5 0.010726 0.011419 -0.001448 0.000000 0.041321 0.000000
# 6 0.000000 0.000000 0.000000 0.022599 0.000000 0.045338
#
#
# Mechanical properties :
#
#
# Convention : Reuss Voigt Hill
#
# Bulk Modulus (GPa) = 25.45164 38.92522 32.18843
# Shear Modulus (GPa) = 18.50971 24.84276 21.67623
#
# Velocity S-wave (km/s) = 3.14566 3.64428 3.40411
# Velocity P-wave (km/s) = 5.17686 6.20620 5.71475
#
# Compressibility (1/GPa) = 0.03929020
#
# Stress axis : x y z
#
# Youngs Moduli (GPa) = 40.59400 27.87529 82.97192
#
# Poissons Ratio (x) = 0.25474 0.36609
# Poissons Ratio (y) = 0.37097 0.25593
# Poissons Ratio (z) = 0.17911 0.08598
#
# Static dielectric constant tensor:
#      x y z
#    x 1.620670 0.000000 0.026990 
#    y 0.000000 1.641960 0.000000 
#    z 0.026990 0.000000 1.717700 
# 
# From -- ./inp_files/67001.got.cif
#   From: 2010.05.17/outbox.cif.g08.bks.cpg/sg11_34_cif.got.tgz:67001.got - 2010.06.03 12:22:45.
