data_PCOD9157850
_publ_section_title
;
Structure prediction by ZEFSAII (Michael W. Deem and Ramdas Pophale) SiO2 
 PCOD9157850
Probable space group: P 21/M
;
_chemical_formula_sum "Si O2"
_cell_formula_units_Z 32
_cell_length_a 18.946179
_cell_length_b 9.100024
_cell_length_c 27.073812
_cell_angle_alpha 90.000000
_cell_angle_beta 27.980977
_cell_angle_gamma 90.000000
_cell_volume 2190.037643
_symmetry_space_group_name_H-M "P 21/M"
_symmetry_group_IT_number 11
_symmetry_cell_setting 'monoclinic'
loop_
_space_group_symop_operation_xyz
x,y,z
-x,1/2+y,-z
-x,-y,-z
x,1/2-y,z
loop_
_atom_site_type_symbol
_atom_site_label
_atom_site_fract_x
_atom_site_fract_y
_atom_site_fract_z
Si Si1 0.528202 0.424574 0.553096
Si Si2 0.131892 0.076121 0.482495
Si Si3 0.258716 0.423304 0.658133
Si Si4 0.214343 0.924490 0.331908
Si Si5 0.985739 0.424092 0.249875
Si Si6 0.720444 0.423848 0.893838
Si Si7 0.616137 0.576132 0.859554
Si Si8 0.771332 0.422361 0.477871
O O1 0.555862 0.250000 0.524270
O O2 0.352599 0.451333 0.650503
O O3 0.623193 0.525277 0.456993
O O4 0.604026 0.448809 0.559301
O O5 0.155748 0.250000 0.462786
O O6 0.953113 0.048143 0.586666
O O7 0.212192 0.991881 0.387947
O O8 0.186948 0.018789 0.501153
O O9 0.229221 0.250000 0.672439
O O10 0.109324 0.512447 0.737294
O O11 0.238623 0.750000 0.318454
O O12 0.331359 0.002255 0.223381
O O13 0.006086 0.250000 0.232332
O O14 0.884792 0.449409 0.361769
O O15 0.142576 0.505192 0.161259
O O16 0.744227 0.250000 0.872329
O O17 0.704197 0.501398 0.850685
O O18 0.560693 0.445275 0.019901
O O19 0.647285 0.750000 0.839729
O O20 0.784665 0.250000 0.482609
#
# Coordination Sequence:
#
# PCOD9157850 Si02
#       8
#     4   4   4   4   4   4   4   4
#     4   8  15  26  38  55  81 113 145 175 210 253
#     4  10  20  31  44  64  86 109 142 180 215 252
#     4   9  15  24  39  57  80 111 145 178 211 251
#     4  10  20  33  48  63  83 113 145 177 214 256
#     4  10  19  29  42  61  87 117 147 181 217 252
#     4  10  20  32  46  65  87 113 146 178 211 254
#     4  10  20  33  48  65  87 113 141 178 218 253
#     4   9  17  28  41  59  85 115 145 176 212 252
#
# _framework density 14.611621
#
# number of rings (size 3 to 8) (size 9 to 14) (size 15 to 20)
#    0.000    2.500    0.000    3.750    0.000    8.000 
#    0.000    0.000    0.000    0.000    0.000    0.000 
#    0.000    1.000    0.000    3.000    0.000    4.250 
#
# Total GULP energy -178317.225462 kJ/mol
# GULP energy per Si atom -5572.413296 kJ/mol
# Density = 1.457836 g / cm^3
# Si number density = 14.611621 Si / 1000 Ang^3
#
#
#
# Elastic Constant Matrix: (Units=GPa)
#
#
# Indices 1 2 3 4 5 6 
#
# 1 79.6819 45.0243 17.4719 0.0000 -14.8436 0.0000
# 2 45.0243 68.1778 34.3512 0.0000 -4.9163 0.0000
# 3 17.4719 34.3512 34.2689 0.0000 -0.9331 0.0000
# 4 0.0000 0.0000 0.0000 21.7524 0.0000 -0.2958
# 5 -14.8436 -4.9163 -0.9331 0.0000 22.8546 0.0000
# 6 0.0000 0.0000 0.0000 -0.2958 0.0000 27.4570
#
#
#
# Elastic Compliance Matrix: (Units=1/GPa)
#
#
# Indices 1 2 3 4 5 6 
#
# 1 0.023357 -0.017672 0.006122 0.000000 0.011619 0.000000
# 2 -0.017672 0.043628 -0.034818 0.000000 -0.003514 0.000000
# 3 0.006122 -0.034818 0.060933 0.000000 -0.001026 0.000000
# 4 0.000000 0.000000 0.000000 0.045979 0.000000 0.000495
# 5 0.011619 -0.003514 -0.001026 0.000000 0.050503 0.000000
# 6 0.000000 0.000000 0.000000 0.000495 0.000000 0.036426
#
#
# Mechanical properties :
#
#
# Convention : Reuss Voigt Hill
#
# Bulk Modulus (GPa) = 28.42324 41.75818 35.09071
# Shear Modulus (GPa) = 13.68778 20.09823 16.89300
#
# Velocity S-wave (km/s) = 3.06400 3.71279 3.40389
# Velocity P-wave (km/s) = 5.65793 6.85715 6.28620
#
# Compressibility (1/GPa) = 0.03518248
#
# Stress axis : x y z
#
# Youngs Moduli (GPa) = 42.81292 22.92130 16.41135
#
# Poissons Ratio (x) = 0.40506 -0.10047
# Poissons Ratio (y) = 0.75658 0.57141
# Poissons Ratio (z) = -0.26210 0.79808
#
# Static dielectric constant tensor:
#      x y z
#    x 1.497710 0.000000 -0.021610 
#    y 0.000000 1.486160 0.000000 
#    z -0.021610 0.000000 1.464560 
# 
# From -- ./inp_files/52959.got.cif
#   From: 2010.05.17/outbox.cif.g08.bks.cpg/sg11_27_cif.got.tgz:52959.got - 2010.06.03 12:22:45.
