data_PCOD9157413
_publ_section_title
;
Structure prediction by ZEFSAII (Michael W. Deem and Ramdas Pophale) SiO2 
 PCOD9157413
Probable space group: P 21/M
;
_chemical_formula_sum "Si O2"
_cell_formula_units_Z 28
_cell_length_a 29.058263
_cell_length_b 7.477564
_cell_length_c 9.995825
_cell_angle_alpha 90.000000
_cell_angle_beta 33.052185
_cell_angle_gamma 90.000000
_cell_volume 1184.583538
_symmetry_space_group_name_H-M "P 21/M"
_symmetry_group_IT_number 11
_symmetry_cell_setting 'monoclinic'
loop_
_space_group_symop_operation_xyz
x,y,z
-x,1/2+y,-z
-x,-y,-z
x,1/2-y,z
loop_
_atom_site_type_symbol
_atom_site_label
_atom_site_fract_x
_atom_site_fract_y
_atom_site_fract_z
Si Si1 0.634386 0.956560 0.403326
Si Si2 0.552529 0.533817 0.159217
Si Si3 0.161949 0.461723 0.756105
Si Si4 0.352111 0.030868 0.330982
Si Si5 0.890587 0.531654 0.396875
Si Si6 0.289894 0.468513 0.044001
Si Si7 0.024027 0.960848 0.288530
O O1 0.659502 0.750000 0.359143
O O2 0.632791 0.034388 0.555552
O O3 0.696329 0.033037 0.140836
O O4 0.539198 0.963766 0.579975
O O5 0.548330 0.750000 0.173362
O O6 0.629336 0.476167 0.066263
O O7 0.578920 0.474998 0.945448
O O8 0.168590 0.250000 0.720034
O O9 0.257913 0.527796 0.519165
O O10 0.107174 0.530340 0.763257
O O11 0.116284 0.488881 0.008926
O O12 0.353617 0.250000 0.325220
O O13 0.895590 0.750000 0.385090
O O14 0.959114 0.463115 0.335827
O O15 0.798228 0.480489 0.676362
O O16 0.290874 0.250000 0.040733
O O17 0.019000 0.750000 0.289765
O O18 0.000000 0.000000 0.500000
#
# Coordination Sequence:
#
# PCOD9157413 Si02
#       7
#     4   4   4   4   4   4   4
#     4  10  20  31  49  77 108 140 180 226 270 318
#     4  10  18  33  53  74 103 139 182 225 270 322
#     4  10  19  37  63  86 110 144 189 233 274 327
#     4   9  18  32  54  80 103 140 186 222 263 326
#     4   9  18  35  60  85 109 145 191 229 269 329
#     4   9  17  31  53  78 103 137 184 227 261 317
#     4  11  24  39  59  88 118 147 181 225 279 334
#
# _framework density 23.636997999999998
#
# number of rings (size 3 to 8) (size 9 to 14) (size 15 to 20)
#    0.000    2.286    1.429    1.714    2.000    0.000 
#    0.000    2.143    0.000    2.571    0.000    0.000 
#    0.000    0.000    0.000    0.000    0.000    0.000 
#
# Total GULP energy -156470.467019 kJ/mol
# GULP energy per Si atom -5588.230965 kJ/mol
# Density = 2.358320 g / cm^3
# Si number density = 23.636998 Si / 1000 Ang^3
#
#
#
# Elastic Constant Matrix: (Units=GPa)
#
#
# Indices 1 2 3 4 5 6 
#
# 1 47.0219 -3.8380 9.0726 0.0000 7.7420 0.0000
# 2 -3.8380 65.9741 -13.6898 0.0000 1.1076 0.0000
# 3 9.0726 -13.6898 112.2658 0.0000 22.4123 0.0000
# 4 0.0000 0.0000 0.0000 8.7476 0.0000 -3.9005
# 5 7.7420 1.1076 22.4123 0.0000 34.4498 0.0000
# 6 0.0000 0.0000 0.0000 -3.9005 0.0000 7.8357
#
#
#
# Elastic Compliance Matrix: (Units=1/GPa)
#
#
# Indices 1 2 3 4 5 6 
#
# 1 0.022260 0.001218 -0.000740 0.000000 -0.004560 0.000000
# 2 0.001218 0.015738 0.002271 0.000000 -0.002257 0.000000
# 3 -0.000740 0.002271 0.010603 0.000000 -0.006805 0.000000
# 4 0.000000 0.000000 0.000000 0.146930 0.000000 0.073139
# 5 -0.004560 -0.002257 -0.006805 0.000000 0.034552 0.000000
# 6 0.000000 0.000000 0.000000 0.073139 0.000000 0.164029
#
#
# Mechanical properties :
#
#
# Convention : Reuss Voigt Hill
#
# Bulk Modulus (GPa) = 18.48486 23.15015 20.81751
# Shear Modulus (GPa) = 12.29573 25.78773 19.04173
#
# Velocity S-wave (km/s) = 2.28324 3.30660 2.84137
# Velocity P-wave (km/s) = 3.84554 4.93897 4.42615
#
# Compressibility (1/GPa) = 0.05409832
#
# Stress axis : x y z
#
# Youngs Moduli (GPa) = 44.92424 63.54244 94.31621
#
# Poissons Ratio (x) = -0.07739 0.06979
# Poissons Ratio (y) = -0.05472 -0.21422
# Poissons Ratio (z) = 0.03324 -0.14432
#
# Static dielectric constant tensor:
#      x y z
#    x 1.913070 0.000000 0.012380 
#    y 0.000000 1.896090 0.000000 
#    z 0.012380 0.000000 1.799750 
# 
# From -- ./inp_files/21182.got.cif
#   From: 2010.05.17/outbox.cif.g08.bks.cpg/sg11_11_cif.got.tgz:21182.got - 2010.06.03 12:22:45.
