data_PCOD9157487
_publ_section_title
;
Structure prediction by ZEFSAII (Michael W. Deem and Ramdas Pophale) SiO2 
 PCOD9157487
Probable space group: P 21/M
;
_chemical_formula_sum "Si O2"
_cell_formula_units_Z 28
_cell_length_a 13.835866
_cell_length_b 18.538778
_cell_length_c 7.817331
_cell_angle_alpha 90.000000
_cell_angle_beta 39.878350
_cell_angle_gamma 90.000000
_cell_volume 1285.618669
_symmetry_space_group_name_H-M "P 21/M"
_symmetry_group_IT_number 11
_symmetry_cell_setting 'monoclinic'
loop_
_space_group_symop_operation_xyz
x,y,z
-x,1/2+y,-z
-x,-y,-z
x,1/2-y,z
loop_
_atom_site_type_symbol
_atom_site_label
_atom_site_fract_x
_atom_site_fract_y
_atom_site_fract_z
Si Si1 0.677082 0.102324 0.594475
Si Si2 0.370711 0.334254 0.114649
Si Si3 0.444632 0.580780 0.609086
Si Si4 0.279684 0.332711 0.833903
Si Si5 0.140210 0.559295 0.207699
Si Si6 0.037886 0.666333 0.637723
Si Si7 0.165856 0.459223 0.489565
O O1 0.624677 0.110007 0.472677
O O2 0.813523 0.155125 0.452979
O O3 0.741285 0.021583 0.539496
O O4 0.531427 0.124508 0.904384
O O5 0.380220 0.250000 0.152169
O O6 0.248740 0.382822 0.379237
O O7 0.323207 0.335171 0.977358
O O8 0.500000 0.500000 0.500000
O O9 0.595042 0.625170 0.441955
O O10 0.305735 0.581515 0.925548
O O11 0.280356 0.250000 0.777559
O O12 0.109368 0.361440 0.062089
O O13 0.069912 0.621051 0.423850
O O14 0.164850 0.489729 0.294838
O O15 0.014288 0.545233 0.233038
O O16 0.010970 0.750000 0.633798
#
# Coordination Sequence:
#
# PCOD9157487 Si02
#       7
#     4   4   4   4   4   4   4
#     4  10  22  36  59  87 123 159 200 248 301 362
#     4  10  18  33  57  85 112 151 202 246 296 356
#     4  11  24  39  59  90 125 163 201 247 303 363
#     4   9  19  37  60  83 117 160 196 238 305 374
#     4  10  21  36  61  91 119 154 204 253 298 357
#     4  10  20  39  66  91 118 157 206 252 300 361
#     4  10  20  36  60  87 119 155 201 254 302 354
#
# _framework density 21.779399000000002
#
# number of rings (size 3 to 8) (size 9 to 14) (size 15 to 20)
#    0.000    2.000    1.429    2.571    4.000    2.857 
#    0.000    0.000    0.000    0.857    0.000    0.000 
#    0.000    0.000    0.000    0.000    0.000    0.000 
#
# Total GULP energy -156378.418726 kJ/mol
# GULP energy per Si atom -5584.943526 kJ/mol
# Density = 2.172983 g / cm^3
# Si number density = 21.779399 Si / 1000 Ang^3
#
#
#
# Elastic Constant Matrix: (Units=GPa)
#
#
# Indices 1 2 3 4 5 6 
#
# 1 49.3999 -4.4999 8.9316 0.0000 -23.4450 0.0000
# 2 -4.4999 93.5526 38.5338 0.0000 -7.1639 0.0000
# 3 8.9316 38.5338 143.9601 0.0000 -37.0231 0.0000
# 4 0.0000 0.0000 0.0000 33.2082 0.0000 -8.1042
# 5 -23.4450 -7.1639 -37.0231 0.0000 29.7428 0.0000
# 6 0.0000 0.0000 0.0000 -8.1042 0.0000 22.3817
#
#
#
# Elastic Compliance Matrix: (Units=1/GPa)
#
#
# Indices 1 2 3 4 5 6 
#
# 1 0.037688 0.001828 0.007245 0.000000 0.039167 0.000000
# 2 0.001828 0.012156 -0.003300 0.000000 0.000261 0.000000
# 3 0.007245 -0.003300 0.012715 0.000000 0.020744 0.000000
# 4 0.000000 0.000000 0.000000 0.033032 0.000000 0.011961
# 5 0.039167 0.000261 0.020744 0.000000 0.090379 0.000000
# 6 0.000000 0.000000 0.000000 0.011961 0.000000 0.049010
#
#
# Mechanical properties :
#
#
# Convention : Reuss Voigt Hill
#
# Bulk Modulus (GPa) = 13.49438 41.42707 27.46072
# Shear Modulus (GPa) = 20.15019 33.32968 26.73993
#
# Velocity S-wave (km/s) = 3.04500 3.91619 3.50775
# Velocity P-wave (km/s) = 4.30954 6.28579 5.38903
#
# Compressibility (1/GPa) = 0.07410492
#
# Stress axis : x y z
#
# Youngs Moduli (GPa) = 26.53369 82.26112 78.64732
#
# Poissons Ratio (x) = -0.15035 -0.56983
# Poissons Ratio (y) = -0.04850 0.25956
# Poissons Ratio (z) = -0.19225 0.27148
#
# Static dielectric constant tensor:
#      x y z
#    x 1.783420 0.000000 -0.008240 
#    y 0.000000 1.789260 0.000000 
#    z -0.008240 0.000000 1.821020 
# 
# From -- ./inp_files/23028.got.cif
#   From: 2010.05.17/outbox.cif.g08.bks.cpg/sg11_12_cif.got.tgz:23028.got - 2010.06.03 12:22:45.
