data_PCOD9157300
_publ_section_title
;
Structure prediction by ZEFSAII (Michael W. Deem and Ramdas Pophale) SiO2 
 PCOD9157300
Probable space group: P 21/M
;
_chemical_formula_sum "Si O2"
_cell_formula_units_Z 32
_cell_length_a 11.373065
_cell_length_b 13.707048
_cell_length_c 12.977451
_cell_angle_alpha 90.000000
_cell_angle_beta 121.457259
_cell_angle_gamma 90.000000
_cell_volume 1725.738559
_symmetry_space_group_name_H-M "P 21/M"
_symmetry_group_IT_number 11
_symmetry_cell_setting 'monoclinic'
loop_
_space_group_symop_operation_xyz
x,y,z
-x,1/2+y,-z
-x,-y,-z
x,1/2-y,z
loop_
_atom_site_type_symbol
_atom_site_label
_atom_site_fract_x
_atom_site_fract_y
_atom_site_fract_z
Si Si1 0.564237 0.024769 0.294301
Si Si2 0.870877 0.507305 0.209023
Si Si3 0.604309 0.364261 0.876990
Si Si4 0.386975 0.634980 0.885149
Si Si5 0.143950 0.444476 0.578668
Si Si6 0.116052 0.358348 0.355196
Si Si7 0.666740 0.863369 0.719614
Si Si8 0.844569 0.519301 0.966596
O O1 0.504583 0.917411 0.245965
O O2 0.726419 0.015151 0.384947
O O3 0.535855 0.085505 0.175366
O O4 0.475391 0.077609 0.340047
O O5 0.756201 0.423422 0.173200
O O6 0.851890 0.578932 0.297771
O O7 0.013029 0.446204 0.278908
O O8 0.851647 0.554067 0.088481
O O9 0.620990 0.250000 0.865727
O O10 0.748508 0.422070 0.927863
O O11 0.553052 0.376666 0.972274
O O12 0.368450 0.750000 0.857774
O O13 0.144681 0.364653 0.490000
O O14 0.000000 0.500000 0.500000
O O15 0.059574 0.250000 0.303592
O O16 0.253785 0.371636 0.351829
O O17 0.641720 0.750000 0.729618
O O18 0.767258 0.908737 0.852883
O O19 0.000000 0.500000 0.000000
#
# Coordination Sequence:
#
# PCOD9157300 Si02
#       8
#     4   4   4   4   4   4   4   4
#     4  10  19  33  51  73 108 141 174 223 275 323
#     4   9  17  32  53  78 106 137 177 219 273 318
#     4   9  19  31  48  75 106 142 180 213 260 324
#     4   9  16  28  49  76 104 136 174 216 262 317
#     4   9  20  36  54  76  97 134 180 228 270 312
#     4  10  19  33  53  76 103 137 186 229 263 315
#     4  10  21  34  52  82 111 143 179 217 268 327
#     4  10  18  32  54  81 111 143 174 217 269 324
#
# _framework density 18.542786
#
# number of rings (size 3 to 8) (size 9 to 14) (size 15 to 20)
#    0.000    2.500    1.250    1.125    0.000    3.000 
#    0.000    1.250    0.000    0.000    0.000    3.500 
#    0.000    0.000    0.000    0.000    0.000    0.000 
#
# Total GULP energy -178269.539529 kJ/mol
# GULP energy per Si atom -5570.923110 kJ/mol
# Density = 1.850058 g / cm^3
# Si number density = 18.542786 Si / 1000 Ang^3
#
#
#
# Elastic Constant Matrix: (Units=GPa)
#
#
# Indices 1 2 3 4 5 6 
#
# 1 90.4884 11.2507 26.6329 0.0000 -0.6534 0.0000
# 2 11.2507 53.4653 19.4024 0.0000 -6.2440 0.0000
# 3 26.6329 19.4024 58.9508 0.0000 -9.0695 0.0000
# 4 0.0000 0.0000 0.0000 16.4009 0.0000 -6.7118
# 5 -0.6534 -6.2440 -9.0695 0.0000 29.3570 0.0000
# 6 0.0000 0.0000 0.0000 -6.7118 0.0000 17.9474
#
#
#
# Elastic Compliance Matrix: (Units=1/GPa)
#
#
# Indices 1 2 3 4 5 6 
#
# 1 0.012845 -0.000794 -0.005799 0.000000 -0.001675 0.000000
# 2 -0.000794 0.021463 -0.006305 0.000000 0.002599 0.000000
# 3 -0.005799 -0.006305 0.022502 0.000000 0.005482 0.000000
# 4 0.000000 0.000000 0.000000 0.071990 0.000000 0.026922
# 5 -0.001675 0.002599 0.005482 0.000000 0.036272 0.000000
# 6 0.000000 0.000000 0.000000 0.026922 0.000000 0.065786
#
#
# Mechanical properties :
#
#
# Convention : Reuss Voigt Hill
#
# Bulk Modulus (GPa) = 32.24569 35.27518 33.76043
# Shear Modulus (GPa) = 18.72714 22.44897 20.58806
#
# Velocity S-wave (km/s) = 3.18141 3.48323 3.33573
# Velocity P-wave (km/s) = 5.56082 5.93651 5.75173
#
# Compressibility (1/GPa) = 0.03101190
#
# Stress axis : x y z
#
# Youngs Moduli (GPa) = 77.85353 46.59282 44.44065
#
# Poissons Ratio (x) = 0.03699 0.25772
# Poissons Ratio (y) = 0.06181 0.28022
# Poissons Ratio (z) = 0.45150 0.29379
#
# Static dielectric constant tensor:
#      x y z
#    x 1.649240 0.000000 -0.006260 
#    y 0.000000 1.606070 0.000000 
#    z -0.006260 0.000000 1.683950 
# 
# From -- ./inp_files/35530.got.cif
#   From: 2010.05.17/outbox.cif.g08.bks.cpg/sg11_18_cif.got.tgz:35530.got - 2010.06.03 12:22:45.
