data_PCOD9157670
_publ_section_title
;
Structure prediction by ZEFSAII (Michael W. Deem and Ramdas Pophale) SiO2 
 PCOD9157670
Probable space group: P 21/M
;
_chemical_formula_sum "Si O2"
_cell_formula_units_Z 28
_cell_length_a 7.660167
_cell_length_b 18.617384
_cell_length_c 11.014855
_cell_angle_alpha 90.000000
_cell_angle_beta 127.188031
_cell_angle_gamma 90.000000
_cell_volume 1251.430166
_symmetry_space_group_name_H-M "P 21/M"
_symmetry_group_IT_number 11
_symmetry_cell_setting 'monoclinic'
loop_
_space_group_symop_operation_xyz
x,y,z
-x,1/2+y,-z
-x,-y,-z
x,1/2-y,z
loop_
_atom_site_type_symbol
_atom_site_label
_atom_site_fract_x
_atom_site_fract_y
_atom_site_fract_z
Si Si1 0.750010 0.569251 0.626732
Si Si2 0.643033 0.528639 0.308300
Si Si3 0.834738 0.333226 0.155341
Si Si4 0.662736 0.332289 0.551312
Si Si5 0.988269 0.560516 0.263800
Si Si6 0.614048 0.170806 0.821090
Si Si7 0.433796 0.068975 0.055616
O O1 0.687922 0.538395 0.467758
O O2 0.544166 0.619447 0.574425
O O3 0.842083 0.495725 0.725590
O O4 0.957065 0.622627 0.712954
O O5 0.547888 0.605273 0.224974
O O6 0.475022 0.465280 0.204555
O O7 0.856373 0.518603 0.314248
O O8 0.851242 0.250000 0.196198
O O9 0.609026 0.368321 0.108498
O O10 0.812658 0.338250 0.999035
O O11 0.651746 0.250000 0.503523
O O12 0.883896 0.375291 0.616605
O O13 0.667121 0.330588 0.701108
O O14 0.811601 0.586052 0.089721
O O15 0.518550 0.250000 0.807996
O O16 0.500000 0.000000 0.000000
#
# Coordination Sequence:
#
# PCOD9157670 Si02
#       7
#     4   4   4   4   4   4   4
#     4  11  21  37  59  84 114 155 193 228 278 348
#     4  10  19  35  61  84 113 145 184 239 281 337
#     4  11  20  34  60  84 110 147 191 236 281 334
#     4  10  23  39  54  80 117 152 190 233 284 343
#     4  11  20  35  60  85 113 146 187 241 287 332
#     4   9  18  35  56  80 107 147 194 229 276 338
#     4  10  18  35  57  86 114 137 185 239 286 324
#
# _framework density 22.374399
#
# number of rings (size 3 to 8) (size 9 to 14) (size 15 to 20)
#    0.000    1.714    5.714    1.286    0.000    1.714 
#    0.000    7.857    0.000    0.000    0.000    0.000 
#    0.000    0.000    0.000    0.000    0.000    0.000 
#
# Total GULP energy -156280.152057 kJ/mol
# GULP energy per Si atom -5581.434002 kJ/mol
# Density = 2.232347 g / cm^3
# Si number density = 22.374399 Si / 1000 Ang^3
#
#
#
# Elastic Constant Matrix: (Units=GPa)
#
#
# Indices 1 2 3 4 5 6 
#
# 1 31.5244 9.9644 18.7562 0.0000 8.6544 0.0000
# 2 9.9644 111.9130 50.4002 0.0000 13.1108 0.0000
# 3 18.7562 50.4002 130.6477 0.0000 29.6181 0.0000
# 4 0.0000 0.0000 0.0000 39.2225 0.0000 4.7527
# 5 8.6544 13.1108 29.6181 0.0000 32.5061 0.0000
# 6 0.0000 0.0000 0.0000 4.7527 0.0000 26.5652
#
#
#
# Elastic Compliance Matrix: (Units=1/GPa)
#
#
# Indices 1 2 3 4 5 6 
#
# 1 0.035694 -0.000943 -0.003393 0.000000 -0.006031 0.000000
# 2 -0.000943 0.010852 -0.003927 0.000000 -0.000548 0.000000
# 3 -0.003393 -0.003927 0.011459 0.000000 -0.007954 0.000000
# 4 0.000000 0.000000 0.000000 0.026061 0.000000 -0.004662
# 5 -0.006031 -0.000548 -0.007954 0.000000 0.039838 0.000000
# 6 0.000000 0.000000 0.000000 -0.004662 0.000000 0.038477
#
#
# Mechanical properties :
#
#
# Convention : Reuss Voigt Hill
#
# Bulk Modulus (GPa) = 24.10863 48.03629 36.07246
# Shear Modulus (GPa) = 25.94246 32.65637 29.29942
#
# Velocity S-wave (km/s) = 3.40879 3.82454 3.62264
# Velocity P-wave (km/s) = 5.12754 6.40459 5.80131
#
# Compressibility (1/GPa) = 0.04147892
#
# Stress axis : x y z
#
# Youngs Moduli (GPa) = 28.01571 92.14776 87.26503
#
# Poissons Ratio (x) = 0.08693 0.29611
# Poissons Ratio (y) = 0.02643 0.34267
# Poissons Ratio (z) = 0.09506 0.36184
#
# Static dielectric constant tensor:
#      x y z
#    x 1.893980 0.000000 -0.028680 
#    y 0.000000 1.822390 0.000000 
#    z -0.028680 0.000000 1.888190 
# 
# From -- ./inp_files/48025.got.cif
#   From: 2010.05.17/outbox.cif.g08.bks.cpg/sg11_25_cif.got.tgz:48025.got - 2010.06.03 12:22:45.
