data_PCOD9157066
_publ_section_title
;
Structure prediction by ZEFSAII (Michael W. Deem and Ramdas Pophale) SiO2 
 PCOD9157066
Probable space group: P 21/M
;
_chemical_formula_sum "Si O2"
_cell_formula_units_Z 32
_cell_length_a 17.178490
_cell_length_b 14.441858
_cell_length_c 10.812068
_cell_angle_alpha 90.000000
_cell_angle_beta 144.965416
_cell_angle_gamma 90.000000
_cell_volume 1539.863639
_symmetry_space_group_name_H-M "P 21/M"
_symmetry_group_IT_number 11
_symmetry_cell_setting 'monoclinic'
loop_
_space_group_symop_operation_xyz
x,y,z
-x,1/2+y,-z
-x,-y,-z
x,1/2-y,z
loop_
_atom_site_type_symbol
_atom_site_label
_atom_site_fract_x
_atom_site_fract_y
_atom_site_fract_z
Si Si1 0.385815 0.364169 0.050963
Si Si2 0.467571 0.863265 0.006052
Si Si3 0.181735 0.862970 0.523125
Si Si4 0.437738 0.142829 0.607518
Si Si5 0.141315 0.114515 0.132364
Si Si6 0.888769 0.643520 0.195309
Si Si7 0.153866 0.599906 0.200474
Si Si8 0.444350 0.642718 0.491773
O O1 0.385473 0.250000 0.049787
O O2 0.439518 0.393933 0.987629
O O3 0.235279 0.397606 0.889598
O O4 0.485681 0.393608 0.292259
O O5 0.474537 0.750000 0.015646
O O6 0.313174 0.887295 0.772399
O O7 0.516863 0.898214 0.202906
O O8 0.176409 0.750000 0.505729
O O9 0.190281 0.898833 0.393740
O O10 0.039757 0.897110 0.395524
O O11 0.483637 0.250000 0.671237
O O12 0.275771 0.142456 0.379803
O O13 0.502391 0.100262 0.567239
O O14 0.150584 0.144362 0.001518
O O15 0.139325 0.003659 0.132209
O O16 0.996048 0.144640 0.998854
O O17 0.901422 0.750000 0.252919
O O18 0.282634 0.640567 0.297071
O O19 0.488387 0.750000 0.544581
#
# Coordination Sequence:
#
# PCOD9157066 Si02
#       8
#     4   4   4   4   4   4   4   4
#     4   9  15  27  48  74  97 120 161 206 239 281
#     4   9  17  30  49  73 100 128 159 199 246 293
#     4   9  16  29  50  71  92 125 166 204 243 287
#     4  10  20  34  51  74 106 134 158 198 253 303
#     4  10  20  33  48  73 104 133 162 205 255 292
#     4   9  16  28  49  73  94 121 164 208 243 287
#     4  10  20  32  50  74 101 129 169 211 243 289
#     4  10  18  31  52  77 100 125 164 209 246 287
#
# _framework density 20.781061000000001
#
# number of rings (size 3 to 8) (size 9 to 14) (size 15 to 20)
#    0.000    2.500    2.500    0.750    0.000    2.000 
#    0.000    1.875    0.000    4.500    0.000    5.250 
#    0.000    0.000    0.000    0.000    0.000    0.000 
#
# Total GULP energy -178524.701273 kJ/mol
# GULP energy per Si atom -5578.896915 kJ/mol
# Density = 2.073376 g / cm^3
# Si number density = 20.781061 Si / 1000 Ang^3
#
#
#
# Elastic Constant Matrix: (Units=GPa)
#
#
# Indices 1 2 3 4 5 6 
#
# 1 167.1470 8.0259 107.7062 0.0000 8.3219 0.0000
# 2 8.0259 41.5367 -7.1387 0.0000 -3.9265 0.0000
# 3 107.7062 -7.1387 139.3419 0.0000 12.8596 0.0000
# 4 0.0000 0.0000 0.0000 76.8889 0.0000 -35.9401
# 5 8.3219 -3.9265 12.8596 0.0000 30.6503 0.0000
# 6 0.0000 0.0000 0.0000 -35.9401 0.0000 54.6127
#
#
#
# Elastic Compliance Matrix: (Units=1/GPa)
#
#
# Indices 1 2 3 4 5 6 
#
# 1 0.012590 -0.004123 -0.009964 0.000000 0.000234 0.000000
# 2 -0.004123 0.025855 0.004268 0.000000 0.002641 0.000000
# 3 -0.009964 0.004268 0.015393 0.000000 -0.003206 0.000000
# 4 0.000000 0.000000 0.000000 0.018784 0.000000 0.012361
# 5 0.000234 0.002641 -0.003206 0.000000 0.034246 0.000000
# 6 0.000000 0.000000 0.000000 0.012361 0.000000 0.026446
#
#
# Mechanical properties :
#
#
# Convention : Reuss Voigt Hill
#
# Bulk Modulus (GPa) = 29.24075 62.80137 46.02106
# Shear Modulus (GPa) = 30.42236 48.39252 39.40744
#
# Velocity S-wave (km/s) = 3.83031 4.83088 4.35939
# Velocity P-wave (km/s) = 5.80199 7.83598 6.89441
#
# Compressibility (1/GPa) = 0.03419885
#
# Stress axis : x y z
#
# Youngs Moduli (GPa) = 79.42839 38.67733 64.96346
#
# Poissons Ratio (x) = 0.15947 0.64732
# Poissons Ratio (y) = 0.32749 -0.27725
# Poissons Ratio (z) = 0.79146 -0.16507
#
# Static dielectric constant tensor:
#      x y z
#    x 1.741890 0.000000 0.025200 
#    y 0.000000 1.781390 0.000000 
#    z 0.025200 0.000000 1.735840 
# 
# From -- ./inp_files/32685.got.cif
#   From: 2010.05.17/outbox.cif.g08.bks.cpg/sg11_17_cif.got.tgz:32685.got - 2010.06.03 12:22:45.
