data_PCOD9157199
_publ_section_title
;
Structure prediction by ZEFSAII (Michael W. Deem and Ramdas Pophale) SiO2 
 PCOD9157199
Probable space group: P 21/M
;
_chemical_formula_sum "Si O2"
_cell_formula_units_Z 32
_cell_length_a 21.531389
_cell_length_b 8.609615
_cell_length_c 16.105576
_cell_angle_alpha 90.000000
_cell_angle_beta 42.757376
_cell_angle_gamma 90.000000
_cell_volume 2026.911679
_symmetry_space_group_name_H-M "P 21/M"
_symmetry_group_IT_number 11
_symmetry_cell_setting 'monoclinic'
loop_
_space_group_symop_operation_xyz
x,y,z
-x,1/2+y,-z
-x,-y,-z
x,1/2-y,z
loop_
_atom_site_type_symbol
_atom_site_label
_atom_site_fract_x
_atom_site_fract_y
_atom_site_fract_z
Si Si1 0.607677 0.065008 0.989010
Si Si2 0.400967 0.062912 0.188042
Si Si3 0.896965 0.436322 0.920372
Si Si4 0.793780 0.934195 0.861855
Si Si5 0.102717 0.564708 0.401203
Si Si6 0.889303 0.561327 0.284552
Si Si7 0.896465 0.936732 0.095495
Si Si8 0.213101 0.437885 0.450643
O O1 0.618950 0.250000 0.985137
O O2 0.616300 0.016375 0.883906
O O3 0.687637 0.981869 0.960613
O O4 0.503610 0.022811 0.115704
O O5 0.398808 0.250000 0.177291
O O6 0.318821 0.021000 0.330206
O O7 0.894928 0.250000 0.919956
O O8 0.841196 0.504011 0.898461
O O9 0.004227 0.485943 0.809006
O O10 0.859501 0.493826 0.046161
O O11 0.803000 0.750000 0.847645
O O12 0.843570 0.008389 0.733133
O O13 0.100719 0.750000 0.404333
O O14 0.154141 0.502692 0.432269
O O15 0.000000 0.500000 0.500000
O O16 0.889561 0.750000 0.285815
O O17 0.855456 0.517119 0.225428
O O18 0.828333 0.507295 0.421279
O O19 0.897263 0.750000 0.089155
O O20 0.000000 0.000000 0.000000
O O21 0.206551 0.250000 0.454898
#
# Coordination Sequence:
#
# PCOD9157199 Si02
#       8
#     4   4   4   4   4   4   4   4
#     4  10  19  32  49  70  96 126 161 205 250 293
#     4   9  18  31  50  72  95 125 163 204 248 293
#     4  10  19  32  49  71  98 130 164 202 247 295
#     4  12  23  35  50  71  96 129 167 205 247 297
#     4  12  24  36  48  67  97 135 169 202 238 284
#     4   8  16  29  48  71  97 127 159 195 238 285
#     4   9  16  29  47  69  96 128 164 203 244 286
#     4  10  18  32  51  72  97 128 165 203 241 288
#
# _framework density 15.787566
#
# number of rings (size 3 to 8) (size 9 to 14) (size 15 to 20)
#    0.000    2.000    1.250    4.875    0.000    1.500 
#    0.000    3.125    0.000    0.000    0.000    0.875 
#    0.000    0.000    0.000    0.000    0.000    0.000 
#
# Total GULP energy -178488.740686 kJ/mol
# GULP energy per Si atom -5577.773146 kJ/mol
# Density = 1.575163 g / cm^3
# Si number density = 15.787566 Si / 1000 Ang^3
#
#
#
# Elastic Constant Matrix: (Units=GPa)
#
#
# Indices 1 2 3 4 5 6 
#
# 1 72.2469 20.8470 83.6484 0.0000 10.6987 0.0000
# 2 20.8470 45.7228 34.5168 0.0000 -0.4388 0.0000
# 3 83.6484 34.5168 125.9326 0.0000 10.3932 0.0000
# 4 0.0000 0.0000 0.0000 17.8427 0.0000 0.9363
# 5 10.6987 -0.4388 10.3932 0.0000 27.5693 0.0000
# 6 0.0000 0.0000 0.0000 0.9363 0.0000 24.7214
#
#
#
# Elastic Compliance Matrix: (Units=1/GPa)
#
#
# Indices 1 2 3 4 5 6 
#
# 1 0.062216 0.002799 -0.041392 0.000000 -0.008495 0.000000
# 2 0.002799 0.028014 -0.009789 0.000000 0.003050 0.000000
# 3 -0.041392 -0.009789 0.037987 0.000000 0.001587 0.000000
# 4 0.000000 0.000000 0.000000 0.056157 0.000000 -0.002127
# 5 -0.008495 0.003050 0.001587 0.000000 0.039019 0.000000
# 6 0.000000 0.000000 0.000000 -0.002127 0.000000 0.040531
#
#
# Mechanical properties :
#
#
# Convention : Reuss Voigt Hill
#
# Bulk Modulus (GPa) = 31.79409 57.99185 44.89297
# Shear Modulus (GPa) = 13.47084 21.01936 17.24510
#
# Velocity S-wave (km/s) = 2.92422 3.65278 3.30861
# Velocity P-wave (km/s) = 5.61995 7.38937 6.56455
#
# Compressibility (1/GPa) = 0.03145239
#
# Stress axis : x y z
#
# Youngs Moduli (GPa) = 16.07312 35.69631 26.32507
#
# Poissons Ratio (x) = -0.09991 1.08964
# Poissons Ratio (y) = -0.04499 0.25770
# Poissons Ratio (z) = 0.66529 0.34944
#
# Static dielectric constant tensor:
#      x y z
#    x 1.507430 0.000000 0.004170 
#    y 0.000000 1.532490 0.000000 
#    z 0.004170 0.000000 1.539490 
# 
# From -- ./inp_files/54262.got.cif
#   From: 2010.05.17/outbox.cif.g08.bks.cpg/sg11_28_cif.got.tgz:54262.got - 2010.06.03 12:22:45.
