data_PCOD9157028
_publ_section_title
;
Structure prediction by ZEFSAII (Michael W. Deem and Ramdas Pophale) SiO2 
 PCOD9157028
Probable space group: P 21/M
;
_chemical_formula_sum "Si O2"
_cell_formula_units_Z 32
_cell_length_a 13.004435
_cell_length_b 13.889926
_cell_length_c 11.104154
_cell_angle_alpha 90.000000
_cell_angle_beta 46.102846
_cell_angle_gamma 90.000000
_cell_volume 1445.314792
_symmetry_space_group_name_H-M "P 21/M"
_symmetry_group_IT_number 11
_symmetry_cell_setting 'monoclinic'
loop_
_space_group_symop_operation_xyz
x,y,z
-x,1/2+y,-z
-x,-y,-z
x,1/2-y,z
loop_
_atom_site_type_symbol
_atom_site_label
_atom_site_fract_x
_atom_site_fract_y
_atom_site_fract_z
Si Si1 0.733825 0.363828 0.513387
Si Si2 0.254446 0.858245 0.777193
Si Si3 0.590184 0.862746 0.834964
Si Si4 0.817862 0.558434 0.492582
Si Si5 0.553932 0.561117 0.130500
Si Si6 0.002469 0.634010 0.137016
Si Si7 0.562850 0.595477 0.510052
Si Si8 0.236993 0.356792 0.859607
O O1 0.761312 0.250000 0.506511
O O2 0.754116 0.390927 0.355156
O O3 0.826892 0.443875 0.507191
O O4 0.574846 0.388430 0.689922
O O5 0.200980 0.750000 0.810878
O O6 0.420159 0.857766 0.676290
O O7 0.154265 0.898943 0.962161
O O8 0.557668 0.750000 0.832679
O O9 0.753320 0.886458 0.659910
O O10 0.492456 0.950484 0.859135
O O11 0.572416 0.882072 0.991044
O O12 0.952498 0.592090 0.305446
O O13 0.685131 0.579020 0.507937
O O14 0.696000 0.576711 0.092847
O O15 0.992608 0.750000 0.159584
O O16 0.894473 0.607902 0.115012
O O17 0.500000 0.500000 0.500000
O O18 0.637882 0.650781 0.341438
O O19 0.203607 0.250000 0.934398
#
# Coordination Sequence:
#
# PCOD9157028 Si02
#       8
#     4   4   4   4   4   4   4   4
#     4  10  18  31  51  76 106 133 174 225 267 310
#     4  10  19  32  50  77 106 141 179 216 269 320
#     4  10  20  33  51  79 110 138 175 222 268 317
#     4  10  20  33  51  77 108 145 178 214 263 319
#     4  10  19  32  54  81 105 135 177 223 274 315
#     4   9  20  34  51  77 110 142 176 218 265 322
#     4  11  18  30  48  76 105 137 175 216 265 316
#     4  10  18  32  52  75 104 134 172 223 268 307
#
# _framework density 22.140505000000001
#
# number of rings (size 3 to 8) (size 9 to 14) (size 15 to 20)
#    0.000    2.000    2.500    2.625    0.000    2.000 
#    0.000    0.000    0.000    0.000    3.250    2.625 
#    0.000    0.000    0.000    0.000    0.000    0.000 
#
# Total GULP energy -178351.791928 kJ/mol
# GULP energy per Si atom -5573.493498 kJ/mol
# Density = 2.209011 g / cm^3
# Si number density = 22.140505 Si / 1000 Ang^3
#
#
#
# Elastic Constant Matrix: (Units=GPa)
#
#
# Indices 1 2 3 4 5 6 
#
# 1 14.4642 3.4275 13.0227 0.0000 1.2637 0.0000
# 2 3.4275 135.4533 21.0929 0.0000 1.6290 0.0000
# 3 13.0227 21.0929 131.6183 0.0000 4.1992 0.0000
# 4 0.0000 0.0000 0.0000 27.3078 0.0000 6.4121
# 5 1.2637 1.6290 4.1992 0.0000 24.3810 0.0000
# 6 0.0000 0.0000 0.0000 6.4121 0.0000 15.3590
#
#
#
# Elastic Compliance Matrix: (Units=1/GPa)
#
#
# Indices 1 2 3 4 5 6 
#
# 1 0.076143 -0.000754 -0.007329 0.000000 -0.002634 0.000000
# 2 -0.000754 0.007581 -0.001132 0.000000 -0.000273 0.000000
# 3 -0.007329 -0.001132 0.008537 0.000000 -0.001015 0.000000
# 4 0.000000 0.000000 0.000000 0.040599 0.000000 -0.016949
# 5 -0.002634 -0.000273 -0.001015 0.000000 0.041345 0.000000
# 6 0.000000 0.000000 0.000000 -0.016949 0.000000 0.072184
#
#
# Mechanical properties :
#
#
# Convention : Reuss Voigt Hill
#
# Bulk Modulus (GPa) = 13.54421 39.62467 26.58444
# Shear Modulus (GPa) = 17.27536 29.67575 23.47556
#
# Velocity S-wave (km/s) = 2.79634 3.66503 3.25976
# Velocity P-wave (km/s) = 4.06900 5.98713 5.11871
#
# Compressibility (1/GPa) = 0.07383230
#
# Stress axis : x y z
#
# Youngs Moduli (GPa) = 13.13311 131.90534 117.14247
#
# Poissons Ratio (x) = 0.09943 0.85854
# Poissons Ratio (y) = 0.00990 0.13257
# Poissons Ratio (z) = 0.09625 0.14927
#
# Static dielectric constant tensor:
#      x y z
#    x 1.825350 0.000000 -0.005910 
#    y 0.000000 1.883900 0.000000 
#    z -0.005910 0.000000 1.889330 
# 
# From -- ./inp_files/39630.got.cif
#   From: 2010.05.17/outbox.cif.g08.bks.cpg/sg11_20_cif.got.tgz:39630.got - 2010.06.03 12:22:45.
