data_PCOD9157836
_publ_section_title
;
Structure prediction by ZEFSAII (Michael W. Deem and Ramdas Pophale) SiO2 
 PCOD9157836
Probable space group: P 21/M
;
_chemical_formula_sum "Si O2"
_cell_formula_units_Z 24
_cell_length_a 14.623736
_cell_length_b 20.329894
_cell_length_c 12.448878
_cell_angle_alpha 90.000000
_cell_angle_beta 21.035028
_cell_angle_gamma 90.000000
_cell_volume 1328.445876
_symmetry_space_group_name_H-M "P 21/M"
_symmetry_group_IT_number 11
_symmetry_cell_setting 'monoclinic'
loop_
_space_group_symop_operation_xyz
x,y,z
-x,1/2+y,-z
-x,-y,-z
x,1/2-y,z
loop_
_atom_site_type_symbol
_atom_site_label
_atom_site_fract_x
_atom_site_fract_y
_atom_site_fract_z
Si Si1 0.197858 0.441138 0.805619
Si Si2 0.098056 0.173978 0.065710
Si Si3 0.075089 0.945890 0.325665
Si Si4 0.545577 0.495407 0.268397
Si Si5 0.535264 0.579459 0.944459
Si Si6 0.554400 0.374898 0.722864
O O1 0.373987 0.437864 0.506485
O O2 0.353459 0.467247 0.737654
O O3 0.095595 0.372182 0.962158
O O4 0.000000 0.500000 0.000000
O O5 0.137104 0.250000 0.996424
O O6 0.818483 0.163889 0.424285
O O7 0.325723 0.152182 0.898128
O O8 0.807804 0.913225 0.589500
O O9 0.221216 0.976494 0.064111
O O10 0.288277 0.900709 0.147635
O O11 0.000000 0.000000 0.500000
O O12 0.385018 0.549947 0.380418
O O13 0.500000 0.500000 0.000000
O O14 0.538973 0.616552 0.053258
#
# Coordination Sequence:
#
# PCOD9157836 Si02
#       6
#     4   4   4   4   4   4
#     4  10  21  34  55  78 115 153 188 246 295 340
#     4  11  24  39  57  81 112 154 199 241 292 351
#     4  10  19  28  48  78 121 144 176 218 281 336
#     4  10  20  32  50  84 116 151 183 235 296 344
#     4  10  19  29  49  84 114 147 170 221 277 336
#     4  11  20  35  58  80 120 146 189 231 292 347
#
# _framework density 18.066224999999999
#
# number of rings (size 3 to 8) (size 9 to 14) (size 15 to 20)
#    0.000    1.667    5.000    1.500    9.333    0.000 
#    0.000    0.000    0.000    0.000    0.000    7.000 
#    0.000    0.000    0.000    0.000    0.000    0.000 
#
# Total GULP energy -133621.609511 kJ/mol
# GULP energy per Si atom -5567.567063 kJ/mol
# Density = 1.802511 g / cm^3
# Si number density = 18.066225 Si / 1000 Ang^3
#
#
#
# Elastic Constant Matrix: (Units=GPa)
#
#
# Indices 1 2 3 4 5 6 
#
# 1 48.9928 18.9378 36.4928 0.0000 -3.3049 0.0000
# 2 18.9378 77.0538 37.6923 0.0000 7.5247 0.0000
# 3 36.4928 37.6923 135.1828 0.0000 4.1947 0.0000
# 4 0.0000 0.0000 0.0000 15.0542 0.0000 0.0079
# 5 -3.3049 7.5247 4.1947 0.0000 44.7666 0.0000
# 6 0.0000 0.0000 0.0000 0.0079 0.0000 16.7579
#
#
#
# Elastic Compliance Matrix: (Units=1/GPa)
#
#
# Indices 1 2 3 4 5 6 
#
# 1 0.026770 -0.003831 -0.006258 0.000000 0.003207 0.000000
# 2 -0.003831 0.015783 -0.003285 0.000000 -0.002628 0.000000
# 3 -0.006258 -0.003285 0.010029 0.000000 -0.000850 0.000000
# 4 0.000000 0.000000 0.000000 0.066427 0.000000 -0.000031
# 5 0.003207 -0.002628 -0.000850 0.000000 0.023096 0.000000
# 6 0.000000 0.000000 0.000000 -0.000031 0.000000 0.059673
#
#
# Mechanical properties :
#
#
# Convention : Reuss Voigt Hill
#
# Bulk Modulus (GPa) = 38.70908 49.71948 44.21428
# Shear Modulus (GPa) = 21.08487 26.52284 23.80386
#
# Velocity S-wave (km/s) = 3.41997 3.83572 3.63380
# Velocity P-wave (km/s) = 6.08832 6.87004 6.49096
#
# Compressibility (1/GPa) = 0.02583373
#
# Stress axis : x y z
#
# Youngs Moduli (GPa) = 37.35580 63.35899 99.71135
#
# Poissons Ratio (x) = 0.24275 0.62397
# Poissons Ratio (y) = 0.14312 0.32754
# Poissons Ratio (z) = 0.23376 0.20813
#
# Static dielectric constant tensor:
#      x y z
#    x 1.608500 0.000000 -0.018770 
#    y 0.000000 1.608140 0.000000 
#    z -0.018770 0.000000 1.703550 
# 
# From -- ./inp_files/4775.got.cif
#   From: 2010.05.17/outbox.cif.g08.bks.cpg/sg11_3_cif.got.tgz:4775.got - 2010.06.03 12:22:45.
