data_PCOD9157402
_publ_section_title
;
Structure prediction by ZEFSAII (Michael W. Deem and Ramdas Pophale) SiO2 
 PCOD9157402
Probable space group: P 21/M
;
_chemical_formula_sum "Si O2"
_cell_formula_units_Z 28
_cell_length_a 6.155621
_cell_length_b 23.965798
_cell_length_c 11.582384
_cell_angle_alpha 90.000000
_cell_angle_beta 64.582804
_cell_angle_gamma 90.000000
_cell_volume 1543.294431
_symmetry_space_group_name_H-M "P 21/M"
_symmetry_group_IT_number 11
_symmetry_cell_setting 'monoclinic'
loop_
_space_group_symop_operation_xyz
x,y,z
-x,1/2+y,-z
-x,-y,-z
x,1/2-y,z
loop_
_atom_site_type_symbol
_atom_site_label
_atom_site_fract_x
_atom_site_fract_y
_atom_site_fract_z
Si Si1 0.820464 0.408936 0.295950
Si Si2 0.543017 0.814739 0.538357
Si Si3 0.756461 0.036052 0.068745
Si Si4 0.914449 0.894565 0.559982
Si Si5 0.809763 0.970171 0.385773
Si Si6 0.459326 0.881387 0.348243
Si Si7 0.341114 0.943939 0.166500
O O1 0.660251 0.355213 0.361220
O O2 0.804189 0.423442 0.165620
O O3 0.737396 0.466554 0.377615
O O4 0.074079 0.398954 0.304356
O O5 0.508566 0.750000 0.568818
O O6 0.780474 0.840501 0.542306
O O7 0.545350 0.827283 0.399833
O O8 0.534589 0.993533 0.139932
O O9 0.697565 0.065237 0.960543
O O10 0.000000 0.000000 0.000000
O O11 0.808201 0.948471 0.518205
O O12 0.188190 0.890594 0.454539
O O13 0.637658 0.929139 0.354196
O O14 0.081439 0.962235 0.276130
O O15 0.437683 0.890763 0.216534
#
# Coordination Sequence:
#
# PCOD9157402 Si02
#       7
#     4   4   4   4   4   4   4
#     4  11  21  33  54  79 115 148 179 220 277 330
#     4  10  23  39  54  77 105 142 191 234 273 323
#     4  11  21  33  51  82 121 151 180 216 263 338
#     4   9  21  31  53  77 110 146 176 220 275 331
#     4  10  18  33  51  84 115 143 177 216 274 343
#     4   9  18  36  56  79 110 142 177 224 273 327
#     4  10  19  32  54  80 120 148 176 212 267 333
#
# _framework density 18.143007000000001
#
# number of rings (size 3 to 8) (size 9 to 14) (size 15 to 20)
#    0.000    2.000    2.857    0.429    2.000    7.429 
#    0.000    0.000    0.000    0.857    0.000    5.000 
#    0.000    0.000    0.000    0.000    0.000    0.000 
#
# Total GULP energy -156045.399957 kJ/mol
# GULP energy per Si atom -5573.049998 kJ/mol
# Density = 1.810171 g / cm^3
# Si number density = 18.143007 Si / 1000 Ang^3
#
#
#
# Elastic Constant Matrix: (Units=GPa)
#
#
# Indices 1 2 3 4 5 6 
#
# 1 122.3861 43.5089 54.2735 0.0000 18.8535 0.0000
# 2 43.5089 125.5093 41.9175 0.0000 9.4696 0.0000
# 3 54.2735 41.9175 101.8391 0.0000 40.0841 0.0000
# 4 0.0000 0.0000 0.0000 17.6999 0.0000 0.9058
# 5 18.8535 9.4696 40.0841 0.0000 49.0074 0.0000
# 6 0.0000 0.0000 0.0000 0.9058 0.0000 9.8078
#
#
#
# Elastic Compliance Matrix: (Units=1/GPa)
#
#
# Indices 1 2 3 4 5 6 
#
# 1 0.011200 -0.002165 -0.005230 0.000000 0.000388 0.000000
# 2 -0.002165 0.009785 -0.003624 0.000000 0.001906 0.000000
# 3 -0.005230 -0.003624 0.019218 0.000000 -0.013006 0.000000
# 4 0.000000 0.000000 0.000000 0.056766 0.000000 -0.005242
# 5 0.000388 0.001906 -0.013006 0.000000 0.030526 0.000000
# 6 0.000000 0.000000 0.000000 -0.005242 0.000000 0.102444
#
#
# Mechanical properties :
#
#
# Convention : Reuss Voigt Hill
#
# Bulk Modulus (GPa) = 55.05428 69.90381 62.47905
# Shear Modulus (GPa) = 19.37747 29.30531 24.34139
#
# Velocity S-wave (km/s) = 3.27163 4.02336 3.66681
# Velocity P-wave (km/s) = 6.68446 7.75863 7.24149
#
# Compressibility (1/GPa) = 0.01816389
#
# Stress axis : x y z
#
# Youngs Moduli (GPa) = 89.28288 102.20199 52.03527
#
# Poissons Ratio (x) = 0.22128 0.27217
# Poissons Ratio (y) = 0.19331 0.18857
# Poissons Ratio (z) = 0.46699 0.37036
#
# Static dielectric constant tensor:
#      x y z
#    x 1.706950 0.000000 0.027890 
#    y 0.000000 1.589910 0.000000 
#    z 0.027890 0.000000 1.693000 
# 
# From -- ./inp_files/29966.got.cif
#   From: 2010.05.17/outbox.cif.g08.bks.cpg/sg11_15_cif.got.tgz:29966.got - 2010.06.03 12:22:45.
