data_PCOD9157772
_publ_section_title
;
Structure prediction by ZEFSAII (Michael W. Deem and Ramdas Pophale) SiO2 
 PCOD9157772
Probable space group: P 21/M
;
_chemical_formula_sum "Si O2"
_cell_formula_units_Z 32
_cell_length_a 7.692013
_cell_length_b 20.154795
_cell_length_c 9.948319
_cell_angle_alpha 90.000000
_cell_angle_beta 61.248427
_cell_angle_gamma 90.000000
_cell_volume 1352.152939
_symmetry_space_group_name_H-M "P 21/M"
_symmetry_group_IT_number 11
_symmetry_cell_setting 'monoclinic'
loop_
_space_group_symop_operation_xyz
x,y,z
-x,1/2+y,-z
-x,-y,-z
x,1/2-y,z
loop_
_atom_site_type_symbol
_atom_site_label
_atom_site_fract_x
_atom_site_fract_y
_atom_site_fract_z
Si Si1 0.938729 0.397641 0.248037
Si Si2 0.638852 0.485669 0.738396
Si Si3 0.663967 0.074376 0.025783
Si Si4 0.885966 0.896224 0.537058
Si Si5 0.528530 0.175900 0.373010
Si Si6 0.652475 0.825998 0.972263
Si Si7 0.546079 0.864694 0.305843
Si Si8 0.053644 0.058417 0.777000
O O1 0.730884 0.366123 0.274113
O O2 0.934384 0.478163 0.237120
O O3 0.975988 0.375648 0.390605
O O4 0.143783 0.368065 0.110345
O O5 0.671290 0.466041 0.880927
O O6 0.798654 0.533214 0.615805
O O7 0.615094 0.421207 0.659764
O O8 0.436290 0.527786 0.827351
O O9 0.897964 0.083687 0.947719
O O10 0.517442 0.135743 0.050870
O O11 0.684654 0.852265 0.597792
O O12 0.984941 0.907855 0.355490
O O13 0.558251 0.250000 0.310139
O O14 0.502180 0.176009 0.544379
O O15 0.682451 0.750000 0.918261
O O16 0.577912 0.827473 0.154089
O O17 0.739109 0.908798 0.263132
#
# Coordination Sequence:
#
# PCOD9157772 Si02
#       8
#     4   4   4   4   4   4   4   4
#     4  12  23  41  70  98 125 169 212 270 327 379
#     4  10  18  37  60  91 126 156 206 263 331 365
#     4  10  20  36  60  92 127 160 200 266 315 380
#     4  11  23  40  64  99 131 164 206 271 321 383
#     4  11  26  44  61  91 133 177 219 254 311 390
#     4  11  24  43  62  88 126 174 222 254 307 391
#     4  10  23  40  65  90 129 166 209 273 317 378
#     4  11  22  38  65 102 129 155 209 268 339 377
#
# _framework density 23.665963000000001
#
# number of rings (size 3 to 8) (size 9 to 14) (size 15 to 20)
#    0.000    1.250    2.500    4.125    3.500    6.000 
#    0.000    3.125    0.000    0.000    0.000    0.000 
#    0.000    0.000    0.000    0.000    0.000    0.000 
#
# Total GULP energy -178920.751234 kJ/mol
# GULP energy per Si atom -5591.273476 kJ/mol
# Density = 2.361210 g / cm^3
# Si number density = 23.665963 Si / 1000 Ang^3
#
#
#
# Elastic Constant Matrix: (Units=GPa)
#
#
# Indices 1 2 3 4 5 6 
#
# 1 105.8606 42.1368 -1.7256 0.0000 -20.4668 0.0000
# 2 42.1368 128.4749 11.5461 0.0000 -14.1585 0.0000
# 3 -1.7256 11.5461 88.9918 0.0000 -18.1087 0.0000
# 4 0.0000 0.0000 0.0000 19.3349 0.0000 -4.8851
# 5 -20.4668 -14.1585 -18.1087 0.0000 45.1880 0.0000
# 6 0.0000 0.0000 0.0000 -4.8851 0.0000 17.8598
#
#
#
# Elastic Compliance Matrix: (Units=1/GPa)
#
#
# Indices 1 2 3 4 5 6 
#
# 1 0.011814 -0.003482 0.001685 0.000000 0.004935 0.000000
# 2 -0.003482 0.009116 -0.001078 0.000000 0.000847 0.000000
# 3 0.001685 -0.001078 0.012517 0.000000 0.005441 0.000000
# 4 0.000000 0.000000 0.000000 0.055559 0.000000 0.015197
# 5 0.004935 0.000847 0.005441 0.000000 0.026811 0.000000
# 6 0.000000 0.000000 0.000000 0.015197 0.000000 0.060148
#
#
# Mechanical properties :
#
#
# Convention : Reuss Voigt Hill
#
# Bulk Modulus (GPa) = 36.10543 47.47131 41.78837
# Shear Modulus (GPa) = 26.18512 34.56786 30.37649
#
# Velocity S-wave (km/s) = 3.32994 3.82600 3.58656
# Velocity P-wave (km/s) = 5.48398 6.29445 5.90314
#
# Compressibility (1/GPa) = 0.02769666
#
# Stress axis : x y z
#
# Youngs Moduli (GPa) = 84.64459 109.69765 79.89266
#
# Poissons Ratio (x) = 0.38200 -0.13463
# Poissons Ratio (y) = 0.29476 0.08612
# Poissons Ratio (z) = -0.14264 0.11824
#
# Static dielectric constant tensor:
#      x y z
#    x 2.048440 0.000000 -0.009500 
#    y 0.000000 1.859730 0.000000 
#    z -0.009500 0.000000 1.943370 
# 
# From -- ./inp_files/32820.got.cif
#   From: 2010.05.17/outbox.cif.g08.bks.cpg/sg11_17_cif.got.tgz:32820.got - 2010.06.03 12:22:45.
