data_PCOD9157499
_publ_section_title
;
Structure prediction by ZEFSAII (Michael W. Deem and Ramdas Pophale) SiO2 
 PCOD9157499
Probable space group: P 21/M
;
_chemical_formula_sum "Si O2"
_cell_formula_units_Z 28
_cell_length_a 12.449936
_cell_length_b 14.294728
_cell_length_c 8.082998
_cell_angle_alpha 90.000000
_cell_angle_beta 74.104202
_cell_angle_gamma 90.000000
_cell_volume 1383.511676
_symmetry_space_group_name_H-M "P 21/M"
_symmetry_group_IT_number 11
_symmetry_cell_setting 'monoclinic'
loop_
_space_group_symop_operation_xyz
x,y,z
-x,1/2+y,-z
-x,-y,-z
x,1/2-y,z
loop_
_atom_site_type_symbol
_atom_site_label
_atom_site_fract_x
_atom_site_fract_y
_atom_site_fract_z
Si Si1 0.103288 0.021020 0.074107
Si Si2 0.376379 0.445704 0.206666
Si Si3 0.021163 0.854501 0.286078
Si Si4 0.478190 0.639899 0.149844
Si Si5 0.422082 0.143551 0.520805
Si Si6 0.868849 0.639784 0.653930
Si Si7 0.208073 0.148267 0.812881
O O1 0.074969 0.110722 0.197662
O O2 0.209509 0.056923 0.926553
O O3 0.109506 0.929409 0.184508
O O4 0.000000 0.000000 0.000000
O O5 0.387929 0.556607 0.170385
O O6 0.440323 0.420424 0.352793
O O7 0.249656 0.412289 0.287949
O O8 0.431306 0.389033 0.029726
O O9 0.066427 0.750000 0.292830
O O10 0.955996 0.888476 0.476142
O O11 0.917741 0.846848 0.201226
O O12 0.448227 0.750000 0.141069
O O13 0.521816 0.629995 0.322141
O O14 0.447212 0.250000 0.458434
O O15 0.291341 0.138006 0.625415
O O16 0.849483 0.750000 0.644458
O O17 0.236016 0.250000 0.880099
#
# Coordination Sequence:
#
# PCOD9157499 Si02
#       7
#     4   4   4   4   4   4   4
#     4  10  20  32  50  78 110 139 169 220 283 333
#     4  11  21  36  59  85 114 150 191 233 283 335
#     4   9  18  32  50  74 104 137 178 222 269 322
#     4  10  22  36  54  84 118 151 189 233 282 338
#     4  10  18  33  58  86 115 146 188 236 279 326
#     4  11  20  34  57  81 103 137 185 233 275 326
#     4   9  16  29  50  78 107 137 177 226 269 311
#
# _framework density 20.238354999999999
#
# number of rings (size 3 to 8) (size 9 to 14) (size 15 to 20)
#    0.000    2.000    1.429    3.429    0.000    1.714 
#    0.000    0.714    0.000    2.571    0.000    0.000 
#    0.000    0.000    0.000    0.000    0.000    0.000 
#
# Total GULP energy -155927.302984 kJ/mol
# GULP energy per Si atom -5568.832249 kJ/mol
# Density = 2.019229 g / cm^3
# Si number density = 20.238355 Si / 1000 Ang^3
#
#
#
# Elastic Constant Matrix: (Units=GPa)
#
#
# Indices 1 2 3 4 5 6 
#
# 1 33.6666 33.6034 20.1141 0.0000 1.8452 0.0000
# 2 33.6034 140.9563 50.1202 0.0000 -12.6199 0.0000
# 3 20.1141 50.1202 95.8466 0.0000 5.7399 0.0000
# 4 0.0000 0.0000 0.0000 48.4621 0.0000 -1.3607
# 5 1.8452 -12.6199 5.7399 0.0000 17.2305 0.0000
# 6 0.0000 0.0000 0.0000 -1.3607 0.0000 26.3500
#
#
#
# Elastic Compliance Matrix: (Units=1/GPa)
#
#
# Indices 1 2 3 4 5 6 
#
# 1 0.041962 -0.009906 -0.002982 0.000000 -0.010756 0.000000
# 2 -0.009906 0.012309 -0.005062 0.000000 0.011763 0.000000
# 3 -0.002982 -0.005062 0.014192 0.000000 -0.008116 0.000000
# 4 0.000000 0.000000 0.000000 0.020665 0.000000 0.001067
# 5 -0.010756 0.011763 -0.008116 0.000000 0.070507 0.000000
# 6 0.000000 0.000000 0.000000 0.001067 0.000000 0.038006
#
#
# Mechanical properties :
#
#
# Convention : Reuss Voigt Hill
#
# Bulk Modulus (GPa) = 30.70997 53.12721 41.91859
# Shear Modulus (GPa) = 20.45868 29.51731 24.98799
#
# Velocity S-wave (km/s) = 3.18289 3.82315 3.51762
# Velocity P-wave (km/s) = 5.35862 6.76730 6.10374
#
# Compressibility (1/GPa) = 0.03256272
#
# Stress axis : x y z
#
# Youngs Moduli (GPa) = 23.83135 81.24067 70.46103
#
# Poissons Ratio (x) = 0.80479 0.21009
# Poissons Ratio (y) = 0.23608 0.35669
# Poissons Ratio (z) = 0.07106 0.41126
#
# Static dielectric constant tensor:
#      x y z
#    x 1.760480 0.000000 0.078940 
#    y 0.000000 1.755540 0.000000 
#    z 0.078940 0.000000 1.797930 
# 
# From -- ./inp_files/21190.got.cif
#   From: 2010.05.17/outbox.cif.g08.bks.cpg/sg11_11_cif.got.tgz:21190.got - 2010.06.03 12:22:45.
