data_PCOD9157535
_publ_section_title
;
Structure prediction by ZEFSAII (Michael W. Deem and Ramdas Pophale) SiO2 
 PCOD9157535
Probable space group: P 21/M
;
_chemical_formula_sum "Si O2"
_cell_formula_units_Z 28
_cell_length_a 15.537048
_cell_length_b 8.715473
_cell_length_c 12.836043
_cell_angle_alpha 90.000000
_cell_angle_beta 74.099519
_cell_angle_gamma 90.000000
_cell_volume 1671.659669
_symmetry_space_group_name_H-M "P 21/M"
_symmetry_group_IT_number 11
_symmetry_cell_setting 'monoclinic'
loop_
_space_group_symop_operation_xyz
x,y,z
-x,1/2+y,-z
-x,-y,-z
x,1/2-y,z
loop_
_atom_site_type_symbol
_atom_site_label
_atom_site_fract_x
_atom_site_fract_y
_atom_site_fract_z
Si Si1 0.589212 0.436693 0.258231
Si Si2 0.098045 0.066778 0.589870
Si Si3 0.387614 0.064883 0.372728
Si Si4 0.279818 0.933822 0.604086
Si Si5 0.282028 0.434817 0.195121
Si Si6 0.093448 0.434836 0.347695
Si Si7 0.591298 0.434007 0.018156
O O1 0.589084 0.250000 0.257993
O O2 0.491214 0.483140 0.332089
O O3 0.666852 0.486985 0.310838
O O4 0.600416 0.485911 0.135009
O O5 0.100969 0.250000 0.594153
O O6 0.109610 0.022063 0.463720
O O7 0.179946 0.997894 0.626724
O O8 0.000449 0.007054 0.654526
O O9 0.383108 0.250000 0.385689
O O10 0.339826 0.026971 0.279135
O O11 0.335564 0.990030 0.485393
O O12 0.276766 0.750000 0.605174
O O13 0.285370 0.250000 0.182713
O O14 0.179821 0.480428 0.252322
O O15 0.327418 0.511047 0.080752
O O16 0.086170 0.250000 0.347047
O O17 0.585597 0.250000 0.019208
O O18 0.500000 0.500000 0.000000
#
# Coordination Sequence:
#
# PCOD9157535 Si02
#       7
#     4   4   4   4   4   4   4
#     4   9  20  36  52  71 105 145 175 212 260 304
#     4  10  19  33  52  76 105 137 169 210 261 309
#     4  10  18  34  53  73 107 143 170 208 262 308
#     4  11  21  33  51  77 106 140 178 211 253 311
#     4  10  19  34  55  78 108 139 168 210 265 309
#     4   9  18  33  52  76 105 137 167 206 262 314
#     4  11  21  36  55  76 103 138 180 220 259 300
#
# _framework density 16.749821000000001
#
# number of rings (size 3 to 8) (size 9 to 14) (size 15 to 20)
#    0.000    2.000    2.857    1.714    0.000    1.714 
#    0.000    3.571    0.000    0.857    0.000    0.000 
#    0.000    0.000    0.000    0.000    0.000    0.000 
#
# Total GULP energy -156285.019993 kJ/mol
# GULP energy per Si atom -5581.607857 kJ/mol
# Density = 1.671170 g / cm^3
# Si number density = 16.749821 Si / 1000 Ang^3
#
#
#
# Elastic Constant Matrix: (Units=GPa)
#
#
# Indices 1 2 3 4 5 6 
#
# 1 171.5283 38.9578 71.1917 0.0000 -5.6316 0.0000
# 2 38.9578 25.3093 23.9169 0.0000 -2.0350 0.0000
# 3 71.1917 23.9169 74.0091 0.0000 -2.8014 0.0000
# 4 0.0000 0.0000 0.0000 24.3434 0.0000 -7.4067
# 5 -5.6316 -2.0350 -2.8014 0.0000 28.9293 0.0000
# 6 0.0000 0.0000 0.0000 -7.4067 0.0000 25.0824
#
#
#
# Elastic Compliance Matrix: (Units=1/GPa)
#
#
# Indices 1 2 3 4 5 6 
#
# 1 0.011306 -0.010210 -0.007548 0.000000 0.000752 0.000000
# 2 -0.010210 0.066246 -0.011528 0.000000 0.001556 0.000000
# 3 -0.007548 -0.011528 0.024501 0.000000 0.000092 0.000000
# 4 0.000000 0.000000 0.000000 0.045134 0.000000 0.013328
# 5 0.000752 0.001556 0.000092 0.000000 0.034832 0.000000
# 6 0.000000 0.000000 0.000000 0.013328 0.000000 0.043804
#
#
# Mechanical properties :
#
#
# Convention : Reuss Voigt Hill
#
# Bulk Modulus (GPa) = 22.99804 59.88665 41.44234
# Shear Modulus (GPa) = 16.72859 24.78971 20.75915
#
# Velocity S-wave (km/s) = 3.16370 3.85125 3.52428
# Velocity P-wave (km/s) = 5.20629 7.45704 6.43090
#
# Compressibility (1/GPa) = 0.04348197
#
# Stress axis : x y z
#
# Youngs Moduli (GPa) = 88.44622 15.09517 40.81443
#
# Poissons Ratio (x) = 0.15413 0.30806
# Poissons Ratio (y) = 0.90307 0.47050
# Poissons Ratio (z) = 0.66758 0.17401
#
# Static dielectric constant tensor:
#      x y z
#    x 1.559840 0.000000 -0.000260 
#    y 0.000000 1.568130 0.000000 
#    z -0.000260 0.000000 1.544380 
# 
# From -- ./inp_files/37486.got.cif
#   From: 2010.05.17/outbox.cif.g08.bks.cpg/sg11_19_cif.got.tgz:37486.got - 2010.06.03 12:22:45.
