data_PCOD9157651
_publ_section_title
;
Structure prediction by ZEFSAII (Michael W. Deem and Ramdas Pophale) SiO2 
 PCOD9157651
Probable space group: P 21/M
;
_chemical_formula_sum "Si O2"
_cell_formula_units_Z 24
_cell_length_a 9.735410
_cell_length_b 15.021870
_cell_length_c 13.822548
_cell_angle_alpha 90.000000
_cell_angle_beta 29.096219
_cell_angle_gamma 90.000000
_cell_volume 982.993673
_symmetry_space_group_name_H-M "P 21/M"
_symmetry_group_IT_number 11
_symmetry_cell_setting 'monoclinic'
loop_
_space_group_symop_operation_xyz
x,y,z
-x,1/2+y,-z
-x,-y,-z
x,1/2-y,z
loop_
_atom_site_type_symbol
_atom_site_label
_atom_site_fract_x
_atom_site_fract_y
_atom_site_fract_z
Si Si1 0.496566 0.019240 0.615915
Si Si2 0.657954 0.382004 0.953695
Si Si3 0.525481 0.852205 0.731645
Si Si4 0.900339 0.919910 0.800179
Si Si5 0.867546 0.349704 0.619220
Si Si6 0.730518 0.855773 0.100185
O O1 0.268605 0.087089 0.802383
O O2 0.807588 0.064909 0.435173
O O3 0.500000 0.000000 0.500000
O O4 0.452881 0.926035 0.697914
O O5 0.675031 0.348047 0.051848
O O6 0.337931 0.366285 0.112041
O O7 0.753493 0.484196 0.902479
O O8 0.842803 0.346644 0.751222
O O9 0.555984 0.750000 0.676954
O O10 0.827175 0.889812 0.586195
O O11 0.938840 0.878784 0.883408
O O12 0.881350 0.250000 0.570757
O O13 0.572018 0.385210 0.761845
O O14 0.739421 0.750000 0.112405
#
# Coordination Sequence:
#
# PCOD9157651 Si02
#       6
#     4   4   4   4   4   4
#     4  12  26  42  62  84 124 169 214 246 290 350
#     4  10  18  34  63  94 119 149 188 248 314 369
#     4  11  22  37  59  91 124 158 200 248 308 366
#     4  10  21  37  64  92 120 155 194 246 308 366
#     4   9  18  33  59  94 125 150 189 249 313 372
#     4  10  22  41  64  92 121 156 203 254 307 359
#
# _framework density 24.415213000000001
#
# number of rings (size 3 to 8) (size 9 to 14) (size 15 to 20)
#    0.000    1.667    3.333    1.500    0.000    4.000 
#    0.000    0.000    0.000    0.000    0.000    0.000 
#    0.000    0.000    0.000    0.000    0.000    0.000 
#
# Total GULP energy -133968.125974 kJ/mol
# GULP energy per Si atom -5582.005249 kJ/mol
# Density = 2.435964 g / cm^3
# Si number density = 24.415213 Si / 1000 Ang^3
#
#
#
# Elastic Constant Matrix: (Units=GPa)
#
#
# Indices 1 2 3 4 5 6 
#
# 1 56.5672 5.4389 34.1527 0.0000 19.5930 0.0000
# 2 5.4389 95.3499 28.8287 0.0000 21.3919 0.0000
# 3 34.1527 28.8287 117.6213 0.0000 38.4173 0.0000
# 4 0.0000 0.0000 0.0000 28.6664 0.0000 6.1967
# 5 19.5930 21.3919 38.4173 0.0000 50.0106 0.0000
# 6 0.0000 0.0000 0.0000 6.1967 0.0000 -7.2396
#
#
#
# Elastic Compliance Matrix: (Units=1/GPa)
#
#
# Indices 1 2 3 4 5 6 
#
# 1 0.022535 0.001502 -0.005097 0.000000 -0.005556 0.000000
# 2 0.001502 0.011941 -0.002006 0.000000 -0.004155 0.000000
# 3 -0.005097 -0.002006 0.012737 0.000000 -0.006929 0.000000
# 4 0.000000 0.000000 0.000000 0.029437 0.000000 0.025197
# 5 -0.005556 -0.004155 -0.006929 0.000000 0.029273 0.000000
# 6 0.000000 0.000000 0.000000 0.025197 0.000000 -0.116562
#
#
# Mechanical properties :
#
#
# Convention : Reuss Voigt Hill
#
# Bulk Modulus (GPa) = 27.76854 45.15321 36.46088
# Shear Modulus (GPa) = 397.90367 27.69534 212.79951
#
# Velocity S-wave (km/s) = 12.77996 3.37166 9.34600
# Velocity P-wave (km/s) = 15.13830 5.80444 11.46428
#
# Compressibility (1/GPa) = 0.03601197
#
# Stress axis : x y z
#
# Youngs Moduli (GPa) = 44.37482 83.74748 78.51387
#
# Poissons Ratio (x) = -0.12579 0.40017
# Poissons Ratio (y) = -0.06665 0.15746
# Poissons Ratio (z) = 0.22617 0.16796
#
# Static dielectric constant tensor:
#      x y z
#    x 2.066680 0.000000 -0.036760 
#    y 0.000000 1.928580 0.000000 
#    z -0.036760 0.000000 1.946990 
# 
# From -- ./inp_files/50326.got.cif
#   From: 2010.05.17/outbox.cif.g08.bks.cpg/sg11_26_cif.got.tgz:50326.got - 2010.06.03 12:22:45.
