data_PCOD9157688
_publ_section_title
;
Structure prediction by ZEFSAII (Michael W. Deem and Ramdas Pophale) SiO2 
 PCOD9157688
Probable space group: P 21/M
;
_chemical_formula_sum "Si O2"
_cell_formula_units_Z 28
_cell_length_a 14.481863
_cell_length_b 20.011782
_cell_length_c 8.982567
_cell_angle_alpha 90.000000
_cell_angle_beta 34.585625
_cell_angle_gamma 90.000000
_cell_volume 1477.683826
_symmetry_space_group_name_H-M "P 21/M"
_symmetry_group_IT_number 11
_symmetry_cell_setting 'monoclinic'
loop_
_space_group_symop_operation_xyz
x,y,z
-x,1/2+y,-z
-x,-y,-z
x,1/2-y,z
loop_
_atom_site_type_symbol
_atom_site_label
_atom_site_fract_x
_atom_site_fract_y
_atom_site_fract_z
Si Si1 0.931065 0.095577 0.142580
Si Si2 0.650843 0.529041 0.995416
Si Si3 0.024191 0.097205 0.541520
Si Si4 0.176444 0.991651 0.964769
Si Si5 0.178916 0.328480 0.593196
Si Si6 0.172216 0.826510 0.444168
Si Si7 0.507027 0.107068 0.051190
O O1 0.805097 0.053158 0.208182
O O2 0.843149 0.146263 0.368565
O O3 0.060952 0.134658 0.867055
O O4 0.038422 0.044048 0.097605
O O5 0.829932 0.546950 0.693078
O O6 0.542924 0.583300 0.049650
O O7 0.676884 0.526772 0.139654
O O8 0.582350 0.458078 0.031177
O O9 0.096615 0.157824 0.542361
O O10 0.940582 0.127128 0.508345
O O11 0.899013 0.058677 0.813433
O O12 0.195671 0.250000 0.602045
O O13 0.351759 0.365904 0.347373
O O14 0.122520 0.750000 0.500489
O O15 0.354912 0.837510 0.144933
#
# Coordination Sequence:
#
# PCOD9157688 Si02
#       7
#     4   4   4   4   4   4   4
#     4  10  22  35  60  90 113 153 189 243 299 329
#     4  10  18  35  60  87 116 143 191 247 285 341
#     4  10  19  34  63  86 111 151 202 244 288 333
#     4  10  18  35  60  87 116 143 191 247 285 341
#     4  10  21  40  56  79 120 162 196 227 281 364
#     4  12  22  37  60  88 117 152 198 243 281 338
#     4  10  22  35  60  90 113 153 189 243 299 329
#
# _framework density 18.948573
#
# number of rings (size 3 to 8) (size 9 to 14) (size 15 to 20)
#    0.000    1.714    2.857    2.571    0.000    3.429 
#    0.000    2.857    0.000    1.714    0.000    0.000 
#    0.000    0.000    0.000    0.000    0.000    0.000 
#
# Total GULP energy -156151.943250 kJ/mol
# GULP energy per Si atom -5576.855116 kJ/mol
# Density = 1.890545 g / cm^3
# Si number density = 18.948573 Si / 1000 Ang^3
#
#
#
# Elastic Constant Matrix: (Units=GPa)
#
#
# Indices 1 2 3 4 5 6 
#
# 1 96.4795 2.7806 -8.2093 0.0000 4.8906 0.0000
# 2 2.7806 61.2123 -16.0763 0.0000 6.4546 0.0000
# 3 -8.2093 -16.0763 32.3565 0.0000 2.5674 0.0000
# 4 0.0000 0.0000 0.0000 20.7004 0.0000 3.4627
# 5 4.8906 6.4546 2.5674 0.0000 23.8212 0.0000
# 6 0.0000 0.0000 0.0000 3.4627 0.0000 22.5823
#
#
#
# Elastic Compliance Matrix: (Units=1/GPa)
#
#
# Indices 1 2 3 4 5 6 
#
# 1 0.010764 0.000661 0.003277 0.000000 -0.002742 0.000000
# 2 0.000661 0.019767 0.010514 0.000000 -0.006625 0.000000
# 3 0.003277 0.010514 0.037562 0.000000 -0.007570 0.000000
# 4 0.000000 0.000000 0.000000 0.049580 0.000000 -0.007603
# 5 -0.002742 -0.006625 -0.007570 0.000000 0.045153 0.000000
# 6 0.000000 0.000000 0.000000 -0.007603 0.000000 0.045448
#
#
# Mechanical properties :
#
#
# Convention : Reuss Voigt Hill
#
# Bulk Modulus (GPa) = 10.30975 16.33759 13.32367
# Shear Modulus (GPa) = 23.61814 27.52433 25.57123
#
# Velocity S-wave (km/s) = 3.53432 3.81541 3.67755
# Velocity P-wave (km/s) = 4.70191 5.29628 5.00792
#
# Compressibility (1/GPa) = 0.09699557
#
# Stress axis : x y z
#
# Youngs Moduli (GPa) = 92.90511 50.59057 26.62288
#
# Poissons Ratio (x) = -0.03343 -0.08724
# Poissons Ratio (y) = -0.06139 -0.27992
# Poissons Ratio (z) = -0.30443 -0.53192
#
# Static dielectric constant tensor:
#      x y z
#    x 1.696050 0.000000 -0.001600 
#    y 0.000000 1.648610 0.000000 
#    z -0.001600 0.000000 1.654970 
# 
# From -- ./inp_files/23170.got.cif
#   From: 2010.05.17/outbox.cif.g08.bks.cpg/sg11_12_cif.got.tgz:23170.got - 2010.06.03 12:22:45.
