data_PCOD9157741
_publ_section_title
;
Structure prediction by ZEFSAII (Michael W. Deem and Ramdas Pophale) SiO2 
 PCOD9157741
Probable space group: P 21/M
;
_chemical_formula_sum "Si O2"
_cell_formula_units_Z 28
_cell_length_a 5.608278
_cell_length_b 17.740269
_cell_length_c 13.805532
_cell_angle_alpha 90.000000
_cell_angle_beta 100.767750
_cell_angle_gamma 90.000000
_cell_volume 1349.360362
_symmetry_space_group_name_H-M "P 21/M"
_symmetry_group_IT_number 11
_symmetry_cell_setting 'monoclinic'
loop_
_space_group_symop_operation_xyz
x,y,z
-x,1/2+y,-z
-x,-y,-z
x,1/2-y,z
loop_
_atom_site_type_symbol
_atom_site_label
_atom_site_fract_x
_atom_site_fract_y
_atom_site_fract_z
Si Si1 0.538158 0.401653 0.607775
Si Si2 0.438139 0.835851 0.804206
Si Si3 0.024961 0.571497 0.756150
Si Si4 0.918506 0.660819 0.302905
Si Si5 0.419412 0.079890 0.383485
Si Si6 0.718290 0.537958 0.922507
Si Si7 0.718011 0.559813 0.135257
O O1 0.305895 0.363892 0.643406
O O2 0.510848 0.491989 0.618838
O O3 0.514211 0.387643 0.490941
O O4 0.812127 0.376778 0.661103
O O5 0.512054 0.750000 0.817877
O O6 0.503372 0.870511 0.703355
O O7 0.542079 0.888853 0.896918
O O8 0.150384 0.849491 0.786930
O O9 0.873430 0.576303 0.647211
O O10 0.862525 0.548365 0.834900
O O11 0.213681 0.503293 0.778819
O O12 0.951788 0.750000 0.312984
O O13 0.813525 0.635441 0.190096
O O14 0.563478 0.460736 0.904785
O O15 0.831192 0.546275 0.037407
#
# Coordination Sequence:
#
# PCOD9157741 Si02
#       7
#     4   4   4   4   4   4   4
#     4  11  25  45  69  96 129 170 230 269 319 395
#     4  10  22  37  56  91 129 163 209 264 332 395
#     4  10  18  36  61  92 118 158 208 268 322 379
#     4  12  26  44  65  97 139 176 214 271 330 392
#     4  10  23  40  69  90 122 168 217 273 325 375
#     4   9  20  37  63  90 120 165 211 271 319 380
#     4  10  20  38  64  90 123 163 219 263 322 388
#
# _framework density 20.750572999999999
#
# number of rings (size 3 to 8) (size 9 to 14) (size 15 to 20)
#    0.000    1.714    1.429    3.429    2.000    5.143 
#    0.000    0.000    0.000    0.000    0.000    0.000 
#    0.000    0.000    0.000    0.000    0.000    0.000 
#
# Total GULP energy -155874.129257 kJ/mol
# GULP energy per Si atom -5566.933188 kJ/mol
# Density = 2.070334 g / cm^3
# Si number density = 20.750573 Si / 1000 Ang^3
#
#
#
# Elastic Constant Matrix: (Units=GPa)
#
#
# Indices 1 2 3 4 5 6 
#
# 1 59.3979 -1.7874 32.0306 0.0000 -9.4728 0.0000
# 2 -1.7874 57.4386 18.8890 0.0000 -2.3645 0.0000
# 3 32.0306 18.8890 117.7347 0.0000 7.6438 0.0000
# 4 0.0000 0.0000 0.0000 18.5588 0.0000 -1.9049
# 5 -9.4728 -2.3645 7.6438 0.0000 27.5128 0.0000
# 6 0.0000 0.0000 0.0000 -1.9049 0.0000 19.7957
#
#
#
# Elastic Compliance Matrix: (Units=1/GPa)
#
#
# Indices 1 2 3 4 5 6 
#
# 1 0.022514 0.003532 -0.007347 0.000000 0.010097 0.000000
# 2 0.003532 0.019097 -0.004288 0.000000 0.004049 0.000000
# 3 -0.007347 -0.004288 0.011577 0.000000 -0.006115 0.000000
# 4 0.000000 0.000000 0.000000 0.054420 0.000000 0.005237
# 5 0.010097 0.004049 -0.006115 0.000000 0.041870 0.000000
# 6 0.000000 0.000000 0.000000 0.005237 0.000000 0.051020
#
#
# Mechanical properties :
#
#
# Convention : Reuss Voigt Hill
#
# Bulk Modulus (GPa) = 27.03941 36.98174 32.01057
# Shear Modulus (GPa) = 21.83109 25.53607 23.68358
#
# Velocity S-wave (km/s) = 3.24708 3.51183 3.38205
# Velocity P-wave (km/s) = 5.20740 5.85701 5.54174
#
# Compressibility (1/GPa) = 0.03698305
#
# Stress axis : x y z
#
# Youngs Moduli (GPa) = 44.41628 52.36552 86.37449
#
# Poissons Ratio (x) = -0.18498 0.63463
# Poissons Ratio (y) = -0.15690 0.37035
# Poissons Ratio (z) = 0.32635 0.22453
#
# Static dielectric constant tensor:
#      x y z
#    x 1.948870 0.000000 0.048370 
#    y 0.000000 1.754650 0.000000 
#    z 0.048370 0.000000 1.742270 
# 
# From -- ./inp_files/45930.got.cif
#   From: 2010.05.17/outbox.cif.g08.bks.cpg/sg11_23_cif.got.tgz:45930.got - 2010.06.03 12:22:45.
