data_PCOD9157805
_publ_section_title
;
Structure prediction by ZEFSAII (Michael W. Deem and Ramdas Pophale) SiO2 
 PCOD9157805
Probable space group: P 21/M
;
_chemical_formula_sum "Si O2"
_cell_formula_units_Z 24
_cell_length_a 10.181063
_cell_length_b 18.794507
_cell_length_c 15.022754
_cell_angle_alpha 90.000000
_cell_angle_beta 155.543056
_cell_angle_gamma 90.000000
_cell_volume 1190.100765
_symmetry_space_group_name_H-M "P 21/M"
_symmetry_group_IT_number 11
_symmetry_cell_setting 'monoclinic'
loop_
_space_group_symop_operation_xyz
x,y,z
-x,1/2+y,-z
-x,-y,-z
x,1/2-y,z
loop_
_atom_site_type_symbol
_atom_site_label
_atom_site_fract_x
_atom_site_fract_y
_atom_site_fract_z
Si Si1 0.913293 0.599213 0.708302
Si Si2 0.711675 0.991592 0.938010
Si Si3 0.975315 0.750000 0.461217
Si Si4 0.666911 0.369887 0.208603
Si Si5 0.709428 0.406031 0.780438
Si Si6 0.985891 0.750000 0.764233
Si Si7 0.668079 0.750000 0.090002
Si Si8 0.451445 0.750000 0.279518
O O1 0.551528 0.585126 0.458123
O O2 0.933834 0.673452 0.776372
O O3 0.085337 0.536598 0.865999
O O4 0.105091 0.614222 0.734752
O O5 0.954753 0.938215 0.039475
O O6 0.447270 0.943480 0.820549
O O7 0.587943 0.048256 0.789705
O O8 0.152386 0.819254 0.609683
O O9 0.934494 0.750000 0.329905
O O10 0.630421 0.750000 0.295738
O O11 0.367276 0.321775 0.989805
O O12 0.730127 0.323117 0.817032
O O13 0.732671 0.750000 0.526784
O O14 0.333443 0.750000 0.936312
#
# Coordination Sequence:
#
# PCOD9157805 Si02
#       8
#     4   4   2   4   4   2   2   2
#     4  10  19  37  59  84 117 152 198 239 287 341
#     4  11  24  37  57  86 129 154 183 242 297 354
#     4  11  19  37  62  87 116 149 200 255 272 343
#     4  10  21  38  56  92 119 147 194 247 291 337
#     4  10  23  40  58  86 113 161 200 230 289 350
#     4   8  16  33  56  84 107 138 198 243 267 329
#     4   9  19  33  60  84 113 148 193 237 299 329
#     4  10  18  39  62  79 108 151 203 241 276 337
#
# _framework density 20.166357999999999
#
# number of rings (size 3 to 8) (size 9 to 14) (size 15 to 20)
#    0.000    2.000    5.000    1.000    4.667    3.333 
#    0.000    0.000    0.000    0.000    0.000    0.000 
#    0.000    0.000    0.000    0.000    0.000    0.000 
#
# Total GULP energy -133926.774930 kJ/mol
# GULP energy per Si atom -5580.282289 kJ/mol
# Density = 2.012046 g / cm^3
# Si number density = 20.166358 Si / 1000 Ang^3
#
#
#
# Elastic Constant Matrix: (Units=GPa)
#
#
# Indices 1 2 3 4 5 6 
#
# 1 26.8335 23.2095 11.3943 0.0000 -11.2266 0.0000
# 2 23.2095 143.4089 34.7350 0.0000 -5.6200 0.0000
# 3 11.3943 34.7350 44.0206 0.0000 -14.7673 0.0000
# 4 0.0000 0.0000 0.0000 24.4590 0.0000 10.8535
# 5 -11.2266 -5.6200 -14.7673 0.0000 21.3815 0.0000
# 6 0.0000 0.0000 0.0000 10.8535 0.0000 5.0491
#
#
#
# Elastic Compliance Matrix: (Units=1/GPa)
#
#
# Indices 1 2 3 4 5 6 
#
# 1 0.055476 -0.008258 0.001562 0.000000 0.028037 0.000000
# 2 -0.008258 0.010018 -0.008250 0.000000 -0.007401 0.000000
# 3 0.001562 -0.008250 0.036925 0.000000 0.024154 0.000000
# 4 0.000000 0.000000 0.000000 0.886049 0.000000 -1.904629
# 5 0.028037 -0.007401 0.024154 0.000000 0.076227 0.000000
# 6 0.000000 0.000000 0.000000 -1.904629 0.000000 4.292197
#
#
# Mechanical properties :
#
#
# Convention : Reuss Voigt Hill
#
# Bulk Modulus (GPa) = 13.78799 39.21563 26.50181
# Shear Modulus (GPa) = 0.92405 19.83954 10.38180
#
# Velocity S-wave (km/s) = 0.67765 3.13995 2.27140
# Velocity P-wave (km/s) = 2.73208 5.71262 4.47763
#
# Compressibility (1/GPa) = 0.07252686
#
# Stress axis : x y z
#
# Youngs Moduli (GPa) = 18.02574 99.82344 27.08214
#
# Poissons Ratio (x) = 0.82434 -0.04230
# Poissons Ratio (y) = 0.14886 0.22342
# Poissons Ratio (z) = -0.02815 0.82351
#
# Static dielectric constant tensor:
#      x y z
#    x 1.716310 0.000000 -0.025740 
#    y 0.000000 1.745810 0.000000 
#    z -0.025740 0.000000 1.706280 
# 
# From -- ./inp_files/59660.got.cif
#   From: 2010.05.17/outbox.cif.g08.bks.cpg/sg11_30_cif.got.tgz:59660.got - 2010.06.03 12:22:45.
