data_PCOD9157228
_publ_section_title
;
Structure prediction by ZEFSAII (Michael W. Deem and Ramdas Pophale) SiO2 
 PCOD9157228
Probable space group: P 21/M
;
_chemical_formula_sum "Si O2"
_cell_formula_units_Z 32
_cell_length_a 21.534594
_cell_length_b 8.209987
_cell_length_c 14.800128
_cell_angle_alpha 90.000000
_cell_angle_beta 143.961748
_cell_angle_gamma 90.000000
_cell_volume 1539.437671
_symmetry_space_group_name_H-M "P 21/M"
_symmetry_group_IT_number 11
_symmetry_cell_setting 'monoclinic'
loop_
_space_group_symop_operation_xyz
x,y,z
-x,1/2+y,-z
-x,-y,-z
x,1/2-y,z
loop_
_atom_site_type_symbol
_atom_site_label
_atom_site_fract_x
_atom_site_fract_y
_atom_site_fract_z
Si Si1 0.408959 0.055189 0.176973
Si Si2 0.835225 0.051044 0.442868
Si Si3 0.277200 0.939747 0.860336
Si Si4 0.837290 0.053211 0.654148
Si Si5 0.070452 0.059174 0.713773
Si Si6 0.281152 0.443820 0.198865
Si Si7 0.370495 0.552441 0.483510
Si Si8 0.062261 0.560537 0.906066
O O1 0.410268 0.250000 0.187050
O O2 0.326569 0.995350 0.156302
O O3 0.525403 0.996818 0.340773
O O4 0.366788 0.015661 0.028289
O O5 0.835446 0.250000 0.441816
O O6 0.747612 0.993479 0.268960
O O7 0.822235 0.001892 0.531506
O O8 0.952838 0.001228 0.549634
O O9 0.301079 0.750000 0.880318
O O10 0.166272 0.963304 0.782410
O O11 0.841646 0.250000 0.661138
O O12 0.736734 0.999474 0.592871
O O13 0.951017 0.988158 0.818813
O O14 0.082929 0.250000 0.706185
O O15 0.073132 0.040306 0.825615
O O16 0.266864 0.250000 0.177889
O O17 0.363438 0.487065 0.373816
O O18 0.168106 0.524259 0.085774
O O19 0.371297 0.750000 0.481690
O O20 0.058791 0.750000 0.878529
#
# Coordination Sequence:
#
# PCOD9157228 Si02
#       8
#     4   4   4   4   4   4   4   4
#     4  10  22  39  57  81 114 149 185 230 283 335
#     4   8  17  32  52  79 110 146 185 224 275 329
#     4  11  20  31  52  82 112 146 187 229 272 328
#     4   9  19  39  61  80 111 150 187 232 281 328
#     4  10  18  32  52  77 114 151 182 223 279 332
#     4  11  22  37  59  84 115 148 180 227 289 340
#     4  10  22  40  62  83 105 144 195 237 278 331
#     4  11  21  34  56  86 117 147 184 227 273 333
#
# _framework density 20.786809999999999
#
# number of rings (size 3 to 8) (size 9 to 14) (size 15 to 20)
#    0.000    2.000    1.250    3.750    0.000    2.000 
#    0.000    6.250    0.000    0.000    0.000    0.000 
#    0.000    0.000    0.000    0.000    0.000    0.000 
#
# Total GULP energy -178723.771609 kJ/mol
# GULP energy per Si atom -5585.117863 kJ/mol
# Density = 2.073950 g / cm^3
# Si number density = 20.786810 Si / 1000 Ang^3
#
#
#
# Elastic Constant Matrix: (Units=GPa)
#
#
# Indices 1 2 3 4 5 6 
#
# 1 32.7402 7.3290 13.7840 0.0000 11.1832 0.0000
# 2 7.3290 20.9086 8.4944 0.0000 7.5597 0.0000
# 3 13.7840 8.4944 140.7307 0.0000 7.0545 0.0000
# 4 0.0000 0.0000 0.0000 21.2878 0.0000 -1.4757
# 5 11.1832 7.5597 7.0545 0.0000 25.9387 0.0000
# 6 0.0000 0.0000 0.0000 -1.4757 0.0000 9.4886
#
#
#
# Elastic Compliance Matrix: (Units=1/GPa)
#
#
# Indices 1 2 3 4 5 6 
#
# 1 0.037887 -0.007351 -0.002591 0.000000 -0.013487 0.000000
# 2 -0.007351 0.055754 -0.002017 0.000000 -0.012531 0.000000
# 3 -0.002591 -0.002017 0.007498 0.000000 -0.000334 0.000000
# 4 0.000000 0.000000 0.000000 0.047487 0.000000 0.007385
# 5 -0.013487 -0.012531 -0.000334 0.000000 0.048110 0.000000
# 6 0.000000 0.000000 0.000000 0.007385 0.000000 0.106538
#
#
# Mechanical properties :
#
#
# Convention : Reuss Voigt Hill
#
# Bulk Modulus (GPa) = 12.94994 28.17715 20.56355
# Shear Modulus (GPa) = 14.16696 22.32782 18.24739
#
# Velocity S-wave (km/s) = 2.61346 3.28095 2.96604
# Velocity P-wave (km/s) = 3.91794 5.28560 4.65231
#
# Compressibility (1/GPa) = 0.07722041
#
# Stress axis : x y z
#
# Youngs Moduli (GPa) = 26.39431 17.93581 133.36783
#
# Poissons Ratio (x) = 0.13185 0.34556
# Poissons Ratio (y) = 0.19403 0.26902
# Poissons Ratio (z) = 0.06839 0.03618
#
# Static dielectric constant tensor:
#      x y z
#    x 1.737440 0.000000 -0.011330 
#    y 0.000000 1.736020 0.000000 
#    z -0.011330 0.000000 1.776190 
# 
# From -- ./inp_files/55745.got.cif
#   From: 2010.05.17/outbox.cif.g08.bks.cpg/sg11_28_cif.got.tgz:55745.got - 2010.06.03 12:22:45.
