data_PCOD9157336
_publ_section_title
;
Structure prediction by ZEFSAII (Michael W. Deem and Ramdas Pophale) SiO2 
 PCOD9157336
Probable space group: P 21/M
;
_chemical_formula_sum "Si O2"
_cell_formula_units_Z 30
_cell_length_a 24.993211
_cell_length_b 8.269081
_cell_length_c 7.710968
_cell_angle_alpha 90.000000
_cell_angle_beta 127.537937
_cell_angle_gamma 90.000000
_cell_volume 1263.671106
_symmetry_space_group_name_H-M "P 21/M"
_symmetry_group_IT_number 11
_symmetry_cell_setting 'monoclinic'
loop_
_space_group_symop_operation_xyz
x,y,z
-x,1/2+y,-z
-x,-y,-z
x,1/2-y,z
loop_
_atom_site_type_symbol
_atom_site_label
_atom_site_fract_x
_atom_site_fract_y
_atom_site_fract_z
Si Si1 0.786899 0.074116 0.773275
Si Si2 0.376757 0.935776 0.022977
Si Si3 0.514236 0.057459 0.328830
Si Si4 0.978296 0.250000 0.789338
Si Si5 0.094729 0.077253 0.818181
Si Si6 0.100344 0.439729 0.438174
Si Si7 0.753194 0.570320 0.365908
Si Si8 0.655768 0.935801 0.667853
O O1 0.784633 0.250000 0.686942
O O2 0.785733 0.943784 0.619343
O O3 0.719771 0.044299 0.750316
O O4 0.853824 0.055530 0.017463
O O5 0.383772 0.750000 0.090599
O O6 0.449337 0.992625 0.096770
O O7 0.359737 0.040143 0.159830
O O8 0.311322 0.956440 0.774822
O O9 0.516028 0.250000 0.326116
O O10 0.500000 0.000000 0.500000
O O11 0.587950 0.988176 0.433175
O O12 0.924771 0.401662 0.715346
O O13 0.034620 0.112004 0.832958
O O14 0.133367 0.250000 0.885833
O O15 0.070835 0.048771 0.574885
O O16 0.086784 0.250000 0.348521
O O17 0.181345 0.457389 0.623275
O O18 0.727559 0.750000 0.283453
O O19 0.670833 0.750000 0.659567
#
# Coordination Sequence:
#
# PCOD9157336 Si02
#       8
#     4   4   4   2   4   4   4   4
#     4  12  25  41  62  87 122 163 210 254 305 365
#     4  11  21  36  61  94 124 159 208 252 306 361
#     4  10  18  32  55  88 126 159 199 251 309 356
#     4  10  22  38  72  92 136 146 208 244 328 352
#     4   9  21  39  63  94 121 154 196 250 301 369
#     4  10  22  39  67  97 125 160 202 253 313 372
#     4  11  24  42  63  85 123 165 208 253 304 363
#     4  11  21  37  62  89 124 162 206 254 307 359
#
# _framework density 23.740355000000001
#
# number of rings (size 3 to 8) (size 9 to 14) (size 15 to 20)
#    0.400    1.067    0.000    8.000    2.800    1.600 
#    0.000    1.333    0.000    0.000    0.000    0.000 
#    0.000    0.000    0.000    0.000    0.000    0.000 
#
# Total GULP energy -167022.196150 kJ/mol
# GULP energy per Si atom -5567.406538 kJ/mol
# Density = 2.368632 g / cm^3
# Si number density = 23.740355 Si / 1000 Ang^3
#
#
#
# Elastic Constant Matrix: (Units=GPa)
#
#
# Indices 1 2 3 4 5 6 
#
# 1 8.7089 43.0859 86.6413 0.0000 40.7153 0.0000
# 2 43.0859 122.7886 0.2926 0.0000 15.2146 0.0000
# 3 86.6413 0.2926 -71.4618 0.0000 -15.4573 0.0000
# 4 0.0000 0.0000 0.0000 34.8940 0.0000 8.1989
# 5 40.7153 15.2146 -15.4573 0.0000 22.3666 0.0000
# 6 0.0000 0.0000 0.0000 8.1989 0.0000 19.7954
#
#
#
# Elastic Compliance Matrix: (Units=1/GPa)
#
#
# Indices 1 2 3 4 5 6 
#
# 1 0.011520 -0.003085 0.015691 0.000000 -0.008028 0.000000
# 2 -0.003085 0.009609 -0.003046 0.000000 -0.003026 0.000000
# 3 0.015691 -0.003046 0.009350 0.000000 -0.020029 0.000000
# 4 0.000000 0.000000 0.000000 0.031748 0.000000 -0.013150
# 5 -0.008028 -0.003026 -0.020029 0.000000 0.047540 0.000000
# 6 0.000000 0.000000 0.000000 -0.013150 0.000000 0.055963
#
#
# Mechanical properties :
#
#
# Convention : Reuss Voigt Hill
#
# Bulk Modulus (GPa) = 20.16234 35.56391 27.86312
# Shear Modulus (GPa) = 30.64790 10.74560 20.69675
#
# Velocity S-wave (km/s) = 3.59689 2.12982 2.95582
# Velocity P-wave (km/s) = 5.07558 4.58923 4.83852
#
# Compressibility (1/GPa) = 0.04959742
#
# Stress axis : x y z
#
# Youngs Moduli (GPa) = 86.80691 104.07196 106.95335
#
# Poissons Ratio (x) = 0.32105 -1.67817
# Poissons Ratio (y) = 0.26779 0.32581
# Poissons Ratio (z) = -1.36206 0.31703
#
# Static dielectric constant tensor:
#      x y z
#    x 1.972990 0.000000 -0.008810 
#    y 0.000000 1.909890 0.000000 
#    z -0.008810 0.000000 1.965910 
# 
# From -- ./inp_files/28127.got.cif
#   From: 2010.05.17/outbox.cif.g08.bks.cpg/sg11_15_cif.got.tgz:28127.got - 2010.06.03 12:22:45.
