data_PCOD9157279
_publ_section_title
;
Structure prediction by ZEFSAII (Michael W. Deem and Ramdas Pophale) SiO2 
 PCOD9157279
Probable space group: P 21/M
;
_chemical_formula_sum "Si O2"
_cell_formula_units_Z 32
_cell_length_a 14.559075
_cell_length_b 13.383738
_cell_length_c 10.868397
_cell_angle_alpha 90.000000
_cell_angle_beta 140.337013
_cell_angle_gamma 90.000000
_cell_volume 1351.703941
_symmetry_space_group_name_H-M "P 21/M"
_symmetry_group_IT_number 11
_symmetry_cell_setting 'monoclinic'
loop_
_space_group_symop_operation_xyz
x,y,z
-x,1/2+y,-z
-x,-y,-z
x,1/2-y,z
loop_
_atom_site_type_symbol
_atom_site_label
_atom_site_fract_x
_atom_site_fract_y
_atom_site_fract_z
Si Si1 0.925976 0.630638 0.885264
Si Si2 0.786572 0.137632 0.692417
Si Si3 0.379046 0.457087 0.468354
Si Si4 0.100005 0.864628 0.548719
Si Si5 0.339586 0.968175 0.937520
Si Si6 0.935765 0.934151 0.622296
Si Si7 0.349220 0.641759 0.175081
Si Si8 0.356570 0.367497 0.784189
O O1 0.917408 0.750000 0.874438
O O2 0.765859 0.587495 0.740606
O O3 0.977771 0.596629 0.802673
O O4 0.048748 0.606238 0.112243
O O5 0.777786 0.250000 0.632124
O O6 0.721429 0.142159 0.763998
O O7 0.686626 0.053528 0.527340
O O8 0.500000 0.500000 0.500000
O O9 0.478442 0.373846 0.634036
O O10 0.089542 0.750000 0.499304
O O11 0.053865 0.948267 0.401832
O O12 0.258340 0.899221 0.754529
O O13 0.013806 0.880670 0.587749
O O14 0.290049 0.942900 0.023928
O O15 0.502956 0.931322 0.103125
O O16 0.313585 0.081514 0.870502
O O17 0.772533 0.893731 0.440363
O O18 0.320808 0.750000 0.087494
O O19 0.381487 0.250000 0.816340
#
# Coordination Sequence:
#
# PCOD9157279 Si02
#       8
#     4   4   4   4   4   4   4   4
#     4  11  20  34  58  83 106 137 182 229 272 324
#     4   9  20  36  55  78 104 133 168 219 277 328
#     4  10  21  36  54  78 107 136 170 220 282 338
#     4  10  19  34  53  76 115 154 184 221 267 314
#     4  10  20  31  50  77 101 139 183 219 261 311
#     4  10  21  33  53  84 110 144 188 226 264 311
#     4  10  18  32  54  78 103 133 176 224 266 316
#     4  10  19  32  47  70 109 143 174 217 265 313
#
# _framework density 23.673822000000001
#
# number of rings (size 3 to 8) (size 9 to 14) (size 15 to 20)
#    0.000    2.000    0.000    4.500    0.000    1.500 
#    0.000    1.250    0.000    3.000    0.000    1.750 
#    0.000    0.000    0.000    0.000    0.000    0.000 
#
# Total GULP energy -178743.068572 kJ/mol
# GULP energy per Si atom -5585.720893 kJ/mol
# Density = 2.361994 g / cm^3
# Si number density = 23.673822 Si / 1000 Ang^3
#
#
#
# Elastic Constant Matrix: (Units=GPa)
#
#
# Indices 1 2 3 4 5 6 
#
# 1 80.5420 16.5927 16.8579 0.0000 4.7794 0.0000
# 2 16.5927 125.5923 19.1602 0.0000 -5.1946 0.0000
# 3 16.8579 19.1602 73.1533 0.0000 22.6622 0.0000
# 4 0.0000 0.0000 0.0000 35.6333 0.0000 -1.3569
# 5 4.7794 -5.1946 22.6622 0.0000 32.0297 0.0000
# 6 0.0000 0.0000 0.0000 -1.3569 0.0000 23.9427
#
#
#
# Elastic Compliance Matrix: (Units=1/GPa)
#
#
# Indices 1 2 3 4 5 6 
#
# 1 0.013261 -0.001374 -0.002579 0.000000 -0.000377 0.000000
# 2 -0.001374 0.008791 -0.003191 0.000000 0.003888 0.000000
# 3 -0.002579 -0.003191 0.019391 0.000000 -0.013853 0.000000
# 4 0.000000 0.000000 0.000000 0.028124 0.000000 0.001594
# 5 -0.000377 0.003888 -0.013853 0.000000 0.041709 0.000000
# 6 0.000000 0.000000 0.000000 0.001594 0.000000 0.041857
#
#
# Mechanical properties :
#
#
# Convention : Reuss Voigt Hill
#
# Bulk Modulus (GPa) = 36.82435 42.72326 39.77381
# Shear Modulus (GPa) = 28.33276 33.43291 30.88284
#
# Velocity S-wave (km/s) = 3.46323 3.76204 3.61572
# Velocity P-wave (km/s) = 5.61966 6.07918 5.85393
#
# Compressibility (1/GPa) = 0.02715595
#
# Stress axis : x y z
#
# Youngs Moduli (GPa) = 75.40798 113.74795 51.56920
#
# Poissons Ratio (x) = 0.15630 0.13302
# Poissons Ratio (y) = 0.10362 0.16453
# Poissons Ratio (z) = 0.19451 0.36291
#
# Static dielectric constant tensor:
#      x y z
#    x 2.039670 0.000000 0.013150 
#    y 0.000000 1.940640 0.000000 
#    z 0.013150 0.000000 1.907620 
# 
# From -- ./inp_files/53663.got.cif
#   From: 2010.05.17/outbox.cif.g08.bks.cpg/sg11_27_cif.got.tgz:53663.got - 2010.06.03 12:22:45.
