data_PCOD9157905
_publ_section_title
;
Structure prediction by ZEFSAII (Michael W. Deem and Ramdas Pophale) SiO2 
 PCOD9157905
Probable space group: P 21/M
;
_chemical_formula_sum "Si O2"
_cell_formula_units_Z 28
_cell_length_a 16.655816
_cell_length_b 9.033441
_cell_length_c 18.325990
_cell_angle_alpha 90.000000
_cell_angle_beta 40.824164
_cell_angle_gamma 90.000000
_cell_volume 1802.567345
_symmetry_space_group_name_H-M "P 21/M"
_symmetry_group_IT_number 11
_symmetry_cell_setting 'monoclinic'
loop_
_space_group_symop_operation_xyz
x,y,z
-x,1/2+y,-z
-x,-y,-z
x,1/2-y,z
loop_
_atom_site_type_symbol
_atom_site_label
_atom_site_fract_x
_atom_site_fract_y
_atom_site_fract_z
Si Si1 0.873040 0.575732 0.674220
Si Si2 0.082624 0.426972 0.197231
Si Si3 0.633593 0.927030 0.406993
Si Si4 0.208766 0.927514 0.574365
Si Si5 0.822199 0.074777 0.172835
Si Si6 0.072433 0.575160 0.055929
Si Si7 0.165895 0.924074 0.443918
O O1 0.847566 0.750000 0.690229
O O2 0.854599 0.522897 0.770030
O O3 0.806374 0.500675 0.651888
O O4 0.019578 0.557883 0.559340
O O5 0.100670 0.250000 0.177177
O O6 0.122056 0.511878 0.097677
O O7 0.935437 0.449930 0.307883
O O8 0.626494 0.750000 0.410881
O O9 0.500000 0.000000 0.500000
O O10 0.708889 0.984193 0.425651
O O11 0.709906 0.987655 0.285308
O O12 0.231075 0.750000 0.564736
O O13 0.228048 0.974413 0.476707
O O14 0.812164 0.250000 0.195628
O O15 0.838785 0.054748 0.074643
O O16 0.947310 0.012127 0.122626
O O17 0.045288 0.750000 0.080709
O O18 0.188821 0.750000 0.420918
#
# Coordination Sequence:
#
# PCOD9157905 Si02
#       7
#     4   4   4   4   4   4   4
#     4   8  14  23  35  56  84 117 150 179 217 261
#     4   9  16  26  42  62  91 125 152 185 226 267
#     4  12  24  36  51  69  89 118 157 195 235 276
#     4   9  17  30  45  62  87 119 153 189 230 270
#     4  10  20  34  48  65  92 120 150 192 234 271
#     4  10  19  29  46  70  92 119 155 190 226 273
#     4   8  14  24  38  56  81 115 148 181 221 262
#
# _framework density 15.533398999999999
#
# number of rings (size 3 to 8) (size 9 to 14) (size 15 to 20)
#    0.000    2.571    1.429    3.857    0.000    2.857 
#    0.000    2.857    0.000    0.000    0.000    0.000 
#    0.000    1.143    0.000    3.714    0.000    5.429 
#
# Total GULP energy -155960.596561 kJ/mol
# GULP energy per Si atom -5570.021306 kJ/mol
# Density = 1.549804 g / cm^3
# Si number density = 15.533399 Si / 1000 Ang^3
#
#
#
# Elastic Constant Matrix: (Units=GPa)
#
#
# Indices 1 2 3 4 5 6 
#
# 1 76.8220 47.5163 46.1900 0.0000 38.3816 0.0000
# 2 47.5163 74.6815 45.9133 0.0000 17.8355 0.0000
# 3 46.1900 45.9133 66.7964 0.0000 18.7256 0.0000
# 4 0.0000 0.0000 0.0000 20.9073 0.0000 7.0730
# 5 38.3816 17.8355 18.7256 0.0000 32.9520 0.0000
# 6 0.0000 0.0000 0.0000 7.0730 0.0000 26.6440
#
#
#
# Elastic Compliance Matrix: (Units=1/GPa)
#
#
# Indices 1 2 3 4 5 6 
#
# 1 0.053888 -0.014303 -0.014282 0.000000 -0.046910 0.000000
# 2 -0.014303 0.027475 -0.011295 0.000000 0.008208 0.000000
# 3 -0.014282 -0.011295 0.031204 0.000000 0.005016 0.000000
# 4 0.000000 0.000000 0.000000 0.052549 0.000000 -0.013950
# 5 -0.046910 0.008208 0.005016 0.000000 0.077693 0.000000
# 6 0.000000 0.000000 0.000000 -0.013950 0.000000 0.041235
#
#
# Mechanical properties :
#
#
# Convention : Reuss Voigt Hill
#
# Bulk Modulus (GPa) = 30.48157 55.28211 42.88184
# Shear Modulus (GPa) = 13.34258 21.34602 17.34430
#
# Velocity S-wave (km/s) = 2.93398 3.71104 3.34515
# Velocity P-wave (km/s) = 5.58064 7.35044 6.52581
#
# Compressibility (1/GPa) = 0.03280671
#
# Stress axis : x y z
#
# Youngs Moduli (GPa) = 18.55709 36.39726 32.04666
#
# Poissons Ratio (x) = 0.52059 0.45768
# Poissons Ratio (y) = 0.26542 0.36198
# Poissons Ratio (z) = 0.26503 0.41112
#
# Static dielectric constant tensor:
#      x y z
#    x 1.535380 0.000000 0.040360 
#    y 0.000000 1.516770 0.000000 
#    z 0.040360 0.000000 1.512880 
# 
# From -- ./inp_files/60092.got.cif
#   From: 2010.05.17/outbox.cif.g08.bks.cpg/sg11_31_cif.got.tgz:60092.got - 2010.06.03 12:22:45.
