data_PCOD9157667
_publ_section_title
;
Structure prediction by ZEFSAII (Michael W. Deem and Ramdas Pophale) SiO2 
 PCOD9157667
Probable space group: P 21/M
;
_chemical_formula_sum "Si O2"
_cell_formula_units_Z 24
_cell_length_a 11.426270
_cell_length_b 21.024952
_cell_length_c 10.762194
_cell_angle_alpha 90.000000
_cell_angle_beta 154.572322
_cell_angle_gamma 90.000000
_cell_volume 1110.129094
_symmetry_space_group_name_H-M "P 21/M"
_symmetry_group_IT_number 11
_symmetry_cell_setting 'monoclinic'
loop_
_space_group_symop_operation_xyz
x,y,z
-x,1/2+y,-z
-x,-y,-z
x,1/2-y,z
loop_
_atom_site_type_symbol
_atom_site_label
_atom_site_fract_x
_atom_site_fract_y
_atom_site_fract_z
Si Si1 0.770505 0.321976 0.657357
Si Si2 0.569548 0.425126 0.087803
Si Si3 0.550048 0.909195 0.297511
Si Si4 0.007383 0.982465 0.840349
Si Si5 0.257434 0.378412 0.272524
Si Si6 0.040846 0.394249 0.720863
O O1 0.674328 0.250000 0.579890
O O2 0.510344 0.367946 0.424398
O O3 0.918675 0.332002 0.667530
O O4 0.998506 0.339161 0.978828
O O5 0.542886 0.391457 0.928484
O O6 0.347089 0.395693 0.967358
O O7 0.500000 0.500000 0.000000
O O8 0.857481 0.416108 0.429688
O O9 0.824313 0.951343 0.553486
O O10 0.630646 0.859510 0.482582
O O11 0.305352 0.951835 0.119212
O O12 0.841153 0.951480 0.796585
O O13 0.016091 0.055166 0.810413
#
# Coordination Sequence:
#
# PCOD9157667 Si02
#       6
#     4   4   4   4   4   4
#     4  12  26  44  63  82 120 168 218 254 293 365
#     4  12  20  36  61  93 134 157 190 230 304 389
#     4  10  19  34  60  92 125 153 193 243 305 366
#     4  10  18  35  56  96 125 146 193 247 311 370
#     4  10  21  42  62  89 116 159 203 257 311 343
#     4  12  24  36  60  98 126 172 193 241 317 370
#
# _framework density 21.619109000000002
#
# number of rings (size 3 to 8) (size 9 to 14) (size 15 to 20)
#    1.000    0.000    5.000    3.000    0.000    1.333 
#    0.000    0.000    0.000    6.000    0.000    0.000 
#    0.000    0.000    0.000    0.000    0.000    0.000 
#
# Total GULP energy -133920.782444 kJ/mol
# GULP energy per Si atom -5580.032602 kJ/mol
# Density = 2.156990 g / cm^3
# Si number density = 21.619109 Si / 1000 Ang^3
#
#
#
# Elastic Constant Matrix: (Units=GPa)
#
#
# Indices 1 2 3 4 5 6 
#
# 1 83.4818 18.9442 3.1334 0.0000 -4.2347 0.0000
# 2 18.9442 42.5648 10.2497 0.0000 7.9103 0.0000
# 3 3.1334 10.2497 100.6046 0.0000 0.6224 0.0000
# 4 0.0000 0.0000 0.0000 14.4634 0.0000 0.0394
# 5 -4.2347 7.9103 0.6224 0.0000 49.2580 0.0000
# 6 0.0000 0.0000 0.0000 0.0394 0.0000 13.3078
#
#
#
# Elastic Compliance Matrix: (Units=1/GPa)
#
#
# Indices 1 2 3 4 5 6 
#
# 1 0.013557 -0.006498 0.000226 0.000000 0.002206 0.000000
# 2 -0.006498 0.027947 -0.002614 0.000000 -0.005014 0.000000
# 3 0.000226 -0.002614 0.010197 0.000000 0.000310 0.000000
# 4 0.000000 0.000000 0.000000 0.069141 0.000000 -0.000205
# 5 0.002206 -0.005014 0.000310 0.000000 0.021292 0.000000
# 6 0.000000 0.000000 0.000000 -0.000205 0.000000 0.075144
#
#
# Mechanical properties :
#
#
# Convention : Reuss Voigt Hill
#
# Bulk Modulus (GPa) = 29.47316 32.36733 30.92024
# Shear Modulus (GPa) = 20.29557 28.36077 24.32817
#
# Velocity S-wave (km/s) = 3.06727 3.62586 3.35820
# Velocity P-wave (km/s) = 5.11925 5.70380 5.41941
#
# Compressibility (1/GPa) = 0.03392918
#
# Stress axis : x y z
#
# Youngs Moduli (GPa) = 73.76446 35.78219 98.06574
#
# Poissons Ratio (x) = 0.23252 -0.02218
# Poissons Ratio (y) = 0.47933 0.25633
# Poissons Ratio (z) = -0.01668 0.09353
#
# Static dielectric constant tensor:
#      x y z
#    x 1.866850 0.000000 -0.055200 
#    y 0.000000 1.821950 0.000000 
#    z -0.055200 0.000000 1.806600 
# 
# From -- ./inp_files/36593.got.cif
#   From: 2010.05.17/outbox.cif.g08.bks.cpg/sg11_19_cif.got.tgz:36593.got - 2010.06.03 12:22:45.
