data_PCOD9157340
_publ_section_title
;
Structure prediction by ZEFSAII (Michael W. Deem and Ramdas Pophale) SiO2 
 PCOD9157340
Probable space group: P 21/M
;
_chemical_formula_sum "Si O2"
_cell_formula_units_Z 28
_cell_length_a 7.015868
_cell_length_b 18.667379
_cell_length_c 13.074906
_cell_angle_alpha 90.000000
_cell_angle_beta 136.160331
_cell_angle_gamma 90.000000
_cell_volume 1186.076237
_symmetry_space_group_name_H-M "P 21/M"
_symmetry_group_IT_number 11
_symmetry_cell_setting 'monoclinic'
loop_
_space_group_symop_operation_xyz
x,y,z
-x,1/2+y,-z
-x,-y,-z
x,1/2-y,z
loop_
_atom_site_type_symbol
_atom_site_label
_atom_site_fract_x
_atom_site_fract_y
_atom_site_fract_z
Si Si1 0.200620 0.836006 0.847147
Si Si2 0.534023 0.483665 0.331459
Si Si3 0.781655 0.063443 0.612170
Si Si4 0.682537 0.829383 0.528392
Si Si5 0.241918 0.329515 0.862599
Si Si6 0.056487 0.082245 0.059341
Si Si7 0.456405 0.634857 0.222977
O O1 0.175659 0.750000 0.862808
O O2 0.999312 0.848325 0.673014
O O3 0.085423 0.889170 0.890447
O O4 0.527155 0.848295 0.963784
O O5 0.315909 0.511077 0.335044
O O6 0.797602 0.470184 0.505544
O O7 0.380469 0.420523 0.211268
O O8 0.555660 0.551933 0.265703
O O9 0.526365 0.117710 0.498231
O O10 0.028302 0.109469 0.751456
O O11 0.638453 0.750000 0.551901
O O12 0.588094 0.832347 0.374809
O O13 0.123030 0.250000 0.833916
O O14 0.427550 0.327394 0.831315
O O15 0.878017 0.130821 0.911048
O O16 0.000000 0.000000 0.000000
#
# Coordination Sequence:
#
# PCOD9157340 Si02
#       7
#     4   4   4   4   4   4   4
#     4   9  18  32  53  77 105 141 181 222 269 328
#     4   9  18  33  54  77 109 136 180 220 263 320
#     4  10  19  32  55  80 105 136 179 228 264 309
#     4  10  18  32  56  79 102 141 186 221 264 323
#     4  10  20  35  53  78 108 136 173 220 272 320
#     4   9  16  32  54  78 104 139 178 222 262 315
#     4   9  19  32  54  77 105 142 175 216 268 317
#
# _framework density 23.607253
#
# number of rings (size 3 to 8) (size 9 to 14) (size 15 to 20)
#    0.000    2.571    1.429    0.857    0.000    1.143 
#    0.000    2.857   12.571    0.000    0.000    0.000 
#    0.000    0.000    0.000    0.000    0.000    0.000 
#
# Total GULP energy -155970.464811 kJ/mol
# GULP energy per Si atom -5570.373743 kJ/mol
# Density = 2.355352 g / cm^3
# Si number density = 23.607253 Si / 1000 Ang^3
#
#
#
# Elastic Constant Matrix: (Units=GPa)
#
#
# Indices 1 2 3 4 5 6 
#
# 1 35.0645 20.0801 29.0696 0.0000 -8.9080 0.0000
# 2 20.0801 80.0388 60.5128 0.0000 11.2423 0.0000
# 3 29.0696 60.5128 164.0458 0.0000 -11.9107 0.0000
# 4 0.0000 0.0000 0.0000 41.0482 0.0000 1.7379
# 5 -8.9080 11.2423 -11.9107 0.0000 34.5554 0.0000
# 6 0.0000 0.0000 0.0000 1.7379 0.0000 20.4485
#
#
#
# Elastic Compliance Matrix: (Units=1/GPa)
#
#
# Indices 1 2 3 4 5 6 
#
# 1 0.039309 -0.009747 -0.002466 0.000000 0.012454 0.000000
# 2 -0.009747 0.022234 -0.007367 0.000000 -0.012285 0.000000
# 3 -0.002466 -0.007367 0.009619 0.000000 0.005076 0.000000
# 4 0.000000 0.000000 0.000000 0.024450 0.000000 -0.002078
# 5 0.012454 -0.012285 0.005076 0.000000 0.037896 0.000000
# 6 0.000000 0.000000 0.000000 -0.002078 0.000000 0.049080
#
#
# Mechanical properties :
#
#
# Convention : Reuss Voigt Hill
#
# Bulk Modulus (GPa) = 31.24680 55.38601 43.31640
# Shear Modulus (GPa) = 21.51332 30.50953 26.01142
#
# Velocity S-wave (km/s) = 3.02205 3.59887 3.32300
# Velocity P-wave (km/s) = 5.04400 6.38604 5.75428
#
# Compressibility (1/GPa) = 0.03200327
#
# Stress axis : x y z
#
# Youngs Moduli (GPa) = 25.43956 44.97571 103.96307
#
# Poissons Ratio (x) = 0.43836 0.25639
# Poissons Ratio (y) = 0.24795 0.76585
# Poissons Ratio (z) = 0.06274 0.33132
#
# Static dielectric constant tensor:
#      x y z
#    x 1.931200 0.000000 -0.018370 
#    y 0.000000 1.910320 0.000000 
#    z -0.018370 0.000000 2.006960 
# 
# From -- ./inp_files/58394.got.cif
#   From: 2010.05.17/outbox.cif.g08.bks.cpg/sg11_30_cif.got.tgz:58394.got - 2010.06.03 12:22:45.
