data_PCOD9157227
_publ_section_title
;
Structure prediction by ZEFSAII (Michael W. Deem and Ramdas Pophale) SiO2 
 PCOD9157227
Probable space group: P 21/M
;
_chemical_formula_sum "Si O2"
_cell_formula_units_Z 24
_cell_length_a 11.794360
_cell_length_b 9.263520
_cell_length_c 16.069081
_cell_angle_alpha 90.000000
_cell_angle_beta 143.663307
_cell_angle_gamma 90.000000
_cell_volume 1040.282300
_symmetry_space_group_name_H-M "P 21/M"
_symmetry_group_IT_number 11
_symmetry_cell_setting 'monoclinic'
loop_
_space_group_symop_operation_xyz
x,y,z
-x,1/2+y,-z
-x,-y,-z
x,1/2-y,z
loop_
_atom_site_type_symbol
_atom_site_label
_atom_site_fract_x
_atom_site_fract_y
_atom_site_fract_z
Si Si1 0.616089 0.415896 0.249141
Si Si2 0.721868 0.082998 0.550489
Si Si3 0.067005 0.081272 0.652415
Si Si4 0.241209 0.087847 0.938940
Si Si5 0.738834 0.916876 0.727237
Si Si6 0.270643 0.920351 0.114299
O O1 0.622804 0.250000 0.284082
O O2 0.818390 0.477525 0.340923
O O3 0.489111 0.521161 0.231255
O O4 0.472917 0.414214 0.083581
O O5 0.769473 0.250000 0.597208
O O6 0.494528 0.075689 0.407642
O O7 0.846776 0.045717 0.543264
O O8 0.784309 0.986745 0.665324
O O9 0.084189 0.250000 0.637614
O O10 0.166876 0.066219 0.802560
O O11 0.184595 0.250000 0.932905
O O12 0.178330 0.975962 0.973219
O O13 0.795449 0.750000 0.766120
O O14 0.803645 0.003995 0.846479
O O15 0.263733 0.750000 0.117418
#
# Coordination Sequence:
#
# PCOD9157227 Si02
#       6
#     4   4   4   4   4   4
#     4   9  18  31  49  76 106 136 166 199 245 296
#     4   9  20  35  55  78  99 129 166 207 250 297
#     4  10  18  32  52  77 106 132 165 204 246 296
#     4   8  17  31  49  75 105 135 163 200 246 294
#     4  10  19  36  56  74  99 129 167 210 253 297
#     4  10  19  32  53  75  98 133 173 207 244 295
#
# _framework density 23.070658999999999
#
# number of rings (size 3 to 8) (size 9 to 14) (size 15 to 20)
#    1.000    1.667    0.000    2.500    0.000    2.000 
#    0.000    1.667    0.000    0.000    0.000    0.000 
#    0.000    0.000    0.000    0.000    0.000    0.000 
#
# Total GULP energy -134049.683110 kJ/mol
# GULP energy per Si atom -5585.403463 kJ/mol
# Density = 2.301815 g / cm^3
# Si number density = 23.070659 Si / 1000 Ang^3
#
#
#
# Elastic Constant Matrix: (Units=GPa)
#
#
# Indices 1 2 3 4 5 6 
#
# 1 110.9251 58.8192 13.6117 0.0000 1.9366 0.0000
# 2 58.8192 143.1291 31.9534 0.0000 -25.2594 0.0000
# 3 13.6117 31.9534 82.1674 0.0000 5.0823 0.0000
# 4 0.0000 0.0000 0.0000 16.4422 0.0000 -7.8599
# 5 1.9366 -25.2594 5.0823 0.0000 41.4780 0.0000
# 6 0.0000 0.0000 0.0000 -7.8599 0.0000 35.1098
#
#
#
# Elastic Compliance Matrix: (Units=1/GPa)
#
#
# Indices 1 2 3 4 5 6 
#
# 1 0.012118 -0.005834 0.000520 0.000000 -0.004182 0.000000
# 2 -0.005834 0.011683 -0.004065 0.000000 0.007885 0.000000
# 3 0.000520 -0.004065 0.013925 0.000000 -0.004206 0.000000
# 4 0.000000 0.000000 0.000000 0.068108 0.000000 0.015247
# 5 -0.004182 0.007885 -0.004206 0.000000 0.029622 0.000000
# 6 0.000000 0.000000 0.000000 0.015247 0.000000 0.031895
#
#
# Mechanical properties :
#
#
# Convention : Reuss Voigt Hill
#
# Bulk Modulus (GPa) = 52.71857 60.55447 56.63652
# Shear Modulus (GPa) = 25.98333 34.06184 30.02258
#
# Velocity S-wave (km/s) = 3.35961 3.84658 3.61131
# Velocity P-wave (km/s) = 6.16034 6.78473 6.48006
#
# Compressibility (1/GPa) = 0.01896865
#
# Stress axis : x y z
#
# Youngs Moduli (GPa) = 82.52283 85.59263 71.81357
#
# Poissons Ratio (x) = 0.49935 -0.03734
# Poissons Ratio (y) = 0.48144 0.29190
# Poissons Ratio (z) = -0.04291 0.34791
#
# Static dielectric constant tensor:
#      x y z
#    x 1.840990 0.000000 0.049110 
#    y 0.000000 1.778680 0.000000 
#    z 0.049110 0.000000 1.993630 
# 
# From -- ./inp_files/40509.got.cif
#   From: 2010.05.17/outbox.cif.g08.bks.cpg/sg11_21_cif.got.tgz:40509.got - 2010.06.03 12:22:45.
