data_PCOD9157239
_publ_section_title
;
Structure prediction by ZEFSAII (Michael W. Deem and Ramdas Pophale) SiO2 
 PCOD9157239
Probable space group: P 21/M
;
_chemical_formula_sum "Si O2"
_cell_formula_units_Z 20
_cell_length_a 7.647283
_cell_length_b 8.991074
_cell_length_c 12.575731
_cell_angle_alpha 90.000000
_cell_angle_beta 73.986477
_cell_angle_gamma 90.000000
_cell_volume 831.120903
_symmetry_space_group_name_H-M "P 21/M"
_symmetry_group_IT_number 11
_symmetry_cell_setting 'monoclinic'
loop_
_space_group_symop_operation_xyz
x,y,z
-x,1/2+y,-z
-x,-y,-z
x,1/2-y,z
loop_
_atom_site_type_symbol
_atom_site_label
_atom_site_fract_x
_atom_site_fract_y
_atom_site_fract_z
Si Si1 0.976908 0.586013 0.715344
Si Si2 0.216593 0.077536 0.528032
Si Si3 0.501346 0.921149 0.324133
Si Si4 0.577543 0.917862 0.865211
Si Si5 0.884912 0.076055 0.927917
O O1 0.056698 0.750000 0.725259
O O2 0.049426 0.524225 0.593686
O O3 0.760786 0.601323 0.761877
O O4 0.999528 0.463754 0.803270
O O5 0.175141 0.250000 0.509981
O O6 0.335343 0.077271 0.618306
O O7 0.343279 0.001835 0.418672
O O8 0.447861 0.750000 0.311120
O O9 0.543098 0.996408 0.202237
O O10 0.519311 0.750000 0.902308
O O11 0.680908 0.006735 0.944353
O O12 0.872373 0.250000 0.945418
O O13 0.000000 0.000000 0.000000
#
# Coordination Sequence:
#
# PCOD9157239 Si02
#       5
#     4   4   4   4   4
#     4   9  19  33  50  75 100 129 166 205 246 291
#     4  10  20  33  50  72 100 136 171 203 244 293
#     4  10  20  33  50  72 100 136 171 203 244 293
#     4   9  19  33  50  75 100 129 166 205 246 291
#     4  10  18  32  53  76 101 128 160 202 248 296
#
# _framework density 24.063890000000001
#
# number of rings (size 3 to 8) (size 9 to 14) (size 15 to 20)
#    1.200    1.200    0.000    3.600    0.000    3.200 
#    0.000    0.000    0.000    1.200    0.000    0.000 
#    0.000    0.000    0.000    0.000    0.000    0.000 
#
# Total GULP energy -111509.082905 kJ/mol
# GULP energy per Si atom -5575.454145 kJ/mol
# Density = 2.400912 g / cm^3
# Si number density = 24.063890 Si / 1000 Ang^3
#
#
#
# Elastic Constant Matrix: (Units=GPa)
#
#
# Indices 1 2 3 4 5 6 
#
# 1 49.2703 24.1050 5.1377 0.0000 3.2995 0.0000
# 2 24.1050 184.4231 27.3423 0.0000 27.7067 0.0000
# 3 5.1377 27.3423 71.4302 0.0000 40.5069 0.0000
# 4 0.0000 0.0000 0.0000 39.8214 0.0000 2.8607
# 5 3.2995 27.7067 40.5069 0.0000 41.2831 0.0000
# 6 0.0000 0.0000 0.0000 2.8607 0.0000 25.1586
#
#
#
# Elastic Compliance Matrix: (Units=1/GPa)
#
#
# Indices 1 2 3 4 5 6 
#
# 1 0.021737 -0.002868 -0.001289 0.000000 0.001453 0.000000
# 2 -0.002868 0.006409 0.000140 0.000000 -0.004210 0.000000
# 3 -0.001289 0.000140 0.031637 0.000000 -0.031034 0.000000
# 4 0.000000 0.000000 0.000000 0.025319 0.000000 -0.002879
# 5 0.001453 -0.004210 -0.031034 0.000000 0.057382 0.000000
# 6 0.000000 0.000000 0.000000 -0.002879 0.000000 0.040075
#
#
# Mechanical properties :
#
#
# Convention : Reuss Voigt Hill
#
# Bulk Modulus (GPa) = 19.32426 46.47707 32.90066
# Shear Modulus (GPa) = 24.05659 37.82188 30.93923
#
# Velocity S-wave (km/s) = 3.16523 3.96880 3.58957
# Velocity P-wave (km/s) = 4.62667 6.35278 5.55715
#
# Compressibility (1/GPa) = 0.05174844
#
# Stress axis : x y z
#
# Youngs Moduli (GPa) = 46.00542 156.03476 31.60808
#
# Poissons Ratio (x) = 0.44753 0.04076
# Poissons Ratio (y) = 0.13195 -0.00444
# Poissons Ratio (z) = 0.05932 -0.02190
#
# Static dielectric constant tensor:
#      x y z
#    x 2.046280 0.000000 0.014820 
#    y 0.000000 1.917660 0.000000 
#    z 0.014820 0.000000 2.084880 
# 
# From -- ./inp_files/27357.got.cif
#   From: 2010.05.17/outbox.cif.g08.bks.cpg/sg11_14_cif.got.tgz:27357.got - 2010.06.03 12:22:45.
