data_PCOD9157902
_publ_section_title
;
Structure prediction by ZEFSAII (Michael W. Deem and Ramdas Pophale) SiO2 
 PCOD9157902
Probable space group: P 21/M
;
_chemical_formula_sum "Si O2"
_cell_formula_units_Z 32
_cell_length_a 12.519420
_cell_length_b 13.926969
_cell_length_c 14.514448
_cell_angle_alpha 90.000000
_cell_angle_beta 41.434861
_cell_angle_gamma 90.000000
_cell_volume 1674.739242
_symmetry_space_group_name_H-M "P 21/M"
_symmetry_group_IT_number 11
_symmetry_cell_setting 'monoclinic'
loop_
_space_group_symop_operation_xyz
x,y,z
-x,1/2+y,-z
-x,-y,-z
x,1/2-y,z
loop_
_atom_site_type_symbol
_atom_site_label
_atom_site_fract_x
_atom_site_fract_y
_atom_site_fract_z
Si Si1 0.250914 0.865722 0.896004
Si Si2 0.056697 0.634994 0.190040
Si Si3 0.724099 0.861852 0.501493
Si Si4 0.964220 0.359297 0.461610
Si Si5 0.623972 0.139753 0.578284
Si Si6 0.193332 0.970469 0.267008
Si Si7 0.555690 0.518341 0.756300
Si Si8 0.621175 0.136741 0.374399
O O1 0.273030 0.750000 0.879464
O O2 0.403054 0.912641 0.850074
O O3 0.262638 0.900003 0.782377
O O4 0.095577 0.886981 0.058548
O O5 0.077555 0.750000 0.188202
O O6 0.178135 0.578247 0.178074
O O7 0.878176 0.610432 0.341411
O O8 0.741123 0.750000 0.516559
O O9 0.699192 0.926320 0.607810
O O10 0.558689 0.870080 0.550756
O O11 0.020384 0.250000 0.435649
O O12 0.806316 0.359732 0.498598
O O13 0.900903 0.400631 0.600054
O O14 0.097262 0.429480 0.333663
O O15 0.565398 0.250000 0.614355
O O16 0.624621 0.096668 0.475047
O O17 0.524066 0.074880 0.713606
O O18 0.370526 0.987380 0.194369
O O19 0.659927 0.250000 0.361269
#
# Coordination Sequence:
#
# PCOD9157902 Si02
#       8
#     4   4   4   4   4   4   4   4
#     4   9  19  33  49  71  95 121 155 193 235 280
#     4  10  19  32  49  69  96 125 154 192 234 278
#     4   9  17  29  48  72  94 118 152 194 237 276
#     4   9  17  29  46  72 100 124 155 195 236 276
#     4   9  17  29  48  72  96 123 156 192 230 276
#     4  10  19  29  46  69  95 127 159 192 233 278
#     4  10  19  31  49  71  96 123 154 195 234 274
#     4   8  15  30  50  71  94 119 152 193 234 277
#
# _framework density 19.107451000000001
#
# number of rings (size 3 to 8) (size 9 to 14) (size 15 to 20)
#    0.000    2.750    0.000    3.750    0.000    5.000 
#    0.000    0.000    0.000    7.500    0.000    5.250 
#    0.000    0.000    0.000    0.000    0.000    0.000 
#
# Total GULP energy -178445.727327 kJ/mol
# GULP energy per Si atom -5576.428979 kJ/mol
# Density = 1.906396 g / cm^3
# Si number density = 19.107451 Si / 1000 Ang^3
#
#
#
# Elastic Constant Matrix: (Units=GPa)
#
#
# Indices 1 2 3 4 5 6 
#
# 1 40.9935 0.6547 3.7047 0.0000 16.8086 0.0000
# 2 0.6547 64.1019 6.9390 0.0000 2.4785 0.0000
# 3 3.7047 6.9390 56.3556 0.0000 4.5273 0.0000
# 4 0.0000 0.0000 0.0000 14.0379 0.0000 0.1533
# 5 16.8086 2.4785 4.5273 0.0000 12.4796 0.0000
# 6 0.0000 0.0000 0.0000 0.1533 0.0000 20.3379
#
#
#
# Elastic Compliance Matrix: (Units=1/GPa)
#
#
# Indices 1 2 3 4 5 6 
#
# 1 0.055077 0.002117 0.002175 0.000000 -0.075392 0.000000
# 2 0.002117 0.015969 -0.001670 0.000000 -0.005417 0.000000
# 3 0.002175 -0.001670 0.018557 0.000000 -0.009330 0.000000
# 4 0.000000 0.000000 0.000000 0.071241 0.000000 -0.000537
# 5 -0.075392 -0.005417 -0.009330 0.000000 0.186137 0.000000
# 6 0.000000 0.000000 0.000000 -0.000537 0.000000 0.049173
#
#
# Mechanical properties :
#
#
# Convention : Reuss Voigt Hill
#
# Bulk Modulus (GPa) = 10.54333 20.44977 15.49655
# Shear Modulus (GPa) = 11.83361 19.38126 15.60743
#
# Velocity S-wave (km/s) = 2.49131 3.18831 2.86111
# Velocity P-wave (km/s) = 3.71556 4.92742 4.36377
#
# Compressibility (1/GPa) = 0.09484667
#
# Stress axis : x y z
#
# Youngs Moduli (GPa) = 18.15642 62.62217 53.88903
#
# Poissons Ratio (x) = -0.13258 -0.11722
# Poissons Ratio (y) = -0.03844 0.09001
# Poissons Ratio (z) = -0.03950 0.10459
#
# Static dielectric constant tensor:
#      x y z
#    x 1.685820 0.000000 0.011910 
#    y 0.000000 1.696370 0.000000 
#    z 0.011910 0.000000 1.670270 
# 
# From -- ./inp_files/50379.got.cif
#   From: 2010.05.17/outbox.cif.g08.bks.cpg/sg11_26_cif.got.tgz:50379.got - 2010.06.03 12:22:45.
