data_PCOD9157193
_publ_section_title
;
Structure prediction by ZEFSAII (Michael W. Deem and Ramdas Pophale) SiO2 
 PCOD9157193
Probable space group: P 21/M
;
_chemical_formula_sum "Si O2"
_cell_formula_units_Z 28
_cell_length_a 16.938567
_cell_length_b 21.674458
_cell_length_c 8.317482
_cell_angle_alpha 90.000000
_cell_angle_beta 150.222133
_cell_angle_gamma 90.000000
_cell_volume 1516.552156
_symmetry_space_group_name_H-M "P 21/M"
_symmetry_group_IT_number 11
_symmetry_cell_setting 'monoclinic'
loop_
_space_group_symop_operation_xyz
x,y,z
-x,1/2+y,-z
-x,-y,-z
x,1/2-y,z
loop_
_atom_site_type_symbol
_atom_site_label
_atom_site_fract_x
_atom_site_fract_y
_atom_site_fract_z
Si Si1 0.987392 0.901699 0.201018
Si Si2 0.694635 0.177119 0.266019
Si Si3 0.724464 0.875732 0.974492
Si Si4 0.797795 0.999724 0.285172
Si Si5 0.739146 0.563665 0.504441
Si Si6 0.384316 0.180729 0.901028
Si Si7 0.469404 0.912169 0.269945
O O1 0.141813 0.860943 0.432103
O O2 0.045733 0.959791 0.411189
O O3 0.858055 0.862772 0.075524
O O4 0.899443 0.929074 0.889919
O O5 0.723282 0.250000 0.295823
O O6 0.572226 0.169115 0.199304
O O7 0.599809 0.147226 0.947282
O O8 0.565730 0.895001 0.598366
O O9 0.794751 0.933306 0.198923
O O10 0.672470 0.826696 0.016206
O O11 0.740493 0.987223 0.367744
O O12 0.676424 0.041564 0.969945
O O13 0.706216 0.629435 0.362029
O O14 0.596439 0.554741 0.377311
O O15 0.352137 0.250000 0.786556
#
# Coordination Sequence:
#
# PCOD9157193 Si02
#       7
#     4   4   4   4   4   4   4
#     4  10  20  33  51  77 105 132 164 204 251 298
#     4   9  19  36  54  72  97 130 169 210 249 293
#     4  10  20  33  51  77 105 132 164 204 251 298
#     4  10  18  32  50  74 105 136 163 202 247 296
#     4   9  18  32  52  76 100 132 171 206 243 292
#     4   9  19  36  54  72  97 130 169 210 249 293
#     4   9  18  32  52  76 100 132 171 206 243 292
#
# _framework density 18.462933
#
# number of rings (size 3 to 8) (size 9 to 14) (size 15 to 20)
#    0.000    2.571    0.000    1.714    0.000    2.857 
#    0.000   10.000    0.000    0.000    0.000    0.000 
#    0.000    0.000    0.000    0.000    0.000    0.000 
#
# Total GULP energy -155963.920574 kJ/mol
# GULP energy per Si atom -5570.140020 kJ/mol
# Density = 1.842091 g / cm^3
# Si number density = 18.462933 Si / 1000 Ang^3
#
#
#
# Elastic Constant Matrix: (Units=GPa)
#
#
# Indices 1 2 3 4 5 6 
#
# 1 34.1037 3.5224 9.4667 0.0000 1.6225 0.0000
# 2 3.5224 49.1565 11.9638 0.0000 11.9625 0.0000
# 3 9.4667 11.9638 95.9566 0.0000 6.4003 0.0000
# 4 0.0000 0.0000 0.0000 13.3767 0.0000 4.1159
# 5 1.6225 11.9625 6.4003 0.0000 13.3564 0.0000
# 6 0.0000 0.0000 0.0000 4.1159 0.0000 15.0570
#
#
#
# Elastic Compliance Matrix: (Units=1/GPa)
#
#
# Indices 1 2 3 4 5 6 
#
# 1 0.030270 -0.001183 -0.002752 0.000000 -0.001298 0.000000
# 2 -0.001183 0.026345 -0.001657 0.000000 -0.022658 0.000000
# 3 -0.002752 -0.001657 0.011134 0.000000 -0.003517 0.000000
# 4 0.000000 0.000000 0.000000 0.081622 0.000000 -0.022312
# 5 -0.001298 -0.022658 -0.003517 0.000000 0.097007 0.000000
# 6 0.000000 0.000000 0.000000 -0.022312 0.000000 0.072514
#
#
# Mechanical properties :
#
#
# Convention : Reuss Voigt Hill
#
# Bulk Modulus (GPa) = 17.67870 25.45808 21.56839
# Shear Modulus (GPa) = 14.32945 18.64227 16.48586
#
# Velocity S-wave (km/s) = 2.78892 3.18105 2.99141
# Velocity P-wave (km/s) = 4.46842 5.22597 4.86197
#
# Compressibility (1/GPa) = 0.05656526
#
# Stress axis : x y z
#
# Youngs Moduli (GPa) = 33.03566 37.95756 89.81456
#
# Poissons Ratio (x) = 0.04491 0.24719
# Poissons Ratio (y) = 0.03909 0.14879
# Poissons Ratio (z) = 0.09092 0.06288
#
# Static dielectric constant tensor:
#      x y z
#    x 1.672160 0.000000 0.017400 
#    y 0.000000 1.621220 0.000000 
#    z 0.017400 0.000000 1.622890 
# 
# From -- ./inp_files/19596.got.cif
#   From: 2010.05.17/outbox.cif.g08.bks.cpg/sg11_10_cif.got.tgz:19596.got - 2010.06.03 12:22:45.
