data_PCOD9157191
_publ_section_title
;
Structure prediction by ZEFSAII (Michael W. Deem and Ramdas Pophale) SiO2 
 PCOD9157191
Probable space group: P 21/M
;
_chemical_formula_sum "Si O2"
_cell_formula_units_Z 20
_cell_length_a 15.918697
_cell_length_b 15.181376
_cell_length_c 13.551456
_cell_angle_alpha 90.000000
_cell_angle_beta 17.372728
_cell_angle_gamma 90.000000
_cell_volume 977.855894
_symmetry_space_group_name_H-M "P 21/M"
_symmetry_group_IT_number 11
_symmetry_cell_setting 'monoclinic'
loop_
_space_group_symop_operation_xyz
x,y,z
-x,1/2+y,-z
-x,-y,-z
x,1/2-y,z
loop_
_atom_site_type_symbol
_atom_site_label
_atom_site_fract_x
_atom_site_fract_y
_atom_site_fract_z
Si Si1 0.705855 0.540946 0.189295
Si Si2 0.759291 0.148632 0.399242
Si Si3 0.554028 0.910715 0.879092
Si Si4 0.149121 0.963963 0.171987
Si Si5 0.892207 0.153925 0.480309
O O1 0.500000 0.500000 0.500000
O O2 0.524439 0.610984 0.329019
O O3 0.811616 0.471385 0.988990
O O4 0.976835 0.589415 0.929940
O O5 0.796936 0.250000 0.329541
O O6 0.767649 0.143345 0.509335
O O7 0.360811 0.845185 0.157490
O O8 0.887145 0.902599 0.496280
O O9 0.500000 0.000000 0.000000
O O10 0.423485 0.928510 0.918255
O O11 0.073808 0.064625 0.292514
O O12 0.040186 0.250000 0.318004
#
# Coordination Sequence:
#
# PCOD9157191 Si02
#       5
#     4   4   4   4   4
#     4  11  21  36  58  81 103 141 186 224 262 316
#     4  10  21  36  55  83 112 133 168 227 280 315
#     4  10  18  32  50  72 104 139 164 199 255 315
#     4  10  20  34  50  74 105 136 172 214 257 301
#     4   9  18  32  53  80 106 135 171 212 263 317
#
# _framework density 20.452912000000001
#
# number of rings (size 3 to 8) (size 9 to 14) (size 15 to 20)
#    0.000    2.000    0.000    7.200    0.000    2.400 
#    0.000   13.000    0.000    7.200    0.000    0.000 
#    0.000    0.000    0.000    0.000    0.000    0.000 
#
# Total GULP energy -111662.450911 kJ/mol
# GULP energy per Si atom -5583.122546 kJ/mol
# Density = 2.040636 g / cm^3
# Si number density = 20.452912 Si / 1000 Ang^3
#
#
#
# Elastic Constant Matrix: (Units=GPa)
#
#
# Indices 1 2 3 4 5 6 
#
# 1 26.7291 1.1702 3.9476 0.0000 -3.1567 0.0000
# 2 1.1702 48.5584 6.6256 0.0000 9.7795 0.0000
# 3 3.9476 6.6256 86.5938 0.0000 13.1248 0.0000
# 4 0.0000 0.0000 0.0000 20.6084 0.0000 -5.2999
# 5 -3.1567 9.7795 13.1248 0.0000 43.5202 0.0000
# 6 0.0000 0.0000 0.0000 -5.2999 0.0000 12.1201
#
#
#
# Elastic Compliance Matrix: (Units=1/GPa)
#
#
# Indices 1 2 3 4 5 6 
#
# 1 0.038241 -0.001375 -0.002206 0.000000 0.003748 0.000000
# 2 -0.001375 0.021696 -0.000884 0.000000 -0.004709 0.000000
# 3 -0.002206 -0.000884 0.012271 0.000000 -0.003662 0.000000
# 4 0.000000 0.000000 0.000000 0.054672 0.000000 0.023907
# 5 0.003748 -0.004709 -0.003662 0.000000 0.025412 0.000000
# 6 0.000000 0.000000 0.000000 0.023907 0.000000 0.092962
#
#
# Mechanical properties :
#
#
# Convention : Reuss Voigt Hill
#
# Bulk Modulus (GPa) = 15.80333 20.59646 18.19989
# Shear Modulus (GPa) = 18.16346 25.25892 21.71119
#
# Velocity S-wave (km/s) = 2.98327 3.51804 3.26163
# Velocity P-wave (km/s) = 4.42832 5.15695 4.80646
#
# Compressibility (1/GPa) = 0.06327781
#
# Stress axis : x y z
#
# Youngs Moduli (GPa) = 26.14986 46.09194 81.48997
#
# Poissons Ratio (x) = 0.06340 0.17978
# Poissons Ratio (y) = 0.03597 0.07201
# Poissons Ratio (z) = 0.05769 0.04073
#
# Static dielectric constant tensor:
#      x y z
#    x 1.729150 0.000000 0.008170 
#    y 0.000000 1.762680 0.000000 
#    z 0.008170 0.000000 1.755460 
# 
# From -- ./inp_files/39816.got.cif
#   From: 2010.05.17/outbox.cif.g08.bks.cpg/sg11_20_cif.got.tgz:39816.got - 2010.06.03 12:22:45.
