data_PCOD9157910
_publ_section_title
;
Structure prediction by ZEFSAII (Michael W. Deem and Ramdas Pophale) SiO2 
 PCOD9157910
Probable space group: P 21/M
;
_chemical_formula_sum "Si O2"
_cell_formula_units_Z 32
_cell_length_a 6.568740
_cell_length_b 12.624421
_cell_length_c 19.557224
_cell_angle_alpha 90.000000
_cell_angle_beta 107.681819
_cell_angle_gamma 90.000000
_cell_volume 1545.195069
_symmetry_space_group_name_H-M "P 21/M"
_symmetry_group_IT_number 11
_symmetry_cell_setting 'monoclinic'
loop_
_space_group_symop_operation_xyz
x,y,z
-x,1/2+y,-z
-x,-y,-z
x,1/2-y,z
loop_
_atom_site_type_symbol
_atom_site_label
_atom_site_fract_x
_atom_site_fract_y
_atom_site_fract_z
Si Si1 0.754179 0.059286 0.733722
Si Si2 0.960070 0.041271 0.889232
Si Si3 0.395020 0.071237 0.594880
Si Si4 0.301835 0.631025 0.883430
Si Si5 0.375296 0.369094 0.440313
Si Si6 0.249605 0.370338 0.033331
Si Si7 0.049332 0.511448 0.645601
Si Si8 0.538776 0.370687 0.254692
O O1 0.558643 0.109311 0.670606
O O2 0.658583 0.943324 0.743209
O O3 0.833007 0.099247 0.815319
O O4 0.946978 0.048456 0.699878
O O5 0.127021 0.958735 0.872649
O O6 0.816182 0.965105 0.922403
O O7 0.097270 0.115904 0.952584
O O8 0.416725 0.130480 0.525690
O O9 0.466196 0.951312 0.580513
O O10 0.157898 0.065992 0.601381
O O11 0.211079 0.750000 0.880990
O O12 0.497936 0.618786 0.956330
O O13 0.415801 0.624237 0.821517
O O14 0.390623 0.250000 0.415768
O O15 0.141104 0.418706 0.404534
O O16 0.222647 0.250000 0.058291
O O17 0.244739 0.583665 0.690528
O O18 0.501547 0.250000 0.269612
#
# Coordination Sequence:
#
# PCOD9157910 Si02
#       8
#     4   4   4   4   4   4   4   4
#     4  10  20  33  51  77 104 140 173 213 264 313
#     4  11  20  35  57  77 102 143 178 210 266 319
#     4   9  21  37  53  80 112 137 172 220 260 302
#     4  10  19  32  51  78 106 133 167 211 260 314
#     4  10  20  36  57  78 106 144 179 212 255 309
#     4  10  22  37  53  77 107 136 177 224 259 307
#     4  10  19  33  52  77 108 137 174 214 264 314
#     4  10  19  29  46  76 110 135 165 212 261 314
#
# _framework density 20.70936
#
# number of rings (size 3 to 8) (size 9 to 14) (size 15 to 20)
#    0.000    2.000    2.500    1.500    0.000    6.000 
#    0.000    0.625    0.000    0.750    0.000    0.000 
#    0.000    0.000    0.000    0.000    0.000    0.000 
#
# Total GULP energy -178555.212844 kJ/mol
# GULP energy per Si atom -5579.850401 kJ/mol
# Density = 2.066222 g / cm^3
# Si number density = 20.709360 Si / 1000 Ang^3
#
#
#
# Elastic Constant Matrix: (Units=GPa)
#
#
# Indices 1 2 3 4 5 6 
#
# 1 70.6886 3.5219 -3.0896 0.0000 -11.3497 0.0000
# 2 3.5219 28.3975 -4.8654 0.0000 -1.9619 0.0000
# 3 -3.0896 -4.8654 108.1270 0.0000 4.9858 0.0000
# 4 0.0000 0.0000 0.0000 7.9470 0.0000 -3.4912
# 5 -11.3497 -1.9619 4.9858 0.0000 25.7313 0.0000
# 6 0.0000 0.0000 0.0000 -3.4912 0.0000 42.5655
#
#
#
# Elastic Compliance Matrix: (Units=1/GPa)
#
#
# Indices 1 2 3 4 5 6 
#
# 1 0.015283 -0.001427 0.000067 0.000000 0.006620 0.000000
# 2 -0.001427 0.035771 0.001485 0.000000 0.001810 0.000000
# 3 0.000067 0.001485 0.009394 0.000000 -0.001677 0.000000
# 4 0.000000 0.000000 0.000000 0.130537 0.000000 0.010706
# 5 0.006620 0.001810 -0.001677 0.000000 0.042246 0.000000
# 6 0.000000 0.000000 0.000000 0.010706 0.000000 0.024371
#
#
# Mechanical properties :
#
#
# Convention : Reuss Voigt Hill
#
# Bulk Modulus (GPa) = 16.47426 22.03855 19.25640
# Shear Modulus (GPa) = 18.01254 29.35849 23.68551
#
# Velocity S-wave (km/s) = 2.95240 3.76925 3.38555
# Velocity P-wave (km/s) = 4.42656 5.44131 4.95996
#
# Compressibility (1/GPa) = 0.06070076
#
# Stress axis : x y z
#
# Youngs Moduli (GPa) = 65.43043 27.95568 106.44542
#
# Poissons Ratio (x) = 0.03988 -0.00716
# Poissons Ratio (y) = 0.09335 -0.15811
# Poissons Ratio (z) = -0.00440 -0.04152
#
# Static dielectric constant tensor:
#      x y z
#    x 1.718170 0.000000 0.006010 
#    y 0.000000 1.711560 0.000000 
#    z 0.006010 0.000000 1.824590 
# 
# From -- ./inp_files/62859.got.cif
#   From: 2010.05.17/outbox.cif.g08.bks.cpg/sg11_32_cif.got.tgz:62859.got - 2010.06.03 12:22:45.
