data_PCOD9157791
_publ_section_title
;
Structure prediction by ZEFSAII (Michael W. Deem and Ramdas Pophale) SiO2 
 PCOD9157791
Probable space group: P 21/M
;
_chemical_formula_sum "Si O2"
_cell_formula_units_Z 16
_cell_length_a 8.753439
_cell_length_b 16.757672
_cell_length_c 8.944676
_cell_angle_alpha 90.000000
_cell_angle_beta 34.275328
_cell_angle_gamma 90.000000
_cell_volume 738.918825
_symmetry_space_group_name_H-M "P 21/M"
_symmetry_group_IT_number 11
_symmetry_cell_setting 'monoclinic'
loop_
_space_group_symop_operation_xyz
x,y,z
-x,1/2+y,-z
-x,-y,-z
x,1/2-y,z
loop_
_atom_site_type_symbol
_atom_site_label
_atom_site_fract_x
_atom_site_fract_y
_atom_site_fract_z
Si Si1 0.740789 0.750000 0.806873
Si Si2 0.151139 0.509886 0.033699
Si Si3 0.709944 0.417568 0.572028
Si Si4 0.281056 0.658090 0.106683
Si Si5 0.358480 0.750000 0.407423
O O1 0.607522 0.674362 0.831039
O O2 0.050104 0.750000 0.594993
O O3 0.583233 0.750000 0.094332
O O4 0.977183 0.458463 0.292436
O O5 0.455547 0.476452 0.778169
O O6 0.165692 0.601117 0.074987
O O7 0.000000 0.500000 0.000000
O O8 0.628142 0.339086 0.538318
O O9 0.753450 0.386158 0.706331
O O10 0.173333 0.750000 0.189097
#
# Coordination Sequence:
#
# PCOD9157791 Si02
#       5
#     2   4   4   4   2
#     4   8  18  32  60  84 132 144 215 266 327 350
#     4  12  26  43  64 100 140 177 210 268 338 401
#     4  11  22  43  70  91 131 169 232 271 320 385
#     4   9  21  44  66 100 127 172 225 280 322 380
#     4  10  18  38  60 102 112 164 207 288 303 378
#
# _framework density 21.653255999999999
#
# number of rings (size 3 to 8) (size 9 to 14) (size 15 to 20)
#    0.750    1.000    1.250    5.250    0.000    4.000 
#    4.500    0.000    0.000    0.000    0.000    0.000 
#    0.000    0.000    0.000    0.000    0.000    0.000 
#
# Total GULP energy -89157.837808 kJ/mol
# GULP energy per Si atom -5572.364863 kJ/mol
# Density = 2.160397 g / cm^3
# Si number density = 21.653256 Si / 1000 Ang^3
#
#
#
# Elastic Constant Matrix: (Units=GPa)
#
#
# Indices 1 2 3 4 5 6 
#
# 1 76.2822 26.7667 3.4040 0.0000 11.8267 0.0000
# 2 26.7667 115.6296 -0.3535 0.0000 11.6279 0.0000
# 3 3.4040 -0.3535 63.5649 0.0000 -14.3565 0.0000
# 4 0.0000 0.0000 0.0000 33.9179 0.0000 -7.3494
# 5 11.8267 11.6279 -14.3565 0.0000 12.7401 0.0000
# 6 0.0000 0.0000 0.0000 -7.3494 0.0000 10.0422
#
#
#
# Elastic Compliance Matrix: (Units=1/GPa)
#
#
# Indices 1 2 3 4 5 6 
#
# 1 0.017211 -0.001943 -0.005554 0.000000 -0.020462 0.000000
# 2 -0.001943 0.010063 -0.002021 0.000000 -0.009658 0.000000
# 3 -0.005554 -0.002021 0.023608 0.000000 0.033603 0.000000
# 4 0.000000 0.000000 0.000000 0.035039 0.000000 0.025644
# 5 -0.020462 -0.009658 0.033603 0.000000 0.144169 0.000000
# 6 0.000000 0.000000 0.000000 0.025644 0.000000 0.118347
#
#
# Mechanical properties :
#
#
# Convention : Reuss Voigt Hill
#
# Bulk Modulus (GPa) = 31.40242 35.01233 33.20737
# Shear Modulus (GPa) = 13.22437 26.38403 19.80420
#
# Velocity S-wave (km/s) = 2.47398 3.49446 3.02753
# Velocity P-wave (km/s) = 4.76389 5.69968 5.25266
#
# Compressibility (1/GPa) = 0.03184468
#
# Stress axis : x y z
#
# Youngs Moduli (GPa) = 58.10096 99.37120 42.35922
#
# Poissons Ratio (x) = 0.19313 0.23526
# Poissons Ratio (y) = 0.11292 0.08562
# Poissons Ratio (z) = 0.32269 0.20086
#
# Static dielectric constant tensor:
#      x y z
#    x 1.780490 0.000000 0.016450 
#    y 0.000000 1.901260 0.000000 
#    z 0.016450 0.000000 1.828770 
# 
# From -- ./inp_files/13398.got.cif
#   From: 2010.05.17/outbox.cif.g08.bks.cpg/sg11_7_cif.got.tgz:13398.got - 2010.06.03 12:22:45.
