data_PCOD9157188
_publ_section_title
;
Structure prediction by ZEFSAII (Michael W. Deem and Ramdas Pophale) SiO2 
 PCOD9157188
Probable space group: P 21/M
;
_chemical_formula_sum "Si O2"
_cell_formula_units_Z 32
_cell_length_a 16.190209
_cell_length_b 8.286632
_cell_length_c 14.735228
_cell_angle_alpha 90.000000
_cell_angle_beta 91.194073
_cell_angle_gamma 90.000000
_cell_volume 1976.482841
_symmetry_space_group_name_H-M "P 21/M"
_symmetry_group_IT_number 11
_symmetry_cell_setting 'monoclinic'
loop_
_space_group_symop_operation_xyz
x,y,z
-x,1/2+y,-z
-x,-y,-z
x,1/2-y,z
loop_
_atom_site_type_symbol
_atom_site_label
_atom_site_fract_x
_atom_site_fract_y
_atom_site_fract_z
Si Si1 0.654656 0.444419 0.291489
Si Si2 0.332155 0.555146 0.283217
Si Si3 0.991832 0.942976 0.395650
Si Si4 0.596195 0.942578 0.101295
Si Si5 0.827764 0.447194 0.613373
Si Si6 0.184610 0.555864 0.597143
Si Si7 0.405166 0.944834 0.096632
Si Si8 0.508033 0.943716 0.603523
O O1 0.655056 0.250000 0.296404
O O2 0.648262 0.493619 0.186783
O O3 0.736637 0.503647 0.344761
O O4 0.571812 0.501269 0.341209
O O5 0.328651 0.750000 0.280713
O O6 0.246367 0.496519 0.324421
O O7 0.352766 0.498514 0.181819
O O8 0.408636 0.507748 0.348766
O O9 0.988524 0.750000 0.393100
O O10 0.079475 0.995464 0.354968
O O11 0.903585 0.008502 0.362199
O O12 0.000000 0.000000 0.500000
O O13 0.595445 0.750000 0.104333
O O14 0.500660 0.000230 0.110031
O O15 0.624261 0.997750 0.002411
O O16 0.826381 0.250000 0.612540
O O17 0.813104 0.499340 0.508287
O O18 0.188012 0.750000 0.594450
O O19 0.405728 0.750000 0.096653
O O20 0.509245 0.750000 0.605932
O O21 0.500000 0.000000 0.500000
#
# Coordination Sequence:
#
# PCOD9157188 Si02
#       8
#     4   4   4   4   4   4   4   4
#     4  10  20  33  48  66  92 125 158 190 231 276
#     4  10  18  32  50  68  91 121 157 191 224 271
#     4   9  16  28  45  66  90 119 152 189 230 268
#     4  10  19  31  48  69  91 117 153 196 234 271
#     4   8  15  28  47  67  92 122 152 184 224 271
#     4   9  17  30  46  66  91 123 156 187 226 271
#     4   9  18  31  48  68  90 119 152 190 234 276
#     4  11  22  33  45  63  92 128 159 189 222 264
#
# _framework density 16.190377000000002
#
# number of rings (size 3 to 8) (size 9 to 14) (size 15 to 20)
#    0.000    2.500    1.250    2.625    0.000    4.000 
#    0.000    5.625    0.000    0.000    0.000    0.875 
#    0.000    0.000    0.000    0.000    0.000    0.000 
#
# Total GULP energy -178356.642879 kJ/mol
# GULP energy per Si atom -5573.645090 kJ/mol
# Density = 1.615353 g / cm^3
# Si number density = 16.190377 Si / 1000 Ang^3
#
#
#
# Elastic Constant Matrix: (Units=GPa)
#
#
# Indices 1 2 3 4 5 6 
#
# 1 128.6956 7.6722 60.4680 0.0000 -21.4126 0.0000
# 2 7.6722 5.5596 5.8867 0.0000 -4.6715 0.0000
# 3 60.4680 5.8867 106.7485 0.0000 -16.0121 0.0000
# 4 0.0000 0.0000 0.0000 19.5668 0.0000 3.2157
# 5 -21.4126 -4.6715 -16.0121 0.0000 12.6672 0.0000
# 6 0.0000 0.0000 0.0000 3.2157 0.0000 20.6832
#
#
#
# Elastic Compliance Matrix: (Units=1/GPa)
#
#
# Indices 1 2 3 4 5 6 
#
# 1 0.012564 0.000712 -0.004851 0.000000 0.015369 0.000000
# 2 0.000712 0.260673 -0.000220 0.000000 0.097058 0.000000
# 3 -0.004851 -0.000220 0.013433 0.000000 0.008698 0.000000
# 4 0.000000 0.000000 0.000000 0.052447 0.000000 -0.008154
# 5 0.015369 0.097058 0.008698 0.000000 0.151713 0.000000
# 6 0.000000 0.000000 0.000000 -0.008154 0.000000 0.049616
#
#
# Mechanical properties :
#
#
# Convention : Reuss Voigt Hill
#
# Bulk Modulus (GPa) = 3.59774 43.22861 23.41317
# Shear Modulus (GPa) = 7.79041 21.71522 14.75282
#
# Velocity S-wave (km/s) = 2.19595 3.66627 3.02190
# Velocity P-wave (km/s) = 2.94221 6.68433 5.16414
#
# Compressibility (1/GPa) = 0.27795240
#
# Stress axis : x y z
#
# Youngs Moduli (GPa) = 79.59110 3.83622 74.44625
#
# Poissons Ratio (x) = -0.00273 0.36113
# Poissons Ratio (y) = -0.05665 0.01635
# Poissons Ratio (z) = 0.38609 0.00084
#
# Static dielectric constant tensor:
#      x y z
#    x 1.563000 0.000000 -0.014480 
#    y 0.000000 1.565990 0.000000 
#    z -0.014480 0.000000 1.525060 
# 
# From -- ./inp_files/51298.got.cif
#   From: 2010.05.17/outbox.cif.g08.bks.cpg/sg11_26_cif.got.tgz:51298.got - 2010.06.03 12:22:45.
