data_PCOD9157842
_publ_section_title
;
Structure prediction by ZEFSAII (Michael W. Deem and Ramdas Pophale) SiO2 
 PCOD9157842
Probable space group: P 21/M
;
_chemical_formula_sum "Si O2"
_cell_formula_units_Z 32
_cell_length_a 22.087676
_cell_length_b 9.366840
_cell_length_c 34.844402
_cell_angle_alpha 90.000000
_cell_angle_beta 18.155719
_cell_angle_gamma 90.000000
_cell_volume 2246.334782
_symmetry_space_group_name_H-M "P 21/M"
_symmetry_group_IT_number 11
_symmetry_cell_setting 'monoclinic'
loop_
_space_group_symop_operation_xyz
x,y,z
-x,1/2+y,-z
-x,-y,-z
x,1/2-y,z
loop_
_atom_site_type_symbol
_atom_site_label
_atom_site_fract_x
_atom_site_fract_y
_atom_site_fract_z
Si Si1 0.546313 0.587292 0.030589
Si Si2 0.889310 0.579660 0.349947
Si Si3 0.297139 0.085848 0.808694
Si Si4 0.535924 0.080995 0.361047
Si Si5 0.875719 0.085704 0.020094
Si Si6 0.220705 0.086537 0.190989
Si Si7 0.947510 0.921453 0.822183
Si Si8 0.059670 0.920067 0.841344
O O1 0.483756 0.750000 0.075977
O O2 0.364006 0.483806 0.135679
O O3 0.657475 0.588157 0.922433
O O4 0.717624 0.545181 0.956558
O O5 0.921916 0.750000 0.328183
O O6 0.667491 0.553025 0.495680
O O7 0.034137 0.509103 0.293753
O O8 0.941119 0.506375 0.278186
O O9 0.351209 0.250000 0.782818
O O10 0.084486 0.085308 0.916323
O O11 0.436235 0.008400 0.694517
O O12 0.269571 0.999159 0.864589
O O13 0.545876 0.250000 0.345898
O O14 0.720047 0.049065 0.277616
O O15 0.818082 0.250000 0.049587
O O16 0.917430 0.005866 0.955161
O O17 0.170205 0.250000 0.230373
O O18 0.966247 0.750000 0.803975
O O19 0.025357 0.954119 0.817548
O O20 0.028050 0.750000 0.865492
#
# Coordination Sequence:
#
# PCOD9157842 Si02
#       8
#     4   4   4   4   4   4   4   4
#     4   8  14  25  40  58  78 100 129 166 209 250
#     4  10  19  29  41  58  82 112 143 174 207 242
#     4   9  16  26  42  61  79 103 134 169 210 250
#     4   9  18  30  42  58  82 112 143 174 206 239
#     4   9  16  26  41  61  82 103 131 169 211 250
#     4   9  16  26  41  59  77 100 131 168 210 250
#     4   9  18  30  43  59  81 111 143 174 206 240
#     4   9  17  30  44  58  81 112 144 174 203 239
#
# _framework density 14.245426999999999
#
# number of rings (size 3 to 8) (size 9 to 14) (size 15 to 20)
#    0.000    3.000    0.000    2.250    0.000    8.000 
#    0.000    0.000    0.000    0.000    0.000    0.000 
#    0.000    1.000    0.000    3.000    0.000    4.250 
#
# Total GULP energy -178158.786836 kJ/mol
# GULP energy per Si atom -5567.462089 kJ/mol
# Density = 1.421300 g / cm^3
# Si number density = 14.245427 Si / 1000 Ang^3
#
#
#
# Elastic Constant Matrix: (Units=GPa)
#
#
# Indices 1 2 3 4 5 6 
#
# 1 64.8568 59.6824 64.2634 0.0000 -0.9326 0.0000
# 2 59.6824 89.9942 62.2932 0.0000 5.6775 0.0000
# 3 64.2634 62.2932 68.0032 0.0000 7.7207 0.0000
# 4 0.0000 0.0000 0.0000 21.8974 0.0000 2.4479
# 5 -0.9326 5.6775 7.7207 0.0000 11.6896 0.0000
# 6 0.0000 0.0000 0.0000 2.4479 0.0000 19.3241
#
#
#
# Elastic Compliance Matrix: (Units=1/GPa)
#
#
# Indices 1 2 3 4 5 6 
#
# 1 -0.468081 -0.003525 0.486062 0.000000 -0.356663 0.000000
# 2 -0.003525 0.030506 -0.024756 0.000000 0.001253 0.000000
# 3 0.486062 -0.024756 -0.462389 0.000000 0.356198 0.000000
# 4 0.000000 0.000000 0.000000 0.046324 0.000000 -0.005868
# 5 -0.356663 0.001253 0.356198 0.000000 -0.178777 0.000000
# 6 0.000000 0.000000 0.000000 -0.005868 0.000000 0.052492
#
#
# Mechanical properties :
#
#
# Convention : Reuss Voigt Hill
#
# Bulk Modulus (GPa) = 64.11261 66.14803 65.13032
# Shear Modulus (GPa) = -2.64510 13.02323 5.18906
#
# Velocity S-wave (km/s) = -1.36413 3.02686 1.91063
# Velocity P-wave (km/s) = 6.52858 7.66493 7.11946
#
# Compressibility (1/GPa) = 0.01559755
#
# Stress axis : x y z
#
# Youngs Moduli (GPa) = -2.13638 32.78002 -2.16268
#
# Poissons Ratio (x) = 0.11554 1.05120
# Poissons Ratio (y) = -0.00753 -0.05354
# Poissons Ratio (z) = 1.03841 0.81151
#
# Static dielectric constant tensor:
#      x y z
#    x 1.460740 0.000000 -0.010210 
#    y 0.000000 1.482490 0.000000 
#    z -0.010210 0.000000 1.446870 
# 
# From -- ./inp_files/51412.got.cif
#   From: 2010.05.17/outbox.cif.g08.bks.cpg/sg11_26_cif.got.tgz:51412.got - 2010.06.03 12:22:45.
