data_PCOD9157876
_publ_section_title
;
Structure prediction by ZEFSAII (Michael W. Deem and Ramdas Pophale) SiO2 
 PCOD9157876
Probable space group: P 21/M
;
_chemical_formula_sum "Si O2"
_cell_formula_units_Z 32
_cell_length_a 26.986156
_cell_length_b 9.025417
_cell_length_c 13.928489
_cell_angle_alpha 90.000000
_cell_angle_beta 139.695340
_cell_angle_gamma 90.000000
_cell_volume 2194.406619
_symmetry_space_group_name_H-M "P 21/M"
_symmetry_group_IT_number 11
_symmetry_cell_setting 'monoclinic'
loop_
_space_group_symop_operation_xyz
x,y,z
-x,1/2+y,-z
-x,-y,-z
x,1/2-y,z
loop_
_atom_site_type_symbol
_atom_site_label
_atom_site_fract_x
_atom_site_fract_y
_atom_site_fract_z
Si Si1 0.380987 0.574273 0.868217
Si Si2 0.619744 0.925321 0.717834
Si Si3 0.756581 0.071595 0.034955
Si Si4 0.236639 0.073439 0.744683
Si Si5 0.522688 0.073447 0.178998
Si Si6 0.545492 0.425890 0.430520
Si Si7 0.926991 0.080157 0.273085
Si Si8 0.079688 0.580744 0.503368
O O1 0.370103 0.750000 0.864867
O O2 0.303152 0.488669 0.775072
O O3 0.414906 0.547200 0.811955
O O4 0.446630 0.515013 0.037197
O O5 0.635211 0.750000 0.740762
O O6 0.542223 0.950933 0.665151
O O7 0.599427 0.983613 0.581780
O O8 0.689302 0.012911 0.868462
O O9 0.754241 0.250000 0.042069
O O10 0.841134 0.032387 0.119104
O O11 0.749635 0.997586 0.129586
O O12 0.239230 0.250000 0.755384
O O13 0.152908 0.018880 0.587391
O O14 0.495233 0.750000 0.847622
O O15 0.551075 0.034265 0.327026
O O16 0.560809 0.250000 0.464257
O O17 0.939396 0.250000 0.261295
O O18 0.925333 0.079353 0.387406
O O19 0.998507 0.981346 0.347619
O O20 0.092316 0.750000 0.492278
#
# Coordination Sequence:
#
# PCOD9157876 Si02
#       8
#     4   4   4   4   4   4   4   4
#     4  10  19  30  45  65  87 111 144 182 217 255
#     4  10  19  29  44  66  88 111 142 178 214 254
#     4  10  19  30  44  62  86 115 146 179 213 251
#     4  11  20  29  42  60  86 117 147 179 214 253
#     4   9  18  32  48  64  84 113 146 180 217 255
#     4   9  18  32  46  60  83 114 145 177 214 254
#     4   8  15  26  39  57  81 110 141 171 207 250
#     4   9  16  26  40  58  81 110 143 175 208 248
#
# _framework density 14.582528999999999
#
# number of rings (size 3 to 8) (size 9 to 14) (size 15 to 20)
#    0.000    2.500    0.000    4.125    0.000    6.000 
#    0.000    0.000    0.000    0.000    0.000    0.000 
#    0.000    1.000    0.000    3.000    0.000    4.250 
#
# Total GULP energy -178381.965164 kJ/mol
# GULP energy per Si atom -5574.436411 kJ/mol
# Density = 1.454934 g / cm^3
# Si number density = 14.582529 Si / 1000 Ang^3
#
#
#
# Elastic Constant Matrix: (Units=GPa)
#
#
# Indices 1 2 3 4 5 6 
#
# 1 60.9022 47.3841 36.0953 0.0000 11.6556 0.0000
# 2 47.3841 83.3784 43.9153 0.0000 15.2642 0.0000
# 3 36.0953 43.9153 70.1347 0.0000 10.7769 0.0000
# 4 0.0000 0.0000 0.0000 24.7473 0.0000 4.9726
# 5 11.6556 15.2642 10.7769 0.0000 24.7344 0.0000
# 6 0.0000 0.0000 0.0000 4.9726 0.0000 20.6716
#
#
#
# Elastic Compliance Matrix: (Units=1/GPa)
#
#
# Indices 1 2 3 4 5 6 
#
# 1 0.032170 -0.013742 -0.007422 0.000000 -0.003445 0.000000
# 2 -0.013742 0.024832 -0.007627 0.000000 -0.005526 0.000000
# 3 -0.007422 -0.007627 0.023143 0.000000 -0.001879 0.000000
# 4 0.000000 0.000000 0.000000 0.042461 0.000000 -0.010214
# 5 -0.003445 -0.005526 -0.001879 0.000000 0.046281 0.000000
# 6 0.000000 0.000000 0.000000 -0.010214 0.000000 0.050833
#
#
# Mechanical properties :
#
#
# Convention : Reuss Voigt Hill
#
# Bulk Modulus (GPa) = 44.32381 52.13385 48.22883
# Shear Modulus (GPa) = 17.55472 19.83203 18.69338
#
# Velocity S-wave (km/s) = 3.47337 3.69180 3.58425
# Velocity P-wave (km/s) = 6.82253 7.34854 7.09041
#
# Compressibility (1/GPa) = 0.02256124
#
# Stress axis : x y z
#
# Youngs Moduli (GPa) = 31.08474 40.27055 43.21013
#
# Poissons Ratio (x) = 0.55341 0.32072
# Poissons Ratio (y) = 0.42718 0.32957
# Poissons Ratio (z) = 0.23072 0.30715
#
# Static dielectric constant tensor:
#      x y z
#    x 1.475200 0.000000 0.012380 
#    y 0.000000 1.490140 0.000000 
#    z 0.012380 0.000000 1.466770 
# 
# From -- ./inp_files/43831.got.cif
#   From: 2010.05.17/outbox.cif.g08.bks.cpg/sg11_22_cif.got.tgz:43831.got - 2010.06.03 12:22:45.
