data_PCOD9157031
_publ_section_title
;
Structure prediction by ZEFSAII (Michael W. Deem and Ramdas Pophale) SiO2 
 PCOD9157031
Probable space group: P 21/M
;
_chemical_formula_sum "Si O2"
_cell_formula_units_Z 32
_cell_length_a 26.955737
_cell_length_b 9.235750
_cell_length_c 21.421752
_cell_angle_alpha 90.000000
_cell_angle_beta 19.109692
_cell_angle_gamma 90.000000
_cell_volume 1745.932750
_symmetry_space_group_name_H-M "P 21/M"
_symmetry_group_IT_number 11
_symmetry_cell_setting 'monoclinic'
loop_
_space_group_symop_operation_xyz
x,y,z
-x,1/2+y,-z
-x,-y,-z
x,1/2-y,z
loop_
_atom_site_type_symbol
_atom_site_label
_atom_site_fract_x
_atom_site_fract_y
_atom_site_fract_z
Si Si1 0.543598 0.078233 0.744937
Si Si2 0.619157 0.418433 0.314339
Si Si3 0.133318 0.921955 0.569819
Si Si4 0.573012 0.919804 0.579150
Si Si5 0.876810 0.418106 0.188068
Si Si6 0.404343 0.582752 0.023602
Si Si7 0.733312 0.583265 0.701738
Si Si8 0.922267 0.582372 0.930258
O O1 0.518519 0.250000 0.768491
O O2 0.712294 0.057989 0.573484
O O3 0.535780 0.999496 0.687914
O O4 0.430038 0.006823 0.929894
O O5 0.500000 0.500000 0.500000
O O6 0.624093 0.250000 0.325923
O O7 0.559000 0.430178 0.314933
O O8 0.784211 0.488914 0.119696
O O9 0.121814 0.750000 0.570945
O O10 0.993077 0.966256 0.780261
O O11 0.154146 0.009118 0.481317
O O12 0.605584 0.750000 0.551615
O O13 0.719333 0.997570 0.375462
O O14 0.859451 0.250000 0.190020
O O15 0.942743 0.420185 0.179883
O O16 0.000000 0.500000 0.000000
O O17 0.365517 0.750000 0.057866
O O18 0.568152 0.581628 0.864000
O O19 0.289153 0.506637 0.208243
O O20 0.772010 0.750000 0.667955
O O21 0.872822 0.750000 0.983255
#
# Coordination Sequence:
#
# PCOD9157031 Si02
#       8
#     4   4   4   4   4   4   4   4
#     4  10  18  31  51  76 106 140 178 222 268 317
#     4  11  25  42  59  80 106 140 181 225 271 324
#     4   9  17  31  49  73 105 139 173 218 268 316
#     4  11  23  38  55  79 109 141 178 222 270 323
#     4  11  22  37  56  82 108 136 174 218 269 325
#     4   9  16  26  41  66 102 143 179 216 263 313
#     4   9  16  25  40  67 101 140 180 217 258 311
#     4  10  21  38  57  79 108 140 177 222 271 322
#
# _framework density 18.328312
#
# number of rings (size 3 to 8) (size 9 to 14) (size 15 to 20)
#    0.000    2.000    1.250    3.000    0.000   10.000 
#    0.000    0.000    0.000    0.000    0.000    0.875 
#    0.000    0.000    0.000    0.000    0.000    0.000 
#
# Total GULP energy -178655.301715 kJ/mol
# GULP energy per Si atom -5582.978179 kJ/mol
# Density = 1.828660 g / cm^3
# Si number density = 18.328312 Si / 1000 Ang^3
#
#
#
# Elastic Constant Matrix: (Units=GPa)
#
#
# Indices 1 2 3 4 5 6 
#
# 1 36.0372 28.0840 10.1531 0.0000 19.0443 0.0000
# 2 28.0840 108.1545 26.6642 0.0000 17.0495 0.0000
# 3 10.1531 26.6642 53.1575 0.0000 22.6469 0.0000
# 4 0.0000 0.0000 0.0000 30.1784 0.0000 9.5717
# 5 19.0443 17.0495 22.6469 0.0000 36.4743 0.0000
# 6 0.0000 0.0000 0.0000 9.5717 0.0000 28.2683
#
#
#
# Elastic Compliance Matrix: (Units=1/GPa)
#
#
# Indices 1 2 3 4 5 6 
#
# 1 0.045865 -0.009739 0.005966 0.000000 -0.023099 0.000000
# 2 -0.009739 0.012755 -0.005662 0.000000 0.002638 0.000000
# 3 0.005966 -0.005662 0.028162 0.000000 -0.017954 0.000000
# 4 0.000000 0.000000 0.000000 0.037123 0.000000 -0.012570
# 5 -0.023099 0.002638 -0.017954 0.000000 0.049392 0.000000
# 6 0.000000 0.000000 0.000000 -0.012570 0.000000 0.039631
#
#
# Mechanical properties :
#
#
# Convention : Reuss Voigt Hill
#
# Bulk Modulus (GPa) = 14.72494 36.35021 25.53757
# Shear Modulus (GPa) = 19.65139 27.81406 23.73273
#
# Velocity S-wave (km/s) = 3.27798 3.89980 3.60233
# Velocity P-wave (km/s) = 4.73057 6.33670 5.59160
#
# Compressibility (1/GPa) = 0.06791200
#
# Stress axis : x y z
#
# Youngs Moduli (GPa) = 21.80308 78.40145 35.50937
#
# Poissons Ratio (x) = 0.76355 -0.21185
# Poissons Ratio (y) = 0.21234 0.20105
# Poissons Ratio (z) = -0.13008 0.44389
#
# Static dielectric constant tensor:
#      x y z
#    x 1.631550 0.000000 0.007730 
#    y 0.000000 1.618050 0.000000 
#    z 0.007730 0.000000 1.605700 
# 
# From -- ./inp_files/67083.got.cif
#   From: 2010.05.17/outbox.cif.g08.bks.cpg/sg11_34_cif.got.tgz:67083.got - 2010.06.03 12:22:45.
