data_PCOD9157417
_publ_section_title
;
Structure prediction by ZEFSAII (Michael W. Deem and Ramdas Pophale) SiO2 
 PCOD9157417
Probable space group: P 21/M
;
_chemical_formula_sum "Si O2"
_cell_formula_units_Z 32
_cell_length_a 21.768007
_cell_length_b 8.117792
_cell_length_c 12.561025
_cell_angle_alpha 90.000000
_cell_angle_beta 131.991475
_cell_angle_gamma 90.000000
_cell_volume 1649.731625
_symmetry_space_group_name_H-M "P 21/M"
_symmetry_group_IT_number 11
_symmetry_cell_setting 'monoclinic'
loop_
_space_group_symop_operation_xyz
x,y,z
-x,1/2+y,-z
-x,-y,-z
x,1/2-y,z
loop_
_atom_site_type_symbol
_atom_site_label
_atom_site_fract_x
_atom_site_fract_y
_atom_site_fract_z
Si Si1 0.690837 0.057591 0.497781
Si Si2 0.516084 0.060752 0.213748
Si Si3 0.352216 0.944837 0.933086
Si Si4 0.571239 0.938324 0.659540
Si Si5 0.260738 0.938368 0.216803
Si Si6 0.785799 0.450993 0.057976
Si Si7 0.231764 0.439873 0.613664
Si Si8 0.905650 0.052950 0.382733
O O1 0.670988 0.250000 0.497940
O O2 0.605247 0.986506 0.349269
O O3 0.725118 0.987248 0.649106
O O4 0.756358 0.043397 0.479457
O O5 0.529417 0.250000 0.193149
O O6 0.466457 0.060419 0.267260
O O7 0.449287 0.979016 0.058495
O O8 0.339142 0.750000 0.907793
O O9 0.296830 0.000564 0.971330
O O10 0.309449 0.026882 0.781903
O O11 0.595897 0.750000 0.662899
O O12 0.500000 0.000000 0.500000
O O13 0.648189 0.056259 0.729602
O O14 0.231918 0.750000 0.199265
O O15 0.209939 0.013543 0.058645
O O16 0.784028 0.250000 0.049815
O O17 0.861702 0.500316 0.221443
O O18 0.230083 0.250000 0.581301
O O19 0.151052 0.484028 0.588167
O O20 0.900167 0.250000 0.380545
O O21 0.000000 0.000000 0.500000
#
# Coordination Sequence:
#
# PCOD9157417 Si02
#       8
#     4   4   4   4   4   4   4   4
#     4  10  21  36  52  72 106 149 191 228 270 324
#     4  10  20  32  47  72 104 142 189 238 280 320
#     4  10  19  33  54  76 103 141 185 233 282 327
#     4  11  20  30  45  70 102 141 188 238 278 317
#     4  10  18  33  53  76 105 143 183 226 274 320
#     4   8  16  30  53  83 111 136 170 215 268 321
#     4  11  23  39  57  79 109 142 180 224 271 324
#     4  10  20  38  64  94 117 138 168 208 265 326
#
# _framework density 19.397093999999999
#
# number of rings (size 3 to 8) (size 9 to 14) (size 15 to 20)
#    0.000    2.000    2.500    3.000    0.000    2.000 
#    0.000    0.625    0.000    0.750    0.000    0.000 
#    0.000    0.000    0.000    0.000    0.000    0.000 
#
# Total GULP energy -178420.963260 kJ/mol
# GULP energy per Si atom -5575.655102 kJ/mol
# Density = 1.935295 g / cm^3
# Si number density = 19.397094 Si / 1000 Ang^3
#
#
#
# Elastic Constant Matrix: (Units=GPa)
#
#
# Indices 1 2 3 4 5 6 
#
# 1 67.9916 -3.1678 61.4055 0.0000 -11.8479 0.0000
# 2 -3.1678 29.6263 -3.5389 0.0000 2.4531 0.0000
# 3 61.4055 -3.5389 115.0735 0.0000 1.8950 0.0000
# 4 0.0000 0.0000 0.0000 13.0473 0.0000 3.7204
# 5 -11.8479 2.4531 1.8950 0.0000 25.1111 0.0000
# 6 0.0000 0.0000 0.0000 3.7204 0.0000 19.3764
#
#
#
# Elastic Compliance Matrix: (Units=1/GPa)
#
#
# Indices 1 2 3 4 5 6 
#
# 1 0.034927 -0.000010 -0.018933 0.000000 0.017909 0.000000
# 2 -0.000010 0.034169 0.001113 0.000000 -0.003427 0.000000
# 3 -0.018933 0.001113 0.019000 0.000000 -0.010475 0.000000
# 4 0.000000 0.000000 0.000000 0.081083 0.000000 -0.015569
# 5 0.017909 -0.003427 -0.010475 0.000000 0.049398 0.000000
# 6 0.000000 0.000000 0.000000 -0.015569 0.000000 0.054598
#
#
# Mechanical properties :
#
#
# Convention : Reuss Voigt Hill
#
# Bulk Modulus (GPa) = 19.07107 35.78769 27.42938
# Shear Modulus (GPa) = 15.32260 22.03980 18.68120
#
# Velocity S-wave (km/s) = 2.81364 3.37448 3.10674
# Velocity P-wave (km/s) = 4.51760 5.80283 5.20008
#
# Compressibility (1/GPa) = 0.05243543
#
# Stress axis : x y z
#
# Youngs Moduli (GPa) = 28.63112 29.26602 52.63199
#
# Poissons Ratio (x) = 0.00029 0.99648
# Poissons Ratio (y) = 0.00028 -0.05856
# Poissons Ratio (z) = 0.54207 -0.03256
#
# Static dielectric constant tensor:
#      x y z
#    x 1.675080 0.000000 -0.010990 
#    y 0.000000 1.743810 0.000000 
#    z -0.010990 0.000000 1.728670 
# 
# From -- ./inp_files/38283.got.cif
#   From: 2010.05.17/outbox.cif.g08.bks.cpg/sg11_20_cif.got.tgz:38283.got - 2010.06.03 12:22:45.
