data_PCOD9157689
_publ_section_title
;
Structure prediction by ZEFSAII (Michael W. Deem and Ramdas Pophale) SiO2 
 PCOD9157689
Probable space group: P 21/M
;
_chemical_formula_sum "Si O2"
_cell_formula_units_Z 32
_cell_length_a 15.025702
_cell_length_b 15.514987
_cell_length_c 22.144403
_cell_angle_alpha 90.000000
_cell_angle_beta 18.457046
_cell_angle_gamma 90.000000
_cell_volume 1634.377302
_symmetry_space_group_name_H-M "P 21/M"
_symmetry_group_IT_number 11
_symmetry_cell_setting 'monoclinic'
loop_
_space_group_symop_operation_xyz
x,y,z
-x,1/2+y,-z
-x,-y,-z
x,1/2-y,z
loop_
_atom_site_type_symbol
_atom_site_label
_atom_site_fract_x
_atom_site_fract_y
_atom_site_fract_z
Si Si1 0.968782 0.152908 0.040081
Si Si2 0.333059 0.150602 0.644968
Si Si3 0.344694 0.149507 0.004386
Si Si4 0.821951 0.098592 0.257493
Si Si5 0.808739 0.646322 0.756073
Si Si6 0.559713 0.147044 0.631784
Si Si7 0.832325 0.065801 0.007538
Si Si8 0.691969 0.989865 0.728366
O O1 0.983183 0.250000 0.005009
O O2 0.814776 0.155374 0.202118
O O3 0.839632 0.091425 0.072866
O O4 0.292215 0.124684 0.844876
O O5 0.407999 0.250000 0.586209
O O6 0.509391 0.096076 0.484123
O O7 0.456144 0.125319 0.631431
O O8 0.998321 0.140722 0.864323
O O9 0.421130 0.250000 0.944062
O O10 0.565659 0.080349 0.835351
O O11 0.307733 0.137358 0.100486
O O12 0.043069 0.132986 0.165411
O O13 0.956544 0.011337 0.145577
O O14 0.791739 0.750000 0.752270
O O15 0.680566 0.582240 0.788933
O O16 0.134796 0.615279 0.548619
O O17 0.591237 0.250000 0.613510
O O18 0.527104 0.043508 0.180679
O O19 0.000000 0.000000 0.500000
#
# Coordination Sequence:
#
# PCOD9157689 Si02
#       8
#     4   4   4   4   4   4   4   4
#     4  10  20  35  57  86 123 159 194 239 302 369
#     4  10  18  35  60  87 117 151 191 237 299 367
#     4  10  21  40  64  91 123 156 203 265 315 362
#     4  11  20  34  59  94 123 147 193 251 306 361
#     4  10  20  38  65  91 120 160 206 255 310 364
#     4   8  16  30  54  87 115 147 189 237 295 357
#     4  10  23  39  54  81 123 161 194 240 301 359
#     4  11  26  43  61  90 121 164 217 259 301 358
#
# _framework density 19.579322999999999
#
# number of rings (size 3 to 8) (size 9 to 14) (size 15 to 20)
#    0.000    2.000    1.250    3.375    3.500    1.500 
#    0.000    1.250    0.000    1.500    0.000    0.000 
#    0.000    0.000    0.000    0.000    0.000    0.000 
#
# Total GULP energy -178388.432622 kJ/mol
# GULP energy per Si atom -5574.638519 kJ/mol
# Density = 1.953476 g / cm^3
# Si number density = 19.579323 Si / 1000 Ang^3
#
#
#
# Elastic Constant Matrix: (Units=GPa)
#
#
# Indices 1 2 3 4 5 6 
#
# 1 74.6530 39.3620 29.9837 0.0000 0.4851 0.0000
# 2 39.3620 90.0014 17.6578 0.0000 0.0971 0.0000
# 3 29.9837 17.6578 101.5646 0.0000 3.4040 0.0000
# 4 0.0000 0.0000 0.0000 24.5090 0.0000 0.3086
# 5 0.4851 0.0971 3.4040 0.0000 32.4889 0.0000
# 6 0.0000 0.0000 0.0000 0.3086 0.0000 19.4760
#
#
#
# Elastic Compliance Matrix: (Units=1/GPa)
#
#
# Indices 1 2 3 4 5 6 
#
# 1 0.019090 -0.007498 -0.004339 0.000000 0.000192 0.000000
# 2 -0.007498 0.014449 -0.000302 0.000000 0.000100 0.000000
# 3 -0.004339 -0.000302 0.011216 0.000000 -0.001110 0.000000
# 4 0.000000 0.000000 0.000000 0.040810 0.000000 -0.000647
# 5 0.000192 0.000100 -0.001110 0.000000 0.030893 0.000000
# 6 0.000000 0.000000 0.000000 -0.000647 0.000000 0.051356
#
#
# Mechanical properties :
#
#
# Convention : Reuss Voigt Hill
#
# Bulk Modulus (GPa) = 48.83107 48.91402 48.87254
# Shear Modulus (GPa) = 25.13610 27.24246 26.18928
#
# Velocity S-wave (km/s) = 3.58691 3.73418 3.66129
# Velocity P-wave (km/s) = 6.49222 6.60521 6.54896
#
# Compressibility (1/GPa) = 0.02047876
#
# Stress axis : x y z
#
# Youngs Moduli (GPa) = 52.38325 69.20744 89.15472
#
# Poissons Ratio (x) = 0.51892 0.38680
# Poissons Ratio (y) = 0.39277 0.02692
# Poissons Ratio (z) = 0.22727 0.02090
#
# Static dielectric constant tensor:
#      x y z
#    x 1.669190 0.000000 0.013330 
#    y 0.000000 1.771740 0.000000 
#    z 0.013330 0.000000 1.721550 
# 
# From -- ./inp_files/65726.got.cif
#   From: 2010.05.17/outbox.cif.g08.bks.cpg/sg11_33_cif.got.tgz:65726.got - 2010.06.03 12:22:45.
