data_PCOD9157155
_publ_section_title
;
Structure prediction by ZEFSAII (Michael W. Deem and Ramdas Pophale) SiO2 
 PCOD9157155
Probable space group: P 21/M
;
_chemical_formula_sum "Si O2"
_cell_formula_units_Z 32
_cell_length_a 14.629338
_cell_length_b 8.422481
_cell_length_c 25.182086
_cell_angle_alpha 90.000000
_cell_angle_beta 30.243552
_cell_angle_gamma 90.000000
_cell_volume 1562.817726
_symmetry_space_group_name_H-M "P 21/M"
_symmetry_group_IT_number 11
_symmetry_cell_setting 'monoclinic'
loop_
_space_group_symop_operation_xyz
x,y,z
-x,1/2+y,-z
-x,-y,-z
x,1/2-y,z
loop_
_atom_site_type_symbol
_atom_site_label
_atom_site_fract_x
_atom_site_fract_y
_atom_site_fract_z
Si Si1 0.172364 0.435875 0.289004
Si Si2 0.522175 0.439517 0.798794
Si Si3 0.563599 0.442010 0.273776
Si Si4 0.262461 0.441763 0.025220
Si Si5 0.214853 0.564011 0.635948
Si Si6 0.843483 0.056544 0.220208
Si Si7 0.767338 0.938145 0.484958
Si Si8 0.811610 0.435782 0.829389
O O1 0.191644 0.250000 0.269974
O O2 0.282784 0.486603 0.285428
O O3 0.254757 0.528401 0.196637
O O4 0.960415 0.479851 0.398607
O O5 0.535870 0.250000 0.793518
O O6 0.447585 0.491547 0.779483
O O7 0.389595 0.491869 0.913094
O O8 0.566901 0.250000 0.269535
O O9 0.736063 0.495110 0.222091
O O10 0.385795 0.488490 0.396807
O O11 0.269061 0.250000 0.026432
O O12 0.306201 0.514946 0.060810
O O13 0.054381 0.489633 0.116168
O O14 0.257484 0.750000 0.610504
O O15 0.253366 0.504612 0.676207
O O16 0.290692 0.475456 0.546575
O O17 0.996421 0.538884 0.741312
O O18 0.839740 0.250000 0.223444
O O19 0.794328 0.750000 0.475827
O O20 0.856786 0.250000 0.810299
#
# Coordination Sequence:
#
# PCOD9157155 Si02
#       8
#     4   4   4   4   4   4   4   4
#     4  11  22  38  60  82 109 146 182 222 276 332
#     4  11  24  40  57  80 109 142 187 236 274 318
#     4  10  22  39  57  79 110 148 188 228 271 322
#     4   9  19  37  59  82 112 148 181 220 272 325
#     4   9  16  30  54  82 113 147 181 219 268 326
#     4   8  16  34  58  82 111 147 182 218 267 325
#     4  10  20  35  56  83 114 145 180 226 275 323
#     4  10  18  31  55  86 116 142 175 222 271 325
#
# _framework density 20.475835
#
# number of rings (size 3 to 8) (size 9 to 14) (size 15 to 20)
#    0.000    2.250    0.000    5.625    0.000    4.000 
#    0.000    3.125    0.000    0.000    0.000    0.000 
#    0.000    0.000    0.000    0.000    0.000    0.000 
#
# Total GULP energy -178684.442318 kJ/mol
# GULP energy per Si atom -5583.888822 kJ/mol
# Density = 2.042923 g / cm^3
# Si number density = 20.475835 Si / 1000 Ang^3
#
#
#
# Elastic Constant Matrix: (Units=GPa)
#
#
# Indices 1 2 3 4 5 6 
#
# 1 110.8016 5.0554 12.4062 0.0000 2.4324 0.0000
# 2 5.0554 33.8734 5.9703 0.0000 0.2323 0.0000
# 3 12.4062 5.9703 60.8662 0.0000 4.7541 0.0000
# 4 0.0000 0.0000 0.0000 19.1946 0.0000 8.9839
# 5 2.4324 0.2323 4.7541 0.0000 26.6483 0.0000
# 6 0.0000 0.0000 0.0000 8.9839 0.0000 53.3929
#
#
#
# Elastic Compliance Matrix: (Units=1/GPa)
#
#
# Indices 1 2 3 4 5 6 
#
# 1 0.009281 -0.001074 -0.001745 0.000000 -0.000526 0.000000
# 2 -0.001074 0.030167 -0.002766 0.000000 0.000328 0.000000
# 3 -0.001745 -0.002766 0.017283 0.000000 -0.002900 0.000000
# 4 0.000000 0.000000 0.000000 0.056552 0.000000 -0.009515
# 5 -0.000526 0.000328 -0.002900 0.000000 0.038088 0.000000
# 6 0.000000 0.000000 0.000000 -0.009515 0.000000 0.020330
#
#
# Mechanical properties :
#
#
# Convention : Reuss Voigt Hill
#
# Bulk Modulus (GPa) = 21.94849 28.04501 24.99675
# Shear Modulus (GPa) = 25.24504 31.98777 28.61641
#
# Velocity S-wave (km/s) = 3.51510 3.95678 3.74246
# Velocity P-wave (km/s) = 5.21700 5.88228 5.55960
#
# Compressibility (1/GPa) = 0.04556123
#
# Stress axis : x y z
#
# Youngs Moduli (GPa) = 107.74571 33.14857 57.86027
#
# Poissons Ratio (x) = 0.03560 0.10098
# Poissons Ratio (y) = 0.11571 0.16003
# Poissons Ratio (z) = 0.18805 0.09168
#
# Static dielectric constant tensor:
#      x y z
#    x 1.740540 0.000000 -0.005250 
#    y 0.000000 1.691470 0.000000 
#    z -0.005250 0.000000 1.740950 
# 
# From -- ./inp_files/69054.got.cif
#   From: 2010.05.17/outbox.cif.g08.bks.cpg/sg11_35_cif.got.tgz:69054.got - 2010.06.03 12:22:45.
