data_PCOD9157577
_publ_section_title
;
Structure prediction by ZEFSAII (Michael W. Deem and Ramdas Pophale) SiO2 
 PCOD9157577
Probable space group: P 21/M
;
_chemical_formula_sum "Si O2"
_cell_formula_units_Z 32
_cell_length_a 9.542850
_cell_length_b 19.410848
_cell_length_c 11.938209
_cell_angle_alpha 90.000000
_cell_angle_beta 54.622096
_cell_angle_gamma 90.000000
_cell_volume 1803.044574
_symmetry_space_group_name_H-M "P 21/M"
_symmetry_group_IT_number 11
_symmetry_cell_setting 'monoclinic'
loop_
_space_group_symop_operation_xyz
x,y,z
-x,1/2+y,-z
-x,-y,-z
x,1/2-y,z
loop_
_atom_site_type_symbol
_atom_site_label
_atom_site_fract_x
_atom_site_fract_y
_atom_site_fract_z
Si Si1 0.893267 0.930425 0.183589
Si Si2 0.886652 0.921502 0.670351
Si Si3 0.351785 0.830756 0.155404
Si Si4 0.962089 0.169355 0.207884
Si Si5 0.978057 0.083681 0.634033
Si Si6 0.285017 0.171802 0.891373
Si Si7 0.784750 0.070753 0.133831
Si Si8 0.503962 0.065424 0.084299
O O1 0.758691 0.882183 0.183320
O O2 0.921479 0.906662 0.296590
O O3 0.832802 0.008553 0.194863
O O4 0.071769 0.926486 0.031184
O O5 0.007423 0.876410 0.695798
O O6 0.690194 0.913589 0.799164
O O7 0.917260 0.902233 0.527121
O O8 0.926535 0.002934 0.660849
O O9 0.317383 0.750000 0.152341
O O10 0.191262 0.869169 0.284985
O O11 0.525059 0.836989 0.148207
O O12 0.397123 0.872378 0.022265
O O13 0.936470 0.250000 0.244103
O O14 0.813678 0.138679 0.195660
O O15 0.140623 0.162148 0.054671
O O16 0.265655 0.250000 0.859428
O O17 0.608609 0.053728 0.150909
O O18 0.500000 0.000000 0.000000
#
# Coordination Sequence:
#
# PCOD9157577 Si02
#       8
#     4   4   4   4   4   4   4   4
#     4  10  18  34  56  83 119 151 190 240 298 357
#     4  11  23  39  62  86 120 158 202 242 301 363
#     4  11  22  37  59  90 121 153 198 245 296 354
#     4  10  20  37  58  84 118 156 196 247 305 353
#     4  11  23  40  57  88 123 158 196 245 297 366
#     4   9  19  33  56  87 115 147 195 247 293 348
#     4  10  20  32  57  88 116 147 197 249 299 350
#     4  12  21  37  63  92 120 155 200 256 300 344
#
# _framework density 17.747758000000001
#
# number of rings (size 3 to 8) (size 9 to 14) (size 15 to 20)
#    0.000    1.500    5.000    0.750    1.750    1.500 
#    0.000    1.875    0.000    0.000    0.000    0.000 
#    0.000    0.000    0.000    0.000    0.000    0.000 
#
# Total GULP energy -178525.716814 kJ/mol
# GULP energy per Si atom -5578.928650 kJ/mol
# Density = 1.770736 g / cm^3
# Si number density = 17.747758 Si / 1000 Ang^3
#
#
#
# Elastic Constant Matrix: (Units=GPa)
#
#
# Indices 1 2 3 4 5 6 
#
# 1 71.9275 32.8421 11.5705 0.0000 14.6544 0.0000
# 2 32.8421 97.0706 27.3281 0.0000 12.6112 0.0000
# 3 11.5705 27.3281 61.8001 0.0000 7.9568 0.0000
# 4 0.0000 0.0000 0.0000 10.1476 0.0000 1.3679
# 5 14.6544 12.6112 7.9568 0.0000 21.8956 0.0000
# 6 0.0000 0.0000 0.0000 1.3679 0.0000 30.9750
#
#
#
# Elastic Compliance Matrix: (Units=1/GPa)
#
#
# Indices 1 2 3 4 5 6 
#
# 1 0.018021 -0.004891 -0.000022 0.000000 -0.009236 0.000000
# 2 -0.004891 0.013669 -0.004759 0.000000 -0.002870 0.000000
# 3 -0.000022 -0.004759 0.018815 0.000000 -0.004081 0.000000
# 4 0.000000 0.000000 0.000000 0.099136 0.000000 -0.004378
# 5 -0.009236 -0.002870 -0.004081 0.000000 0.054989 0.000000
# 6 0.000000 0.000000 0.000000 -0.004378 0.000000 0.032477
#
#
# Mechanical properties :
#
#
# Convention : Reuss Voigt Hill
#
# Bulk Modulus (GPa) = 32.09108 41.58662 36.83885
# Shear Modulus (GPa) = 18.73775 23.20748 20.97261
#
# Velocity S-wave (km/s) = 3.25280 3.62004 3.44132
# Velocity P-wave (km/s) = 5.67703 6.39967 6.04915
#
# Compressibility (1/GPa) = 0.03116131
#
# Stress axis : x y z
#
# Youngs Moduli (GPa) = 55.48931 73.15632 53.14796
#
# Poissons Ratio (x) = 0.35781 0.00117
# Poissons Ratio (y) = 0.27140 0.25295
# Poissons Ratio (z) = 0.00122 0.34818
#
# Static dielectric constant tensor:
#      x y z
#    x 1.622550 0.000000 0.008900 
#    y 0.000000 1.640840 0.000000 
#    z 0.008900 0.000000 1.585630 
# 
# From -- ./inp_files/19208.got.cif
#   From: 2010.05.17/outbox.cif.g08.bks.cpg/sg11_10_cif.got.tgz:19208.got - 2010.06.03 12:22:45.
