data_PCOD9157553
_publ_section_title
;
Structure prediction by ZEFSAII (Michael W. Deem and Ramdas Pophale) SiO2 
 PCOD9157553
Probable space group: P 21/M
;
_chemical_formula_sum "Si O2"
_cell_formula_units_Z 28
_cell_length_a 32.877993
_cell_length_b 8.609585
_cell_length_c 9.935149
_cell_angle_alpha 90.000000
_cell_angle_beta 34.054234
_cell_angle_gamma 90.000000
_cell_volume 1574.825332
_symmetry_space_group_name_H-M "P 21/M"
_symmetry_group_IT_number 11
_symmetry_cell_setting 'monoclinic'
loop_
_space_group_symop_operation_xyz
x,y,z
-x,1/2+y,-z
-x,-y,-z
x,1/2-y,z
loop_
_atom_site_type_symbol
_atom_site_label
_atom_site_fract_x
_atom_site_fract_y
_atom_site_fract_z
Si Si1 0.919638 0.436312 0.201801
Si Si2 0.402490 0.936860 0.375623
Si Si3 0.687973 0.437682 0.832506
Si Si4 0.762568 0.061506 0.118716
Si Si5 0.549652 0.062802 0.056807
Si Si6 0.201019 0.065674 0.266704
Si Si7 0.810447 0.061835 0.278701
O O1 0.921239 0.250000 0.197743
O O2 0.865336 0.492067 0.467725
O O3 0.881276 0.488902 0.167311
O O4 0.000000 0.500000 0.000000
O O5 0.404349 0.750000 0.372213
O O6 0.322246 0.985186 0.639308
O O7 0.418729 0.985758 0.176566
O O8 0.468268 0.999342 0.285546
O O9 0.689649 0.250000 0.842073
O O10 0.606848 0.486249 0.014070
O O11 0.725214 0.510892 0.860527
O O12 0.740806 0.478306 0.561860
O O13 0.765136 0.250000 0.105748
O O14 0.800468 0.008952 0.153560
O O15 0.797443 0.993017 0.889749
O O16 0.547608 0.250000 0.063076
O O17 0.195553 0.250000 0.287689
O O18 0.811439 0.250000 0.271576
#
# Coordination Sequence:
#
# PCOD9157553 Si02
#       7
#     4   4   4   4   4   4   4
#     4  10  20  38  63  87 110 138 170 209 254 308
#     4   9  17  28  47  74 104 136 173 219 269 316
#     4   9  16  32  54  75  99 137 183 223 264 315
#     4  10  18  34  55  76 104 141 180 216 261 316
#     4   9  16  28  48  74 103 134 175 223 270 316
#     4  11  23  36  52  79 111 140 173 216 263 312
#     4   8  15  30  56  81 101 132 176 216 254 304
#
# _framework density 17.77975
#
# number of rings (size 3 to 8) (size 9 to 14) (size 15 to 20)
#    0.000    2.571    1.429    2.571    0.000    1.143 
#    0.000    5.000    0.000    0.000    0.000    0.000 
#    0.000    0.000    0.000    0.000    0.000    0.000 
#
# Total GULP energy -156130.321494 kJ/mol
# GULP energy per Si atom -5576.082910 kJ/mol
# Density = 1.773928 g / cm^3
# Si number density = 17.779750 Si / 1000 Ang^3
#
#
#
# Elastic Constant Matrix: (Units=GPa)
#
#
# Indices 1 2 3 4 5 6 
#
# 1 155.9644 33.8313 74.3069 0.0000 -8.4142 0.0000
# 2 33.8313 35.2636 23.9561 0.0000 -3.5316 0.0000
# 3 74.3069 23.9561 73.8989 0.0000 -7.0978 0.0000
# 4 0.0000 0.0000 0.0000 22.4871 0.0000 -7.6565
# 5 -8.4142 -3.5316 -7.0978 0.0000 34.8359 0.0000
# 6 0.0000 0.0000 0.0000 -7.6565 0.0000 19.9426
#
#
#
# Elastic Compliance Matrix: (Units=1/GPa)
#
#
# Indices 1 2 3 4 5 6 
#
# 1 0.012858 -0.004542 -0.011426 0.000000 0.000317 0.000000
# 2 -0.004542 0.038030 -0.007646 0.000000 0.001201 0.000000
# 3 -0.011426 -0.007646 0.027702 0.000000 0.002109 0.000000
# 4 0.000000 0.000000 0.000000 0.051157 0.000000 0.019641
# 5 0.000317 0.001201 0.002109 0.000000 0.029334 0.000000
# 6 0.000000 0.000000 0.000000 0.019641 0.000000 0.057685
#
#
# Mechanical properties :
#
#
# Convention : Reuss Voigt Hill
#
# Bulk Modulus (GPa) = 31.88564 58.81284 45.34924
# Shear Modulus (GPa) = 18.21842 24.32195 21.27018
#
# Velocity S-wave (km/s) = 3.20452 3.70260 3.46253
# Velocity P-wave (km/s) = 5.62713 7.17143 6.44570
#
# Compressibility (1/GPa) = 0.03136208
#
# Stress axis : x y z
#
# Youngs Moduli (GPa) = 77.77442 26.29526 36.09793
#
# Poissons Ratio (x) = 0.11942 0.41245
# Poissons Ratio (y) = 0.35321 0.27602
# Poissons Ratio (z) = 0.88865 0.20106
#
# Static dielectric constant tensor:
#      x y z
#    x 1.624210 0.000000 -0.002410 
#    y 0.000000 1.605400 0.000000 
#    z -0.002410 0.000000 1.581600 
# 
# From -- ./inp_files/29024.got.cif
#   From: 2010.05.17/outbox.cif.g08.bks.cpg/sg11_15_cif.got.tgz:29024.got - 2010.06.03 12:22:45.
