data_PCOD9157712
_publ_section_title
;
Structure prediction by ZEFSAII (Michael W. Deem and Ramdas Pophale) SiO2 
 PCOD9157712
Probable space group: P 21/M
;
_chemical_formula_sum "Si O2"
_cell_formula_units_Z 26
_cell_length_a 14.019752
_cell_length_b 11.732817
_cell_length_c 7.880756
_cell_angle_alpha 90.000000
_cell_angle_beta 118.097851
_cell_angle_gamma 90.000000
_cell_volume 1143.537092
_symmetry_space_group_name_H-M "P 21/M"
_symmetry_group_IT_number 11
_symmetry_cell_setting 'monoclinic'
loop_
_space_group_symop_operation_xyz
x,y,z
-x,1/2+y,-z
-x,-y,-z
x,1/2-y,z
loop_
_atom_site_type_symbol
_atom_site_label
_atom_site_fract_x
_atom_site_fract_y
_atom_site_fract_z
Si Si1 0.647418 0.750000 0.922045
Si Si2 0.147544 0.034944 0.162996
Si Si3 0.741543 0.116483 0.010436
Si Si4 0.988060 0.376622 0.753874
Si Si5 0.524799 0.983341 0.819202
Si Si6 0.665732 0.624121 0.479787
Si Si7 0.803383 0.916630 0.265409
O O1 0.558870 0.853579 0.814084
O O2 0.734248 0.848409 0.065195
O O3 0.255682 0.103694 0.296651
O O4 0.178982 0.929545 0.068835
O O5 0.062489 0.109498 0.986371
O O6 0.096294 0.978507 0.288466
O O7 0.744130 0.250000 0.031706
O O8 0.622790 0.070338 0.866267
O O9 0.779313 0.049050 0.210096
O O10 0.941027 0.250000 0.707019
O O11 0.071675 0.392458 0.668863
O O12 0.422361 0.027862 0.627162
O O13 0.500000 0.000000 0.000000
O O14 0.615762 0.750000 0.449448
O O15 0.747613 0.622970 0.389749
#
# Coordination Sequence:
#
# PCOD9157712 Si02
#       7
#     2   4   4   4   4   4   4
#     4  10  18  36  56  96 118 156 204 246 292 370
#     4  10  24  37  59  91 120 162 206 249 313 363
#     4  10  21  39  60  86 125 163 203 247 293 369
#     4  10  19  40  64  82 113 165 209 254 305 369
#     4  11  21  35  63  90 120 165 206 243 309 360
#     4  12  22  40  60  94 129 159 204 259 305 362
#     4  10  19  36  66  91 117 159 207 253 304 357
#
# _framework density 22.736473
#
# number of rings (size 3 to 8) (size 9 to 14) (size 15 to 20)
#    0.000    1.538    4.615    1.385    1.077    1.231 
#    4.154    0.769    0.000    0.000    0.000    0.000 
#    0.000    0.000    0.000    0.000    0.000    0.000 
#
# Total GULP energy -144832.326887 kJ/mol
# GULP energy per Si atom -5570.474111 kJ/mol
# Density = 2.268472 g / cm^3
# Si number density = 22.736473 Si / 1000 Ang^3
#
#
#
# Elastic Constant Matrix: (Units=GPa)
#
#
# Indices 1 2 3 4 5 6 
#
# 1 73.5999 15.4355 -1.3972 0.0000 -5.1537 0.0000
# 2 15.4355 169.1646 1.2586 0.0000 2.8526 0.0000
# 3 -1.3972 1.2586 44.9213 0.0000 2.6412 0.0000
# 4 0.0000 0.0000 0.0000 19.7578 0.0000 4.2703
# 5 -5.1537 2.8526 2.6412 0.0000 28.2658 0.0000
# 6 0.0000 0.0000 0.0000 4.2703 0.0000 23.1558
#
#
#
# Elastic Compliance Matrix: (Units=1/GPa)
#
#
# Indices 1 2 3 4 5 6 
#
# 1 0.014059 -0.001330 0.000318 0.000000 0.002668 0.000000
# 2 -0.001330 0.006048 -0.000162 0.000000 -0.000838 0.000000
# 3 0.000318 -0.000162 0.022394 0.000000 -0.002018 0.000000
# 4 0.000000 0.000000 0.000000 0.052714 0.000000 -0.009721
# 5 0.002668 -0.000838 -0.002018 0.000000 0.036138 0.000000
# 6 0.000000 0.000000 0.000000 -0.009721 0.000000 0.044979
#
#
# Mechanical properties :
#
#
# Convention : Reuss Voigt Hill
#
# Bulk Modulus (GPa) = 24.90471 35.36440 30.13456
# Shear Modulus (GPa) = 26.03296 32.39513 29.21404
#
# Velocity S-wave (km/s) = 3.38744 3.77876 3.58844
# Velocity P-wave (km/s) = 5.12611 5.88443 5.51831
#
# Compressibility (1/GPa) = 0.04015304
#
# Stress axis : x y z
#
# Youngs Moduli (GPa) = 71.12987 165.34114 44.65436
#
# Poissons Ratio (x) = 0.21993 -0.01419
# Poissons Ratio (y) = 0.09461 0.00721
# Poissons Ratio (z) = -0.02260 0.02671
#
# Static dielectric constant tensor:
#      x y z
#    x 1.920040 0.000000 -0.060450 
#    y 0.000000 1.817910 0.000000 
#    z -0.060450 0.000000 1.895940 
# 
# From -- ./inp_files/21338.got.cif
#   From: 2010.05.17/outbox.cif.g08.bks.cpg/sg11_11_cif.got.tgz:21338.got - 2010.06.03 12:22:45.
