data_PCOD9157154
_publ_section_title
;
Structure prediction by ZEFSAII (Michael W. Deem and Ramdas Pophale) SiO2 
 PCOD9157154
Probable space group: P 21/M
;
_chemical_formula_sum "Si O2"
_cell_formula_units_Z 28
_cell_length_a 19.702126
_cell_length_b 8.895721
_cell_length_c 22.293818
_cell_angle_alpha 90.000000
_cell_angle_beta 154.357116
_cell_angle_gamma 90.000000
_cell_volume 1690.933121
_symmetry_space_group_name_H-M "P 21/M"
_symmetry_group_IT_number 11
_symmetry_cell_setting 'monoclinic'
loop_
_space_group_symop_operation_xyz
x,y,z
-x,1/2+y,-z
-x,-y,-z
x,1/2-y,z
loop_
_atom_site_type_symbol
_atom_site_label
_atom_site_fract_x
_atom_site_fract_y
_atom_site_fract_z
Si Si1 0.728299 0.930245 0.650774
Si Si2 0.940505 0.928610 0.513982
Si Si3 0.939121 0.069981 0.143888
Si Si4 0.395775 0.929473 0.328377
Si Si5 0.340892 0.430674 0.155872
Si Si6 0.676064 0.426682 0.370496
Si Si7 0.994606 0.426350 0.678581
O O1 0.725313 0.750000 0.658417
O O2 0.576716 0.966967 0.489234
O O3 0.891282 0.969422 0.749103
O O4 0.704451 0.012764 0.694970
O O5 0.952922 0.750000 0.522765
O O6 0.761579 0.979775 0.386390
O O7 0.033085 0.997246 0.645246
O O8 0.000000 0.000000 0.500000
O O9 0.925126 0.250000 0.133229
O O10 0.934912 0.006965 0.207987
O O11 0.803248 0.998330 0.995632
O O12 0.382473 0.750000 0.312013
O O13 0.345681 0.007509 0.227121
O O14 0.332891 0.250000 0.150190
O O15 0.505073 0.474519 0.254664
O O16 0.673159 0.250000 0.351612
O O17 0.803545 0.440567 0.526042
O O18 0.032997 0.250000 0.708477
#
# Coordination Sequence:
#
# PCOD9157154 Si02
#       7
#     4   4   4   4   4   4   4
#     4   9  20  37  55  76 103 135 174 222 273 321
#     4  10  18  31  55  85 113 139 172 216 259 304
#     4  11  22  35  52  77 107 141 180 221 265 318
#     4  10  20  35  56  79 101 132 177 226 272 320
#     4  11  22  36  53  75 107 144 178 219 268 317
#     4   8  18  34  53  78 105 137 176 216 258 310
#     4   9  18  34  54  79 107 138 175 216 260 310
#
# _framework density 16.558903999999998
#
# number of rings (size 3 to 8) (size 9 to 14) (size 15 to 20)
#    0.857    1.429    0.000    3.429    0.000    3.429 
#    0.000    0.000    0.000    0.857    0.000    0.000 
#    0.000    0.000    0.000    0.000    0.000    0.000 
#
# Total GULP energy -156012.358118 kJ/mol
# GULP energy per Si atom -5571.869933 kJ/mol
# Density = 1.652121 g / cm^3
# Si number density = 16.558904 Si / 1000 Ang^3
#
#
#
# Elastic Constant Matrix: (Units=GPa)
#
#
# Indices 1 2 3 4 5 6 
#
# 1 128.1584 63.7951 67.5650 0.0000 -32.6350 0.0000
# 2 63.7951 77.1289 48.9090 0.0000 -17.0472 0.0000
# 3 67.5650 48.9090 84.1406 0.0000 -26.4466 0.0000
# 4 0.0000 0.0000 0.0000 27.6100 0.0000 -4.0704
# 5 -32.6350 -17.0472 -26.4466 0.0000 12.6099 0.0000
# 6 0.0000 0.0000 0.0000 -4.0704 0.0000 29.1679
#
#
#
# Elastic Compliance Matrix: (Units=1/GPa)
#
#
# Indices 1 2 3 4 5 6 
#
# 1 0.028346 -0.011846 0.006305 0.000000 0.070568 0.000000
# 2 -0.011846 0.025764 -0.012184 0.000000 -0.021383 0.000000
# 3 0.006305 -0.012184 0.040658 0.000000 0.085117 0.000000
# 4 0.000000 0.000000 0.000000 0.036980 0.000000 0.005161
# 5 0.070568 -0.021383 0.085117 0.000000 0.411544 0.000000
# 6 0.000000 0.000000 0.000000 0.005161 0.000000 0.035004
#
#
# Mechanical properties :
#
#
# Convention : Reuss Voigt Hill
#
# Bulk Modulus (GPa) = 16.85879 72.21844 44.53862
# Shear Modulus (GPa) = 7.89243 21.15481 14.52362
#
# Velocity S-wave (km/s) = 2.18555 3.57816 2.96478
# Velocity P-wave (km/s) = 4.07088 7.79607 6.21895
#
# Compressibility (1/GPa) = 0.05931622
#
# Stress axis : x y z
#
# Youngs Moduli (GPa) = 35.27888 38.81401 24.59545
#
# Poissons Ratio (x) = 0.45980 -0.15508
# Poissons Ratio (y) = 0.41793 0.29968
# Poissons Ratio (z) = -0.22243 0.47292
#
# Static dielectric constant tensor:
#      x y z
#    x 1.538440 0.000000 0.009670 
#    y 0.000000 1.555090 0.000000 
#    z 0.009670 0.000000 1.545960 
# 
# From -- ./inp_files/66020.got.cif
#   From: 2010.05.17/outbox.cif.g08.bks.cpg/sg11_34_cif.got.tgz:66020.got - 2010.06.03 12:22:45.
