data_PCOD9157240
_publ_section_title
;
Structure prediction by ZEFSAII (Michael W. Deem and Ramdas Pophale) SiO2 
 PCOD9157240
Probable space group: P 21/M
;
_chemical_formula_sum "Si O2"
_cell_formula_units_Z 24
_cell_length_a 18.878404
_cell_length_b 8.586193
_cell_length_c 24.940168
_cell_angle_alpha 90.000000
_cell_angle_beta 19.091330
_cell_angle_gamma 90.000000
_cell_volume 1322.246790
_symmetry_space_group_name_H-M "P 21/M"
_symmetry_group_IT_number 11
_symmetry_cell_setting 'monoclinic'
loop_
_space_group_symop_operation_xyz
x,y,z
-x,1/2+y,-z
-x,-y,-z
x,1/2-y,z
loop_
_atom_site_type_symbol
_atom_site_label
_atom_site_fract_x
_atom_site_fract_y
_atom_site_fract_z
Si Si1 0.338137 0.935887 0.161893
Si Si2 0.839170 0.437241 0.160812
Si Si3 0.319989 0.564335 0.009788
Si Si4 0.518657 0.937812 0.659987
Si Si5 0.999076 0.435669 0.330757
Si Si6 0.804247 0.937804 0.017142
O O1 0.340099 0.750000 0.159956
O O2 0.105929 0.998324 0.309024
O O3 0.500000 0.000000 0.000000
O O4 0.446297 0.998405 0.138808
O O5 0.843821 0.250000 0.156153
O O6 0.601621 0.483941 0.309919
O O7 0.000000 0.500000 0.000000
O O8 0.955310 0.483924 0.133101
O O9 0.324408 0.750000 0.009961
O O10 0.144546 0.499944 0.177758
O O11 0.253306 0.508317 0.998844
O O12 0.529565 0.750000 0.654789
O O13 0.755248 0.008322 0.496961
O O14 0.366422 0.999974 0.816820
O O15 0.013012 0.250000 0.321438
O O16 0.792325 0.750000 0.023355
#
# Coordination Sequence:
#
# PCOD9157240 Si02
#       6
#     4   4   4   4   4   4
#     4  10  18  32  53  76 101 134 171 210 252 306
#     4   8  16  30  51  74 101 134 172 210 250 302
#     4  11  21  35  54  78 105 137 173 214 257 305
#     4  10  19  34  54  79 106 137 173 213 257 306
#     4  11  21  35  54  78 105 137 173 214 257 305
#     4  10  19  34  54  79 106 137 173 213 257 306
#
# _framework density 18.150922999999999
#
# number of rings (size 3 to 8) (size 9 to 14) (size 15 to 20)
#    0.000    2.000    0.000    7.500    0.000    1.333 
#    0.000    1.667    0.000    0.000    0.000    0.000 
#    0.000    0.000    0.000    0.000    0.000    0.000 
#
# Total GULP energy -133818.539213 kJ/mol
# GULP energy per Si atom -5575.772467 kJ/mol
# Density = 1.810961 g / cm^3
# Si number density = 18.150923 Si / 1000 Ang^3
#
#
#
# Elastic Constant Matrix: (Units=GPa)
#
#
# Indices 1 2 3 4 5 6 
#
# 1 148.9102 57.3217 64.9534 0.0000 -51.4742 0.0000
# 2 57.3217 142.1737 47.0460 0.0000 -26.7917 0.0000
# 3 64.9534 47.0460 110.5339 0.0000 -48.5036 0.0000
# 4 0.0000 0.0000 0.0000 40.2262 0.0000 -18.1377
# 5 -51.4742 -26.7917 -48.5036 0.0000 39.8210 0.0000
# 6 0.0000 0.0000 0.0000 -18.1377 0.0000 47.1458
#
#
#
# Elastic Compliance Matrix: (Units=1/GPa)
#
#
# Indices 1 2 3 4 5 6 
#
# 1 0.012784 -0.002348 0.000097 0.000000 0.015064 0.000000
# 2 -0.002348 0.008757 -0.002350 0.000000 -0.000005 0.000000
# 3 0.000097 -0.002350 0.020089 0.000000 0.023013 0.000000
# 4 0.000000 0.000000 0.000000 0.030077 0.000000 0.011571
# 5 0.015064 -0.000005 0.023013 0.000000 0.072612 0.000000
# 6 0.000000 0.000000 0.000000 0.011571 0.000000 0.025662
#
#
# Mechanical properties :
#
#
# Convention : Reuss Voigt Hill
#
# Bulk Modulus (GPa) = 30.83716 82.25112 56.54414
# Shear Modulus (GPa) = 26.31711 40.92506 33.62108
#
# Velocity S-wave (km/s) = 3.81189 4.75353 4.30851
# Velocity P-wave (km/s) = 6.03326 8.69146 7.48137
#
# Compressibility (1/GPa) = 0.03242841
#
# Stress axis : x y z
#
# Youngs Moduli (GPa) = 78.22288 114.19736 49.77960
#
# Poissons Ratio (x) = 0.26810 -0.00484
# Poissons Ratio (y) = 0.18365 0.11698
# Poissons Ratio (z) = -0.00760 0.26835
#
# Static dielectric constant tensor:
#      x y z
#    x 1.654930 0.000000 -0.043030 
#    y 0.000000 1.602640 0.000000 
#    z -0.043030 0.000000 1.638500 
# 
# From -- ./inp_files/44434.got.cif
#   From: 2010.05.17/outbox.cif.g08.bks.cpg/sg11_23_cif.got.tgz:44434.got - 2010.06.03 12:22:45.
