data_PCOD9157298
_publ_section_title
;
Structure prediction by ZEFSAII (Michael W. Deem and Ramdas Pophale) SiO2 
 PCOD9157298
Probable space group: P 21/M
;
_chemical_formula_sum "Si O2"
_cell_formula_units_Z 28
_cell_length_a 14.716021
_cell_length_b 19.288003
_cell_length_c 9.017601
_cell_angle_alpha 90.000000
_cell_angle_beta 139.293367
_cell_angle_gamma 90.000000
_cell_volume 1669.322558
_symmetry_space_group_name_H-M "P 21/M"
_symmetry_group_IT_number 11
_symmetry_cell_setting 'monoclinic'
loop_
_space_group_symop_operation_xyz
x,y,z
-x,1/2+y,-z
-x,-y,-z
x,1/2-y,z
loop_
_atom_site_type_symbol
_atom_site_label
_atom_site_fract_x
_atom_site_fract_y
_atom_site_fract_z
Si Si1 0.288278 0.565245 0.951695
Si Si2 0.634188 0.549977 0.160193
Si Si3 0.196508 0.052337 0.324856
Si Si4 0.529358 0.577344 0.481651
Si Si5 0.116717 0.583500 0.033593
Si Si6 0.348905 0.828497 0.457378
Si Si7 0.412513 0.667950 0.879339
O O1 0.286778 0.487739 0.879436
O O2 0.302033 0.624228 0.842256
O O3 0.431715 0.580956 0.217062
O O4 0.170166 0.572325 0.931189
O O5 0.728746 0.542020 0.423617
O O6 0.500000 0.500000 0.000000
O O7 0.561396 0.625951 0.062465
O O8 0.312304 0.089642 0.367355
O O9 0.163679 0.981175 0.195875
O O10 0.048989 0.089347 0.163523
O O11 0.500000 0.500000 0.500000
O O12 0.469500 0.626137 0.533182
O O13 0.203374 0.646533 0.209050
O O14 0.373977 0.750000 0.446488
O O15 0.356154 0.835631 0.642186
O O16 0.425667 0.750000 0.936898
#
# Coordination Sequence:
#
# PCOD9157298 Si02
#       7
#     4   4   4   4   4   4   4
#     4  10  19  31  56  80 108 139 178 220 272 320
#     4  10  18  32  54  81 108 140 173 226 271 313
#     4  11  20  35  55  83 114 139 181 222 278 316
#     4  11  18  33  58  85 106 138 182 234 269 313
#     4  10  22  35  53  84 111 146 180 223 272 330
#     4  10  21  37  57  79 108 147 187 224 276 332
#     4  10  20  33  55  80 103 136 183 228 268 320
#
# _framework density 16.773271999999999
#
# number of rings (size 3 to 8) (size 9 to 14) (size 15 to 20)
#    0.000    1.714    5.714    2.571    0.000    2.857 
#    0.000    1.429    0.000    0.000    0.000    0.000 
#    0.000    0.000    0.000    0.000    0.000    0.000 
#
# Total GULP energy -155880.805625 kJ/mol
# GULP energy per Si atom -5567.171629 kJ/mol
# Density = 1.673509 g / cm^3
# Si number density = 16.773272 Si / 1000 Ang^3
#
#
#
# Elastic Constant Matrix: (Units=GPa)
#
#
# Indices 1 2 3 4 5 6 
#
# 1 109.9004 48.3138 41.9854 0.0000 15.4169 0.0000
# 2 48.3138 95.7821 18.0192 0.0000 -2.6303 0.0000
# 3 41.9854 18.0192 63.6864 0.0000 13.0211 0.0000
# 4 0.0000 0.0000 0.0000 21.7003 0.0000 -5.0973
# 5 15.4169 -2.6303 13.0211 0.0000 30.9400 0.0000
# 6 0.0000 0.0000 0.0000 -5.0973 0.0000 17.4266
#
#
#
# Elastic Compliance Matrix: (Units=1/GPa)
#
#
# Indices 1 2 3 4 5 6 
#
# 1 0.015521 -0.006600 -0.007297 0.000000 -0.005224 0.000000
# 2 -0.006600 0.014008 -0.000578 0.000000 0.004723 0.000000
# 3 -0.007297 -0.000578 0.021820 0.000000 -0.005596 0.000000
# 4 0.000000 0.000000 0.000000 0.049482 0.000000 0.014474
# 5 -0.005224 0.004723 -0.005596 0.000000 0.037680 0.000000
# 6 0.000000 0.000000 0.000000 0.014474 0.000000 0.061617
#
#
# Mechanical properties :
#
#
# Convention : Reuss Voigt Hill
#
# Bulk Modulus (GPa) = 44.64338 54.00064 49.32201
# Shear Modulus (GPa) = 21.13771 24.75005 22.94388
#
# Velocity S-wave (km/s) = 3.55378 3.84548 3.70250
# Velocity P-wave (km/s) = 6.59642 7.20980 6.90992
#
# Compressibility (1/GPa) = 0.02239974
#
# Stress axis : x y z
#
# Youngs Moduli (GPa) = 64.42921 71.38899 45.82925
#
# Poissons Ratio (x) = 0.47114 0.33441
# Poissons Ratio (y) = 0.42521 0.02649
# Poissons Ratio (z) = 0.47013 0.04126
#
# Static dielectric constant tensor:
#      x y z
#    x 1.640800 0.000000 -0.062870 
#    y 0.000000 1.593240 0.000000 
#    z -0.062870 0.000000 1.634320 
# 
# From -- ./inp_files/22690.got.cif
#   From: 2010.05.17/outbox.cif.g08.bks.cpg/sg11_12_cif.got.tgz:22690.got - 2010.06.03 12:22:45.
