data_PCOD9157587
_publ_section_title
;
Structure prediction by ZEFSAII (Michael W. Deem and Ramdas Pophale) SiO2 
 PCOD9157587
Probable space group: P 21/M
;
_chemical_formula_sum "Si O2"
_cell_formula_units_Z 24
_cell_length_a 14.381929
_cell_length_b 10.540007
_cell_length_c 25.601473
_cell_angle_alpha 90.000000
_cell_angle_beta 161.551508
_cell_angle_gamma 90.000000
_cell_volume 1228.091819
_symmetry_space_group_name_H-M "P 21/M"
_symmetry_group_IT_number 11
_symmetry_cell_setting 'monoclinic'
loop_
_space_group_symop_operation_xyz
x,y,z
-x,1/2+y,-z
-x,-y,-z
x,1/2-y,z
loop_
_atom_site_type_symbol
_atom_site_label
_atom_site_fract_x
_atom_site_fract_y
_atom_site_fract_z
Si Si1 0.810726 0.993006 0.452390
Si Si2 0.825716 0.900624 0.563683
Si Si3 0.391056 0.250000 0.695979
Si Si4 0.141347 0.250000 0.006879
Si Si5 0.291438 0.750000 0.635298
Si Si6 0.778028 0.903624 0.653147
Si Si7 0.151468 0.998989 0.198536
Si Si8 0.991812 0.250000 0.051047
O O1 0.981560 0.964527 0.596771
O O2 0.586009 0.877941 0.324783
O O3 0.653632 0.126508 0.369312
O O4 0.000000 0.000000 0.500000
O O5 0.817776 0.750000 0.550738
O O6 0.938166 0.920212 0.682502
O O7 0.493842 0.956512 0.384334
O O8 0.053895 0.250000 0.535127
O O9 0.638128 0.250000 0.870637
O O10 0.026214 0.376636 0.916956
O O11 0.496338 0.250000 0.201923
O O12 0.039656 0.250000 0.013701
O O13 0.707231 0.750000 0.619694
O O14 0.500000 0.000000 0.500000
O O15 0.933577 0.952033 0.788554
O O16 0.105477 0.120909 0.137447
#
# Coordination Sequence:
#
# PCOD9157587 Si02
#       8
#     4   4   2   2   2   4   4   2
#     4  10  19  34  55  80 107 139 189 237 276 332
#     4  10  18  34  57  80 113 154 185 229 287 345
#     4  10  20  36  55  77 109 157 188 223 283 352
#     4  12  22  34  52  81 117 159 186 233 297 346
#     4  10  22  36  51  81 115 147 194 229 277 344
#     4   9  19  34  54  79 111 152 192 229 282 345
#     4  11  21  35  52  83 119 150 192 234 287 344
#     4  12  22  34  56  83 119 153 188 239 293 342
#
# _framework density 19.542511999999999
#
# number of rings (size 3 to 8) (size 9 to 14) (size 15 to 20)
#    0.000    1.667    2.500    3.500    1.167    0.000 
#    1.500    0.000    0.000    0.000    0.000   28.000 
#    0.000    0.000    0.000    0.000    0.000    0.000 
#
# Total GULP energy -133601.369879 kJ/mol
# GULP energy per Si atom -5566.723745 kJ/mol
# Density = 1.949803 g / cm^3
# Si number density = 19.542512 Si / 1000 Ang^3
#
#
#
# Elastic Constant Matrix: (Units=GPa)
#
#
# Indices 1 2 3 4 5 6 
#
# 1 135.2255 45.8624 47.3067 0.0000 -42.9875 0.0000
# 2 45.8624 187.5327 34.4193 0.0000 -34.2248 0.0000
# 3 47.3067 34.4193 75.4189 0.0000 -15.6789 0.0000
# 4 0.0000 0.0000 0.0000 20.4435 0.0000 -21.0724
# 5 -42.9875 -34.2248 -15.6789 0.0000 39.2653 0.0000
# 6 0.0000 0.0000 0.0000 -21.0724 0.0000 19.4900
#
#
#
# Elastic Compliance Matrix: (Units=1/GPa)
#
#
# Indices 1 2 3 4 5 6 
#
# 1 0.013329 0.000057 -0.005827 0.000000 0.012316 0.000000
# 2 0.000057 0.006602 -0.002006 0.000000 0.005016 0.000000
# 3 -0.005827 -0.002006 0.017601 0.000000 -0.001099 0.000000
# 4 0.000000 0.000000 0.000000 -0.427379 0.000000 -0.462078
# 5 0.012316 0.005016 -0.001099 0.000000 0.042885 0.000000
# 6 0.000000 0.000000 0.000000 -0.462078 0.000000 -0.448287
#
#
# Mechanical properties :
#
#
# Convention : Reuss Voigt Hill
#
# Bulk Modulus (GPa) = 45.49257 72.59487 59.04372
# Shear Modulus (GPa) = -6.47358 33.87900 13.70271
#
# Velocity S-wave (km/s) = -1.82202 4.16818 2.65084
# Velocity P-wave (km/s) = 4.34776 7.77127 6.29665
#
# Compressibility (1/GPa) = 0.02198161
#
# Stress axis : x y z
#
# Youngs Moduli (GPa) = 75.02343 151.46805 56.81496
#
# Poissons Ratio (x) = -0.00869 0.33103
# Poissons Ratio (y) = -0.00430 0.11398
# Poissons Ratio (z) = 0.43712 0.30387
#
# Static dielectric constant tensor:
#      x y z
#    x 0.744200 0.000000 -0.706330 
#    y 0.000000 1.704520 0.000000 
#    z -0.706330 0.000000 1.234330 
# 
# From -- ./inp_files/69248.got.cif
#   From: 2010.05.17/outbox.cif.g08.bks.cpg/sg11_35_cif.got.tgz:69248.got - 2010.06.03 12:22:45.
