data_PCOD9157729
_publ_section_title
;
Structure prediction by ZEFSAII (Michael W. Deem and Ramdas Pophale) SiO2 
 PCOD9157729
Probable space group: P 21/M
;
_chemical_formula_sum "Si O2"
_cell_formula_units_Z 26
_cell_length_a 7.181715
_cell_length_b 20.673620
_cell_length_c 14.385286
_cell_angle_alpha 90.000000
_cell_angle_beta 36.386981
_cell_angle_gamma 90.000000
_cell_volume 1267.041033
_symmetry_space_group_name_H-M "P 21/M"
_symmetry_group_IT_number 11
_symmetry_cell_setting 'monoclinic'
loop_
_space_group_symop_operation_xyz
x,y,z
-x,1/2+y,-z
-x,-y,-z
x,1/2-y,z
loop_
_atom_site_type_symbol
_atom_site_label
_atom_site_fract_x
_atom_site_fract_y
_atom_site_fract_z
Si Si1 0.442414 0.750000 0.977513
Si Si2 0.482116 0.385005 0.821067
Si Si3 0.206180 0.045607 0.623551
Si Si4 0.160377 0.380221 0.468067
Si Si5 0.574746 0.750000 0.721687
Si Si6 0.239335 0.610753 0.080174
Si Si7 0.411836 0.476615 0.212061
Si Si8 0.175385 0.250000 0.982199
O O1 0.648072 0.750000 0.801865
O O2 0.654832 0.750000 0.984568
O O3 0.233737 0.685694 0.056981
O O4 0.587727 0.387590 0.888236
O O5 0.376919 0.459887 0.850484
O O6 0.784089 0.379407 0.631960
O O7 0.283751 0.318889 0.893410
O O8 0.271829 0.104502 0.527300
O O9 0.090503 0.076306 0.766173
O O10 0.500000 0.000000 0.500000
O O11 0.910492 0.004624 0.702825
O O12 0.282471 0.313164 0.381526
O O13 0.300682 0.436220 0.346049
O O14 0.199031 0.750000 0.860923
O O15 0.425064 0.570018 0.928558
#
# Coordination Sequence:
#
# PCOD9157729 Si02
#       8
#     2   4   4   4   2   4   4   2
#     4  10  20  40  58  84 118 158 196 248 298 352
#     4   9  18  36  59  81 112 156 190 232 305 355
#     4  10  21  36  57  89 118 148 197 251 300 354
#     4  10  21  38  59  84 120 158 187 248 304 354
#     4  12  23  39  61  91 120 150 215 245 291 359
#     4   9  18  35  61  79 112 159 194 232 298 358
#     4  10  18  36  60  83 112 156 190 233 299 359
#     4  10  23  39  61  85 114 156 203 247 293 359
#
# _framework density 20.520250999999998
#
# number of rings (size 3 to 8) (size 9 to 14) (size 15 to 20)
#    0.000    2.462    1.538    4.154    0.000    5.538 
#    5.538    1.538    0.000    2.769    0.000    0.000 
#    0.000    0.000    0.000    0.000    0.000    0.000 
#
# Total GULP energy -144934.536034 kJ/mol
# GULP energy per Si atom -5574.405232 kJ/mol
# Density = 2.047355 g / cm^3
# Si number density = 20.520251 Si / 1000 Ang^3
#
#
#
# Elastic Constant Matrix: (Units=GPa)
#
#
# Indices 1 2 3 4 5 6 
#
# 1 39.5357 25.4745 21.2804 0.0000 8.1752 0.0000
# 2 25.4745 171.8633 73.0755 0.0000 0.7300 0.0000
# 3 21.2804 73.0755 140.7857 0.0000 19.5479 0.0000
# 4 0.0000 0.0000 0.0000 39.0244 0.0000 -1.2460
# 5 8.1752 0.7300 19.5479 0.0000 20.7514 0.0000
# 6 0.0000 0.0000 0.0000 -1.2460 0.0000 -65.3744
#
#
#
# Elastic Compliance Matrix: (Units=1/GPa)
#
#
# Indices 1 2 3 4 5 6 
#
# 1 0.030743 -0.004088 -0.000994 0.000000 -0.011032 0.000000
# 2 -0.004088 0.008294 -0.004453 0.000000 0.005513 0.000000
# 3 -0.000994 -0.004453 0.010916 0.000000 -0.009735 0.000000
# 4 0.000000 0.000000 0.000000 0.025609 0.000000 -0.000488
# 5 -0.011032 0.005513 -0.009735 0.000000 0.061512 0.000000
# 6 0.000000 0.000000 0.000000 -0.000488 0.000000 -0.015287
#
#
# Mechanical properties :
#
#
# Convention : Reuss Voigt Hill
#
# Bulk Modulus (GPa) = 32.37727 65.76062 49.06894
# Shear Modulus (GPa) = 33.07931 14.37057 23.72494
#
# Velocity S-wave (km/s) = 4.01937 2.64921 3.40394
# Velocity P-wave (km/s) = 6.11170 6.44003 6.27801
#
# Compressibility (1/GPa) = 0.03088586
#
# Stress axis : x y z
#
# Youngs Moduli (GPa) = 32.52730 120.56328 91.60726
#
# Poissons Ratio (x) = 0.49282 0.09101
# Poissons Ratio (y) = 0.13296 0.40792
# Poissons Ratio (z) = 0.03232 0.53685
#
# Static dielectric constant tensor:
#      x y z
#    x 1.832780 0.000000 0.015240 
#    y 0.000000 1.749910 0.000000 
#    z 0.015240 0.000000 1.718710 
# 
# From -- ./inp_files/13960.got.cif
#   From: 2010.05.17/outbox.cif.g08.bks.cpg/sg11_7_cif.got.tgz:13960.got - 2010.06.03 12:22:45.
