data_PCOD9157519
_publ_section_title
;
Structure prediction by ZEFSAII (Michael W. Deem and Ramdas Pophale) SiO2 
 PCOD9157519
Probable space group: P 21/M
;
_chemical_formula_sum "Si O2"
_cell_formula_units_Z 22
_cell_length_a 9.817544
_cell_length_b 13.820552
_cell_length_c 7.302030
_cell_angle_alpha 90.000000
_cell_angle_beta 105.903446
_cell_angle_gamma 90.000000
_cell_volume 952.845940
_symmetry_space_group_name_H-M "P 21/M"
_symmetry_group_IT_number 11
_symmetry_cell_setting 'monoclinic'
loop_
_space_group_symop_operation_xyz
x,y,z
-x,1/2+y,-z
-x,-y,-z
x,1/2-y,z
loop_
_atom_site_type_symbol
_atom_site_label
_atom_site_fract_x
_atom_site_fract_y
_atom_site_fract_z
Si Si1 0.173068 0.571780 0.578173
Si Si2 0.141065 0.137874 0.469031
Si Si3 0.399084 0.750000 0.249398
Si Si4 0.843786 0.103094 0.864837
Si Si5 0.841197 0.613800 0.941027
Si Si6 0.375862 0.750000 0.677341
Si Si7 0.366382 0.250000 0.949026
O O1 0.202771 0.456226 0.600192
O O2 0.153326 0.588224 0.352689
O O3 0.287210 0.651415 0.680766
O O4 0.023669 0.604646 0.608569
O O5 0.146159 0.250000 0.539208
O O6 0.201081 0.137178 0.284231
O O7 0.298788 0.661509 0.151543
O O8 0.411042 0.750000 0.473409
O O9 0.550674 0.750000 0.210721
O O10 0.837660 0.000841 0.961446
O O11 0.996594 0.146152 0.970142
O O12 0.735204 0.661279 0.042661
O O13 0.510987 0.750000 0.854020
#
# Coordination Sequence:
#
# PCOD9157519 Si02
#       7
#     4   4   2   4   4   2   2
#     4   9  19  35  60  93 121 164 209 262 333 371
#     4  10  18  33  60  90 125 151 214 274 311 379
#     4  10  23  41  63  89 127 174 212 250 332 376
#     4   9  20  40  65  86 122 159 210 273 309 373
#     4  10  21  39  61  93 119 157 215 267 317 367
#     4  10  22  43  60  89 134 173 212 262 312 406
#     4  12  25  40  65  94 129 173 212 252 326 396
#
# _framework density 23.088726000000001
#
# number of rings (size 3 to 8) (size 9 to 14) (size 15 to 20)
#    0.000    2.182    1.818    0.545    2.545    0.727 
#    3.273    8.182    0.000    0.000    0.000    0.000 
#    0.000    0.000    0.000    0.000    0.000    0.000 
#
# Total GULP energy -122965.438918 kJ/mol
# GULP energy per Si atom -5589.338133 kJ/mol
# Density = 2.303618 g / cm^3
# Si number density = 23.088726 Si / 1000 Ang^3
#
#
#
# Elastic Constant Matrix: (Units=GPa)
#
#
# Indices 1 2 3 4 5 6 
#
# 1 107.9867 45.2420 20.9181 0.0000 -24.2600 0.0000
# 2 45.2420 197.7231 29.8466 0.0000 -0.7766 0.0000
# 3 20.9181 29.8466 74.0679 0.0000 -2.8984 0.0000
# 4 0.0000 0.0000 0.0000 19.8201 0.0000 -3.4956
# 5 -24.2600 -0.7766 -2.8984 0.0000 37.5000 0.0000
# 6 0.0000 0.0000 0.0000 -3.4956 0.0000 50.9571
#
#
#
# Elastic Compliance Matrix: (Units=1/GPa)
#
#
# Indices 1 2 3 4 5 6 
#
# 1 0.012502 -0.002495 -0.002218 0.000000 0.007865 0.000000
# 2 -0.002495 0.005883 -0.001730 0.000000 -0.001626 0.000000
# 3 -0.002218 -0.001730 0.014812 0.000000 -0.000326 0.000000
# 4 0.000000 0.000000 0.000000 0.051072 0.000000 0.003504
# 5 0.007865 -0.001626 -0.000326 0.000000 0.031696 0.000000
# 6 0.000000 0.000000 0.000000 0.003504 0.000000 0.019865
#
#
# Mechanical properties :
#
#
# Convention : Reuss Voigt Hill
#
# Bulk Modulus (GPa) = 49.23123 63.53233 56.38178
# Shear Modulus (GPa) = 32.15738 40.57349 36.36543
#
# Velocity S-wave (km/s) = 3.73604 4.19655 3.97297
# Velocity P-wave (km/s) = 6.32294 7.14547 6.74675
#
# Compressibility (1/GPa) = 0.02031231
#
# Stress axis : x y z
#
# Youngs Moduli (GPa) = 79.98554 169.97568 67.51423
#
# Poissons Ratio (x) = 0.42410 0.14973
# Poissons Ratio (y) = 0.19957 0.11678
# Poissons Ratio (z) = 0.17738 0.29400
#
# Static dielectric constant tensor:
#      x y z
#    x 1.806230 0.000000 -0.025200 
#    y 0.000000 1.908660 0.000000 
#    z -0.025200 0.000000 1.881430 
# 
# From -- ./inp_files/12642.got.cif
#   From: 2010.05.17/outbox.cif.g08.bks.cpg/sg11_7_cif.got.tgz:12642.got - 2010.06.03 12:22:45.
