data_PCOD9157004
_publ_section_title
;
Structure prediction by ZEFSAII (Michael W. Deem and Ramdas Pophale) SiO2 
 PCOD9157004
Probable space group: P 21/M
;
_chemical_formula_sum "Si O2"
_cell_formula_units_Z 32
_cell_length_a 21.750548
_cell_length_b 8.724765
_cell_length_c 14.570368
_cell_angle_alpha 90.000000
_cell_angle_beta 46.990612
_cell_angle_gamma 90.000000
_cell_volume 2021.880844
_symmetry_space_group_name_H-M "P 21/M"
_symmetry_group_IT_number 11
_symmetry_cell_setting 'monoclinic'
loop_
_space_group_symop_operation_xyz
x,y,z
-x,1/2+y,-z
-x,-y,-z
x,1/2-y,z
loop_
_atom_site_type_symbol
_atom_site_label
_atom_site_fract_x
_atom_site_fract_y
_atom_site_fract_z
Si Si1 0.179264 0.065757 0.226202
Si Si2 0.402391 0.434272 0.504245
Si Si3 0.005357 0.933465 0.391080
Si Si4 0.325861 0.065035 0.388490
Si Si5 0.168730 0.567200 0.442633
Si Si6 0.599435 0.067181 0.297609
Si Si7 0.653028 0.933035 0.056739
Si Si8 0.504462 0.566438 0.893575
O O1 0.171747 0.250000 0.240292
O O2 0.094848 0.997100 0.266701
O O3 0.186010 0.999311 0.322643
O O4 0.261860 0.026268 0.084031
O O5 0.399772 0.250000 0.517359
O O6 0.348002 0.475933 0.470815
O O7 0.375745 0.511296 0.626425
O O8 0.500423 0.475606 0.386862
O O9 0.005172 0.750000 0.392864
O O10 0.000000 0.000000 0.500000
O O11 0.920138 0.996972 0.433279
O O12 0.315249 0.250000 0.394155
O O13 0.407623 0.024699 0.244405
O O14 0.244462 0.984046 0.430585
O O15 0.161895 0.750000 0.443493
O O16 0.605359 0.250000 0.284992
O O17 0.650819 0.991292 0.163195
O O18 0.644985 0.750000 0.063157
O O19 0.573373 0.005253 0.086126
O O20 0.500268 0.750000 0.900976
O O21 0.500000 0.500000 0.000000
#
# Coordination Sequence:
#
# PCOD9157004 Si02
#       8
#     4   4   4   4   4   4   4   4
#     4  10  20  34  50  71 100 133 168 206 246 290
#     4   9  18  34  52  71  95 128 164 207 255 295
#     4  10  18  31  51  72  96 128 163 204 250 292
#     4  10  20  35  50  68  98 133 168 204 246 292
#     4  11  21  32  49  74 101 131 167 206 247 293
#     4  10  19  33  52  74  97 126 163 210 254 294
#     4  11  22  34  50  72  99 134 169 204 247 295
#     4  11  22  35  48  67  98 135 172 206 243 287
#
# _framework density 15.826847000000001
#
# number of rings (size 3 to 8) (size 9 to 14) (size 15 to 20)
#    0.000    1.750    1.250    6.000    0.000    7.000 
#    0.000    0.000    0.000    0.000    0.000    0.875 
#    0.000    0.000    0.000    0.000    0.000    0.000 
#
# Total GULP energy -178630.467327 kJ/mol
# GULP energy per Si atom -5582.202104 kJ/mol
# Density = 1.579082 g / cm^3
# Si number density = 15.826847 Si / 1000 Ang^3
#
#
#
# Elastic Constant Matrix: (Units=GPa)
#
#
# Indices 1 2 3 4 5 6 
#
# 1 115.7655 47.6380 65.8802 0.0000 -9.7445 0.0000
# 2 47.6380 67.3245 30.5817 0.0000 -9.5920 0.0000
# 3 65.8802 30.5817 51.2580 0.0000 -7.4667 0.0000
# 4 0.0000 0.0000 0.0000 24.1027 0.0000 -0.8467
# 5 -9.7445 -9.5920 -7.4667 0.0000 28.4203 0.0000
# 6 0.0000 0.0000 0.0000 -0.8467 0.0000 28.9035
#
#
#
# Elastic Compliance Matrix: (Units=1/GPa)
#
#
# Indices 1 2 3 4 5 6 
#
# 1 0.033718 -0.005820 -0.039997 0.000000 -0.000911 0.000000
# 2 -0.005820 0.021789 -0.004928 0.000000 0.004064 0.000000
# 3 -0.039997 -0.004928 0.074466 0.000000 0.004187 0.000000
# 4 0.000000 0.000000 0.000000 0.041532 0.000000 0.001217
# 5 -0.000911 0.004064 0.004187 0.000000 0.037345 0.000000
# 6 0.000000 0.000000 0.000000 0.001217 0.000000 0.034634
#
#
# Mechanical properties :
#
#
# Convention : Reuss Voigt Hill
#
# Bulk Modulus (GPa) = 35.10800 58.06087 46.58443
# Shear Modulus (GPa) = 14.10564 22.30184 18.20374
#
# Velocity S-wave (km/s) = 2.98862 3.75789 3.39511
# Velocity P-wave (km/s) = 5.84293 7.45612 6.69826
#
# Compressibility (1/GPa) = 0.02848354
#
# Stress axis : x y z
#
# Youngs Moduli (GPa) = 29.65756 45.89509 13.42889
#
# Poissons Ratio (x) = 0.26711 0.53712
# Poissons Ratio (y) = 0.17260 0.06617
# Poissons Ratio (z) = 1.18623 0.22615
#
# Static dielectric constant tensor:
#      x y z
#    x 1.525390 0.000000 -0.013700 
#    y 0.000000 1.529290 0.000000 
#    z -0.013700 0.000000 1.527240 
# 
# From -- ./inp_files/54227.got.cif
#   From: 2010.05.17/outbox.cif.g08.bks.cpg/sg11_28_cif.got.tgz:54227.got - 2010.06.03 12:22:45.
