data_PCOD9157632
_publ_section_title
;
Structure prediction by ZEFSAII (Michael W. Deem and Ramdas Pophale) SiO2 
 PCOD9157632
Probable space group: P 21/M
;
_chemical_formula_sum "Si O2"
_cell_formula_units_Z 32
_cell_length_a 14.203062
_cell_length_b 22.054896
_cell_length_c 7.916838
_cell_angle_alpha 90.000000
_cell_angle_beta 147.281263
_cell_angle_gamma 90.000000
_cell_volume 1340.438506
_symmetry_space_group_name_H-M "P 21/M"
_symmetry_group_IT_number 11
_symmetry_cell_setting 'monoclinic'
loop_
_space_group_symop_operation_xyz
x,y,z
-x,1/2+y,-z
-x,-y,-z
x,1/2-y,z
loop_
_atom_site_type_symbol
_atom_site_label
_atom_site_fract_x
_atom_site_fract_y
_atom_site_fract_z
Si Si1 0.209110 0.602715 0.996254
Si Si2 0.600207 0.481609 0.480257
Si Si3 0.269905 0.818446 0.652961
Si Si4 0.962050 0.605398 0.367952
Si Si5 0.415769 0.128849 0.063528
Si Si6 0.797517 0.597308 0.769877
Si Si7 0.512519 0.679938 0.462518
Si Si8 0.962870 0.316271 0.035317
O O1 0.132488 0.667725 0.936530
O O2 0.080512 0.568293 0.677981
O O3 0.252237 0.563546 0.226202
O O4 0.391090 0.627543 0.198391
O O5 0.500000 0.500000 0.500000
O O6 0.473316 0.441150 0.176310
O O7 0.685166 0.541535 0.534375
O O8 0.297737 0.750000 0.754342
O O9 0.462576 0.847277 0.906883
O O10 0.116236 0.849510 0.532291
O O11 0.173344 0.816214 0.324536
O O12 0.794300 0.630404 0.221859
O O13 0.887411 0.576935 0.082432
O O14 0.483527 0.166108 0.330857
O O15 0.699339 0.658513 0.680005
O O16 0.920577 0.624711 0.816051
O O17 0.477552 0.750000 0.379077
O O18 0.046928 0.250000 0.168578
#
# Coordination Sequence:
#
# PCOD9157632 Si02
#       8
#     4   4   4   4   4   4   4   4
#     4  11  22  37  61  90 129 159 193 259 319 367
#     4  11  19  40  65  89 119 163 217 258 299 377
#     4  10  20  38  63  90 122 164 213 257 302 378
#     4  10  23  39  58  93 130 159 205 253 325 369
#     4  10  20  39  64  88 119 165 209 253 306 371
#     4  10  21  39  63  88 115 160 211 256 300 368
#     4  10  18  34  60  84 112 158 204 244 301 361
#     4  10  20  38  61  90 120 155 208 258 304 373
#
# _framework density 23.872786000000001
#
# number of rings (size 3 to 8) (size 9 to 14) (size 15 to 20)
#    0.000    1.750    6.250    1.125    0.000    5.500 
#    2.250    0.000    0.000    1.500    0.000    0.000 
#    0.000    0.000    0.000    0.000    0.000    0.000 
#
# Total GULP energy -178236.818429 kJ/mol
# GULP energy per Si atom -5569.900576 kJ/mol
# Density = 2.381845 g / cm^3
# Si number density = 23.872786 Si / 1000 Ang^3
#
#
#
# Elastic Constant Matrix: (Units=GPa)
#
#
# Indices 1 2 3 4 5 6 
#
# 1 86.6806 14.8497 19.2025 0.0000 25.3772 0.0000
# 2 14.8497 93.8272 4.6830 0.0000 15.6546 0.0000
# 3 19.2025 4.6830 55.8570 0.0000 2.0143 0.0000
# 4 0.0000 0.0000 0.0000 9.3369 0.0000 12.5011
# 5 25.3772 15.6546 2.0143 0.0000 35.7841 0.0000
# 6 0.0000 0.0000 0.0000 12.5011 0.0000 19.8850
#
#
#
# Elastic Compliance Matrix: (Units=1/GPa)
#
#
# Indices 1 2 3 4 5 6 
#
# 1 0.015888 -0.000465 -0.005034 0.000000 -0.010780 0.000000
# 2 -0.000465 0.011545 -0.000639 0.000000 -0.004685 0.000000
# 3 -0.005034 -0.000639 0.019588 0.000000 0.002747 0.000000
# 4 0.000000 0.000000 0.000000 0.676699 0.000000 -0.425422
# 5 -0.010780 -0.004685 0.002747 0.000000 0.037486 0.000000
# 6 0.000000 0.000000 0.000000 -0.425422 0.000000 0.317741
#
#
# Mechanical properties :
#
#
# Convention : Reuss Voigt Hill
#
# Bulk Modulus (GPa) = 28.78134 34.87058 31.82596
# Shear Modulus (GPa) = 4.53390 26.17651 15.35520
#
# Velocity S-wave (km/s) = 1.37961 3.31494 2.53891
# Velocity P-wave (km/s) = 3.82362 5.41205 4.68563
#
# Compressibility (1/GPa) = 0.03474474
#
# Stress axis : x y z
#
# Youngs Moduli (GPa) = 62.94230 86.61749 51.05162
#
# Poissons Ratio (x) = 0.04024 0.25700
# Poissons Ratio (y) = 0.02924 0.03264
# Poissons Ratio (z) = 0.31686 0.05537
#
# Static dielectric constant tensor:
#      x y z
#    x 1.952660 0.000000 0.018390 
#    y 0.000000 1.958800 0.000000 
#    z 0.018390 0.000000 2.028580 
# 
# From -- ./inp_files/23392.got.cif
#   From: 2010.05.17/outbox.cif.g08.bks.cpg/sg11_12_cif.got.tgz:23392.got - 2010.06.03 12:22:45.
