data_PCOD9157313
_publ_section_title
;
Structure prediction by ZEFSAII (Michael W. Deem and Ramdas Pophale) SiO2 
 PCOD9157313
Probable space group: P 21/M
;
_chemical_formula_sum "Si O2"
_cell_formula_units_Z 24
_cell_length_a 14.345312
_cell_length_b 14.676184
_cell_length_c 7.238946
_cell_angle_alpha 90.000000
_cell_angle_beta 132.216445
_cell_angle_gamma 90.000000
_cell_volume 1128.727464
_symmetry_space_group_name_H-M "P 21/M"
_symmetry_group_IT_number 11
_symmetry_cell_setting 'monoclinic'
loop_
_space_group_symop_operation_xyz
x,y,z
-x,1/2+y,-z
-x,-y,-z
x,1/2-y,z
loop_
_atom_site_type_symbol
_atom_site_label
_atom_site_fract_x
_atom_site_fract_y
_atom_site_fract_z
Si Si1 0.127364 0.946189 0.625725
Si Si2 0.873647 0.955356 0.755850
Si Si3 0.594613 0.552970 0.382438
Si Si4 0.638095 0.554112 0.992492
Si Si5 0.622437 0.750000 0.444080
Si Si6 0.980957 0.250000 0.564828
Si Si7 0.104194 0.250000 0.129865
Si Si8 0.268463 0.250000 0.833756
O O1 0.096536 0.840094 0.589926
O O2 0.151749 0.981953 0.453589
O O3 0.247524 0.984230 0.894677
O O4 0.000000 0.000000 0.500000
O O5 0.733376 0.957316 0.657479
O O6 0.907550 0.847434 0.781214
O O7 0.000000 0.000000 0.000000
O O8 0.612614 0.553151 0.181661
O O9 0.550703 0.655554 0.371568
O O10 0.488729 0.478114 0.275319
O O11 0.681199 0.656611 0.012385
O O12 0.749266 0.750000 0.734016
O O13 0.681487 0.750000 0.312653
O O14 0.117290 0.250000 0.647753
O O15 0.016137 0.250000 0.831164
#
# Coordination Sequence:
#
# PCOD9157313 Si02
#       8
#     4   4   4   4   2   2   2   2
#     4  11  22  34  54  81 114 141 180 231 274 321
#     4  10  19  35  55  81 113 142 183 226 272 319
#     4   8  16  29  52  76 104 137 177 220 271 319
#     4   9  17  32  49  78 108 140 176 223 274 320
#     4   8  16  31  54  76  98 142 180 219 268 330
#     4  12  22  33  52  85 109 142 186 227 277 323
#     4  10  20  34  55  77 107 150 183 217 269 333
#     4  10  18  32  55  74 108 144 185 215 272 342
#
# _framework density 21.262881
#
# number of rings (size 3 to 8) (size 9 to 14) (size 15 to 20)
#    0.000    2.333    3.333    1.000    0.000    0.667 
#    0.000    5.833    0.000    9.000    0.000    0.000 
#    0.000    0.000    0.000    0.000    0.000    0.000 
#
# Total GULP energy -133694.122596 kJ/mol
# GULP energy per Si atom -5570.588442 kJ/mol
# Density = 2.121449 g / cm^3
# Si number density = 21.262881 Si / 1000 Ang^3
#
#
#
# Elastic Constant Matrix: (Units=GPa)
#
#
# Indices 1 2 3 4 5 6 
#
# 1 36.1665 46.5018 22.0687 0.0000 10.4761 0.0000
# 2 46.5018 234.3668 73.7094 0.0000 35.4506 0.0000
# 3 22.0687 73.7094 109.1314 0.0000 26.8530 0.0000
# 4 0.0000 0.0000 0.0000 17.4866 0.0000 14.4176
# 5 10.4761 35.4506 26.8530 0.0000 34.5398 0.0000
# 6 0.0000 0.0000 0.0000 14.4176 0.0000 29.0914
#
#
#
# Elastic Compliance Matrix: (Units=1/GPa)
#
#
# Indices 1 2 3 4 5 6 
#
# 1 0.038270 -0.006267 -0.002761 0.000000 -0.003029 0.000000
# 2 -0.006267 0.006778 -0.002556 0.000000 -0.003069 0.000000
# 3 -0.002761 -0.002556 0.013103 0.000000 -0.006726 0.000000
# 4 0.000000 0.000000 0.000000 0.096699 0.000000 -0.047924
# 5 -0.003029 -0.003069 -0.006726 0.000000 0.038251 0.000000
# 6 0.000000 0.000000 0.000000 -0.047924 0.000000 0.058125
#
#
# Mechanical properties :
#
#
# Convention : Reuss Voigt Hill
#
# Bulk Modulus (GPa) = 28.58455 73.80274 51.19365
# Shear Modulus (GPa) = 17.47925 32.04922 24.76423
#
# Velocity S-wave (km/s) = 2.87026 3.88659 3.41643
# Velocity P-wave (km/s) = 4.94541 7.41119 6.30011
#
# Compressibility (1/GPa) = 0.03498393
#
# Stress axis : x y z
#
# Youngs Moduli (GPa) = 26.13036 147.53006 76.31955
#
# Poissons Ratio (x) = 0.92454 0.21072
# Poissons Ratio (y) = 0.16375 0.19504
# Poissons Ratio (z) = 0.07215 0.37703
#
# Static dielectric constant tensor:
#      x y z
#    x 1.808650 0.000000 -0.009940 
#    y 0.000000 1.734290 0.000000 
#    z -0.009940 0.000000 1.826870 
# 
# From -- ./inp_files/22380.got.cif
#   From: 2010.05.17/outbox.cif.g08.bks.cpg/sg11_12_cif.got.tgz:22380.got - 2010.06.03 12:22:45.
