data_PCOD9157663
_publ_section_title
;
Structure prediction by ZEFSAII (Michael W. Deem and Ramdas Pophale) SiO2 
 PCOD9157663
Probable space group: P 21/M
;
_chemical_formula_sum "Si O2"
_cell_formula_units_Z 32
_cell_length_a 12.184949
_cell_length_b 19.753233
_cell_length_c 10.093297
_cell_angle_alpha 90.000000
_cell_angle_beta 51.029759
_cell_angle_gamma 90.000000
_cell_volume 1888.774518
_symmetry_space_group_name_H-M "P 21/M"
_symmetry_group_IT_number 11
_symmetry_cell_setting 'monoclinic'
loop_
_space_group_symop_operation_xyz
x,y,z
-x,1/2+y,-z
-x,-y,-z
x,1/2-y,z
loop_
_atom_site_type_symbol
_atom_site_label
_atom_site_fract_x
_atom_site_fract_y
_atom_site_fract_z
Si Si1 0.947790 0.938103 0.132387
Si Si2 0.953616 0.936982 0.444708
Si Si3 0.633071 0.564035 0.757004
Si Si4 0.797280 0.171264 0.748493
Si Si5 0.534180 0.090715 0.848336
Si Si6 0.812087 0.327805 0.050275
Si Si7 0.635951 0.933145 0.272513
Si Si8 0.565810 0.087484 0.327377
O O1 0.947953 0.954505 0.290788
O O2 0.791568 0.916578 0.205009
O O3 0.054811 0.876241 0.032281
O O4 0.000000 0.000000 0.000000
O O5 0.796336 0.919023 0.612564
O O6 0.067322 0.876907 0.377289
O O7 0.000000 0.000000 0.500000
O O8 0.609077 0.482501 0.766830
O O9 0.544418 0.597534 0.706861
O O10 0.561777 0.585238 0.948239
O O11 0.825075 0.250000 0.697200
O O12 0.660638 0.143267 0.775253
O O13 0.767850 0.165923 0.928982
O O14 0.426218 0.102150 0.810153
O O15 0.844529 0.250000 0.052582
O O16 0.684431 0.355884 0.234781
O O17 0.521725 0.918801 0.472547
O O18 0.637554 0.014355 0.246552
#
# Coordination Sequence:
#
# PCOD9157663 Si02
#       8
#     4   4   4   4   4   4   4   4
#     4  11  22  36  57  87 119 152 188 241 294 342
#     4  11  22  35  59  88 115 150 195 245 286 339
#     4  10  19  33  56  85 110 138 194 236 277 321
#     4  10  21  39  58  83 116 153 191 235 292 348
#     4  10  20  33  57  83 110 145 182 237 282 341
#     4  10  21  38  60  83 113 155 195 230 284 352
#     4  10  21  33  56  86 114 142 182 239 291 329
#     4  10  18  35  55  83 114 143 186 235 277 334
#
# _framework density 16.942202000000002
#
# number of rings (size 3 to 8) (size 9 to 14) (size 15 to 20)
#    0.000    1.750    5.000    0.000    1.750    0.000 
#    0.000    3.125    0.000    0.000    0.000    0.000 
#    0.000    0.000    0.000    0.000    0.000    0.000 
#
# Total GULP energy -178460.254847 kJ/mol
# GULP energy per Si atom -5576.882964 kJ/mol
# Density = 1.690364 g / cm^3
# Si number density = 16.942202 Si / 1000 Ang^3
#
#
#
# Elastic Constant Matrix: (Units=GPa)
#
#
# Indices 1 2 3 4 5 6 
#
# 1 133.4811 51.8305 39.1180 0.0000 -2.7608 0.0000
# 2 51.8305 92.1693 36.5307 0.0000 -6.2208 0.0000
# 3 39.1180 36.5307 58.1767 0.0000 -8.8490 0.0000
# 4 0.0000 0.0000 0.0000 16.6335 0.0000 -1.9786
# 5 -2.7608 -6.2208 -8.8490 0.0000 30.7132 0.0000
# 6 0.0000 0.0000 0.0000 -1.9786 0.0000 21.2207
#
#
#
# Elastic Compliance Matrix: (Units=1/GPa)
#
#
# Indices 1 2 3 4 5 6 
#
# 1 0.010413 -0.004113 -0.004605 0.000000 -0.001224 0.000000
# 2 -0.004113 0.016072 -0.007203 0.000000 0.000810 0.000000
# 3 -0.004605 -0.007203 0.025648 0.000000 0.005517 0.000000
# 4 0.000000 0.000000 0.000000 0.060794 0.000000 0.005668
# 5 -0.001224 0.000810 0.005517 0.000000 0.034203 0.000000
# 6 0.000000 0.000000 0.000000 0.005668 0.000000 0.047652
#
#
# Mechanical properties :
#
#
# Convention : Reuss Voigt Hill
#
# Bulk Modulus (GPa) = 49.28553 59.86508 54.57530
# Shear Modulus (GPa) = 21.42350 24.13668 22.78009
#
# Velocity S-wave (km/s) = 3.55985 3.77855 3.67083
# Velocity P-wave (km/s) = 6.78603 7.37890 7.08867
#
# Compressibility (1/GPa) = 0.02028993
#
# Stress axis : x y z
#
# Youngs Moduli (GPa) = 96.03306 62.21927 38.98969
#
# Poissons Ratio (x) = 0.25591 0.17956
# Poissons Ratio (y) = 0.39499 0.28085
# Poissons Ratio (z) = 0.44225 0.44818
#
# Static dielectric constant tensor:
#      x y z
#    x 1.581380 0.000000 0.006510 
#    y 0.000000 1.559670 0.000000 
#    z 0.006510 0.000000 1.570540 
# 
# From -- ./inp_files/19339.got.cif
#   From: 2010.05.17/outbox.cif.g08.bks.cpg/sg11_10_cif.got.tgz:19339.got - 2010.06.03 12:22:45.
