data_PCOD9157290
_publ_section_title
;
Structure prediction by ZEFSAII (Michael W. Deem and Ramdas Pophale) SiO2 
 PCOD9157290
Probable space group: P 21/M
;
_chemical_formula_sum "Si O2"
_cell_formula_units_Z 28
_cell_length_a 11.887744
_cell_length_b 11.340440
_cell_length_c 22.046825
_cell_angle_alpha 90.000000
_cell_angle_beta 155.211291
_cell_angle_gamma 90.000000
_cell_volume 1246.156220
_symmetry_space_group_name_H-M "P 21/M"
_symmetry_group_IT_number 11
_symmetry_cell_setting 'monoclinic'
loop_
_space_group_symop_operation_xyz
x,y,z
-x,1/2+y,-z
-x,-y,-z
x,1/2-y,z
loop_
_atom_site_type_symbol
_atom_site_label
_atom_site_fract_x
_atom_site_fract_y
_atom_site_fract_z
Si Si1 0.547715 0.018686 0.291340
Si Si2 0.102832 0.121219 0.764238
Si Si3 0.732725 0.384277 0.702285
Si Si4 0.425446 0.878650 0.568540
Si Si5 0.688393 0.120289 0.169465
Si Si6 0.977794 0.622635 0.551886
Si Si7 0.194268 0.384923 0.022208
O O1 0.670367 0.907201 0.387210
O O2 0.539537 0.112189 0.341868
O O3 0.795143 0.041187 0.366481
O O4 0.290980 0.027990 0.122737
O O5 0.239187 0.250000 0.826480
O O6 0.933498 0.119611 0.743260
O O7 0.884881 0.118361 0.603142
O O8 0.277200 0.003313 0.847376
O O9 0.615910 0.250000 0.647940
O O10 0.557475 0.501946 0.607533
O O11 0.914021 0.405669 0.851282
O O12 0.530382 0.750000 0.598480
O O13 0.681224 0.250000 0.135386
O O14 0.945526 0.124675 0.340337
O O15 0.424049 0.112942 0.082455
O O16 0.036854 0.750000 0.554262
O O17 0.195395 0.250000 0.046592
#
# Coordination Sequence:
#
# PCOD9157290 Si02
#       7
#     4   4   4   4   4   4   4
#     4  10  18  32  54  79 110 141 173 218 276 322
#     4  10  21  37  56  83 111 140 178 230 282 317
#     4  10  23  41  57  73 107 152 192 224 260 320
#     4  11  22  36  56  82 109 139 181 232 279 315
#     4   9  17  33  58  85 111 141 178 220 269 330
#     4   9  17  30  50  81 113 141 174 214 267 329
#     4   9  19  37  56  78 109 148 183 215 266 329
#
# _framework density 22.469093000000001
#
# number of rings (size 3 to 8) (size 9 to 14) (size 15 to 20)
#    0.000    2.286    1.429    2.571    0.000    2.857 
#    0.000    1.429    0.000    0.000    0.000    0.000 
#    0.000    0.000    0.000    0.000    0.000    0.000 
#
# Total GULP energy -155987.316028 kJ/mol
# GULP energy per Si atom -5570.975572 kJ/mol
# Density = 2.241795 g / cm^3
# Si number density = 22.469093 Si / 1000 Ang^3
#
#
#
# Elastic Constant Matrix: (Units=GPa)
#
#
# Indices 1 2 3 4 5 6 
#
# 1 35.9286 23.3360 11.8066 0.0000 -5.7396 0.0000
# 2 23.3360 161.4277 52.5188 0.0000 -1.1289 0.0000
# 3 11.8066 52.5188 91.1730 0.0000 10.1635 0.0000
# 4 0.0000 0.0000 0.0000 -52.3300 0.0000 5.6258
# 5 -5.7396 -1.1289 10.1635 0.0000 11.4411 0.0000
# 6 0.0000 0.0000 0.0000 5.6258 0.0000 27.0322
#
#
#
# Elastic Compliance Matrix: (Units=1/GPa)
#
#
# Indices 1 2 3 4 5 6 
#
# 1 0.035116 -0.003265 -0.005100 0.000000 0.021824 0.000000
# 2 -0.003265 0.008212 -0.004679 0.000000 0.003329 0.000000
# 3 -0.005100 -0.004679 0.016272 0.000000 -0.017475 0.000000
# 4 0.000000 0.000000 0.000000 -0.018691 0.000000 0.003890
# 5 0.021824 0.003329 -0.017475 0.000000 0.114204 0.000000
# 6 0.000000 0.000000 0.000000 0.003890 0.000000 0.036183
#
#
# Mechanical properties :
#
#
# Convention : Reuss Voigt Hill
#
# Bulk Modulus (GPa) = 29.83897 51.53913 40.68905
# Shear Modulus (GPa) = 21.87676 10.61986 16.24831
#
# Velocity S-wave (km/s) = 3.12370 2.17639 2.69204
# Velocity P-wave (km/s) = 5.13019 5.41324 5.27361
#
# Compressibility (1/GPa) = 0.03351322
#
# Stress axis : x y z
#
# Youngs Moduli (GPa) = 28.47740 121.77119 61.45641
#
# Poissons Ratio (x) = 0.39753 0.31341
# Poissons Ratio (y) = 0.09297 0.28754
# Poissons Ratio (z) = 0.14523 0.56974
#
# Static dielectric constant tensor:
#      x y z
#    x 1.877630 0.000000 -0.020360 
#    y 0.000000 1.900360 0.000000 
#    z -0.020360 0.000000 1.861820 
# 
# From -- ./inp_files/64688.got.cif
#   From: 2010.05.17/outbox.cif.g08.bks.cpg/sg11_33_cif.got.tgz:64688.got - 2010.06.03 12:22:45.
