data_PCOD9157932
_publ_section_title
;
Structure prediction by ZEFSAII (Michael W. Deem and Ramdas Pophale) SiO2 
 PCOD9157932
Probable space group: P 21/M
;
_chemical_formula_sum "Si O2"
_cell_formula_units_Z 32
_cell_length_a 6.686548
_cell_length_b 7.592075
_cell_length_c 23.286766
_cell_angle_alpha 90.000000
_cell_angle_beta 104.222281
_cell_angle_gamma 90.000000
_cell_volume 1145.914454
_symmetry_space_group_name_H-M "P 21/M"
_symmetry_group_IT_number 11
_symmetry_cell_setting 'monoclinic'
loop_
_space_group_symop_operation_xyz
x,y,z
-x,1/2+y,-z
-x,-y,-z
x,1/2-y,z
loop_
_atom_site_type_symbol
_atom_site_label
_atom_site_fract_x
_atom_site_fract_y
_atom_site_fract_z
Si Si1 0.822638 0.549617 0.233313
Si Si2 0.430666 0.957863 0.607314
Si Si3 0.768833 0.446573 0.858563
Si Si4 0.740761 0.954506 0.104605
Si Si5 0.245009 0.042668 0.016081
Si Si6 0.004549 0.535758 0.358659
Si Si7 0.218505 0.961538 0.483919
Si Si8 0.578608 0.544182 0.731261
O O1 0.893874 0.750000 0.224295
O O2 0.614988 0.555526 0.255220
O O3 0.741612 0.463775 0.168483
O O4 0.982345 0.469570 0.290932
O O5 0.462084 0.750000 0.601097
O O6 0.387399 0.036359 0.540910
O O7 0.591019 0.027359 0.666886
O O8 0.209215 0.982016 0.624447
O O9 0.696058 0.250000 0.843634
O O10 0.011269 0.447098 0.885921
O O11 0.672896 0.502571 0.913486
O O12 0.739245 0.537786 0.795036
O O13 0.669408 0.750000 0.102593
O O14 0.674868 0.038939 0.038925
O O15 0.259962 0.250000 0.010411
O O16 0.000000 0.000000 0.000000
O O17 0.007670 0.750000 0.356138
O O18 0.180845 0.473615 0.415966
O O19 0.236958 0.750000 0.482419
O O20 0.000000 0.000000 0.500000
O O21 0.526061 0.750000 0.721415
#
# Coordination Sequence:
#
# PCOD9157932 Si02
#       8
#     4   4   4   4   4   4   4   4
#     4   9  16  29  46  65  90 118 142 173 216 261
#     4   8  14  23  35  51  79 112 139 169 209 249
#     4  10  19  32  49  68  87 113 147 184 220 257
#     4   8  16  30  49  69  88 110 141 177 215 256
#     4   9  16  29  48  69  90 113 142 180 218 256
#     4   8  13  20  35  57  80 105 137 171 206 247
#     4   8  12  19  31  51  76 104 136 170 204 243
#     4  10  19  30  43  64  91 119 147 178 216 261
#
# _framework density 27.925295999999999
#
# number of rings (size 3 to 8) (size 9 to 14) (size 15 to 20)
#    0.000    3.250    0.000    1.875    0.000    0.500 
#    0.000    4.375    0.000    0.000    0.000    0.875 
#    0.000    0.000    0.000    0.625    0.000    0.000 
#
# Total GULP energy -178550.159174 kJ/mol
# GULP energy per Si atom -5579.692474 kJ/mol
# Density = 2.786174 g / cm^3
# Si number density = 27.925296 Si / 1000 Ang^3
#
#
#
# Elastic Constant Matrix: (Units=GPa)
#
#
# Indices 1 2 3 4 5 6 
#
# 1 53.5861 2.3511 58.0578 0.0000 3.5142 0.0000
# 2 2.3511 112.6407 21.2633 0.0000 -4.5225 0.0000
# 3 58.0578 21.2633 374.6165 0.0000 -6.1807 0.0000
# 4 0.0000 0.0000 0.0000 19.5949 0.0000 -0.4060
# 5 3.5142 -4.5225 -6.1807 0.0000 80.9256 0.0000
# 6 0.0000 0.0000 0.0000 -0.4060 0.0000 24.0892
#
#
#
# Elastic Compliance Matrix: (Units=1/GPa)
#
#
# Indices 1 2 3 4 5 6 
#
# 1 0.022555 0.000145 -0.003524 0.000000 -0.001241 0.000000
# 2 0.000145 0.008992 -0.000525 0.000000 0.000456 0.000000
# 3 -0.003524 -0.000525 0.003252 0.000000 0.000372 0.000000
# 4 0.000000 0.000000 0.000000 0.051052 0.000000 0.000860
# 5 -0.001241 0.000456 0.000372 0.000000 0.012465 0.000000
# 6 0.000000 0.000000 0.000000 0.000860 0.000000 0.041527
#
#
# Mechanical properties :
#
#
# Convention : Reuss Voigt Hill
#
# Bulk Modulus (GPa) = 37.05215 78.24307 57.64761
# Shear Modulus (GPa) = 31.91871 55.53335 43.72603
#
# Velocity S-wave (km/s) = 3.38450 4.46425 3.96134
# Velocity P-wave (km/s) = 5.34511 7.39272 6.45068
#
# Compressibility (1/GPa) = 0.02698899
#
# Stress axis : x y z
#
# Youngs Moduli (GPa) = 44.33630 111.20699 307.54732
#
# Poissons Ratio (x) = -0.01609 1.08386
# Poissons Ratio (y) = -0.00641 0.16155
# Poissons Ratio (z) = 0.15625 0.05842
#
# Static dielectric constant tensor:
#      x y z
#    x 2.328910 0.000000 0.047210 
#    y 0.000000 2.003620 0.000000 
#    z 0.047210 0.000000 2.404710 
# 
# From -- ./inp_files/68254.got.cif
#   From: 2010.05.17/outbox.cif.g08.bks.cpg/sg11_35_cif.got.tgz:68254.got - 2010.06.03 12:22:45.
