data_PCOD9157352
_publ_section_title
;
Structure prediction by ZEFSAII (Michael W. Deem and Ramdas Pophale) SiO2 
 PCOD9157352
Probable space group: P 21/M
;
_chemical_formula_sum "Si O2"
_cell_formula_units_Z 28
_cell_length_a 11.967366
_cell_length_b 7.749416
_cell_length_c 15.516360
_cell_angle_alpha 90.000000
_cell_angle_beta 114.764255
_cell_angle_gamma 90.000000
_cell_volume 1306.657874
_symmetry_space_group_name_H-M "P 21/M"
_symmetry_group_IT_number 11
_symmetry_cell_setting 'monoclinic'
loop_
_space_group_symop_operation_xyz
x,y,z
-x,1/2+y,-z
-x,-y,-z
x,1/2-y,z
loop_
_atom_site_type_symbol
_atom_site_label
_atom_site_fract_x
_atom_site_fract_y
_atom_site_fract_z
Si Si1 0.178050 0.461239 0.343889
Si Si2 0.017044 0.459356 0.138151
Si Si3 0.471946 0.458060 0.089361
Si Si4 0.553307 0.957339 0.610899
Si Si5 0.201355 0.046498 0.048327
Si Si6 0.139553 0.454307 0.524665
Si Si7 0.625934 0.456560 0.297133
O O1 0.178686 0.250000 0.345599
O O2 0.063670 0.512692 0.247302
O O3 0.305748 0.517121 0.341291
O O4 0.173740 0.524566 0.440713
O O5 0.013700 0.250000 0.134088
O O6 0.119375 0.521450 0.101495
O O7 0.885201 0.522759 0.063087
O O8 0.467400 0.250000 0.093043
O O9 0.337733 0.524057 0.076747
O O10 0.576928 0.520393 0.189451
O O11 0.500000 0.500000 0.000000
O O12 0.555999 0.750000 0.619937
O O13 0.464848 0.025183 0.657176
O O14 0.500000 0.000000 0.500000
O O15 0.215696 0.250000 0.070434
O O16 0.149754 0.250000 0.521953
O O17 0.235586 0.509574 0.628517
O O18 0.000000 0.500000 0.500000
O O19 0.612976 0.250000 0.291807
#
# Coordination Sequence:
#
# PCOD9157352 Si02
#       7
#     4   4   4   4   4   4   4
#     4   9  18  33  54  80 108 141 179 218 268 328
#     4   9  17  32  56  80 105 140 177 218 271 330
#     4  10  22  39  58  81 110 148 191 234 279 332
#     4  10  18  32  56  84 112 141 178 226 279 334
#     4   9  18  34  54  79 109 138 175 225 278 324
#     4  11  23  39  57  79 111 148 188 229 273 332
#     4  10  21  38  60  84 112 146 185 232 287 340
#
# _framework density 21.428713999999999
#
# number of rings (size 3 to 8) (size 9 to 14) (size 15 to 20)
#    0.000    2.286    1.429    1.286    0.000    5.714 
#    0.000    6.429    0.000    3.429    0.000    0.000 
#    0.000    0.000    0.000    0.000    0.000    0.000 
#
# Total GULP energy -156338.711149 kJ/mol
# GULP energy per Si atom -5583.525398 kJ/mol
# Density = 2.137994 g / cm^3
# Si number density = 21.428714 Si / 1000 Ang^3
#
#
#
# Elastic Constant Matrix: (Units=GPa)
#
#
# Indices 1 2 3 4 5 6 
#
# 1 109.7159 2.8750 63.3457 0.0000 19.8530 0.0000
# 2 2.8750 30.3391 0.8515 0.0000 -2.7292 0.0000
# 3 63.3457 0.8515 168.3708 0.0000 22.2152 0.0000
# 4 0.0000 0.0000 0.0000 24.0017 0.0000 3.0496
# 5 19.8530 -2.7292 22.2152 0.0000 27.8937 0.0000
# 6 0.0000 0.0000 0.0000 3.0496 0.0000 18.9588
#
#
#
# Elastic Compliance Matrix: (Units=1/GPa)
#
#
# Indices 1 2 3 4 5 6 
#
# 1 0.012486 -0.001607 -0.003907 0.000000 -0.005932 0.000000
# 2 -0.001607 0.033528 -0.000166 0.000000 0.004557 0.000000
# 3 -0.003907 -0.000166 0.007872 0.000000 -0.003506 0.000000
# 4 0.000000 0.000000 0.000000 0.042533 0.000000 -0.006842
# 5 -0.005932 0.004557 -0.003506 0.000000 0.043310 0.000000
# 6 0.000000 0.000000 0.000000 -0.006842 0.000000 0.053846
#
#
# Mechanical properties :
#
#
# Convention : Reuss Voigt Hill
#
# Bulk Modulus (GPa) = 23.51507 49.17448 36.34478
# Shear Modulus (GPa) = 22.81954 30.26107 26.54030
#
# Velocity S-wave (km/s) = 3.26683 3.76197 3.52311
# Velocity P-wave (km/s) = 5.02265 6.47052 5.79200
#
# Compressibility (1/GPa) = 0.04252592
#
# Stress axis : x y z
#
# Youngs Moduli (GPa) = 80.09285 29.82611 127.02626
#
# Poissons Ratio (x) = 0.04794 0.49623
# Poissons Ratio (y) = 0.12872 0.02110
# Poissons Ratio (z) = 0.31289 0.00495
#
# Static dielectric constant tensor:
#      x y z
#    x 1.762020 0.000000 -0.004160 
#    y 0.000000 1.804440 0.000000 
#    z -0.004160 0.000000 1.778710 
# 
# From -- ./inp_files/37505.got.cif
#   From: 2010.05.17/outbox.cif.g08.bks.cpg/sg11_19_cif.got.tgz:37505.got - 2010.06.03 12:22:45.
