data_PCOD9157567
_publ_section_title
;
Structure prediction by ZEFSAII (Michael W. Deem and Ramdas Pophale) SiO2 
 PCOD9157567
Probable space group: P 21/M
;
_chemical_formula_sum "Si O2"
_cell_formula_units_Z 28
_cell_length_a 11.488529
_cell_length_b 21.205738
_cell_length_c 11.085656
_cell_angle_alpha 90.000000
_cell_angle_beta 142.238739
_cell_angle_gamma 90.000000
_cell_volume 1653.845802
_symmetry_space_group_name_H-M "P 21/M"
_symmetry_group_IT_number 11
_symmetry_cell_setting 'monoclinic'
loop_
_space_group_symop_operation_xyz
x,y,z
-x,1/2+y,-z
-x,-y,-z
x,1/2-y,z
loop_
_atom_site_type_symbol
_atom_site_label
_atom_site_fract_x
_atom_site_fract_y
_atom_site_fract_z
Si Si1 0.138529 0.142264 0.893807
Si Si2 0.249367 0.820167 0.545135
Si Si3 0.617770 0.820828 0.680062
Si Si4 0.014362 0.002667 0.866976
Si Si5 0.592281 0.044049 0.898035
Si Si6 0.614086 0.946396 0.517019
Si Si7 0.519458 0.405625 0.098133
O O1 0.059590 0.073858 0.866918
O O2 0.960550 0.173882 0.682047
O O3 0.224235 0.173919 0.084487
O O4 0.324218 0.132502 0.962248
O O5 0.273572 0.750000 0.616365
O O6 0.410632 0.827058 0.573619
O O7 0.307698 0.871424 0.692212
O O8 0.629730 0.750000 0.636319
O O9 0.637643 0.881679 0.611062
O O10 0.816995 0.977141 0.656317
O O11 0.187689 0.962402 0.956788
O O12 0.000000 0.000000 0.000000
O O13 0.489602 0.066597 0.693335
O O14 0.515779 0.973884 0.869038
O O15 0.558278 0.084676 0.989318
O O16 0.500000 0.000000 0.500000
#
# Coordination Sequence:
#
# PCOD9157567 Si02
#       7
#     4   4   4   4   4   4   4
#     4  10  18  34  56  79 107 137 176 221 271 316
#     4  10  20  34  56  79 102 140 182 223 264 309
#     4  10  21  34  50  79 113 140 175 221 270 327
#     4  11  19  31  53  85 108 137 174 217 268 321
#     4  10  21  35  55  79 109 141 173 220 273 314
#     4  12  20  33  55  80 110 144 177 219 269 326
#     4   9  20  38  53  78 108 136 178 223 265 319
#
# _framework density 16.930236000000001
#
# number of rings (size 3 to 8) (size 9 to 14) (size 15 to 20)
#    0.000    1.714    2.857    3.857    0.000    1.714 
#    0.000    5.000    0.000    2.571    0.000    0.000 
#    0.000    0.000    0.000    0.000    0.000    0.000 
#
# Total GULP energy -156170.194043 kJ/mol
# GULP energy per Si atom -5577.506930 kJ/mol
# Density = 1.689170 g / cm^3
# Si number density = 16.930236 Si / 1000 Ang^3
#
#
#
# Elastic Constant Matrix: (Units=GPa)
#
#
# Indices 1 2 3 4 5 6 
#
# 1 83.9486 33.2335 44.7241 0.0000 -4.6617 0.0000
# 2 33.2335 70.2082 33.8647 0.0000 -0.0211 0.0000
# 3 44.7241 33.8647 110.7417 0.0000 8.6194 0.0000
# 4 0.0000 0.0000 0.0000 20.1074 0.0000 -0.5273
# 5 -4.6617 -0.0211 8.6194 0.0000 24.6274 0.0000
# 6 0.0000 0.0000 0.0000 -0.5273 0.0000 12.0327
#
#
#
# Elastic Compliance Matrix: (Units=1/GPa)
#
#
# Indices 1 2 3 4 5 6 
#
# 1 0.017459 -0.005468 -0.005794 0.000000 0.005328 0.000000
# 2 -0.005468 0.018503 -0.003465 0.000000 0.000193 0.000000
# 3 -0.005794 -0.003465 0.012865 0.000000 -0.005602 0.000000
# 4 0.000000 0.000000 0.000000 0.049790 0.000000 0.002182
# 5 0.005328 0.000193 -0.005602 0.000000 0.043575 0.000000
# 6 0.000000 0.000000 0.000000 0.002182 0.000000 0.083202
#
#
# Mechanical properties :
#
#
# Convention : Reuss Voigt Hill
#
# Bulk Modulus (GPa) = 51.61477 54.28258 52.94867
# Shear Modulus (GPa) = 19.13460 21.55857 20.34659
#
# Velocity S-wave (km/s) = 3.36550 3.57231 3.47045
# Velocity P-wave (km/s) = 6.75685 7.01052 6.88485
#
# Compressibility (1/GPa) = 0.01937430
#
# Stress axis : x y z
#
# Youngs Moduli (GPa) = 57.27617 54.04487 77.72769
#
# Poissons Ratio (x) = 0.29554 0.45032
# Poissons Ratio (y) = 0.31320 0.26932
# Poissons Ratio (z) = 0.33183 0.18726
#
# Static dielectric constant tensor:
#      x y z
#    x 1.567450 0.000000 0.048140 
#    y 0.000000 1.575910 0.000000 
#    z 0.048140 0.000000 1.683470 
# 
# From -- ./inp_files/36298.got.cif
#   From: 2010.05.17/outbox.cif.g08.bks.cpg/sg11_19_cif.got.tgz:36298.got - 2010.06.03 12:22:45.
