data_PCOD9157213
_publ_section_title
;
Structure prediction by ZEFSAII (Michael W. Deem and Ramdas Pophale) SiO2 
 PCOD9157213
Probable space group: P 21/M
;
_chemical_formula_sum "Si O2"
_cell_formula_units_Z 32
_cell_length_a 9.960534
_cell_length_b 13.474172
_cell_length_c 14.607694
_cell_angle_alpha 90.000000
_cell_angle_beta 55.686716
_cell_angle_gamma 90.000000
_cell_volume 1619.307747
_symmetry_space_group_name_H-M "P 21/M"
_symmetry_group_IT_number 11
_symmetry_cell_setting 'monoclinic'
loop_
_space_group_symop_operation_xyz
x,y,z
-x,1/2+y,-z
-x,-y,-z
x,1/2-y,z
loop_
_atom_site_type_symbol
_atom_site_label
_atom_site_fract_x
_atom_site_fract_y
_atom_site_fract_z
Si Si1 0.266219 0.860943 0.499998
Si Si2 0.489025 0.067144 0.865888
Si Si3 0.184008 0.428769 0.615735
Si Si4 0.852880 0.422065 0.649426
Si Si5 0.384337 0.431433 0.703652
Si Si6 0.198608 0.356997 0.322105
Si Si7 0.533880 0.857920 0.627324
Si Si8 0.440960 0.358789 0.081975
O O1 0.245764 0.750000 0.544751
O O2 0.180050 0.869512 0.433918
O O3 0.456609 0.880935 0.403812
O O4 0.204066 0.953004 0.585270
O O5 0.680858 0.083769 0.769282
O O6 0.394225 0.088673 0.808142
O O7 0.469904 0.952808 0.906702
O O8 0.441535 0.129136 0.972964
O O9 0.226665 0.406720 0.704614
O O10 0.327663 0.378928 0.501271
O O11 0.010726 0.391148 0.645680
O O12 0.879156 0.539780 0.620359
O O13 0.416543 0.548978 0.677510
O O14 0.118663 0.250000 0.368657
O O15 0.363542 0.356527 0.318303
O O16 0.259381 0.363041 0.194435
O O17 0.459596 0.750000 0.641604
O O18 0.507417 0.250000 0.080627
#
# Coordination Sequence:
#
# PCOD9157213 Si02
#       8
#     4   4   4   4   4   4   4   4
#     4  10  20  34  51  70  99 138 180 214 241 281
#     4   9  18  33  53  75  99 125 164 212 253 296
#     4  11  22  33  49  74 109 142 169 200 248 301
#     4  10  19  35  48  75 107 134 170 210 244 299
#     4  10  20  35  50  74 105 136 172 208 244 301
#     4   9  16  30  55  79  98 124 166 215 255 289
#     4  10  18  32  52  73  99 136 174 209 243 284
#     4   9  16  30  55  80  93 117 164 218 261 291
#
# _framework density 19.761531000000002
#
# number of rings (size 3 to 8) (size 9 to 14) (size 15 to 20)
#    0.000    2.250    5.000    1.875    0.000    5.000 
#    0.000    0.000    0.000    6.750    0.000    3.500 
#    0.000    0.000    0.000    0.000    0.000    0.000 
#
# Total GULP energy -178420.707925 kJ/mol
# GULP energy per Si atom -5575.647123 kJ/mol
# Density = 1.971655 g / cm^3
# Si number density = 19.761531 Si / 1000 Ang^3
#
#
#
# Elastic Constant Matrix: (Units=GPa)
#
#
# Indices 1 2 3 4 5 6 
#
# 1 132.6593 -12.7850 39.1159 0.0000 29.2475 0.0000
# 2 -12.7850 48.9898 12.7742 0.0000 -4.3904 0.0000
# 3 39.1159 12.7742 73.3973 0.0000 23.6148 0.0000
# 4 0.0000 0.0000 0.0000 11.9373 0.0000 0.2632
# 5 29.2475 -4.3904 23.6148 0.0000 19.3849 0.0000
# 6 0.0000 0.0000 0.0000 0.2632 0.0000 0.1588
#
#
#
# Elastic Compliance Matrix: (Units=1/GPa)
#
#
# Indices 1 2 3 4 5 6 
#
# 1 0.011515 0.002147 -0.001771 0.000000 -0.014729 0.000000
# 2 0.002147 0.025009 -0.010323 0.000000 0.015000 0.000000
# 3 -0.001771 -0.010323 0.026737 0.000000 -0.032237 0.000000
# 4 0.000000 0.000000 0.000000 0.086948 0.000000 -0.144098
# 5 -0.014729 0.015000 -0.032237 0.000000 0.116478 0.000000
# 6 0.000000 0.000000 0.000000 -0.144098 0.000000 6.536417
#
#
# Mechanical properties :
#
#
# Convention : Reuss Voigt Hill
#
# Bulk Modulus (GPa) = 23.05977 37.02850 30.04414
# Shear Modulus (GPa) = 0.73127 20.69229 10.71178
#
# Velocity S-wave (km/s) = 0.60897 3.23940 2.33073
# Velocity P-wave (km/s) = 3.49125 5.72451 4.74124
#
# Compressibility (1/GPa) = 0.04336556
#
# Stress axis : x y z
#
# Youngs Moduli (GPa) = 86.84625 39.98612 37.40158
#
# Poissons Ratio (x) = -0.08585 0.06625
# Poissons Ratio (y) = -0.18645 0.38609
# Poissons Ratio (z) = 0.15383 0.41277
#
# Static dielectric constant tensor:
#      x y z
#    x 1.730640 0.000000 0.010900 
#    y 0.000000 1.749840 0.000000 
#    z 0.010900 0.000000 1.714800 
# 
# From -- ./inp_files/47624.got.cif
#   From: 2010.05.17/outbox.cif.g08.bks.cpg/sg11_24_cif.got.tgz:47624.got - 2010.06.03 12:22:45.
