data_PCOD9157118
_publ_section_title
;
Structure prediction by ZEFSAII (Michael W. Deem and Ramdas Pophale) SiO2 
 PCOD9157118
Probable space group: P 21/M
;
_chemical_formula_sum "Si O2"
_cell_formula_units_Z 28
_cell_length_a 20.949716
_cell_length_b 8.822693
_cell_length_c 29.518359
_cell_angle_alpha 90.000000
_cell_angle_beta 19.562225
_cell_angle_gamma 90.000000
_cell_volume 1826.822701
_symmetry_space_group_name_H-M "P 21/M"
_symmetry_group_IT_number 11
_symmetry_cell_setting 'monoclinic'
loop_
_space_group_symop_operation_xyz
x,y,z
-x,1/2+y,-z
-x,-y,-z
x,1/2-y,z
loop_
_atom_site_type_symbol
_atom_site_label
_atom_site_fract_x
_atom_site_fract_y
_atom_site_fract_z
Si Si1 0.028280 0.070166 0.115436
Si Si2 0.666644 0.430951 0.419766
Si Si3 0.879279 0.568778 0.121941
Si Si4 0.571432 0.072495 0.147985
Si Si5 0.545359 0.567424 0.594368
Si Si6 0.177968 0.929666 0.406965
Si Si7 0.320393 0.072159 0.397227
O O1 0.029949 0.250000 0.105106
O O2 0.866917 0.040416 0.260911
O O3 0.970890 0.982849 0.108164
O O4 0.236402 0.014783 0.991143
O O5 0.500000 0.500000 0.500000
O O6 0.639236 0.250000 0.441681
O O7 0.650395 0.506138 0.479737
O O8 0.875987 0.750000 0.121123
O O9 0.665377 0.503247 0.263823
O O10 0.000000 0.500000 0.000000
O O11 0.586936 0.250000 0.126972
O O12 0.521633 0.058985 0.235275
O O13 0.378947 0.001424 0.255688
O O14 0.529684 0.750000 0.603149
O O15 0.652206 0.525821 0.569572
O O16 0.180655 0.750000 0.400700
O O17 0.180109 0.977804 0.458734
O O18 0.000000 0.000000 0.500000
O O19 0.267668 0.250000 0.430430
#
# Coordination Sequence:
#
# PCOD9157118 Si02
#       7
#     4   4   4   4   4   4   4
#     4  11  22  36  52  72 100 135 178 223 264 308
#     4  11  23  37  53  72  98 135 184 229 268 309
#     4  12  24  35  51  71  99 135 174 216 265 316
#     4   9  18  33  52  76 107 135 167 208 257 309
#     4  11  21  36  54  73 101 135 178 223 264 309
#     4  10  18  31  53  80 111 140 168 201 250 312
#     4   8  18  33  50  75 106 134 166 208 256 307
#
# _framework density 15.327157
#
# number of rings (size 3 to 8) (size 9 to 14) (size 15 to 20)
#    0.857    0.857    1.429    4.714    0.000    4.000 
#    0.000    0.000    0.000    0.000    0.000    1.000 
#    0.000    0.000    0.000    0.000    0.000    0.000 
#
# Total GULP energy -156089.341283 kJ/mol
# GULP energy per Si atom -5574.619332 kJ/mol
# Density = 1.529227 g / cm^3
# Si number density = 15.327157 Si / 1000 Ang^3
#
#
#
# Elastic Constant Matrix: (Units=GPa)
#
#
# Indices 1 2 3 4 5 6 
#
# 1 82.7926 53.8123 69.0426 0.0000 -9.8078 0.0000
# 2 53.8123 101.6728 60.9448 0.0000 0.4337 0.0000
# 3 69.0426 60.9448 95.5796 0.0000 -2.4251 0.0000
# 4 0.0000 0.0000 0.0000 26.5920 0.0000 0.3417
# 5 -9.8078 0.4337 -2.4251 0.0000 24.2288 0.0000
# 6 0.0000 0.0000 0.0000 0.3417 0.0000 26.1674
#
#
#
# Elastic Compliance Matrix: (Units=1/GPa)
#
#
# Indices 1 2 3 4 5 6 
#
# 1 0.035098 -0.005853 -0.021312 0.000000 0.012180 0.000000
# 2 -0.005853 0.016938 -0.006657 0.000000 -0.003339 0.000000
# 3 -0.021312 -0.006657 0.029962 0.000000 -0.005509 0.000000
# 4 0.000000 0.000000 0.000000 0.037612 0.000000 -0.000491
# 5 0.012180 -0.003339 -0.005509 0.000000 0.045712 0.000000
# 6 0.000000 0.000000 0.000000 -0.000491 0.000000 0.038222
#
#
# Mechanical properties :
#
#
# Convention : Reuss Voigt Hill
#
# Bulk Modulus (GPa) = 69.66711 71.96048 70.81379
# Shear Modulus (GPa) = 18.11771 21.81399 19.96585
#
# Velocity S-wave (km/s) = 3.44185 3.77666 3.61313
# Velocity P-wave (km/s) = 7.83244 8.12829 7.98174
#
# Compressibility (1/GPa) = 0.01435398
#
# Stress axis : x y z
#
# Youngs Moduli (GPa) = 28.49128 59.03927 33.37540
#
# Poissons Ratio (x) = 0.34559 0.71130
# Poissons Ratio (y) = 0.16677 0.22217
# Poissons Ratio (z) = 0.60721 0.39300
#
# Static dielectric constant tensor:
#      x y z
#    x 1.499670 0.000000 0.005180 
#    y 0.000000 1.892440 0.000000 
#    z 0.005180 0.000000 1.496270 
# 
# From -- ./inp_files/73592.got.cif
#   From: 2010.05.17/outbox.cif.g08.bks.cpg/sg11_37_cif.got.tgz:73592.got - 2010.06.03 12:22:45.
