data_PCOD9157758
_publ_section_title
;
Structure prediction by ZEFSAII (Michael W. Deem and Ramdas Pophale) SiO2 
 PCOD9157758
Probable space group: P 21/M
;
_chemical_formula_sum "Si O2"
_cell_formula_units_Z 16
_cell_length_a 10.077313
_cell_length_b 11.622466
_cell_length_c 9.140202
_cell_angle_alpha 90.000000
_cell_angle_beta 138.831812
_cell_angle_gamma 90.000000
_cell_volume 704.699469
_symmetry_space_group_name_H-M "P 21/M"
_symmetry_group_IT_number 11
_symmetry_cell_setting 'monoclinic'
loop_
_space_group_symop_operation_xyz
x,y,z
-x,1/2+y,-z
-x,-y,-z
x,1/2-y,z
loop_
_atom_site_type_symbol
_atom_site_label
_atom_site_fract_x
_atom_site_fract_y
_atom_site_fract_z
Si Si1 0.230175 0.750000 0.770015
Si Si2 0.625472 0.925095 0.492798
Si Si3 0.725483 0.990813 0.256257
Si Si4 0.861144 0.750000 0.888049
Si Si5 0.709567 0.750000 0.095076
Si Si6 0.717512 0.250000 0.862559
O O1 0.174323 0.616490 0.684880
O O2 0.468833 0.750000 0.925150
O O3 0.176699 0.750000 0.895513
O O4 0.723363 0.977881 0.430141
O O5 0.782951 0.856265 0.724546
O O6 0.440681 0.851922 0.274644
O O7 0.500000 0.000000 0.500000
O O8 0.790271 0.868697 0.235270
O O9 0.500000 0.000000 0.000000
O O10 0.758793 0.750000 0.962919
O O11 0.103187 0.750000 0.105401
#
# Coordination Sequence:
#
# PCOD9157758 Si02
#       6
#     2   4   4   2   2   2
#     4  10  19  36  67  91 127 180 222 264 343 407
#     4  11  22  42  68  96 134 178 231 281 342 412
#     4  10  18  36  69  94 124 183 222 267 341 414
#     4  11  26  39  67 101 135 174 231 288 344 402
#     4  10  18  38  65  93 126 183 225 264 339 415
#     4  11  23  43  63  97 140 173 222 292 350 396
#
# _framework density 22.704713000000002
#
# number of rings (size 3 to 8) (size 9 to 14) (size 15 to 20)
#    0.000    1.500    5.000    3.750    0.000    2.000 
#    0.000    1.250   16.500    0.000    0.000    0.000 
#    0.000    0.000    0.000    0.000    0.000    0.000 
#
# Total GULP energy -89082.022806 kJ/mol
# GULP energy per Si atom -5567.626425 kJ/mol
# Density = 2.265304 g / cm^3
# Si number density = 22.704713 Si / 1000 Ang^3
#
#
#
# Elastic Constant Matrix: (Units=GPa)
#
#
# Indices 1 2 3 4 5 6 
#
# 1 97.0048 33.5989 28.0084 0.0000 -33.5866 0.0000
# 2 33.5989 190.6242 30.6342 0.0000 -36.5184 0.0000
# 3 28.0084 30.6342 65.6702 0.0000 -4.9608 0.0000
# 4 0.0000 0.0000 0.0000 -39.3445 0.0000 -20.1438
# 5 -33.5866 -36.5184 -4.9608 0.0000 61.7685 0.0000
# 6 0.0000 0.0000 0.0000 -20.1438 0.0000 26.9390
#
#
#
# Elastic Compliance Matrix: (Units=1/GPa)
#
#
# Indices 1 2 3 4 5 6 
#
# 1 0.014520 -0.000277 -0.005513 0.000000 0.007289 0.000000
# 2 -0.000277 0.006363 -0.002593 0.000000 0.003403 0.000000
# 3 -0.005513 -0.002593 0.018559 0.000000 -0.003040 0.000000
# 4 0.000000 0.000000 0.000000 -0.018380 0.000000 -0.013744
# 5 0.007289 0.003403 -0.003040 0.000000 0.021921 0.000000
# 6 0.000000 0.000000 0.000000 -0.013744 0.000000 0.026844
#
#
# Mechanical properties :
#
#
# Convention : Reuss Voigt Hill
#
# Bulk Modulus (GPa) = 44.09938 59.75357 51.92648
# Shear Modulus (GPa) = 53.10533 27.27645 40.19089
#
# Velocity S-wave (km/s) = 4.84152 3.46982 4.21189
# Velocity P-wave (km/s) = 7.12172 6.51365 6.82446
#
# Compressibility (1/GPa) = 0.02267606
#
# Stress axis : x y z
#
# Youngs Moduli (GPa) = 68.86979 157.14697 53.88231
#
# Poissons Ratio (x) = 0.04353 0.29706
# Poissons Ratio (y) = 0.01908 0.13973
# Poissons Ratio (z) = 0.37968 0.40752
#
# Static dielectric constant tensor:
#      x y z
#    x 1.705840 0.000000 0.075080 
#    y 0.000000 1.896780 0.000000 
#    z 0.075080 0.000000 1.905680 
# 
# From -- ./inp_files/11672.got.cif
#   From: 2010.05.17/outbox.cif.g08.bks.cpg/sg11_6_cif.got.tgz:11672.got - 2010.06.03 12:22:45.
