data_PCOD9157104
_publ_section_title
;
Structure prediction by ZEFSAII (Michael W. Deem and Ramdas Pophale) SiO2 
 PCOD9157104
Probable space group: P 21/M
;
_chemical_formula_sum "Si O2"
_cell_formula_units_Z 32
_cell_length_a 21.908517
_cell_length_b 7.623929
_cell_length_c 17.168596
_cell_angle_alpha 90.000000
_cell_angle_beta 152.235331
_cell_angle_gamma 90.000000
_cell_volume 1335.870597
_symmetry_space_group_name_H-M "P 21/M"
_symmetry_group_IT_number 11
_symmetry_cell_setting 'monoclinic'
loop_
_space_group_symop_operation_xyz
x,y,z
-x,1/2+y,-z
-x,-y,-z
x,1/2-y,z
loop_
_atom_site_type_symbol
_atom_site_label
_atom_site_fract_x
_atom_site_fract_y
_atom_site_fract_z
Si Si1 0.082194 0.049151 0.500201
Si Si2 0.198116 0.543017 0.844267
Si Si3 0.187124 0.539967 0.008444
Si Si4 0.099625 0.958907 0.340379
Si Si5 0.651885 0.460167 0.663455
Si Si6 0.483841 0.455419 0.171450
Si Si7 0.664890 0.465029 0.504244
Si Si8 0.363335 0.041104 0.803970
O O1 0.082337 0.250000 0.527274
O O2 0.225231 0.966803 0.681104
O O3 0.934847 0.972549 0.347560
O O4 0.091452 0.046616 0.415873
O O5 0.172473 0.750000 0.819962
O O6 0.208042 0.470351 0.944087
O O7 0.346660 0.524106 0.982930
O O8 0.207269 0.750000 0.026634
O O9 0.274546 0.469309 0.177363
O O10 0.036447 0.499796 0.855498
O O11 0.111464 0.750000 0.366958
O O12 0.216400 0.018066 0.417131
O O13 0.500000 0.500000 0.500000
O O14 0.673061 0.250000 0.686696
O O15 0.687371 0.526188 0.617306
O O16 0.463322 0.250000 0.155357
O O17 0.532036 0.525134 0.309832
O O18 0.603007 0.483421 0.245865
O O19 0.660243 0.250000 0.500110
O O20 0.348381 0.250000 0.788351
O O21 0.500000 0.000000 0.000000
#
# Coordination Sequence:
#
# PCOD9157104 Si02
#       8
#     4   4   4   4   4   4   4   4
#     4   9  19  37  59  83 114 148 184 226 275 329
#     4   9  18  34  55  81 111 146 188 232 275 324
#     4   9  19  34  51  74 109 147 186 235 284 330
#     4  10  18  31  53  78 105 141 183 228 277 330
#     4  10  20  35  51  70 103 144 185 232 287 335
#     4  11  21  36  57  85 116 146 186 232 277 332
#     4   9  19  33  51  76 108 142 179 231 282 324
#     4  11  23  40  63  89 116 148 181 223 277 332
#
# _framework density 23.954415000000001
#
# number of rings (size 3 to 8) (size 9 to 14) (size 15 to 20)
#    0.000    2.250    1.250    2.625    0.000    3.500 
#    0.000    2.500    0.000    0.000    0.000    0.000 
#    0.000    0.000    0.000    0.000    0.000    0.000 
#
# Total GULP energy -178677.612210 kJ/mol
# GULP energy per Si atom -5583.675382 kJ/mol
# Density = 2.389989 g / cm^3
# Si number density = 23.954415 Si / 1000 Ang^3
#
#
#
# Elastic Constant Matrix: (Units=GPa)
#
#
# Indices 1 2 3 4 5 6 
#
# 1 77.3494 7.3065 41.2527 0.0000 9.7249 0.0000
# 2 7.3065 58.7505 6.6731 0.0000 -11.0843 0.0000
# 3 41.2527 6.6731 194.5575 0.0000 6.8053 0.0000
# 4 0.0000 0.0000 0.0000 18.7684 0.0000 3.9029
# 5 9.7249 -11.0843 6.8053 0.0000 47.2040 0.0000
# 6 0.0000 0.0000 0.0000 3.9029 0.0000 17.0698
#
#
#
# Elastic Compliance Matrix: (Units=1/GPa)
#
#
# Indices 1 2 3 4 5 6 
#
# 1 0.015145 -0.002141 -0.003026 0.000000 -0.003187 0.000000
# 2 -0.002141 0.018226 -0.000338 0.000000 0.004770 0.000000
# 3 -0.003026 -0.000338 0.005803 0.000000 -0.000293 0.000000
# 4 0.000000 0.000000 0.000000 0.055941 0.000000 -0.012791
# 5 -0.003187 0.004770 -0.000293 0.000000 0.023003 0.000000
# 6 0.000000 0.000000 0.000000 -0.012791 0.000000 0.061508
#
#
# Mechanical properties :
#
#
# Convention : Reuss Voigt Hill
#
# Bulk Modulus (GPa) = 35.50692 49.01356 42.26024
# Shear Modulus (GPa) = 24.99689 34.97011 29.98350
#
# Velocity S-wave (km/s) = 3.23386 3.82496 3.54176
# Velocity P-wave (km/s) = 5.36644 6.32556 5.86563
#
# Compressibility (1/GPa) = 0.02816353
#
# Stress axis : x y z
#
# Youngs Moduli (GPa) = 66.02697 54.86780 172.31290
#
# Poissons Ratio (x) = 0.11747 0.52149
# Poissons Ratio (y) = 0.14136 0.05824
# Poissons Ratio (z) = 0.19983 0.01854
#
# Static dielectric constant tensor:
#      x y z
#    x 1.937170 0.000000 -0.003720 
#    y 0.000000 1.870580 0.000000 
#    z -0.003720 0.000000 1.970380 
# 
# From -- ./inp_files/67262.got.cif
#   From: 2010.05.17/outbox.cif.g08.bks.cpg/sg11_34_cif.got.tgz:67262.got - 2010.06.03 12:22:45.
