data_PCOD9157868
_publ_section_title
;
Structure prediction by ZEFSAII (Michael W. Deem and Ramdas Pophale) SiO2 
 PCOD9157868
Probable space group: P 21/M
;
_chemical_formula_sum "Si O2"
_cell_formula_units_Z 32
_cell_length_a 21.119635
_cell_length_b 9.023818
_cell_length_c 16.543920
_cell_angle_alpha 90.000000
_cell_angle_beta 138.457043
_cell_angle_gamma 90.000000
_cell_volume 2090.968471
_symmetry_space_group_name_H-M "P 21/M"
_symmetry_group_IT_number 11
_symmetry_cell_setting 'monoclinic'
loop_
_space_group_symop_operation_xyz
x,y,z
-x,1/2+y,-z
-x,-y,-z
x,1/2-y,z
loop_
_atom_site_type_symbol
_atom_site_label
_atom_site_fract_x
_atom_site_fract_y
_atom_site_fract_z
Si Si1 0.731724 0.074649 0.258314
Si Si2 0.980344 0.074289 0.713682
Si Si3 0.525646 0.073131 0.110436
Si Si4 0.859674 0.420839 0.914629
Si Si5 0.345167 0.926626 0.997476
Si Si6 0.801644 0.574105 0.020086
Si Si7 0.081107 0.079216 0.185518
Si Si8 0.072549 0.426566 0.505927
O O1 0.755398 0.250000 0.286321
O O2 0.638954 0.046766 0.225952
O O3 0.700240 0.045442 0.135249
O O4 0.821376 0.977533 0.368522
O O5 0.965031 0.250000 0.689737
O O6 0.092656 0.050531 0.840796
O O7 0.921986 0.011837 0.734475
O O8 0.952334 0.988721 0.606213
O O9 0.511386 0.250000 0.092983
O O10 0.500000 0.000000 0.000000
O O11 0.450004 0.000527 0.098651
O O12 0.829640 0.250000 0.879348
O O13 0.804802 0.505300 0.933460
O O14 0.858093 0.502989 0.827193
O O15 0.971138 0.420840 0.048827
O O16 0.352933 0.750000 0.013893
O O17 0.275992 0.995730 0.997968
O O18 0.785420 0.750000 0.001068
O O19 0.108664 0.250000 0.224651
O O20 0.063406 0.250000 0.499433
O O21 0.000000 0.500000 0.500000
#
# Coordination Sequence:
#
# PCOD9157868 Si02
#       8
#     4   4   4   4   4   4   4   4
#     4   9  19  34  49  65  87 116 150 187 225 264
#     4  10  20  33  47  63  86 118 155 191 225 263
#     4   9  17  30  48  67  87 112 143 181 223 267
#     4   9  16  26  41  61  86 116 147 180 220 264
#     4  10  19  30  46  67  91 118 147 182 224 270
#     4  10  19  29  43  64  90 120 152 185 223 267
#     4   9  16  27  43  62  85 113 147 184 220 262
#     4  12  24  35  48  65  88 119 154 191 227 263
#
# _framework density 15.303913
#
# number of rings (size 3 to 8) (size 9 to 14) (size 15 to 20)
#    0.000    2.250    0.000    4.875    0.000    9.500 
#    0.000    0.000    0.000    0.000    0.000    0.000 
#    0.000    1.000    0.000    3.750    0.000    5.750 
#
# Total GULP energy -178441.708090 kJ/mol
# GULP energy per Si atom -5576.303378 kJ/mol
# Density = 1.526908 g / cm^3
# Si number density = 15.303913 Si / 1000 Ang^3
#
#
#
# Elastic Constant Matrix: (Units=GPa)
#
#
# Indices 1 2 3 4 5 6 
#
# 1 150.0369 90.8796 51.7856 0.0000 -8.7067 0.0000
# 2 90.8796 128.3210 52.6626 0.0000 0.9485 0.0000
# 3 51.7856 52.6626 46.4403 0.0000 -4.1254 0.0000
# 4 0.0000 0.0000 0.0000 21.2996 0.0000 -2.2351
# 5 -8.7067 0.9485 -4.1254 0.0000 19.8079 0.0000
# 6 0.0000 0.0000 0.0000 -2.2351 0.0000 32.1549
#
#
#
# Elastic Compliance Matrix: (Units=1/GPa)
#
#
# Indices 1 2 3 4 5 6 
#
# 1 0.013365 -0.006654 -0.006936 0.000000 0.004749 0.000000
# 2 -0.006654 0.018244 -0.013862 0.000000 -0.006686 0.000000
# 3 -0.006936 -0.013862 0.045619 0.000000 0.007116 0.000000
# 4 0.000000 0.000000 0.000000 0.047294 0.000000 0.003287
# 5 0.004749 -0.006686 0.007116 0.000000 0.054375 0.000000
# 6 0.000000 0.000000 0.000000 0.003287 0.000000 0.031328
#
#
# Mechanical properties :
#
#
# Convention : Reuss Voigt Hill
#
# Bulk Modulus (GPa) = 44.79591 79.49489 62.14540
# Shear Modulus (GPa) = 18.34387 23.28384 20.81386
#
# Velocity S-wave (km/s) = 3.46589 3.90478 3.69187
# Velocity P-wave (km/s) = 6.73431 8.50804 7.67260
#
# Compressibility (1/GPa) = 0.02232346
#
# Stress axis : x y z
#
# Youngs Moduli (GPa) = 74.82250 54.81273 21.92058
#
# Poissons Ratio (x) = 0.36472 0.15204
# Poissons Ratio (y) = 0.49786 0.30387
# Poissons Ratio (z) = 0.51897 0.75984
#
# Static dielectric constant tensor:
#      x y z
#    x 1.514860 0.000000 0.004380 
#    y 0.000000 1.508000 0.000000 
#    z 0.004380 0.000000 1.487230 
# 
# From -- ./inp_files/54231.got.cif
#   From: 2010.05.17/outbox.cif.g08.bks.cpg/sg11_28_cif.got.tgz:54231.got - 2010.06.03 12:22:45.
