data_PCOD9157330
_publ_section_title
;
Structure prediction by ZEFSAII (Michael W. Deem and Ramdas Pophale) SiO2 
 PCOD9157330
Probable space group: P 21/M
;
_chemical_formula_sum "Si O2"
_cell_formula_units_Z 32
_cell_length_a 11.093617
_cell_length_b 15.511819
_cell_length_c 14.339773
_cell_angle_alpha 90.000000
_cell_angle_beta 34.335931
_cell_angle_gamma 90.000000
_cell_volume 1391.845898
_symmetry_space_group_name_H-M "P 21/M"
_symmetry_group_IT_number 11
_symmetry_cell_setting 'monoclinic'
loop_
_space_group_symop_operation_xyz
x,y,z
-x,1/2+y,-z
-x,-y,-z
x,1/2-y,z
loop_
_atom_site_type_symbol
_atom_site_label
_atom_site_fract_x
_atom_site_fract_y
_atom_site_fract_z
Si Si1 0.784881 0.009874 0.263317
Si Si2 0.189279 0.344459 0.628296
Si Si3 0.832692 0.350689 0.374848
Si Si4 0.137166 0.110445 0.459060
Si Si5 0.314793 0.850001 0.019223
Si Si6 0.279178 0.150788 0.158961
Si Si7 0.289436 0.003396 0.899948
Si Si8 0.706274 0.086645 0.653617
O O1 0.729753 0.092781 0.360016
O O2 0.674407 0.001516 0.233959
O O3 0.744504 0.925410 0.351596
O O4 0.039118 0.019226 0.077895
O O5 0.253865 0.250000 0.623837
O O6 0.237418 0.350366 0.487899
O O7 0.931064 0.351067 0.795894
O O8 0.839390 0.250000 0.347034
O O9 0.725058 0.362303 0.544523
O O10 0.075470 0.387349 0.236399
O O11 0.879287 0.123206 0.616116
O O12 0.216808 0.145454 0.308756
O O13 0.199710 0.009624 0.424269
O O14 0.367703 0.750000 0.965919
O O15 0.480424 0.883881 0.991670
O O16 0.338087 0.912033 0.916284
O O17 0.288574 0.250000 0.122232
O O18 0.456950 0.072418 0.834734
#
# Coordination Sequence:
#
# PCOD9157330 Si02
#       8
#     4   4   4   4   4   4   4   4
#     4  10  22  39  58  81 108 149 193 229 273 320
#     4  10  20  35  55  81 113 143 179 231 278 327
#     4  10  21  38  57  80 115 149 181 228 277 327
#     4  10  18  32  55  84 109 139 177 217 279 334
#     4   9  18  32  53  81 110 142 183 230 280 327
#     4   9  17  31  53  81 111 144 181 221 274 335
#     4  10  21  38  58  79 110 148 189 234 271 319
#     4  10  20  35  56  82 111 143 179 224 273 329
#
# _framework density 22.991050999999999
#
# number of rings (size 3 to 8) (size 9 to 14) (size 15 to 20)
#    0.000    2.250    2.500    0.375    0.000    2.500 
#    0.000    5.625    0.000    0.000    0.000    0.000 
#    0.000    0.000    0.000    0.000    0.000    0.000 
#
# Total GULP energy -178671.336605 kJ/mol
# GULP energy per Si atom -5583.479269 kJ/mol
# Density = 2.293872 g / cm^3
# Si number density = 22.991051 Si / 1000 Ang^3
#
#
#
# Elastic Constant Matrix: (Units=GPa)
#
#
# Indices 1 2 3 4 5 6 
#
# 1 89.7933 20.1264 25.5782 0.0000 6.8265 0.0000
# 2 20.1264 73.2766 1.6597 0.0000 14.7238 0.0000
# 3 25.5782 1.6597 53.8319 0.0000 -11.9321 0.0000
# 4 0.0000 0.0000 0.0000 19.9473 0.0000 9.2796
# 5 6.8265 14.7238 -11.9321 0.0000 50.3961 0.0000
# 6 0.0000 0.0000 0.0000 9.2796 0.0000 -19.4815
#
#
#
# Elastic Compliance Matrix: (Units=1/GPa)
#
#
# Indices 1 2 3 4 5 6 
#
# 1 0.014102 -0.003170 -0.007199 0.000000 -0.002689 0.000000
# 2 -0.003170 0.015321 0.000145 0.000000 -0.004012 0.000000
# 3 -0.007199 0.000145 0.023429 0.000000 0.006480 0.000000
# 4 0.000000 0.000000 0.000000 0.041038 0.000000 0.019548
# 5 -0.002689 -0.004012 0.006480 0.000000 0.022914 0.000000
# 6 0.000000 0.000000 0.000000 0.019548 0.000000 -0.042020
#
#
# Mechanical properties :
#
#
# Convention : Reuss Voigt Hill
#
# Bulk Modulus (GPa) = 30.86157 34.62560 32.74359
# Shear Modulus (GPa) = 47.15474 21.47487 34.31481
#
# Velocity S-wave (km/s) = 4.53371 3.05954 3.86752
# Velocity P-wave (km/s) = 6.39207 5.25112 5.84948
#
# Compressibility (1/GPa) = 0.03240275
#
# Stress axis : x y z
#
# Youngs Moduli (GPa) = 70.91051 65.27159 42.68260
#
# Poissons Ratio (x) = 0.20692 0.30727
# Poissons Ratio (y) = 0.22479 -0.00617
# Poissons Ratio (z) = 0.51048 -0.00943
#
# Static dielectric constant tensor:
#      x y z
#    x 1.852250 0.000000 -0.064600 
#    y 0.000000 1.824430 0.000000 
#    z -0.064600 0.000000 1.938440 
# 
# From -- ./inp_files/50360.got.cif
#   From: 2010.05.17/outbox.cif.g08.bks.cpg/sg11_26_cif.got.tgz:50360.got - 2010.06.03 12:22:45.
