data_PCOD9157085
_publ_section_title
;
Structure prediction by ZEFSAII (Michael W. Deem and Ramdas Pophale) SiO2 
 PCOD9157085
Probable space group: P 21/M
;
_chemical_formula_sum "Si O2"
_cell_formula_units_Z 28
_cell_length_a 16.380687
_cell_length_b 8.895817
_cell_length_c 20.766435
_cell_angle_alpha 90.000000
_cell_angle_beta 28.090705
_cell_angle_gamma 90.000000
_cell_volume 1424.884905
_symmetry_space_group_name_H-M "P 21/M"
_symmetry_group_IT_number 11
_symmetry_cell_setting 'monoclinic'
loop_
_space_group_symop_operation_xyz
x,y,z
-x,1/2+y,-z
-x,-y,-z
x,1/2-y,z
loop_
_atom_site_type_symbol
_atom_site_label
_atom_site_fract_x
_atom_site_fract_y
_atom_site_fract_z
Si Si1 0.434428 0.424882 0.144211
Si Si2 0.266956 0.071866 0.983099
Si Si3 0.503766 0.929529 0.300541
Si Si4 0.031042 0.428808 0.739721
Si Si5 0.122356 0.430347 0.283244
Si Si6 0.194934 0.075793 0.437503
Si Si7 0.564776 0.569904 0.521310
O O1 0.485931 0.250000 0.099111
O O2 0.596186 0.519211 0.057262
O O3 0.317459 0.479869 0.165966
O O4 0.296133 0.428711 0.299650
O O5 0.241582 0.250000 0.006223
O O6 0.353479 0.038387 0.853756
O O7 0.088989 0.985645 0.118694
O O8 0.484663 0.750000 0.318751
O O9 0.327055 0.001619 0.396211
O O10 0.535984 0.001101 0.347499
O O11 0.018181 0.250000 0.741881
O O12 0.950247 0.505664 0.732727
O O13 0.231748 0.468121 0.610309
O O14 0.123298 0.250000 0.281672
O O15 0.984407 0.487813 0.432092
O O16 0.164399 0.250000 0.475433
O O17 0.500000 0.500000 0.500000
O O18 0.548007 0.750000 0.532305
#
# Coordination Sequence:
#
# PCOD9157085 Si02
#       7
#     4   4   4   4   4   4   4
#     4   9  20  35  52  79 116 160 205 248 293 344
#     4  10  22  39  61  88 119 160 204 244 293 348
#     4  10  20  37  62  90 120 155 196 242 292 352
#     4  11  24  41  61  87 119 157 197 242 297 356
#     4  11  21  33  53  81 116 158 203 250 298 345
#     4  10  18  31  52  80 116 155 199 247 295 348
#     4  11  24  42  67  96 122 150 190 239 296 358
#
# _framework density 19.65071
#
# number of rings (size 3 to 8) (size 9 to 14) (size 15 to 20)
#    0.000    1.714    1.429    3.000    0.000    5.714 
#    0.000    0.714    0.000    0.000    0.000    0.000 
#    0.000    0.000    0.000    0.000    0.000    0.000 
#
# Total GULP energy -156486.372263 kJ/mol
# GULP energy per Si atom -5588.799009 kJ/mol
# Density = 1.960598 g / cm^3
# Si number density = 19.650710 Si / 1000 Ang^3
#
#
#
# Elastic Constant Matrix: (Units=GPa)
#
#
# Indices 1 2 3 4 5 6 
#
# 1 114.7016 42.8291 24.9762 0.0000 5.8502 0.0000
# 2 42.8291 62.1565 34.5718 0.0000 -1.9476 0.0000
# 3 24.9762 34.5718 77.5196 0.0000 -0.0035 0.0000
# 4 0.0000 0.0000 0.0000 32.0893 0.0000 1.4130
# 5 5.8502 -1.9476 -0.0035 0.0000 8.4124 0.0000
# 6 0.0000 0.0000 0.0000 1.4130 0.0000 27.9527
#
#
#
# Elastic Compliance Matrix: (Units=1/GPa)
#
#
# Indices 1 2 3 4 5 6 
#
# 1 0.012659 -0.009037 -0.000049 0.000000 -0.010896 0.000000
# 2 -0.009037 0.028055 -0.009600 0.000000 0.012776 0.000000
# 3 -0.000049 -0.009600 0.017197 0.000000 -0.002181 0.000000
# 4 0.000000 0.000000 0.000000 0.031233 0.000000 -0.001579
# 5 -0.010896 0.012776 -0.002181 0.000000 0.129407 0.000000
# 6 0.000000 0.000000 0.000000 -0.001579 0.000000 0.035855
#
#
# Mechanical properties :
#
#
# Convention : Reuss Voigt Hill
#
# Bulk Modulus (GPa) = 48.68560 51.01465 49.85012
# Shear Modulus (GPa) = 16.74354 23.82423 20.28389
#
# Velocity S-wave (km/s) = 2.92217 3.48571 3.21631
# Velocity P-wave (km/s) = 6.01787 6.49748 6.26227
#
# Compressibility (1/GPa) = 0.02053995
#
# Stress axis : x y z
#
# Youngs Moduli (GPa) = 78.99518 35.64422 58.15036
#
# Poissons Ratio (x) = 0.32211 0.00284
# Poissons Ratio (y) = 0.71387 0.55822
# Poissons Ratio (z) = 0.00386 0.34217
#
# Static dielectric constant tensor:
#      x y z
#    x 1.703420 0.000000 0.038600 
#    y 0.000000 1.640320 0.000000 
#    z 0.038600 0.000000 1.714740 
# 
# From -- ./inp_files/65372.got.cif
#   From: 2010.05.17/outbox.cif.g08.bks.cpg/sg11_33_cif.got.tgz:65372.got - 2010.06.03 12:22:45.
