data_PCOD9157460
_publ_section_title
;
Structure prediction by ZEFSAII (Michael W. Deem and Ramdas Pophale) SiO2 
 PCOD9157460
Probable space group: P 21/M
;
_chemical_formula_sum "Si O2"
_cell_formula_units_Z 28
_cell_length_a 17.491523
_cell_length_b 14.118642
_cell_length_c 14.693479
_cell_angle_alpha 90.000000
_cell_angle_beta 24.296029
_cell_angle_gamma 90.000000
_cell_volume 1493.012734
_symmetry_space_group_name_H-M "P 21/M"
_symmetry_group_IT_number 11
_symmetry_cell_setting 'monoclinic'
loop_
_space_group_symop_operation_xyz
x,y,z
-x,1/2+y,-z
-x,-y,-z
x,1/2-y,z
loop_
_atom_site_type_symbol
_atom_site_label
_atom_site_fract_x
_atom_site_fract_y
_atom_site_fract_z
Si Si1 0.568571 0.467109 0.052916
Si Si2 0.002077 0.642210 0.209198
Si Si3 0.522782 0.859866 0.467295
Si Si4 0.069450 0.642160 0.350887
Si Si5 0.816951 0.483779 0.137806
Si Si6 0.433966 0.356376 0.362270
Si Si7 0.344442 0.360620 0.143634
O O1 0.767161 0.428944 0.802945
O O2 0.567196 0.578146 0.033513
O O3 0.537646 0.433518 0.189104
O O4 0.418222 0.411885 0.154804
O O5 0.063360 0.750000 0.120137
O O6 0.785753 0.634777 0.417292
O O7 0.022958 0.629954 0.294315
O O8 0.116510 0.568678 0.025475
O O9 0.524347 0.750000 0.437819
O O10 0.701862 0.920422 0.242620
O O11 0.531454 0.863227 0.568284
O O12 0.333492 0.915532 0.648773
O O13 0.137135 0.750000 0.289669
O O14 0.878736 0.632339 0.612650
O O15 0.000000 0.500000 0.000000
O O16 0.491187 0.250000 0.269853
O O17 0.393646 0.250000 0.090405
#
# Coordination Sequence:
#
# PCOD9157460 Si02
#       7
#     4   4   4   4   4   4   4
#     4  11  20  32  55  79 105 141 176 221 267 316
#     4  10  19  33  56  83 110 137 172 226 276 315
#     4  10  22  37  56  82 110 143 182 225 274 326
#     4  10  19  33  55  81 105 132 173 222 270 315
#     4  11  21  34  55  84 112 141 175 220 274 331
#     4  10  18  33  56  81 107 136 177 225 272 317
#     4  10  21  35  50  77 110 139 176 219 266 321
#
# _framework density 18.754026
#
# number of rings (size 3 to 8) (size 9 to 14) (size 15 to 20)
#    0.000    1.714    2.857    3.000    0.000    2.857 
#    0.000    0.000    0.000    9.429    0.000    0.000 
#    0.000    0.000    0.000    0.000    0.000    0.000 
#
# Total GULP energy -156346.597446 kJ/mol
# GULP energy per Si atom -5583.807052 kJ/mol
# Density = 1.871134 g / cm^3
# Si number density = 18.754026 Si / 1000 Ang^3
#
#
#
# Elastic Constant Matrix: (Units=GPa)
#
#
# Indices 1 2 3 4 5 6 
#
# 1 16.9735 2.0775 10.6492 0.0000 -2.0089 0.0000
# 2 2.0775 120.3089 51.3553 0.0000 8.1519 0.0000
# 3 10.6492 51.3553 74.5609 0.0000 -11.0708 0.0000
# 4 0.0000 0.0000 0.0000 29.9942 0.0000 5.9714
# 5 -2.0089 8.1519 -11.0708 0.0000 37.8782 0.0000
# 6 0.0000 0.0000 0.0000 5.9714 0.0000 19.3186
#
#
#
# Elastic Compliance Matrix: (Units=1/GPa)
#
#
# Indices 1 2 3 4 5 6 
#
# 1 0.066146 0.004297 -0.012569 0.000000 -0.001090 0.000000
# 2 0.004297 0.013089 -0.010467 0.000000 -0.005648 0.000000
# 3 -0.012569 -0.010467 0.023680 0.000000 0.008507 0.000000
# 4 0.000000 0.000000 0.000000 0.035526 0.000000 -0.010981
# 5 -0.001090 -0.005648 0.008507 0.000000 0.030045 0.000000
# 6 0.000000 0.000000 0.000000 -0.010981 0.000000 0.055158
#
#
# Mechanical properties :
#
#
# Convention : Reuss Voigt Hill
#
# Bulk Modulus (GPa) = 15.28216 37.77860 26.53038
# Shear Modulus (GPa) = 17.67201 27.28895 22.48048
#
# Velocity S-wave (km/s) = 3.07303 3.81871 3.46598
# Velocity P-wave (km/s) = 4.55607 6.29535 5.49496
#
# Compressibility (1/GPa) = 0.06543580
#
# Stress axis : x y z
#
# Youngs Moduli (GPa) = 15.11804 76.40249 42.23018
#
# Poissons Ratio (x) = -0.32828 0.53078
# Poissons Ratio (y) = -0.06496 0.44204
# Poissons Ratio (z) = 0.19001 0.79973
#
# Static dielectric constant tensor:
#      x y z
#    x 1.643900 0.000000 -0.018350 
#    y 0.000000 1.675680 0.000000 
#    z -0.018350 0.000000 1.673650 
# 
# From -- ./inp_files/52433.got.cif
#   From: 2010.05.17/outbox.cif.g08.bks.cpg/sg11_27_cif.got.tgz:52433.got - 2010.06.03 12:22:45.
