data_PCOD9157454
_publ_section_title
;
Structure prediction by ZEFSAII (Michael W. Deem and Ramdas Pophale) SiO2 
 PCOD9157454
Probable space group: P 21/M
;
_chemical_formula_sum "Si O2"
_cell_formula_units_Z 32
_cell_length_a 11.701107
_cell_length_b 16.493389
_cell_length_c 7.915621
_cell_angle_alpha 90.000000
_cell_angle_beta 120.782221
_cell_angle_gamma 90.000000
_cell_volume 1312.426645
_symmetry_space_group_name_H-M "P 21/M"
_symmetry_group_IT_number 11
_symmetry_cell_setting 'monoclinic'
loop_
_space_group_symop_operation_xyz
x,y,z
-x,1/2+y,-z
-x,-y,-z
x,1/2-y,z
loop_
_atom_site_type_symbol
_atom_site_label
_atom_site_fract_x
_atom_site_fract_y
_atom_site_fract_z
Si Si1 0.604993 0.337740 0.362101
Si Si2 0.014823 0.425867 0.284833
Si Si3 0.359968 0.999926 0.546883
Si Si4 0.183253 0.161564 0.887047
Si Si5 0.210986 0.511502 0.084692
Si Si6 0.904050 0.110518 0.552386
Si Si7 0.378998 0.938450 0.907174
Si Si8 0.714712 0.658393 0.418547
O O1 0.560018 0.250000 0.383983
O O2 0.542753 0.421799 0.388666
O O3 0.765554 0.348011 0.508190
O O4 0.583775 0.352137 0.144689
O O5 0.927629 0.440343 0.050856
O O6 0.923194 0.387492 0.363021
O O7 0.148059 0.372257 0.388254
O O8 0.053616 0.517877 0.365887
O O9 0.393460 0.092760 0.603755
O O10 0.269875 0.990058 0.314922
O O11 0.219188 0.250000 0.987893
O O12 0.257685 0.153505 0.761888
O O13 0.027604 0.159828 0.723201
O O14 0.207842 0.081246 0.015341
O O15 0.308625 0.557538 0.030110
O O16 0.295959 0.977441 0.684859
O O17 0.500000 0.000000 0.000000
O O18 0.684165 0.750000 0.439705
#
# Coordination Sequence:
#
# PCOD9157454 Si02
#       8
#     4   4   4   4   4   4   4   4
#     4  10  19  37  60  84 116 151 190 238 290 341
#     4   9  15  29  50  83 117 158 197 227 272 333
#     4  10  22  38  59  88 117 151 192 239 288 347
#     4   9  17  29  52  85 117 157 201 234 274 336
#     4  11  20  36  62  83 117 159 189 241 294 342
#     4   9  14  27  55  78 116 154 198 230 274 329
#     4  10  22  43  64  84 108 142 192 246 307 354
#     4  10  18  33  55  84 126 165 197 234 274 333
#
# _framework density 24.382315999999999
#
# number of rings (size 3 to 8) (size 9 to 14) (size 15 to 20)
#    0.750    1.500    3.750    1.125    0.000    2.000 
#    0.000    2.500    0.000    0.000    0.000    0.000 
#    0.000    0.000    0.000    0.000    0.000    0.000 
#
# Total GULP energy -178244.204179 kJ/mol
# GULP energy per Si atom -5570.131381 kJ/mol
# Density = 2.432682 g / cm^3
# Si number density = 24.382316 Si / 1000 Ang^3
#
#
#
# Elastic Constant Matrix: (Units=GPa)
#
#
# Indices 1 2 3 4 5 6 
#
# 1 61.3995 -7.4790 11.9318 0.0000 -6.0636 0.0000
# 2 -7.4790 196.4283 20.4301 0.0000 -1.6952 0.0000
# 3 11.9318 20.4301 110.8553 0.0000 -5.4703 0.0000
# 4 0.0000 0.0000 0.0000 18.1267 0.0000 -3.7079
# 5 -6.0636 -1.6952 -5.4703 0.0000 30.0938 0.0000
# 6 0.0000 0.0000 0.0000 -3.7079 0.0000 3.3811
#
#
#
# Elastic Compliance Matrix: (Units=1/GPa)
#
#
# Indices 1 2 3 4 5 6 
#
# 1 0.017062 0.000868 -0.001841 0.000000 0.003152 0.000000
# 2 0.000868 0.005235 -0.001044 0.000000 0.000280 0.000000
# 3 -0.001841 -0.001044 0.009475 0.000000 0.001293 0.000000
# 4 0.000000 0.000000 0.000000 0.071122 0.000000 0.077997
# 5 0.003152 0.000280 0.001293 0.000000 0.034115 0.000000
# 6 0.000000 0.000000 0.000000 0.077997 0.000000 0.381297
#
#
# Mechanical properties :
#
#
# Convention : Reuss Voigt Hill
#
# Bulk Modulus (GPa) = 36.05198 46.49431 41.27315
# Shear Modulus (GPa) = 9.40582 33.24034 21.32308
#
# Velocity S-wave (km/s) = 1.96622 3.69629 2.96045
# Velocity P-wave (km/s) = 4.46911 6.10958 5.35257
#
# Compressibility (1/GPa) = 0.02773772
#
# Stress axis : x y z
#
# Youngs Moduli (GPa) = 58.61124 191.02121 105.53889
#
# Poissons Ratio (x) = -0.16586 0.19428
# Poissons Ratio (y) = -0.05089 0.11023
# Poissons Ratio (z) = 0.10790 0.19951
#
# Static dielectric constant tensor:
#      x y z
#    x 2.051200 0.000000 0.067200 
#    y 0.000000 2.027340 0.000000 
#    z 0.067200 0.000000 2.010400 
# 
# From -- ./inp_files/22255.got.cif
#   From: 2010.05.17/outbox.cif.g08.bks.cpg/sg11_12_cif.got.tgz:22255.got - 2010.06.03 12:22:45.
