data_PCOD9157588
_publ_section_title
;
Structure prediction by ZEFSAII (Michael W. Deem and Ramdas Pophale) SiO2 
 PCOD9157588
Probable space group: P 21/M
;
_chemical_formula_sum "Si O2"
_cell_formula_units_Z 32
_cell_length_a 20.845176
_cell_length_b 8.395452
_cell_length_c 12.653101
_cell_angle_alpha 90.000000
_cell_angle_beta 126.199016
_cell_angle_gamma 90.000000
_cell_volume 1786.916498
_symmetry_space_group_name_H-M "P 21/M"
_symmetry_group_IT_number 11
_symmetry_cell_setting 'monoclinic'
loop_
_space_group_symop_operation_xyz
x,y,z
-x,1/2+y,-z
-x,-y,-z
x,1/2-y,z
loop_
_atom_site_type_symbol
_atom_site_label
_atom_site_fract_x
_atom_site_fract_y
_atom_site_fract_z
Si Si1 0.626746 0.442485 0.611537
Si Si2 0.012958 0.940568 0.683144
Si Si3 0.875695 0.057387 0.394015
Si Si4 0.540254 0.560002 0.145542
Si Si5 0.780727 0.055730 0.644539
Si Si6 0.038791 0.559656 0.145487
Si Si7 0.718403 0.442564 0.351746
Si Si8 0.511538 0.442743 0.678156
O O1 0.626938 0.250000 0.610816
O O2 0.714990 0.496012 0.666176
O O3 0.588466 0.495123 0.685482
O O4 0.565320 0.498989 0.461739
O O5 0.013484 0.750000 0.688511
O O6 0.087063 0.993264 0.681791
O O7 0.934934 0.996086 0.542764
O O8 0.009036 0.007034 0.796968
O O9 0.878188 0.250000 0.400392
O O10 0.786366 0.007850 0.334616
O O11 0.536481 0.750000 0.142459
O O12 0.631849 0.508477 0.243348
O O13 0.495821 0.501199 0.208764
O O14 0.500000 0.500000 0.000000
O O15 0.782647 0.250000 0.646553
O O16 0.870114 0.000082 0.753022
O O17 0.749151 0.008160 0.497997
O O18 0.041283 0.750000 0.145809
O O19 0.000000 0.500000 0.000000
O O20 0.713728 0.250000 0.346905
O O21 0.510649 0.250000 0.676887
#
# Coordination Sequence:
#
# PCOD9157588 Si02
#       8
#     4   4   4   4   4   4   4   4
#     4   9  16  30  53  78 101 131 168 209 257 311
#     4  10  19  32  53  81 109 142 180 219 269 326
#     4   9  18  33  54  80 110 140 176 223 272 321
#     4  11  23  37  52  76 109 145 179 219 267 320
#     4   9  17  31  55  80 103 134 175 216 260 315
#     4  11  22  38  55  77 110 146 182 224 273 326
#     4  10  18  34  57  81 105 137 179 222 267 315
#     4   9  18  31  49  76 106 131 165 212 260 305
#
# _framework density 17.907944000000001
#
# number of rings (size 3 to 8) (size 9 to 14) (size 15 to 20)
#    0.000    2.250    2.500    1.125    0.000    1.500 
#    0.000    2.500    0.000    4.500    0.000    0.000 
#    0.000    0.000    0.000    0.000    0.000    0.000 
#
# Total GULP energy -178479.437724 kJ/mol
# GULP energy per Si atom -5577.482429 kJ/mol
# Density = 1.786718 g / cm^3
# Si number density = 17.907944 Si / 1000 Ang^3
#
#
#
# Elastic Constant Matrix: (Units=GPa)
#
#
# Indices 1 2 3 4 5 6 
#
# 1 173.1429 27.0500 92.8702 0.0000 -20.5682 0.0000
# 2 27.0500 11.1513 19.2778 0.0000 -4.5040 0.0000
# 3 92.8702 19.2778 132.7372 0.0000 -16.2061 0.0000
# 4 0.0000 0.0000 0.0000 27.0984 0.0000 -0.0177
# 5 -20.5682 -4.5040 -16.2061 0.0000 28.7945 0.0000
# 6 0.0000 0.0000 0.0000 -0.0177 0.0000 21.4624
#
#
#
# Elastic Compliance Matrix: (Units=1/GPa)
#
#
# Indices 1 2 3 4 5 6 
#
# 1 0.011780 -0.018467 -0.005246 0.000000 0.002574 0.000000
# 2 -0.018467 0.151213 -0.008336 0.000000 0.005769 0.000000
# 3 -0.005246 -0.008336 0.012668 0.000000 0.002079 0.000000
# 4 0.000000 0.000000 0.000000 0.036903 0.000000 0.000030
# 5 0.002574 0.005769 0.002079 0.000000 0.038640 0.000000
# 6 0.000000 0.000000 0.000000 0.000030 0.000000 0.046593
#
#
# Mechanical properties :
#
#
# Convention : Reuss Voigt Hill
#
# Bulk Modulus (GPa) = 8.96353 66.15860 37.56107
# Shear Modulus (GPa) = 12.52875 27.32662 19.92769
#
# Velocity S-wave (km/s) = 2.64790 3.91058 3.33946
# Velocity P-wave (km/s) = 3.79008 7.57721 5.99078
#
# Compressibility (1/GPa) = 0.11156321
#
# Stress axis : x y z
#
# Youngs Moduli (GPa) = 84.88859 6.61321 78.93659
#
# Poissons Ratio (x) = 0.12213 0.41408
# Poissons Ratio (y) = 1.56765 0.65801
# Poissons Ratio (z) = 0.44531 0.05513
#
# Static dielectric constant tensor:
#      x y z
#    x 1.655510 0.000000 -0.018320 
#    y 0.000000 1.628330 0.000000 
#    z -0.018320 0.000000 1.569580 
# 
# From -- ./inp_files/42878.got.cif
#   From: 2010.05.17/outbox.cif.g08.bks.cpg/sg11_22_cif.got.tgz:42878.got - 2010.06.03 12:22:45.
