data_PCOD9157809
_publ_section_title
;
Structure prediction by ZEFSAII (Michael W. Deem and Ramdas Pophale) SiO2 
 PCOD9157809
Probable space group: P 21/M
;
_chemical_formula_sum "Si O2"
_cell_formula_units_Z 32
_cell_length_a 14.369718
_cell_length_b 18.600182
_cell_length_c 11.157409
_cell_angle_alpha 90.000000
_cell_angle_beta 150.383207
_cell_angle_gamma 90.000000
_cell_volume 1473.766306
_symmetry_space_group_name_H-M "P 21/M"
_symmetry_group_IT_number 11
_symmetry_cell_setting 'monoclinic'
loop_
_space_group_symop_operation_xyz
x,y,z
-x,1/2+y,-z
-x,-y,-z
x,1/2-y,z
loop_
_atom_site_type_symbol
_atom_site_label
_atom_site_fract_x
_atom_site_fract_y
_atom_site_fract_z
Si Si1 0.682859 0.403754 0.006312
Si Si2 0.654457 0.930045 0.006516
Si Si3 0.814567 0.582288 0.696556
Si Si4 0.201840 0.921221 0.252443
Si Si5 0.881366 0.559293 0.509120
Si Si6 0.485622 0.834819 0.422045
Si Si7 0.640495 0.331620 0.210088
Si Si8 0.976006 0.396680 0.692851
O O1 0.616325 0.487088 0.931339
O O2 0.614906 0.363697 0.049341
O O3 0.910152 0.408021 0.268481
O O4 0.615691 0.363297 0.812639
O O5 0.763952 0.931043 0.257095
O O6 0.800975 0.896269 0.076525
O O7 0.470794 0.882883 0.822426
O O8 0.746739 0.504151 0.666164
O O9 0.785611 0.589818 0.521900
O O10 0.700789 0.641018 0.643229
O O11 0.038965 0.581675 0.969098
O O12 0.379801 0.875634 0.410959
O O13 0.093845 0.894425 0.249649
O O14 0.911816 0.474388 0.567817
O O15 0.467169 0.750000 0.413955
O O16 0.574591 0.250000 0.143445
O O17 0.860167 0.338063 0.489703
#
# Coordination Sequence:
#
# PCOD9157809 Si02
#       8
#     4   4   4   4   4   4   4   4
#     4  11  21  41  67  95 125 166 212 265 312 386
#     4  11  22  39  68  96 123 165 216 263 314 382
#     4  10  22  41  68  98 124 165 222 269 312 376
#     4  10  23  43  68  92 123 168 223 271 310 369
#     4  10  18  40  68  96 119 162 214 263 320 368
#     4  12  26  42  63  98 136 169 206 262 334 388
#     4  12  25  39  59  94 130 166 205 257 329 388
#     4  10  22  40  64  91 122 158 213 266 312 370
#
# _framework density 21.713076000000001
#
# number of rings (size 3 to 8) (size 9 to 14) (size 15 to 20)
#    0.000    1.250    3.750    2.625    5.250    2.500 
#    0.000    0.000    0.000    0.000    0.000    0.000 
#    0.000    0.000    0.000    0.000    0.000    0.000 
#
# Total GULP energy -179098.125639 kJ/mol
# GULP energy per Si atom -5596.816426 kJ/mol
# Density = 2.166366 g / cm^3
# Si number density = 21.713076 Si / 1000 Ang^3
#
#
#
# Elastic Constant Matrix: (Units=GPa)
#
#
# Indices 1 2 3 4 5 6 
#
# 1 100.5537 30.7855 -10.5689 0.0000 7.7292 0.0000
# 2 30.7855 92.6409 2.8666 0.0000 25.2986 0.0000
# 3 -10.5689 2.8666 43.3101 0.0000 2.2459 0.0000
# 4 0.0000 0.0000 0.0000 4.1164 0.0000 -6.1468
# 5 7.7292 25.2986 2.2459 0.0000 32.6148 0.0000
# 6 0.0000 0.0000 0.0000 -6.1468 0.0000 1.6138
#
#
#
# Elastic Compliance Matrix: (Units=1/GPa)
#
#
# Indices 1 2 3 4 5 6 
#
# 1 0.011461 -0.003938 0.003051 0.000000 0.000129 0.000000
# 2 -0.003938 0.015054 -0.001405 0.000000 -0.010647 0.000000
# 3 0.003051 -0.001405 0.023993 0.000000 -0.001285 0.000000
# 4 0.000000 0.000000 0.000000 -0.051825 0.000000 -0.197394
# 5 0.000129 -0.010647 -0.001285 0.000000 0.038978 0.000000
# 6 0.000000 0.000000 0.000000 -0.197394 0.000000 -0.132193
#
#
# Mechanical properties :
#
#
# Convention : Reuss Voigt Hill
#
# Bulk Modulus (GPa) = 21.77524 31.40790 26.59157
# Shear Modulus (GPa) = -66.99016 21.89711 -22.54652
#
# Velocity S-wave (km/s) = -5.56052 3.17910 -3.22589
# Velocity P-wave (km/s) = 5.58350 5.28885 1.26562
#
# Compressibility (1/GPa) = 0.04592371
#
# Stress axis : x y z
#
# Youngs Moduli (GPa) = 87.24894 66.42720 41.67798
#
# Poissons Ratio (x) = 0.26161 -0.12716
# Poissons Ratio (y) = 0.34361 0.05857
# Poissons Ratio (z) = -0.26619 0.09335
#
# Static dielectric constant tensor:
#      x y z
#    x 1.803820 0.000000 -0.000170 
#    y 0.000000 1.732070 0.000000 
#    z -0.000170 0.000000 1.844940 
# 
# From -- ./inp_files/40013.got.cif
#   From: 2010.05.17/outbox.cif.g08.bks.cpg/sg11_21_cif.got.tgz:40013.got - 2010.06.03 12:22:45.
