data_PCOD9157536
_publ_section_title
;
Structure prediction by ZEFSAII (Michael W. Deem and Ramdas Pophale) SiO2 
 PCOD9157536
Probable space group: P 21/M
;
_chemical_formula_sum "Si O2"
_cell_formula_units_Z 28
_cell_length_a 9.944865
_cell_length_b 7.937898
_cell_length_c 29.401852
_cell_angle_alpha 90.000000
_cell_angle_beta 140.998771
_cell_angle_gamma 90.000000
_cell_volume 1460.704613
_symmetry_space_group_name_H-M "P 21/M"
_symmetry_group_IT_number 11
_symmetry_cell_setting 'monoclinic'
loop_
_space_group_symop_operation_xyz
x,y,z
-x,1/2+y,-z
-x,-y,-z
x,1/2-y,z
loop_
_atom_site_type_symbol
_atom_site_label
_atom_site_fract_x
_atom_site_fract_y
_atom_site_fract_z
Si Si1 0.802175 0.951291 0.416804
Si Si2 0.184041 0.452812 0.946501
Si Si3 0.381648 0.047214 0.902378
Si Si4 0.951887 0.953905 0.260647
Si Si5 0.755758 0.956438 0.301651
Si Si6 0.329412 0.443644 0.296238
Si Si7 0.720205 0.444647 0.817424
O O1 0.782029 0.750000 0.411253
O O2 0.828003 0.008063 0.371037
O O3 0.575265 0.023680 0.373391
O O4 0.000000 0.000000 0.500000
O O5 0.168777 0.250000 0.939390
O O6 0.268787 0.514531 0.919399
O O7 0.945591 0.519193 0.892946
O O8 0.371448 0.495335 0.030827
O O9 0.375368 0.250000 0.901526
O O10 0.243277 0.990303 0.823207
O O11 0.955102 0.750000 0.261192
O O12 0.904762 0.010527 0.299453
O O13 0.168945 0.013961 0.294501
O O14 0.750259 0.750000 0.300104
O O15 0.510875 0.016900 0.230223
O O16 0.302514 0.250000 0.275918
O O17 0.275884 0.549458 0.236769
O O18 0.715826 0.250000 0.831230
#
# Coordination Sequence:
#
# PCOD9157536 Si02
#       7
#     4   4   4   4   4   4   4
#     4  10  20  38  61  85 108 134 167 205 248 300
#     4   9  16  27  44  67  96 131 172 218 262 302
#     4   9  17  27  43  67  97 133 170 213 261 304
#     4  10  18  34  53  74 103 137 174 213 257 305
#     4   8  17  32  56  79 100 132 170 210 255 306
#     4  11  21  32  52  81 106 136 172 210 252 301
#     4   9  16  32  52  73  98 133 179 221 259 306
#
# _framework density 19.168832999999999
#
# number of rings (size 3 to 8) (size 9 to 14) (size 15 to 20)
#    0.000    2.571    1.429    2.571    0.000    1.143 
#    0.000    5.000    0.000    0.000    0.000    0.000 
#    0.000    0.000    0.000    0.000    0.000    0.000 
#
# Total GULP energy -156135.046099 kJ/mol
# GULP energy per Si atom -5576.251646 kJ/mol
# Density = 1.912520 g / cm^3
# Si number density = 19.168833 Si / 1000 Ang^3
#
#
#
# Elastic Constant Matrix: (Units=GPa)
#
#
# Indices 1 2 3 4 5 6 
#
# 1 102.4645 -0.7936 44.4277 0.0000 7.0085 0.0000
# 2 -0.7936 23.5204 -1.1127 0.0000 -3.4989 0.0000
# 3 44.4277 -1.1127 117.9704 0.0000 10.0483 0.0000
# 4 0.0000 0.0000 0.0000 23.8127 0.0000 5.1237
# 5 7.0085 -3.4989 10.0483 0.0000 17.1518 0.0000
# 6 0.0000 0.0000 0.0000 5.1237 0.0000 5.7391
#
#
#
# Elastic Compliance Matrix: (Units=1/GPa)
#
#
# Indices 1 2 3 4 5 6 
#
# 1 0.011752 -0.000154 -0.004227 0.000000 -0.002357 0.000000
# 2 -0.000154 0.043864 -0.000311 0.000000 0.009193 0.000000
# 3 -0.004227 -0.000311 0.010445 0.000000 -0.004456 0.000000
# 4 0.000000 0.000000 0.000000 0.051980 0.000000 -0.046406
# 5 -0.002357 0.009193 -0.004456 0.000000 0.063752 0.000000
# 6 0.000000 0.000000 0.000000 -0.046406 0.000000 0.215675
#
#
# Mechanical properties :
#
#
# Convention : Reuss Voigt Hill
#
# Bulk Modulus (GPa) = 17.64378 36.55536 27.09957
# Shear Modulus (GPa) = 11.74415 22.76965 17.25690
#
# Velocity S-wave (km/s) = 2.47790 3.45026 3.00369
# Velocity P-wave (km/s) = 4.17266 5.91472 5.11835
#
# Compressibility (1/GPa) = 0.05667719
#
# Stress axis : x y z
#
# Youngs Moduli (GPa) = 85.09111 22.79778 95.73976
#
# Poissons Ratio (x) = 0.00351 0.40464
# Poissons Ratio (y) = 0.01311 0.02980
# Poissons Ratio (z) = 0.35964 0.00710
#
# Static dielectric constant tensor:
#      x y z
#    x 1.665590 0.000000 0.010140 
#    y 0.000000 1.705260 0.000000 
#    z 0.010140 0.000000 1.665150 
# 
# From -- ./inp_files/28997.got.cif
#   From: 2010.05.17/outbox.cif.g08.bks.cpg/sg11_15_cif.got.tgz:28997.got - 2010.06.03 12:22:45.
