data_PCOD9157462
_publ_section_title
;
Structure prediction by ZEFSAII (Michael W. Deem and Ramdas Pophale) SiO2 
 PCOD9157462
Probable space group: P 21/M
;
_chemical_formula_sum "Si O2"
_cell_formula_units_Z 28
_cell_length_a 14.645512
_cell_length_b 12.080466
_cell_length_c 8.920749
_cell_angle_alpha 90.000000
_cell_angle_beta 116.681420
_cell_angle_gamma 90.000000
_cell_volume 1410.237988
_symmetry_space_group_name_H-M "P 21/M"
_symmetry_group_IT_number 11
_symmetry_cell_setting 'monoclinic'
loop_
_space_group_symop_operation_xyz
x,y,z
-x,1/2+y,-z
-x,-y,-z
x,1/2-y,z
loop_
_atom_site_type_symbol
_atom_site_label
_atom_site_fract_x
_atom_site_fract_y
_atom_site_fract_z
Si Si1 0.118972 0.915447 0.738923
Si Si2 0.787870 0.379198 0.885157
Si Si3 0.583210 0.381258 0.911751
Si Si4 0.669534 0.374151 0.272055
Si Si5 0.456525 0.380716 0.534778
Si Si6 0.751443 0.972039 0.586108
Si Si7 0.898931 0.628228 0.446843
O O1 0.220312 0.871341 0.730847
O O2 0.016606 0.872348 0.585658
O O3 0.116472 0.045739 0.702332
O O4 0.129735 0.888897 0.921295
O O5 0.779144 0.250000 0.834198
O O6 0.680608 0.416132 0.882936
O O7 0.803736 0.458095 0.756108
O O8 0.598582 0.250000 0.946274
O O9 0.486559 0.391543 0.732918
O O10 0.594930 0.424975 0.089717
O O11 0.637233 0.250000 0.288473
O O12 0.688303 0.442832 0.434670
O O13 0.500000 0.500000 0.500000
O O14 0.489519 0.250000 0.518937
O O15 0.335239 0.388617 0.420148
O O16 0.833243 0.915822 0.538094
O O17 0.865075 0.750000 0.381840
#
# Coordination Sequence:
#
# PCOD9157462 Si02
#       7
#     4   4   4   4   4   4   4
#     4   9  19  35  59  79 103 148 192 224 269 330
#     4  10  18  33  56  83 110 143 187 234 272 320
#     4   8  16  32  55  76 104 143 184 230 273 314
#     4   9  17  32  55  83 108 140 187 234 271 317
#     4  11  22  38  58  80 110 150 189 230 283 339
#     4  11  22  32  53  83 118 146 178 224 285 338
#     4  10  20  37  55  78 112 146 180 227 278 330
#
# _framework density 19.854804000000001
#
# number of rings (size 3 to 8) (size 9 to 14) (size 15 to 20)
#    0.000    2.286    1.429    3.000    0.000    1.714 
#    0.000    2.143    0.000    0.857    0.000    0.000 
#    0.000    0.000    0.000    0.000    0.000    0.000 
#
# Total GULP energy -155902.299282 kJ/mol
# GULP energy per Si atom -5567.939260 kJ/mol
# Density = 1.980961 g / cm^3
# Si number density = 19.854804 Si / 1000 Ang^3
#
#
#
# Elastic Constant Matrix: (Units=GPa)
#
#
# Indices 1 2 3 4 5 6 
#
# 1 32.4711 12.2903 -3.5217 0.0000 5.7487 0.0000
# 2 12.2903 122.5428 27.7690 0.0000 -12.0024 0.0000
# 3 -3.5217 27.7690 60.1254 0.0000 2.6794 0.0000
# 4 0.0000 0.0000 0.0000 14.5568 0.0000 -2.5449
# 5 5.7487 -12.0024 2.6794 0.0000 23.9464 0.0000
# 6 0.0000 0.0000 0.0000 -2.5449 0.0000 12.1563
#
#
#
# Elastic Compliance Matrix: (Units=1/GPa)
#
#
# Indices 1 2 3 4 5 6 
#
# 1 0.035828 -0.006020 0.005423 0.000000 -0.012225 0.000000
# 2 -0.006020 0.010781 -0.005665 0.000000 0.007483 0.000000
# 3 0.005423 -0.005665 0.019850 0.000000 -0.006362 0.000000
# 4 0.000000 0.000000 0.000000 0.071306 0.000000 0.014928
# 5 -0.012225 0.007483 -0.006362 0.000000 0.049157 0.000000
# 6 0.000000 0.000000 0.000000 0.014928 0.000000 0.085387
#
#
# Mechanical properties :
#
#
# Convention : Reuss Voigt Hill
#
# Bulk Modulus (GPa) = 18.54075 32.02384 25.28229
# Shear Modulus (GPa) = 16.51205 22.03868 19.27537
#
# Velocity S-wave (km/s) = 2.88695 3.33527 3.11917
# Velocity P-wave (km/s) = 4.52449 5.56741 5.07282
#
# Compressibility (1/GPa) = 0.05393525
#
# Stress axis : x y z
#
# Youngs Moduli (GPa) = 27.91146 92.75761 50.37898
#
# Poissons Ratio (x) = 0.55837 -0.27323
# Poissons Ratio (y) = 0.16802 0.28540
# Poissons Ratio (z) = -0.15138 0.52549
#
# Static dielectric constant tensor:
#      x y z
#    x 1.716190 0.000000 0.000420 
#    y 0.000000 1.765260 0.000000 
#    z 0.000420 0.000000 1.699250 
# 
# From -- ./inp_files/21626.got.cif
#   From: 2010.05.17/outbox.cif.g08.bks.cpg/sg11_11_cif.got.tgz:21626.got - 2010.06.03 12:22:45.
