data_PCOD9157697
_publ_section_title
;
Structure prediction by ZEFSAII (Michael W. Deem and Ramdas Pophale) SiO2 
 PCOD9157697
Probable space group: P 21/M
;
_chemical_formula_sum "Si O2"
_cell_formula_units_Z 32
_cell_length_a 17.714123
_cell_length_b 15.910929
_cell_length_c 12.477214
_cell_angle_alpha 90.000000
_cell_angle_beta 22.431034
_cell_angle_gamma 90.000000
_cell_volume 1341.863339
_symmetry_space_group_name_H-M "P 21/M"
_symmetry_group_IT_number 11
_symmetry_cell_setting 'monoclinic'
loop_
_space_group_symop_operation_xyz
x,y,z
-x,1/2+y,-z
-x,-y,-z
x,1/2-y,z
loop_
_atom_site_type_symbol
_atom_site_label
_atom_site_fract_x
_atom_site_fract_y
_atom_site_fract_z
Si Si1 0.696433 0.147921 0.824714
Si Si2 0.443878 0.576626 0.433454
Si Si3 0.930769 0.490008 0.970078
Si Si4 0.551755 0.389997 0.243843
Si Si5 0.438641 0.648546 0.232502
Si Si6 0.249759 0.342156 0.822666
Si Si7 0.985144 0.157774 0.757288
Si Si8 0.120630 0.346931 0.339403
O O1 0.703896 0.250000 0.813988
O O2 0.919458 0.114942 0.556116
O O3 0.558540 0.125869 0.107224
O O4 0.626116 0.119685 0.799956
O O5 0.287453 0.549811 0.728885
O O6 0.549274 0.489662 0.265336
O O7 0.586482 0.644613 0.300085
O O8 0.330768 0.612726 0.478329
O O9 0.901710 0.582056 0.960310
O O10 0.043949 0.420749 0.753208
O O11 0.000000 0.500000 0.000000
O O12 0.366817 0.355168 0.556012
O O13 0.755532 0.350567 0.021434
O O14 0.433830 0.750000 0.238532
O O15 0.662693 0.618261 0.964657
O O16 0.160450 0.250000 0.944771
O O17 0.014115 0.250000 0.769771
O O18 0.100138 0.154719 0.494603
O O19 0.124536 0.250000 0.296320
#
# Coordination Sequence:
#
# PCOD9157697 Si02
#       8
#     4   4   4   4   4   4   4   4
#     4   9  18  34  57  85 116 156 208 260 309 364
#     4  11  22  39  60  87 123 165 205 250 315 389
#     4  11  24  41  59  93 133 160 204 266 315 382
#     4  10  18  35  61  89 116 151 207 269 310 361
#     4  10  21  38  58  86 127 169 210 256 310 383
#     4  11  21  39  65  90 119 166 215 258 316 379
#     4  10  18  35  64  90 119 161 207 261 318 364
#     4   8  17  34  58  87 115 155 211 262 309 364
#
# _framework density 23.847435000000001
#
# number of rings (size 3 to 8) (size 9 to 14) (size 15 to 20)
#    0.000    2.000    2.500    3.000    0.000    3.500 
#    2.250    3.750    0.000    0.000    0.000    0.000 
#    0.000    0.000    0.000    0.000    0.000    0.000 
#
# Total GULP energy -178872.241894 kJ/mol
# GULP energy per Si atom -5589.757559 kJ/mol
# Density = 2.379316 g / cm^3
# Si number density = 23.847435 Si / 1000 Ang^3
#
#
#
# Elastic Constant Matrix: (Units=GPa)
#
#
# Indices 1 2 3 4 5 6 
#
# 1 134.8446 37.3852 19.9898 0.0000 26.5398 0.0000
# 2 37.3852 104.0426 23.5694 0.0000 17.5903 0.0000
# 3 19.9898 23.5694 46.5427 0.0000 4.5986 0.0000
# 4 0.0000 0.0000 0.0000 14.9365 0.0000 13.7716
# 5 26.5398 17.5903 4.5986 0.0000 26.6870 0.0000
# 6 0.0000 0.0000 0.0000 13.7716 0.0000 31.2411
#
#
#
# Elastic Compliance Matrix: (Units=1/GPa)
#
#
# Indices 1 2 3 4 5 6 
#
# 1 0.009878 -0.001539 -0.002638 0.000000 -0.008354 0.000000
# 2 -0.001539 0.012255 -0.004983 0.000000 -0.005688 0.000000
# 3 -0.002638 -0.004983 0.024983 0.000000 0.001602 0.000000
# 4 0.000000 0.000000 0.000000 0.112793 0.000000 -0.049721
# 5 -0.008354 -0.005688 0.001602 0.000000 0.049253 0.000000
# 6 0.000000 0.000000 0.000000 -0.049721 0.000000 0.053927
#
#
# Mechanical properties :
#
#
# Convention : Reuss Voigt Hill
#
# Bulk Modulus (GPa) = 34.72587 49.70206 42.21397
# Shear Modulus (GPa) = 17.18162 28.20529 22.69346
#
# Velocity S-wave (km/s) = 2.68709 3.44283 3.08816
# Velocity P-wave (km/s) = 4.92144 6.05731 5.51868
#
# Compressibility (1/GPa) = 0.02879697
#
# Stress axis : x y z
#
# Youngs Moduli (GPa) = 101.23469 81.59874 40.02652
#
# Poissons Ratio (x) = 0.12562 0.10557
# Poissons Ratio (y) = 0.15585 0.19944
# Poissons Ratio (z) = 0.26701 0.40659
#
# Static dielectric constant tensor:
#      x y z
#    x 1.934760 0.000000 -0.030480 
#    y 0.000000 1.914640 0.000000 
#    z -0.030480 0.000000 1.941990 
# 
# From -- ./inp_files/41655.got.cif
#   From: 2010.05.17/outbox.cif.g08.bks.cpg/sg11_21_cif.got.tgz:41655.got - 2010.06.03 12:22:45.
