data_PCOD9157311
_publ_section_title
;
Structure prediction by ZEFSAII (Michael W. Deem and Ramdas Pophale) SiO2 
 PCOD9157311
Probable space group: P 21/M
;
_chemical_formula_sum "Si O2"
_cell_formula_units_Z 32
_cell_length_a 16.057426
_cell_length_b 14.346885
_cell_length_c 11.365791
_cell_angle_alpha 90.000000
_cell_angle_beta 36.901977
_cell_angle_gamma 90.000000
_cell_volume 1572.202503
_symmetry_space_group_name_H-M "P 21/M"
_symmetry_group_IT_number 11
_symmetry_cell_setting 'monoclinic'
loop_
_space_group_symop_operation_xyz
x,y,z
-x,1/2+y,-z
-x,-y,-z
x,1/2-y,z
loop_
_atom_site_type_symbol
_atom_site_label
_atom_site_fract_x
_atom_site_fract_y
_atom_site_fract_z
Si Si1 0.978885 0.361775 0.583324
Si Si2 0.130250 0.971717 0.509981
Si Si3 0.919012 0.924715 0.951854
Si Si4 0.747964 0.351747 0.023939
Si Si5 0.636243 0.453099 0.584790
Si Si6 0.440310 0.138935 0.439663
Si Si7 0.848624 0.110875 0.161263
Si Si8 0.625163 0.858931 0.210360
O O1 0.001081 0.250000 0.568200
O O2 0.928302 0.393868 0.512519
O O3 0.107463 0.427367 0.475696
O O4 0.854239 0.394595 0.811943
O O5 0.284434 0.949952 0.381004
O O6 0.033535 0.966895 0.734949
O O7 0.011504 0.858592 0.930692
O O8 0.787499 0.886240 0.030046
O O9 0.864083 0.003921 0.101415
O O10 0.720620 0.250000 0.003379
O O11 0.596919 0.388479 0.225826
O O12 0.820541 0.343579 0.068282
O O13 0.647499 0.560667 0.528370
O O14 0.721529 0.388125 0.395862
O O15 0.478946 0.416850 0.754194
O O16 0.415212 0.250000 0.444080
O O17 0.422541 0.126619 0.599685
O O18 0.612454 0.750000 0.197074
#
# Coordination Sequence:
#
# PCOD9157311 Si02
#       8
#     4   4   4   4   4   4   4   4
#     4  10  22  41  63  83 112 150 198 249 290 336
#     4  10  23  40  62  89 111 152 200 238 292 345
#     4  10  20  34  55  83 120 148 188 232 285 350
#     4  10  19  33  56  82 110 150 196 241 285 336
#     4  11  21  36  59  86 122 157 188 237 288 348
#     4  10  20  33  54  87 123 156 193 234 287 347
#     4  10  18  32  54  85 117 150 184 234 290 339
#     4  11  22  34  53  86 125 162 191 225 287 354
#
# _framework density 20.353611999999998
#
# number of rings (size 3 to 8) (size 9 to 14) (size 15 to 20)
#    0.000    1.750    3.750    1.125    0.000    2.000 
#    0.000    5.625    0.000    0.000    0.000    0.000 
#    0.000    0.000    0.000    0.000    0.000    0.000 
#
# Total GULP energy -178265.461439 kJ/mol
# GULP energy per Si atom -5570.795670 kJ/mol
# Density = 2.030729 g / cm^3
# Si number density = 20.353612 Si / 1000 Ang^3
#
#
#
# Elastic Constant Matrix: (Units=GPa)
#
#
# Indices 1 2 3 4 5 6 
#
# 1 106.7182 32.1138 16.0817 0.0000 -13.3659 0.0000
# 2 32.1138 85.3422 1.9550 0.0000 -14.0946 0.0000
# 3 16.0817 1.9550 28.7206 0.0000 -18.0973 0.0000
# 4 0.0000 0.0000 0.0000 13.1479 0.0000 8.7858
# 5 -13.3659 -14.0946 -18.0973 0.0000 25.2123 0.0000
# 6 0.0000 0.0000 0.0000 8.7858 0.0000 12.4145
#
#
#
# Elastic Compliance Matrix: (Units=1/GPa)
#
#
# Indices 1 2 3 4 5 6 
#
# 1 0.011595 -0.004435 -0.007083 0.000000 -0.001417 0.000000
# 2 -0.004435 0.015352 0.009795 0.000000 0.013262 0.000000
# 3 -0.007083 0.009795 0.071574 0.000000 0.053096 0.000000
# 4 0.000000 0.000000 0.000000 0.144298 0.000000 -0.102121
# 5 -0.001417 0.013262 0.053096 0.000000 0.084438 0.000000
# 6 0.000000 0.000000 0.000000 -0.102121 0.000000 0.152823
#
#
# Mechanical properties :
#
#
# Convention : Reuss Voigt Hill
#
# Bulk Modulus (GPa) = 10.51798 35.67577 23.09687
# Shear Modulus (GPa) = 9.70461 21.53032 15.61747
#
# Velocity S-wave (km/s) = 2.18595 3.25593 2.77304
# Velocity P-wave (km/s) = 3.39853 5.63035 4.65031
#
# Compressibility (1/GPa) = 0.09507531
#
# Stress axis : x y z
#
# Youngs Moduli (GPa) = 86.24428 65.13715 13.97146
#
# Poissons Ratio (x) = 0.28887 0.09896
# Poissons Ratio (y) = 0.38248 -0.13685
# Poissons Ratio (z) = 0.61089 -0.63801
#
# Static dielectric constant tensor:
#      x y z
#    x 1.734210 0.000000 -0.039530 
#    y 0.000000 1.744600 0.000000 
#    z -0.039530 0.000000 1.729050 
# 
# From -- ./inp_files/39639.got.cif
#   From: 2010.05.17/outbox.cif.g08.bks.cpg/sg11_20_cif.got.tgz:39639.got - 2010.06.03 12:22:45.
