data_PCOD9157951
_publ_section_title
;
Structure prediction by ZEFSAII (Michael W. Deem and Ramdas Pophale) SiO2 
 PCOD9157951
Probable space group: P 21/M
;
_chemical_formula_sum "Si O2"
_cell_formula_units_Z 32
_cell_length_a 18.863382
_cell_length_b 9.336374
_cell_length_c 27.000488
_cell_angle_alpha 90.000000
_cell_angle_beta 151.946181
_cell_angle_gamma 90.000000
_cell_volume 2236.377230
_symmetry_space_group_name_H-M "P 21/M"
_symmetry_group_IT_number 11
_symmetry_cell_setting 'monoclinic'
loop_
_space_group_symop_operation_xyz
x,y,z
-x,1/2+y,-z
-x,-y,-z
x,1/2-y,z
loop_
_atom_site_type_symbol
_atom_site_label
_atom_site_fract_x
_atom_site_fract_y
_atom_site_fract_z
Si Si1 0.768648 0.585058 0.341607
Si Si2 0.711063 0.580244 0.668187
Si Si3 0.998906 0.414993 0.421705
Si Si4 0.638838 0.419883 0.524619
Si Si5 0.215251 0.080628 0.104846
Si Si6 0.116088 0.919395 0.140952
Si Si7 0.235364 0.920221 0.505855
Si Si8 0.461060 0.580049 0.736041
O O1 0.741979 0.750000 0.312049
O O2 0.886185 0.583065 0.460410
O O3 0.620379 0.507771 0.271007
O O4 0.851828 0.499654 0.349246
O O5 0.739138 0.750000 0.683846
O O6 0.708159 0.511615 0.611860
O O7 0.541727 0.557935 0.585384
O O8 0.826591 0.500253 0.775251
O O9 0.965808 0.250000 0.389906
O O10 0.089864 0.493067 0.434225
O O11 0.664018 0.250000 0.548981
O O12 0.706546 0.457143 0.512936
O O13 0.225666 0.250000 0.124666
O O14 0.365601 0.043563 0.167495
O O15 0.198902 0.988374 0.144468
O O16 0.062093 0.060839 0.979317
O O17 0.146557 0.750000 0.162936
O O18 0.203388 0.750000 0.487724
O O19 0.367288 0.946521 0.627535
O O20 0.449303 0.750000 0.739243
#
# Coordination Sequence:
#
# PCOD9157951 Si02
#       8
#     4   4   4   4   4   4   4   4
#     4   9  16  25  37  55  79 107 139 170 201 239
#     4  10  19  31  46  62  83 111 141 175 214 252
#     4   9  16  25  37  54  78 108 139 168 200 241
#     4   9  18  31  45  62  83 109 142 176 211 251
#     4   9  18  31  45  62  84 111 143 176 210 249
#     4  10  19  30  45  63  84 111 142 176 212 250
#     4   9  16  26  41  59  81 109 138 171 208 244
#     4   9  16  27  42  59  82 111 140 170 206 245
#
# _framework density 14.308857
#
# number of rings (size 3 to 8) (size 9 to 14) (size 15 to 20)
#    0.000    2.750    0.000    2.250    0.000    7.000 
#    0.000    2.500    0.000    0.000    0.000    0.000 
#    0.000    1.000    0.000    3.000    0.000    4.000 
#
# Total GULP energy -178330.695552 kJ/mol
# GULP energy per Si atom -5572.834236 kJ/mol
# Density = 1.427629 g / cm^3
# Si number density = 14.308857 Si / 1000 Ang^3
#
#
#
# Elastic Constant Matrix: (Units=GPa)
#
#
# Indices 1 2 3 4 5 6 
#
# 1 122.3544 68.1199 33.8837 0.0000 15.0558 0.0000
# 2 68.1199 80.7339 40.3997 0.0000 6.3465 0.0000
# 3 33.8837 40.3997 42.3529 0.0000 4.4170 0.0000
# 4 0.0000 0.0000 0.0000 18.4370 0.0000 0.5949
# 5 15.0558 6.3465 4.4170 0.0000 22.6071 0.0000
# 6 0.0000 0.0000 0.0000 0.5949 0.0000 27.8295
#
#
#
# Elastic Compliance Matrix: (Units=1/GPa)
#
#
# Indices 1 2 3 4 5 6 
#
# 1 0.016503 -0.013633 0.000560 0.000000 -0.007273 0.000000
# 2 -0.013633 0.035076 -0.022939 0.000000 0.003714 0.000000
# 3 0.000560 -0.022939 0.045335 0.000000 -0.002791 0.000000
# 4 0.000000 0.000000 0.000000 0.054276 0.000000 -0.001160
# 5 -0.007273 0.003714 -0.002791 0.000000 0.048580 0.000000
# 6 0.000000 0.000000 0.000000 -0.001160 0.000000 0.035958
#
#
# Mechanical properties :
#
#
# Convention : Reuss Voigt Hill
#
# Bulk Modulus (GPa) = 40.17654 58.91641 49.54647
# Shear Modulus (GPa) = 15.82032 20.64392 18.23212
#
# Velocity S-wave (km/s) = 3.32871 3.80246 3.57344
# Velocity P-wave (km/s) = 6.55079 7.78090 7.19219
#
# Compressibility (1/GPa) = 0.02489015
#
# Stress axis : x y z
#
# Youngs Moduli (GPa) = 60.59562 28.50950 22.05781
#
# Poissons Ratio (x) = 0.38866 -0.01235
# Poissons Ratio (y) = 0.82609 0.50598
# Poissons Ratio (z) = -0.03392 0.65398
#
# Static dielectric constant tensor:
#      x y z
#    x 1.455610 0.000000 0.009290 
#    y 0.000000 1.478610 0.000000 
#    z 0.009290 0.000000 1.449930 
# 
# From -- ./inp_files/56020.got.cif
#   From: 2010.05.17/outbox.cif.g08.bks.cpg/sg11_29_cif.got.tgz:56020.got - 2010.06.03 12:22:45.
