data_PCOD9157109
_publ_section_title
;
Structure prediction by ZEFSAII (Michael W. Deem and Ramdas Pophale) SiO2 
 PCOD9157109
Probable space group: P 21/M
;
_chemical_formula_sum "Si O2"
_cell_formula_units_Z 32
_cell_length_a 13.051503
_cell_length_b 18.333858
_cell_length_c 14.177652
_cell_angle_alpha 90.000000
_cell_angle_beta 28.199633
_cell_angle_gamma 90.000000
_cell_volume 1603.105061
_symmetry_space_group_name_H-M "P 21/M"
_symmetry_group_IT_number 11
_symmetry_cell_setting 'monoclinic'
loop_
_space_group_symop_operation_xyz
x,y,z
-x,1/2+y,-z
-x,-y,-z
x,1/2-y,z
loop_
_atom_site_type_symbol
_atom_site_label
_atom_site_fract_x
_atom_site_fract_y
_atom_site_fract_z
Si Si1 0.022772 0.554333 0.346344
Si Si2 0.398884 0.833681 0.354240
Si Si3 0.827138 0.167412 0.273465
Si Si4 0.661519 0.665766 0.615698
Si Si5 0.798021 0.575172 0.115172
Si Si6 0.306843 0.954287 0.938487
Si Si7 0.690404 0.051794 0.708847
Si Si8 0.671918 0.667297 0.383740
O O1 0.224447 0.550353 0.254272
O O2 0.865982 0.623197 0.494180
O O3 0.872448 0.485613 0.494581
O O4 0.106575 0.555526 0.171606
O O5 0.458939 0.750000 0.302033
O O6 0.208375 0.841909 0.585833
O O7 0.601039 0.878989 0.229282
O O8 0.337335 0.866335 0.304319
O O9 0.908541 0.250000 0.189302
O O10 0.585686 0.162810 0.426762
O O11 0.982030 0.106935 0.105791
O O12 0.642684 0.750000 0.659944
O O13 0.443150 0.619469 0.811790
O O14 0.702792 0.663148 0.469932
O O15 0.757406 0.493961 0.108015
O O16 0.782329 0.601385 0.236374
O O17 0.472737 0.007724 0.860647
O O18 0.740494 0.750000 0.296542
#
# Coordination Sequence:
#
# PCOD9157109 Si02
#       8
#     4   4   4   4   4   4   4   4
#     4  10  20  37  59  79 101 141 184 219 266 320
#     4   9  17  29  47  76 110 136 164 210 264 317
#     4   9  16  28  49  75 105 140 174 211 261 320
#     4  10  23  41  56  75 106 143 185 227 264 312
#     4  10  18  31  53  79 106 137 175 217 266 325
#     4  10  21  36  57  82 108 138 174 223 276 321
#     4   9  19  35  56  80 109 138 173 218 265 320
#     4   9  19  35  53  75 108 147 181 218 264 312
#
# _framework density 19.961261
#
# number of rings (size 3 to 8) (size 9 to 14) (size 15 to 20)
#    0.000    2.500    0.000    3.000    0.000    3.500 
#    0.000    3.750    0.000    0.000    0.000    0.000 
#    0.000    0.000    0.000    0.000    0.000    0.000 
#
# Total GULP energy -178490.032225 kJ/mol
# GULP energy per Si atom -5577.813507 kJ/mol
# Density = 1.991583 g / cm^3
# Si number density = 19.961261 Si / 1000 Ang^3
#
#
#
# Elastic Constant Matrix: (Units=GPa)
#
#
# Indices 1 2 3 4 5 6 
#
# 1 27.4522 15.0109 4.5144 0.0000 5.1803 0.0000
# 2 15.0109 91.8296 26.3163 0.0000 5.8542 0.0000
# 3 4.5144 26.3163 59.9498 0.0000 5.8157 0.0000
# 4 0.0000 0.0000 0.0000 15.2099 0.0000 1.7351
# 5 5.1803 5.8542 5.8157 0.0000 15.3386 0.0000
# 6 0.0000 0.0000 0.0000 1.7351 0.0000 21.8246
#
#
#
# Elastic Compliance Matrix: (Units=1/GPa)
#
#
# Indices 1 2 3 4 5 6 
#
# 1 0.042037 -0.006326 0.000783 0.000000 -0.012080 0.000000
# 2 -0.006326 0.013524 -0.005364 0.000000 -0.000991 0.000000
# 3 0.000783 -0.005364 0.019521 0.000000 -0.005619 0.000000
# 4 0.000000 0.000000 0.000000 0.066348 0.000000 -0.005275
# 5 -0.012080 -0.000991 -0.005619 0.000000 0.071784 0.000000
# 6 0.000000 0.000000 0.000000 -0.005275 0.000000 0.046239
#
#
# Mechanical properties :
#
#
# Convention : Reuss Voigt Hill
#
# Bulk Modulus (GPa) = 18.77275 30.10163 24.43719
# Shear Modulus (GPa) = 16.72109 19.36729 18.04419
#
# Velocity S-wave (km/s) = 2.89741 3.11825 3.00986
# Velocity P-wave (km/s) = 4.54074 5.29881 4.93435
#
# Compressibility (1/GPa) = 0.05326869
#
# Stress axis : x y z
#
# Youngs Moduli (GPa) = 23.78875 73.94109 51.22558
#
# Poissons Ratio (x) = 0.46774 -0.04012
# Poissons Ratio (y) = 0.15049 0.27479
# Poissons Ratio (z) = -0.01863 0.39664
#
# Static dielectric constant tensor:
#      x y z
#    x 1.712220 0.000000 0.006890 
#    y 0.000000 1.719180 0.000000 
#    z 0.006890 0.000000 1.689840 
# 
# From -- ./inp_files/52574.got.cif
#   From: 2010.05.17/outbox.cif.g08.bks.cpg/sg11_27_cif.got.tgz:52574.got - 2010.06.03 12:22:45.
