data_PCOD9157738
_publ_section_title
;
Structure prediction by ZEFSAII (Michael W. Deem and Ramdas Pophale) SiO2 
 PCOD9157738
Probable space group: P 21/M
;
_chemical_formula_sum "Si O2"
_cell_formula_units_Z 32
_cell_length_a 13.649438
_cell_length_b 19.284699
_cell_length_c 10.864980
_cell_angle_alpha 90.000000
_cell_angle_beta 145.609370
_cell_angle_gamma 90.000000
_cell_volume 1615.384475
_symmetry_space_group_name_H-M "P 21/M"
_symmetry_group_IT_number 11
_symmetry_cell_setting 'monoclinic'
loop_
_space_group_symop_operation_xyz
x,y,z
-x,1/2+y,-z
-x,-y,-z
x,1/2-y,z
loop_
_atom_site_type_symbol
_atom_site_label
_atom_site_fract_x
_atom_site_fract_y
_atom_site_fract_z
Si Si1 0.998888 0.104332 0.404682
Si Si2 0.510294 0.167467 0.686447
Si Si3 0.182158 0.831281 0.188725
Si Si4 0.540480 0.050377 0.156491
Si Si5 0.142981 0.106142 0.282657
Si Si6 0.150053 0.548205 0.340639
Si Si7 0.836209 0.953561 0.186772
Si Si8 0.352552 0.829926 0.905441
O O1 0.853453 0.160006 0.288774
O O2 0.094404 0.119498 0.376004
O O3 0.126462 0.090101 0.650649
O O4 0.890302 0.032832 0.273046
O O5 0.475933 0.250000 0.653111
O O6 0.675592 0.156583 0.770477
O O7 0.339374 0.128815 0.464558
O O8 0.558940 0.145601 0.875488
O O9 0.189258 0.750000 0.231433
O O10 0.215143 0.886719 0.330330
O O11 0.994337 0.851058 0.939346
O O12 0.708287 0.029352 0.408021
O O13 0.584499 0.123892 0.141661
O O14 0.365088 0.051341 0.053759
O O15 0.500000 0.000000 0.000000
O O16 0.123228 0.023721 0.240568
O O17 0.970465 0.568177 0.220895
O O18 0.394299 0.750000 0.930385
#
# Coordination Sequence:
#
# PCOD9157738 Si02
#       8
#     4   4   4   4   4   4   4   4
#     4  10  18  36  60  92 125 155 197 253 309 365
#     4  10  22  39  61  90 120 161 209 255 313 369
#     4  11  25  45  62  82 124 170 204 251 311 364
#     4  12  21  39  66  89 125 167 197 251 313 361
#     4  11  22  38  67  93 118 154 208 263 305 358
#     4  11  25  39  61  97 122 158 210 255 300 369
#     4  10  20  37  61  91 122 159 204 243 305 371
#     4  11  21  35  58  92 127 160 202 255 316 372
#
# _framework density 19.809526000000002
#
# number of rings (size 3 to 8) (size 9 to 14) (size 15 to 20)
#    0.000    1.250    3.750    3.750    0.000    2.500 
#    0.000    1.250    0.000    0.000    0.000    0.000 
#    0.000    0.000    0.000    0.000    0.000    0.000 
#
# Total GULP energy -178869.173697 kJ/mol
# GULP energy per Si atom -5589.661678 kJ/mol
# Density = 1.976444 g / cm^3
# Si number density = 19.809526 Si / 1000 Ang^3
#
#
#
# Elastic Constant Matrix: (Units=GPa)
#
#
# Indices 1 2 3 4 5 6 
#
# 1 31.3002 12.8221 13.6933 0.0000 15.9468 0.0000
# 2 12.8221 44.8084 7.8437 0.0000 3.8815 0.0000
# 3 13.6933 7.8437 62.7479 0.0000 24.2770 0.0000
# 4 0.0000 0.0000 0.0000 25.0894 0.0000 -2.7046
# 5 15.9468 3.8815 24.2770 0.0000 27.7774 0.0000
# 6 0.0000 0.0000 0.0000 -2.7046 0.0000 29.9462
#
#
#
# Elastic Compliance Matrix: (Units=1/GPa)
#
#
# Indices 1 2 3 4 5 6 
#
# 1 0.051103 -0.012394 0.001629 0.000000 -0.029029 0.000000
# 2 -0.012394 0.025843 -0.002843 0.000000 0.005989 0.000000
# 3 0.001629 -0.002843 0.024393 0.000000 -0.021857 0.000000
# 4 0.000000 0.000000 0.000000 0.040249 0.000000 0.003635
# 5 -0.029029 0.005989 -0.021857 0.000000 0.070932 0.000000
# 6 0.000000 0.000000 0.000000 0.003635 0.000000 0.033722
#
#
# Mechanical properties :
#
#
# Convention : Reuss Voigt Hill
#
# Bulk Modulus (GPa) = 13.49107 23.06386 18.27746
# Shear Modulus (GPa) = 16.76922 23.52910 20.14916
#
# Velocity S-wave (km/s) = 2.91266 3.45014 3.19273
# Velocity P-wave (km/s) = 4.25872 5.24780 4.77891
#
# Compressibility (1/GPa) = 0.07412310
#
# Stress axis : x y z
#
# Youngs Moduli (GPa) = 19.56823 38.69576 40.99516
#
# Poissons Ratio (x) = 0.47959 -0.06676
# Poissons Ratio (y) = 0.24253 0.11654
# Poissons Ratio (z) = -0.03187 0.11000
#
# Static dielectric constant tensor:
#      x y z
#    x 1.703880 0.000000 -0.004800 
#    y 0.000000 1.689370 0.000000 
#    z -0.004800 0.000000 1.705880 
# 
# From -- ./inp_files/40033.got.cif
#   From: 2010.05.17/outbox.cif.g08.bks.cpg/sg11_21_cif.got.tgz:40033.got - 2010.06.03 12:22:45.
