data_PCOD9157094
_publ_section_title
;
Structure prediction by ZEFSAII (Michael W. Deem and Ramdas Pophale) SiO2 
 PCOD9157094
Probable space group: P 21/M
;
_chemical_formula_sum "Si O2"
_cell_formula_units_Z 32
_cell_length_a 27.790758
_cell_length_b 8.551082
_cell_length_c 22.443327
_cell_angle_alpha 90.000000
_cell_angle_beta 20.211780
_cell_angle_gamma 90.000000
_cell_volume 1842.661756
_symmetry_space_group_name_H-M "P 21/M"
_symmetry_group_IT_number 11
_symmetry_cell_setting 'monoclinic'
loop_
_space_group_symop_operation_xyz
x,y,z
-x,1/2+y,-z
-x,-y,-z
x,1/2-y,z
loop_
_atom_site_type_symbol
_atom_site_label
_atom_site_fract_x
_atom_site_fract_y
_atom_site_fract_z
Si Si1 0.143196 0.563182 0.307028
Si Si2 0.652095 0.439463 0.176318
Si Si3 0.738548 0.061470 0.952335
Si Si4 0.442233 0.438271 0.004595
Si Si5 0.653917 0.936683 0.516084
Si Si6 0.443524 0.934914 0.251544
Si Si7 0.152642 0.562647 0.809819
Si Si8 0.652751 0.439260 0.308027
O O1 0.146965 0.750000 0.309037
O O2 0.150692 0.524851 0.227438
O O3 0.285574 0.497600 0.171383
O O4 0.000000 0.500000 0.500000
O O5 0.648910 0.250000 0.182240
O O6 0.494770 0.488984 0.340477
O O7 0.690504 0.494482 0.197496
O O8 0.754920 0.481918 0.002516
O O9 0.714414 0.250000 0.978089
O O10 0.598282 0.976054 0.094816
O O11 0.438367 0.250000 0.009507
O O12 0.500000 0.500000 0.000000
O O13 0.545664 0.487700 0.829928
O O14 0.656334 0.750000 0.510733
O O15 0.654001 0.987434 0.585217
O O16 0.777176 0.003197 0.332558
O O17 0.419627 0.750000 0.280448
O O18 0.151662 0.750000 0.809890
O O19 0.247061 0.508031 0.755657
O O20 0.000000 0.500000 0.000000
O O21 0.500000 0.500000 0.500000
O O22 0.652245 0.250000 0.308607
#
# Coordination Sequence:
#
# PCOD9157094 Si02
#       8
#     4   4   4   4   4   4   4   4
#     4  10  19  32  52  77 106 141 179 217 259 314
#     4   8  14  27  49  75 100 124 156 208 258 297
#     4   8  15  28  47  72 100 132 169 207 253 305
#     4  10  20  34  54  80 109 140 175 218 265 311
#     4  10  18  31  53  76 101 133 170 212 258 307
#     4   9  17  29  48  76 106 132 166 214 259 303
#     4  11  23  36  52  74 103 140 177 213 258 312
#     4  10  19  32  52  78 103 128 165 211 256 304
#
# _framework density 17.366181999999998
#
# number of rings (size 3 to 8) (size 9 to 14) (size 15 to 20)
#    0.000    2.500    1.250    2.625    0.000    2.500 
#    0.000    0.000    2.750    0.000    0.000    0.000 
#    0.000    0.000    0.000    0.000    0.000    0.000 
#
# Total GULP energy -178204.225493 kJ/mol
# GULP energy per Si atom -5568.882047 kJ/mol
# Density = 1.732666 g / cm^3
# Si number density = 17.366182 Si / 1000 Ang^3
#
#
#
# Elastic Constant Matrix: (Units=GPa)
#
#
# Indices 1 2 3 4 5 6 
#
# 1 127.8464 29.2607 77.6373 0.0000 34.5736 0.0000
# 2 29.2607 34.8497 35.9106 0.0000 10.4313 0.0000
# 3 77.6373 35.9106 138.1083 0.0000 31.0102 0.0000
# 4 0.0000 0.0000 0.0000 27.8211 0.0000 2.4478
# 5 34.5736 10.4313 31.0102 0.0000 34.1971 0.0000
# 6 0.0000 0.0000 0.0000 2.4478 0.0000 17.5870
#
#
#
# Elastic Compliance Matrix: (Units=1/GPa)
#
#
# Indices 1 2 3 4 5 6 
#
# 1 0.014056 -0.004212 -0.004902 0.000000 -0.008481 0.000000
# 2 -0.004212 0.040778 -0.008034 0.000000 -0.000895 0.000000
# 3 -0.004902 -0.008034 0.013087 0.000000 -0.004460 0.000000
# 4 0.000000 0.000000 0.000000 0.036390 0.000000 -0.005065
# 5 -0.008481 -0.000895 -0.004460 0.000000 0.042134 0.000000
# 6 0.000000 0.000000 0.000000 -0.005065 0.000000 0.057565
#
#
# Mechanical properties :
#
#
# Convention : Reuss Voigt Hill
#
# Bulk Modulus (GPa) = 29.74058 65.15797 47.44927
# Shear Modulus (GPa) = 20.03879 26.45407 23.24643
#
# Velocity S-wave (km/s) = 3.40059 3.90719 3.66266
# Velocity P-wave (km/s) = 5.70802 7.61291 6.72822
#
# Compressibility (1/GPa) = 0.03362409
#
# Stress axis : x y z
#
# Youngs Moduli (GPa) = 71.14162 24.52305 76.41091
#
# Poissons Ratio (x) = 0.10329 0.37459
# Poissons Ratio (y) = 0.29966 0.61391
# Poissons Ratio (z) = 0.34876 0.19703
#
# Static dielectric constant tensor:
#      x y z
#    x 1.608430 0.000000 0.045760 
#    y 0.000000 1.594110 0.000000 
#    z 0.045760 0.000000 1.584900 
# 
# From -- ./inp_files/67109.got.cif
#   From: 2010.05.17/outbox.cif.g08.bks.cpg/sg11_34_cif.got.tgz:67109.got - 2010.06.03 12:22:45.
