data_PCOD9157800
_publ_section_title
;
Structure prediction by ZEFSAII (Michael W. Deem and Ramdas Pophale) SiO2 
 PCOD9157800
Probable space group: P 21/M
;
_chemical_formula_sum "Si O2"
_cell_formula_units_Z 28
_cell_length_a 7.767672
_cell_length_b 28.534953
_cell_length_c 7.509080
_cell_angle_alpha 90.000000
_cell_angle_beta 137.351209
_cell_angle_gamma 90.000000
_cell_volume 1127.627635
_symmetry_space_group_name_H-M "P 21/M"
_symmetry_group_IT_number 11
_symmetry_cell_setting 'monoclinic'
loop_
_space_group_symop_operation_xyz
x,y,z
-x,1/2+y,-z
-x,-y,-z
x,1/2-y,z
loop_
_atom_site_type_symbol
_atom_site_label
_atom_site_fract_x
_atom_site_fract_y
_atom_site_fract_z
Si Si1 0.284502 0.581302 0.998350
Si Si2 0.589852 0.999596 0.306137
Si Si3 0.069724 0.914172 0.450687
Si Si4 0.782753 0.563566 0.778030
Si Si5 0.452878 0.750000 0.633203
Si Si6 0.480799 0.650251 0.629164
Si Si7 0.381797 0.346606 0.861783
Si Si8 0.852417 0.750000 0.267696
O O1 0.125198 0.593815 0.701793
O O2 0.085608 0.561686 0.990207
O O3 0.466497 0.538235 0.078665
O O4 0.437416 0.629314 0.147607
O O5 0.656412 0.961750 0.512172
O O6 0.841979 0.031950 0.498059
O O7 0.359573 0.035206 0.175490
O O8 0.243067 0.884718 0.445637
O O9 0.802759 0.889494 0.226960
O O10 0.710684 0.617945 0.740903
O O11 0.470616 0.701431 0.538508
O O12 0.158715 0.750000 0.481789
O O13 0.692608 0.750000 0.956972
O O14 0.485384 0.661861 0.845938
O O15 0.237464 0.298561 0.708547
#
# Coordination Sequence:
#
# PCOD9157800 Si02
#       8
#     4   4   4   4   2   4   4   2
#     4  11  22  36  55  83 121 155 199 247 309 362
#     4  10  22  38  57  81 115 163 209 243 303 353
#     4  10  20  36  58  84 115 153 200 253 295 365
#     4  10  22  38  55  82 120 161 199 248 296 372
#     4  10  18  38  65  97 117 157 203 266 302 378
#     4   9  20  36  60  87 113 150 201 249 308 354
#     4  10  21  37  60  90 114 152 194 257 306 373
#     4  10  20  38  67  95 125 153 205 254 326 364
#
# _framework density 24.830891000000001
#
# number of rings (size 3 to 8) (size 9 to 14) (size 15 to 20)
#    0.000    2.000    1.429    1.714    0.000    9.143 
#    0.000    0.714    0.000    2.571    0.000    0.000 
#    0.000    0.000    0.000    0.000    0.000    0.000 
#
# Total GULP energy -156077.912446 kJ/mol
# GULP energy per Si atom -5574.211159 kJ/mol
# Density = 2.477438 g / cm^3
# Si number density = 24.830891 Si / 1000 Ang^3
#
#
#
# Elastic Constant Matrix: (Units=GPa)
#
#
# Indices 1 2 3 4 5 6 
#
# 1 62.1803 55.8591 9.5626 0.0000 34.2388 0.0000
# 2 55.8591 218.9015 14.5268 0.0000 34.0814 0.0000
# 3 9.5626 14.5268 59.6332 0.0000 8.3823 0.0000
# 4 0.0000 0.0000 0.0000 26.6022 0.0000 7.5015
# 5 34.2388 34.0814 8.3823 0.0000 23.7288 0.0000
# 6 0.0000 0.0000 0.0000 7.5015 0.0000 41.1416
#
#
#
# Elastic Compliance Matrix: (Units=1/GPa)
#
#
# Indices 1 2 3 4 5 6 
#
# 1 0.080700 -0.003228 0.003748 0.000000 -0.113131 0.000000
# 2 -0.003228 0.006017 -0.000408 0.000000 -0.003840 0.000000
# 3 0.003748 -0.000408 0.017831 0.000000 -0.011120 0.000000
# 4 0.000000 0.000000 0.000000 0.039628 0.000000 -0.007226
# 5 -0.113131 -0.003840 -0.011120 0.000000 0.214825 0.000000
# 6 0.000000 0.000000 0.000000 -0.007226 0.000000 0.025624
#
#
# Mechanical properties :
#
#
# Convention : Reuss Voigt Hill
#
# Bulk Modulus (GPa) = 9.54469 55.62356 32.58412
# Shear Modulus (GPa) = 11.92392 35.67896 23.80144
#
# Velocity S-wave (km/s) = 2.19374 3.79473 3.09939
# Velocity P-wave (km/s) = 3.20451 6.45365 5.09502
#
# Compressibility (1/GPa) = 0.10477033
#
# Stress axis : x y z
#
# Youngs Moduli (GPa) = 12.39160 166.19714 56.08291
#
# Poissons Ratio (x) = 0.53648 -0.21018
# Poissons Ratio (y) = 0.04000 0.02290
# Poissons Ratio (z) = -0.04644 0.06786
#
# Static dielectric constant tensor:
#      x y z
#    x 2.040240 0.000000 -0.027200 
#    y 0.000000 1.989150 0.000000 
#    z -0.027200 0.000000 2.092810 
# 
# From -- ./inp_files/3315.got.cif
#   From: 2010.05.17/outbox.cif.g08.bks.cpg/sg11_2_cif.got.tgz:3315.got - 2010.06.03 12:22:45.
