data_PCOD9157495
_publ_section_title
;
Structure prediction by ZEFSAII (Michael W. Deem and Ramdas Pophale) SiO2 
 PCOD9157495
Probable space group: P 21/M
;
_chemical_formula_sum "Si O2"
_cell_formula_units_Z 32
_cell_length_a 16.697769
_cell_length_b 18.370377
_cell_length_c 12.772130
_cell_angle_alpha 90.000000
_cell_angle_beta 153.374773
_cell_angle_gamma 90.000000
_cell_volume 1755.763028
_symmetry_space_group_name_H-M "P 21/M"
_symmetry_group_IT_number 11
_symmetry_cell_setting 'monoclinic'
loop_
_space_group_symop_operation_xyz
x,y,z
-x,1/2+y,-z
-x,-y,-z
x,1/2-y,z
loop_
_atom_site_type_symbol
_atom_site_label
_atom_site_fract_x
_atom_site_fract_y
_atom_site_fract_z
Si Si1 0.299013 0.433240 0.834293
Si Si2 0.963185 0.337497 0.047504
Si Si3 0.336373 0.898285 0.813462
Si Si4 0.184383 0.162298 0.097967
Si Si5 0.441893 0.837883 0.373223
Si Si6 0.687208 0.164934 0.997864
Si Si7 0.966762 0.914719 0.282728
Si Si8 0.045130 0.415700 0.350575
O O1 0.313527 0.520244 0.834508
O O2 0.174317 0.417322 0.787015
O O3 0.205611 0.404393 0.619260
O O4 0.497883 0.401659 0.071851
O O5 0.974416 0.250000 0.077125
O O6 0.053202 0.354100 0.041996
O O7 0.062729 0.378316 0.258495
O O8 0.753043 0.358573 0.809581
O O9 0.150333 0.879761 0.540469
O O10 0.379635 0.848738 0.963720
O O11 0.188490 0.250000 0.090882
O O12 0.383414 0.135675 0.362077
O O13 0.113751 0.126467 0.910030
O O14 0.450367 0.750000 0.388123
O O15 0.439772 0.857690 0.247278
O O16 0.726645 0.250000 0.028868
O O17 0.869199 0.120151 0.195897
O O18 0.013274 0.997877 0.305891
#
# Coordination Sequence:
#
# PCOD9157495 Si02
#       8
#     4   4   4   4   4   4   4   4
#     4  10  20  36  58  81 111 152 182 221 278 338
#     4   9  19  36  56  80 108 141 183 233 281 321
#     4  10  20  36  57  82 110 148 184 223 281 327
#     4  10  22  38  56  76 109 153 186 222 278 335
#     4   8  17  34  54  77 105 139 177 225 281 324
#     4  10  18  33  58  84 113 139 177 238 282 319
#     4  11  21  38  55  80 117 150 184 224 272 340
#     4  10  18  36  59  82 112 144 184 231 281 327
#
# _framework density 18.225693
#
# number of rings (size 3 to 8) (size 9 to 14) (size 15 to 20)
#    0.000    2.250    2.500    1.875    1.750    2.000 
#    0.000    3.750    0.000    0.000    0.000    0.000 
#    0.000    0.000    0.000    0.000    0.000    0.000 
#
# Total GULP energy -178457.978319 kJ/mol
# GULP energy per Si atom -5576.811822 kJ/mol
# Density = 1.818421 g / cm^3
# Si number density = 18.225693 Si / 1000 Ang^3
#
#
#
# Elastic Constant Matrix: (Units=GPa)
#
#
# Indices 1 2 3 4 5 6 
#
# 1 102.8495 26.1812 82.1977 0.0000 -8.4380 0.0000
# 2 26.1812 21.0750 28.7347 0.0000 -7.3866 0.0000
# 3 82.1977 28.7347 122.0499 0.0000 -6.5790 0.0000
# 4 0.0000 0.0000 0.0000 23.2301 0.0000 -10.6430
# 5 -8.4380 -7.3866 -6.5790 0.0000 22.0035 0.0000
# 6 0.0000 0.0000 0.0000 -10.6430 0.0000 19.3610
#
#
#
# Elastic Compliance Matrix: (Units=1/GPa)
#
#
# Indices 1 2 3 4 5 6 
#
# 1 0.022648 -0.010222 -0.012769 0.000000 0.001436 0.000000
# 2 -0.010222 0.083133 -0.011581 0.000000 0.020525 0.000000
# 3 -0.012769 -0.011581 0.019358 0.000000 -0.002996 0.000000
# 4 0.000000 0.000000 0.000000 0.057539 0.000000 0.031630
# 5 0.001436 0.020525 -0.002996 0.000000 0.051992 0.000000
# 6 0.000000 0.000000 0.000000 0.031630 0.000000 0.069038
#
#
# Mechanical properties :
#
#
# Convention : Reuss Voigt Hill
#
# Bulk Modulus (GPa) = 17.85909 57.80016 37.82963
# Shear Modulus (GPa) = 12.77084 20.17630 16.47357
#
# Velocity S-wave (km/s) = 2.64996 3.33081 3.00970
# Velocity P-wave (km/s) = 4.37986 6.82457 5.73402
#
# Compressibility (1/GPa) = 0.05599388
#
# Stress axis : x y z
#
# Youngs Moduli (GPa) = 44.15492 12.02889 51.65879
#
# Poissons Ratio (x) = 0.12296 0.65961
# Poissons Ratio (y) = 0.45137 0.59828
# Poissons Ratio (z) = 0.56379 0.13931
#
# Static dielectric constant tensor:
#      x y z
#    x 1.622070 0.000000 0.016190 
#    y 0.000000 1.619410 0.000000 
#    z 0.016190 0.000000 1.640910 
# 
# From -- ./inp_files/40016.got.cif
#   From: 2010.05.17/outbox.cif.g08.bks.cpg/sg11_21_cif.got.tgz:40016.got - 2010.06.03 12:22:45.
