data_PCOD9157885
_publ_section_title
;
Structure prediction by ZEFSAII (Michael W. Deem and Ramdas Pophale) SiO2 
 PCOD9157885
Probable space group: P 21/M
;
_chemical_formula_sum "Si O2"
_cell_formula_units_Z 32
_cell_length_a 11.669077
_cell_length_b 8.891067
_cell_length_c 21.966265
_cell_angle_alpha 90.000000
_cell_angle_beta 58.074407
_cell_angle_gamma 90.000000
_cell_volume 1934.278502
_symmetry_space_group_name_H-M "P 21/M"
_symmetry_group_IT_number 11
_symmetry_cell_setting 'monoclinic'
loop_
_space_group_symop_operation_xyz
x,y,z
-x,1/2+y,-z
-x,-y,-z
x,1/2-y,z
loop_
_atom_site_type_symbol
_atom_site_label
_atom_site_fract_x
_atom_site_fract_y
_atom_site_fract_z
Si Si1 0.427629 0.577753 0.930272
Si Si2 0.946021 0.420919 0.574744
Si Si3 0.086973 0.571981 0.644885
Si Si4 0.289340 0.421001 0.074552
Si Si5 0.370416 0.567609 0.503554
Si Si6 0.396646 0.430570 0.229354
Si Si7 0.370110 0.920772 0.362083
Si Si8 0.146700 0.571717 0.223286
O O1 0.380244 0.750000 0.939401
O O2 0.566453 0.579397 0.930713
O O3 0.479415 0.524848 0.849907
O O4 0.322043 0.480410 0.998058
O O5 0.997882 0.250000 0.569143
O O6 0.787107 0.411068 0.610985
O O7 0.000000 0.500000 0.500000
O O8 0.991321 0.529244 0.615469
O O9 0.090771 0.750000 0.654899
O O10 0.235299 0.523156 0.579274
O O11 0.003967 0.490243 0.721557
O O12 0.239124 0.250000 0.088538
O O13 0.194801 0.525040 0.142425
O O14 0.500000 0.500000 0.500000
O O15 0.372172 0.750000 0.503126
O O16 0.373436 0.522141 0.431044
O O17 0.381534 0.250000 0.230526
O O18 0.425013 0.481921 0.290424
O O19 0.260652 0.501293 0.237132
O O20 0.426107 0.750000 0.345328
O O21 0.148848 0.750000 0.231808
#
# Coordination Sequence:
#
# PCOD9157885 Si02
#       8
#     4   4   4   4   4   4   4   4
#     4   8  15  26  38  57  88 125 163 198 230 274
#     4  11  20  31  48  72  98 125 156 193 242 293
#     4  11  21  35  51  70  98 125 159 204 245 286
#     4   9  16  26  40  59  86 126 167 197 232 278
#     4  10  23  41  56  71  93 124 161 203 245 290
#     4  10  19  29  44  68  96 128 164 199 240 285
#     4  10  20  34  49  70  99 126 159 201 245 286
#     4  11  20  29  43  67  97 128 162 199 242 287
#
# _framework density 16.543637
#
# number of rings (size 3 to 8) (size 9 to 14) (size 15 to 20)
#    0.000    2.000    2.500    3.375    0.000    5.500 
#    0.000    0.000    0.000    0.000    0.000    0.000 
#    0.000    1.000    0.000    3.250    0.000    5.000 
#
# Total GULP energy -178174.905872 kJ/mol
# GULP energy per Si atom -5567.965809 kJ/mol
# Density = 1.650598 g / cm^3
# Si number density = 16.543637 Si / 1000 Ang^3
#
#
#
# Elastic Constant Matrix: (Units=GPa)
#
#
# Indices 1 2 3 4 5 6 
#
# 1 48.9367 13.8051 32.4480 0.0000 -2.3437 0.0000
# 2 13.8051 62.8469 49.4321 0.0000 -3.4326 0.0000
# 3 32.4480 49.4321 143.0663 0.0000 -7.5554 0.0000
# 4 0.0000 0.0000 0.0000 27.7304 0.0000 -0.6860
# 5 -2.3437 -3.4326 -7.5554 0.0000 5.4548 0.0000
# 6 0.0000 0.0000 0.0000 -0.6860 0.0000 16.3919
#
#
#
# Elastic Compliance Matrix: (Units=1/GPa)
#
#
# Indices 1 2 3 4 5 6 
#
# 1 0.024176 -0.001320 -0.004879 0.000000 0.002799 0.000000
# 2 -0.001320 0.021986 -0.007117 0.000000 0.003411 0.000000
# 3 -0.004879 -0.007117 0.011014 0.000000 0.008680 0.000000
# 4 0.000000 0.000000 0.000000 0.036099 0.000000 0.001511
# 5 0.002799 0.003411 0.008680 0.000000 0.198694 0.000000
# 6 0.000000 0.000000 0.000000 0.001511 0.000000 0.061069
#
#
# Mechanical properties :
#
#
# Convention : Reuss Voigt Hill
#
# Bulk Modulus (GPa) = 32.74041 49.58003 41.16022
# Shear Modulus (GPa) = 12.82538 20.52641 16.67590
#
# Velocity S-wave (km/s) = 2.78734 3.52624 3.17834
# Velocity P-wave (km/s) = 5.49476 6.82741 6.19701
#
# Compressibility (1/GPa) = 0.03054330
#
# Stress axis : x y z
#
# Youngs Moduli (GPa) = 41.36279 45.48398 90.79436
#
# Poissons Ratio (x) = 0.06003 0.44303
# Poissons Ratio (y) = 0.05459 0.64619
# Poissons Ratio (z) = 0.20183 0.32371
#
# Static dielectric constant tensor:
#      x y z
#    x 1.502520 0.000000 -0.034980 
#    y 0.000000 1.573890 0.000000 
#    z -0.034980 0.000000 1.567310 
# 
# From -- ./inp_files/58708.got.cif
#   From: 2010.05.17/outbox.cif.g08.bks.cpg/sg11_30_cif.got.tgz:58708.got - 2010.06.03 12:22:45.
