data_PCOD9157331
_publ_section_title
;
Structure prediction by ZEFSAII (Michael W. Deem and Ramdas Pophale) SiO2 
 PCOD9157331
Probable space group: P 21/M
;
_chemical_formula_sum "Si O2"
_cell_formula_units_Z 32
_cell_length_a 20.837132
_cell_length_b 8.552118
_cell_length_c 26.485714
_cell_angle_alpha 90.000000
_cell_angle_beta 158.164695
_cell_angle_gamma 90.000000
_cell_volume 1755.480735
_symmetry_space_group_name_H-M "P 21/M"
_symmetry_group_IT_number 11
_symmetry_cell_setting 'monoclinic'
loop_
_space_group_symop_operation_xyz
x,y,z
-x,1/2+y,-z
-x,-y,-z
x,1/2-y,z
loop_
_atom_site_type_symbol
_atom_site_label
_atom_site_fract_x
_atom_site_fract_y
_atom_site_fract_z
Si Si1 0.406124 0.063578 0.824704
Si Si2 0.783057 0.937254 0.121340
Si Si3 0.864432 0.064466 0.290464
Si Si4 0.276817 0.936772 0.215096
Si Si5 0.573985 0.437574 0.501044
Si Si6 0.065447 0.061375 0.971337
Si Si7 0.028236 0.559551 0.208718
Si Si8 0.134652 0.936819 0.556389
O O1 0.420964 0.250000 0.836322
O O2 0.281334 0.011003 0.779681
O O3 0.314516 0.007073 0.706266
O O4 0.589552 0.983142 0.965162
O O5 0.795619 0.750000 0.136909
O O6 0.912925 0.987839 0.171901
O O7 0.826566 0.019425 0.205685
O O8 0.860765 0.250000 0.295598
O O9 0.049815 0.997416 0.443096
O O10 0.289448 0.750000 0.224929
O O11 0.115576 0.982400 0.133713
O O12 0.449827 0.006664 0.365297
O O13 0.219227 0.993535 0.117657
O O14 0.500000 0.500000 0.500000
O O15 0.572727 0.250000 0.501779
O O16 0.772687 0.490529 0.641116
O O17 0.077570 0.250000 0.981476
O O18 0.052018 0.009087 0.903551
O O19 0.029036 0.750000 0.208209
O O20 0.139367 0.750000 0.560995
O O21 0.000000 0.000000 0.500000
#
# Coordination Sequence:
#
# PCOD9157331 Si02
#       8
#     4   4   4   4   4   4   4   4
#     4  11  21  36  57  84 114 146 186 232 280 332
#     4  11  22  38  57  79 108 149 193 232 278 333
#     4  11  21  36  57  84 115 147 185 233 282 329
#     4  10  19  32  53  84 113 138 177 223 270 322
#     4  11  20  35  57  84 110 142 180 223 272 326
#     4   9  17  34  55  78 108 141 178 220 268 323
#     4   9  20  38  58  78 108 146 187 228 274 335
#     4  10  18  32  55  84 112 142 181 226 275 327
#
# _framework density 18.228624
#
# number of rings (size 3 to 8) (size 9 to 14) (size 15 to 20)
#    0.000    1.750    1.250    6.375    0.000    0.500 
#    0.000    5.000    0.000    3.000    0.000    0.000 
#    0.000    0.000    0.000    0.000    0.000    0.000 
#
# Total GULP energy -178664.737094 kJ/mol
# GULP energy per Si atom -5583.273034 kJ/mol
# Density = 1.818713 g / cm^3
# Si number density = 18.228624 Si / 1000 Ang^3
#
#
#
# Elastic Constant Matrix: (Units=GPa)
#
#
# Indices 1 2 3 4 5 6 
#
# 1 30.5265 -9.3057 71.1445 0.0000 31.8142 0.0000
# 2 -9.3057 41.2714 -2.7503 0.0000 7.8110 0.0000
# 3 71.1445 -2.7503 119.7657 0.0000 -32.4494 0.0000
# 4 0.0000 0.0000 0.0000 31.5402 0.0000 -6.1455
# 5 31.8142 7.8110 -32.4494 0.0000 -4.0434 0.0000
# 6 0.0000 0.0000 0.0000 -6.1455 0.0000 18.4775
#
#
#
# Elastic Compliance Matrix: (Units=1/GPa)
#
#
# Indices 1 2 3 4 5 6 
#
# 1 0.005484 -0.002487 0.002229 0.000000 0.020459 0.000000
# 2 -0.002487 0.023302 0.002806 0.000000 0.002928 0.000000
# 3 0.002229 0.002806 0.004193 0.000000 -0.010694 0.000000
# 4 0.000000 0.000000 0.000000 0.033903 0.000000 0.011276
# 5 0.020459 0.002928 -0.010694 0.000000 0.005139 0.000000
# 6 0.000000 0.000000 0.000000 0.011276 0.000000 0.057870
#
#
# Mechanical properties :
#
#
# Convention : Reuss Voigt Hill
#
# Bulk Modulus (GPa) = 26.26526 34.41561 30.34044
# Shear Modulus (GPa) = 36.36698 18.02652 27.19675
#
# Velocity S-wave (km/s) = 4.47144 3.14811 3.86681
# Velocity P-wave (km/s) = 6.41081 5.66878 6.05118
#
# Compressibility (1/GPa) = 0.03807310
#
# Stress axis : x y z
#
# Youngs Moduli (GPa) = 182.34962 42.91498 238.50159
#
# Poissons Ratio (x) = 0.10674 -0.53151
# Poissons Ratio (y) = 0.45353 -0.66919
# Poissons Ratio (z) = -0.40637 -0.12041
#
# Static dielectric constant tensor:
#      x y z
#    x 1.569840 0.000000 -0.028330 
#    y 0.000000 1.604600 0.000000 
#    z -0.028330 0.000000 1.634400 
# 
# From -- ./inp_files/72220.got.cif
#   From: 2010.05.17/outbox.cif.g08.bks.cpg/sg11_37_cif.got.tgz:72220.got - 2010.06.03 12:22:45.
