data_PCOD9157782
_publ_section_title
;
Structure prediction by ZEFSAII (Michael W. Deem and Ramdas Pophale) SiO2 
 PCOD9157782
Probable space group: P 21/M
;
_chemical_formula_sum "Si O2"
_cell_formula_units_Z 28
_cell_length_a 17.385858
_cell_length_b 15.348121
_cell_length_c 6.216365
_cell_angle_alpha 90.000000
_cell_angle_beta 124.225961
_cell_angle_gamma 90.000000
_cell_volume 1371.519139
_symmetry_space_group_name_H-M "P 21/M"
_symmetry_group_IT_number 11
_symmetry_cell_setting 'monoclinic'
loop_
_space_group_symop_operation_xyz
x,y,z
-x,1/2+y,-z
-x,-y,-z
x,1/2-y,z
loop_
_atom_site_type_symbol
_atom_site_label
_atom_site_fract_x
_atom_site_fract_y
_atom_site_fract_z
Si Si1 0.455494 0.558386 0.618961
Si Si2 0.000178 0.906792 0.614316
Si Si3 0.141657 0.975171 0.157763
Si Si4 0.368327 0.058858 0.857354
Si Si5 0.822551 0.850995 0.564558
Si Si6 0.157121 0.841668 0.558677
Si Si7 0.699812 0.412428 0.914935
O O1 0.500000 0.500000 0.500000
O O2 0.400622 0.493892 0.695527
O O3 0.381758 0.617340 0.374286
O O4 0.538674 0.600187 0.889511
O O5 0.068284 0.849592 0.575212
O O6 0.899026 0.867477 0.497391
O O7 0.049370 0.930758 0.917525
O O8 0.000000 0.000000 0.500000
O O9 0.160844 0.924945 0.410205
O O10 0.220866 0.953020 0.111147
O O11 0.146057 0.078119 0.207430
O O12 0.281546 0.121072 0.669913
O O13 0.336127 0.987198 0.980651
O O14 0.825655 0.750000 0.634174
O O15 0.153134 0.750000 0.429732
O O16 0.247781 0.844842 0.851415
#
# Coordination Sequence:
#
# PCOD9157782 Si02
#       7
#     4   4   4   4   4   4   4
#     4   9  18  33  67  90 118 163 211 250 318 382
#     4  11  23  43  64  87 124 171 217 264 314 375
#     4  11  22  41  63  87 129 169 210 261 323 379
#     4  10  19  38  60  93 123 166 208 261 313 382
#     4  12  23  39  62  93 130 170 212 260 320 383
#     4  11  23  38  62  91 124 163 212 266 315 372
#     4  10  18  37  64  90 121 160 211 259 317 374
#
# _framework density 20.415319
#
# number of rings (size 3 to 8) (size 9 to 14) (size 15 to 20)
#    0.000    1.429    4.286    1.714    0.000    2.857 
#    0.000    3.571    0.000   11.143    0.000    0.000 
#    0.000    0.000    0.000    0.000    0.000    0.000 
#
# Total GULP energy -156173.227540 kJ/mol
# GULP energy per Si atom -5577.615269 kJ/mol
# Density = 2.036885 g / cm^3
# Si number density = 20.415319 Si / 1000 Ang^3
#
#
#
# Elastic Constant Matrix: (Units=GPa)
#
#
# Indices 1 2 3 4 5 6 
#
# 1 108.3868 27.1368 39.8669 0.0000 5.3434 0.0000
# 2 27.1368 108.2970 20.3534 0.0000 0.4639 0.0000
# 3 39.8669 20.3534 97.8513 0.0000 9.6473 0.0000
# 4 0.0000 0.0000 0.0000 4.9539 0.0000 -0.2374
# 5 5.3434 0.4639 9.6473 0.0000 37.7181 0.0000
# 6 0.0000 0.0000 0.0000 -0.2374 0.0000 6.7633
#
#
#
# Elastic Compliance Matrix: (Units=1/GPa)
#
#
# Indices 1 2 3 4 5 6 
#
# 1 0.011280 -0.002050 -0.004118 0.000000 -0.000519 0.000000
# 2 -0.002050 0.009988 -0.001291 0.000000 0.000498 0.000000
# 3 -0.004118 -0.001291 0.012420 0.000000 -0.002577 0.000000
# 4 0.000000 0.000000 0.000000 0.202200 0.000000 0.007096
# 5 -0.000519 0.000498 -0.002577 0.000000 0.027239 0.000000
# 6 0.000000 0.000000 0.000000 0.007096 0.000000 0.148105
#
#
# Mechanical properties :
#
#
# Convention : Reuss Voigt Hill
#
# Bulk Modulus (GPa) = 53.27973 54.36103 53.82038
# Shear Modulus (GPa) = 11.56316 25.03227 18.29772
#
# Velocity S-wave (km/s) = 2.38249 3.50544 2.99703
# Velocity P-wave (km/s) = 5.80714 6.56274 6.19647
#
# Compressibility (1/GPa) = 0.01876886
#
# Stress axis : x y z
#
# Youngs Moduli (GPa) = 88.65376 100.11822 80.51493
#
# Poissons Ratio (x) = 0.20527 0.33156
# Poissons Ratio (y) = 0.18177 0.10397
# Poissons Ratio (z) = 0.36507 0.12929
#
# Static dielectric constant tensor:
#      x y z
#    x 1.750540 0.000000 0.059060 
#    y 0.000000 1.693750 0.000000 
#    z 0.059060 0.000000 1.873160 
# 
# From -- ./inp_files/8148.got.cif
#   From: 2010.05.17/outbox.cif.g08.bks.cpg/sg11_5_cif.got.tgz:8148.got - 2010.06.03 12:22:45.
