data_PCOD9157216
_publ_section_title
;
Structure prediction by ZEFSAII (Michael W. Deem and Ramdas Pophale) SiO2 
 PCOD9157216
Probable space group: P 21/M
;
_chemical_formula_sum "Si O2"
_cell_formula_units_Z 32
_cell_length_a 15.089063
_cell_length_b 23.932431
_cell_length_c 10.689419
_cell_angle_alpha 90.000000
_cell_angle_beta 24.530252
_cell_angle_gamma 90.000000
_cell_volume 1602.628868
_symmetry_space_group_name_H-M "P 21/M"
_symmetry_group_IT_number 11
_symmetry_cell_setting 'monoclinic'
loop_
_space_group_symop_operation_xyz
x,y,z
-x,1/2+y,-z
-x,-y,-z
x,1/2-y,z
loop_
_atom_site_type_symbol
_atom_site_label
_atom_site_fract_x
_atom_site_fract_y
_atom_site_fract_z
Si Si1 0.316791 0.074609 0.492903
Si Si2 0.113011 0.814162 0.285710
Si Si3 0.663872 0.813264 0.921445
Si Si4 0.703669 0.019149 0.320501
Si Si5 0.390461 0.188681 0.303076
Si Si6 0.564098 0.428766 0.762394
Si Si7 0.208638 0.489053 0.373724
Si Si8 0.187859 0.572571 0.064529
O O1 0.275239 0.047522 0.411421
O O2 0.199867 0.039033 0.750986
O O3 0.285971 0.140309 0.519105
O O4 0.569590 0.068611 0.199598
O O5 0.093664 0.750000 0.263149
O O6 0.351886 0.818074 0.033902
O O7 0.109700 0.864905 0.192144
O O8 0.913401 0.822581 0.636288
O O9 0.598906 0.750000 0.042318
O O10 0.679111 0.814180 0.750941
O O11 0.508608 0.864423 0.152174
O O12 0.638860 0.051463 0.529719
O O13 0.500000 0.000000 0.500000
O O14 0.825919 0.056642 0.063549
O O15 0.344604 0.250000 0.413146
O O16 0.736742 0.448382 0.647452
O O17 0.359239 0.464414 0.072887
O O18 0.964805 0.471246 0.668725
#
# Coordination Sequence:
#
# PCOD9157216 Si02
#       8
#     4   4   4   4   4   4   4   4
#     4   9  17  31  49  72 102 131 168 213 255 304
#     4   9  17  29  49  75  99 128 171 215 250 303
#     4  10  18  32  52  74 103 133 163 210 269 306
#     4   9  20  35  50  72 106 140 166 206 252 308
#     4   9  16  27  46  72  99 127 164 212 260 303
#     4  10  19  33  51  76 106 133 169 219 254 302
#     4  10  19  33  52  75 104 130 171 218 252 301
#     4  10  18  33  53  73 101 140 173 203 260 308
#
# _framework density 19.967193000000002
#
# number of rings (size 3 to 8) (size 9 to 14) (size 15 to 20)
#    0.000    2.500    2.500    0.000    0.000    2.000 
#    0.000   14.375    0.000    0.750    0.000    2.625 
#    0.000    9.000    0.000    0.000    0.000    0.000 
#
# Total GULP energy -178264.042863 kJ/mol
# GULP energy per Si atom -5570.751339 kJ/mol
# Density = 1.992175 g / cm^3
# Si number density = 19.967193 Si / 1000 Ang^3
#
#
#
# Elastic Constant Matrix: (Units=GPa)
#
#
# Indices 1 2 3 4 5 6 
#
# 1 33.0349 5.4441 7.4188 0.0000 -3.3859 0.0000
# 2 5.4441 122.1711 17.9083 0.0000 6.3712 0.0000
# 3 7.4188 17.9083 50.3013 0.0000 7.0844 0.0000
# 4 0.0000 0.0000 0.0000 34.7244 0.0000 -1.5655
# 5 -3.3859 6.3712 7.0844 0.0000 33.7722 0.0000
# 6 0.0000 0.0000 0.0000 -1.5655 0.0000 20.3491
#
#
#
# Elastic Compliance Matrix: (Units=1/GPa)
#
#
# Indices 1 2 3 4 5 6 
#
# 1 0.032004 -0.000922 -0.005017 0.000000 0.004435 0.000000
# 2 -0.000922 0.008696 -0.002799 0.000000 -0.001146 0.000000
# 3 -0.005017 -0.002799 0.022271 0.000000 -0.004647 0.000000
# 4 0.000000 0.000000 0.000000 0.028898 0.000000 0.002223
# 5 0.004435 -0.001146 -0.004647 0.000000 0.031246 0.000000
# 6 0.000000 0.000000 0.000000 0.002223 0.000000 0.049313
#
#
# Mechanical properties :
#
#
# Convention : Reuss Voigt Hill
#
# Bulk Modulus (GPa) = 21.97958 29.67219 25.82589
# Shear Modulus (GPa) = 24.38204 29.41821 26.90012
#
# Velocity S-wave (km/s) = 3.49822 3.84256 3.67443
# Velocity P-wave (km/s) = 5.22958 5.88045 5.56454
#
# Compressibility (1/GPa) = 0.04549678
#
# Stress axis : x y z
#
# Youngs Moduli (GPa) = 31.24593 114.99100 44.90163
#
# Poissons Ratio (x) = 0.10603 0.22525
# Poissons Ratio (y) = 0.02881 0.12567
# Poissons Ratio (z) = 0.15675 0.32182
#
# Static dielectric constant tensor:
#      x y z
#    x 1.756760 0.000000 -0.087590 
#    y 0.000000 1.754740 0.000000 
#    z -0.087590 0.000000 1.768580 
# 
# From -- ./inp_files/42031.got.cif
#   From: 2010.05.17/outbox.cif.g08.bks.cpg/sg11_22_cif.got.tgz:42031.got - 2010.06.03 12:22:45.
