data_PCOD9157966
_publ_section_title
;
Structure prediction by ZEFSAII (Michael W. Deem and Ramdas Pophale) SiO2 
 PCOD9157966
Probable space group: P 21/M
;
_chemical_formula_sum "Si O2"
_cell_formula_units_Z 32
_cell_length_a 16.216751
_cell_length_b 7.430307
_cell_length_c 14.908838
_cell_angle_alpha 90.000000
_cell_angle_beta 44.747669
_cell_angle_gamma 90.000000
_cell_volume 1264.673214
_symmetry_space_group_name_H-M "P 21/M"
_symmetry_group_IT_number 11
_symmetry_cell_setting 'monoclinic'
loop_
_space_group_symop_operation_xyz
x,y,z
-x,1/2+y,-z
-x,-y,-z
x,1/2-y,z
loop_
_atom_site_type_symbol
_atom_site_label
_atom_site_fract_x
_atom_site_fract_y
_atom_site_fract_z
Si Si1 0.867753 0.465364 0.629042
Si Si2 0.624483 0.528958 0.501690
Si Si3 0.130122 0.533571 0.169054
Si Si4 0.373579 0.956636 0.713756
Si Si5 0.869496 0.465686 0.134072
Si Si6 0.379998 0.036370 0.998909
Si Si7 0.626856 0.045613 0.784952
Si Si8 0.872446 0.549551 0.333772
O O1 0.854275 0.250000 0.640166
O O2 0.860452 0.529926 0.736043
O O3 0.753980 0.537019 0.664341
O O4 0.000000 0.500000 0.500000
O O5 0.625395 0.750000 0.499532
O O6 0.624954 0.464094 0.397481
O O7 0.501159 0.466368 0.639220
O O8 0.745375 0.468832 0.455989
O O9 0.122323 0.750000 0.166387
O O10 0.261001 0.490555 0.034762
O O11 0.001256 0.463260 0.242656
O O12 0.375032 0.750000 0.742473
O O13 0.243435 0.028678 0.835915
O O14 0.857239 0.250000 0.154493
O O15 0.860764 0.559928 0.236017
O O16 0.000000 0.500000 0.000000
O O17 0.393910 0.250000 0.001691
O O18 0.372194 0.953024 0.105338
O O19 0.499923 0.965074 0.861745
O O20 0.625927 0.250000 0.752076
O O21 0.878883 0.750000 0.369856
#
# Coordination Sequence:
#
# PCOD9157966 Si02
#       8
#     4   4   4   4   4   4   4   4
#     4   9  17  29  44  63  88 117 146 178 218 262
#     4   8  13  23  41  63  83 106 139 176 214 255
#     4   9  18  31  45  64  92 119 142 177 225 268
#     4   8  14  24  39  61  86 109 137 177 216 248
#     4  10  19  30  45  66  92 120 149 182 219 260
#     4   9  15  24  42  65  85 110 146 183 217 257
#     4   8  15  27  41  60  87 114 141 180 225 259
#     4   9  17  30  48  67  88 116 146 178 221 269
#
# _framework density 25.302980999999999
#
# number of rings (size 3 to 8) (size 9 to 14) (size 15 to 20)
#    0.000    3.250    0.000    1.500    0.000    3.500 
#    0.000    0.000    0.000    1.500    0.000    3.500 
#    0.000    0.000    0.000    0.000    0.000    0.000 
#
# Total GULP energy -178138.952198 kJ/mol
# GULP energy per Si atom -5566.842256 kJ/mol
# Density = 2.524539 g / cm^3
# Si number density = 25.302981 Si / 1000 Ang^3
#
#
#
# Elastic Constant Matrix: (Units=GPa)
#
#
# Indices 1 2 3 4 5 6 
#
# 1 100.6062 0.2862 79.9954 0.0000 -57.2819 0.0000
# 2 0.2862 106.9660 1.4833 0.0000 -8.4176 0.0000
# 3 79.9954 1.4833 166.3585 0.0000 -97.2111 0.0000
# 4 0.0000 0.0000 0.0000 13.0022 0.0000 -1.9626
# 5 -57.2819 -8.4176 -97.2111 0.0000 87.6873 0.0000
# 6 0.0000 0.0000 0.0000 -1.9626 0.0000 3.1064
#
#
#
# Elastic Compliance Matrix: (Units=1/GPa)
#
#
# Indices 1 2 3 4 5 6 
#
# 1 0.017106 0.000489 -0.004750 0.000000 0.005956 0.000000
# 2 0.000489 0.009528 0.001139 0.000000 0.002496 0.000000
# 3 -0.004750 0.001139 0.018558 0.000000 0.017580 0.000000
# 4 0.000000 0.000000 0.000000 0.085018 0.000000 0.053714
# 5 0.005956 0.002496 0.017580 0.000000 0.035024 0.000000
# 6 0.000000 0.000000 0.000000 0.053714 0.000000 0.355849
#
#
# Mechanical properties :
#
#
# Convention : Reuss Voigt Hill
#
# Bulk Modulus (GPa) = 25.67552 59.71784 42.69668
# Shear Modulus (GPa) = 9.25396 40.23689 24.74543
#
# Velocity S-wave (km/s) = 1.91447 3.99206 3.13064
# Velocity P-wave (km/s) = 3.88023 6.70083 5.47528
#
# Compressibility (1/GPa) = 0.03894760
#
# Stress axis : x y z
#
# Youngs Moduli (GPa) = 58.45857 104.95251 53.88645
#
# Poissons Ratio (x) = -0.05130 0.25594
# Poissons Ratio (y) = -0.02857 -0.06136
# Poissons Ratio (z) = 0.27766 -0.11952
#
# Static dielectric constant tensor:
#      x y z
#    x 2.044190 0.000000 -0.094510 
#    y 0.000000 2.040630 0.000000 
#    z -0.094510 0.000000 2.188220 
# 
# From -- ./inp_files/66427.got.cif
#   From: 2010.05.17/outbox.cif.g08.bks.cpg/sg11_34_cif.got.tgz:66427.got - 2010.06.03 12:22:45.
