data_PCOD9157797
_publ_section_title
;
Structure prediction by ZEFSAII (Michael W. Deem and Ramdas Pophale) SiO2 
 PCOD9157797
Probable space group: P 21/M
;
_chemical_formula_sum "Si O2"
_cell_formula_units_Z 30
_cell_length_a 12.353319
_cell_length_b 14.854958
_cell_length_c 17.765670
_cell_angle_alpha 90.000000
_cell_angle_beta 25.685818
_cell_angle_gamma 90.000000
_cell_volume 1413.063536
_symmetry_space_group_name_H-M "P 21/M"
_symmetry_group_IT_number 11
_symmetry_cell_setting 'monoclinic'
loop_
_space_group_symop_operation_xyz
x,y,z
-x,1/2+y,-z
-x,-y,-z
x,1/2-y,z
loop_
_atom_site_type_symbol
_atom_site_label
_atom_site_fract_x
_atom_site_fract_y
_atom_site_fract_z
Si Si1 0.514882 0.858898 0.880914
Si Si2 0.778316 0.593867 0.858802
Si Si3 0.962743 0.855349 0.179398
Si Si4 0.034468 0.358243 0.507885
Si Si5 0.422638 0.416978 0.694164
Si Si6 0.837632 0.936185 0.410177
Si Si7 0.465267 0.140504 0.830487
Si Si8 0.192515 0.750000 0.573426
O O1 0.519945 0.750000 0.884391
O O2 0.556396 0.898940 0.937307
O O3 0.749477 0.889705 0.683947
O O4 0.252453 0.881229 0.007425
O O5 0.940948 0.505190 0.747687
O O6 0.972236 0.672866 0.717046
O O7 0.672278 0.609192 0.008269
O O8 0.953269 0.750000 0.164870
O O9 0.816529 0.912477 0.209395
O O10 0.831688 0.869783 0.342692
O O11 0.038051 0.250000 0.503676
O O12 0.093861 0.389476 0.554458
O O13 0.759125 0.384346 0.652469
O O14 0.585628 0.506104 0.577556
O O15 0.360527 0.404178 0.820841
O O16 0.594838 0.330148 0.566658
O O17 0.450295 0.250000 0.834578
#
# Coordination Sequence:
#
# PCOD9157797 Si02
#       8
#     4   4   4   4   4   4   4   2
#     4  10  21  39  67  92 127 168 209 262 312 379
#     4  11  22  37  65  99 127 155 210 263 322 366
#     4  11  23  44  66  88 127 173 212 252 316 381
#     4  10  22  40  64  94 129 167 210 261 327 375
#     4  11  23  41  67  90 126 166 214 256 310 372
#     4  11  25  40  64  96 128 165 210 271 315 369
#     4  11  21  38  67  96 127 168 211 258 312 385
#     4  10  18  38  62  90 120 156 196 254 306 364
#
# _framework density 21.230467000000001
#
# number of rings (size 3 to 8) (size 9 to 14) (size 15 to 20)
#    0.000    1.333    2.667    3.200    1.867    7.467 
#    0.000    5.333    2.933    0.000    0.000    0.000 
#    0.000    0.000    0.000    0.000    0.000    0.000 
#
# Total GULP energy -167403.710781 kJ/mol
# GULP energy per Si atom -5580.123693 kJ/mol
# Density = 2.118215 g / cm^3
# Si number density = 21.230467 Si / 1000 Ang^3
#
#
#
# Elastic Constant Matrix: (Units=GPa)
#
#
# Indices 1 2 3 4 5 6 
#
# 1 134.5758 -2.0713 48.8470 0.0000 0.1771 0.0000
# 2 -2.0713 36.2765 3.4337 0.0000 -6.0035 0.0000
# 3 48.8470 3.4337 73.8727 0.0000 -3.4165 0.0000
# 4 0.0000 0.0000 0.0000 31.6859 0.0000 16.4266
# 5 0.1771 -6.0035 -3.4165 0.0000 21.7054 0.0000
# 6 0.0000 0.0000 0.0000 16.4266 0.0000 57.0091
#
#
#
# Elastic Compliance Matrix: (Units=1/GPa)
#
#
# Indices 1 2 3 4 5 6 
#
# 1 0.009842 0.001049 -0.006595 0.000000 -0.000828 0.000000
# 2 0.001049 0.029071 -0.001686 0.000000 0.007767 0.000000
# 3 -0.006595 -0.001686 0.018088 0.000000 0.002435 0.000000
# 4 0.000000 0.000000 0.000000 0.037102 0.000000 -0.010691
# 5 -0.000828 0.007767 0.002435 0.000000 0.048610 0.000000
# 6 0.000000 0.000000 0.000000 -0.010691 0.000000 0.020621
#
#
# Mechanical properties :
#
#
# Convention : Reuss Voigt Hill
#
# Bulk Modulus (GPa) = 23.50828 38.34932 30.92880
# Shear Modulus (GPa) = 26.04487 35.04777 30.54632
#
# Velocity S-wave (km/s) = 3.50633 4.06744 3.79726
# Velocity P-wave (km/s) = 5.24303 6.33730 5.81596
#
# Compressibility (1/GPa) = 0.04253820
#
# Stress axis : x y z
#
# Youngs Moduli (GPa) = 101.60871 34.39870 55.28406
#
# Poissons Ratio (x) = -0.03609 0.36458
# Poissons Ratio (y) = -0.10660 0.09320
# Poissons Ratio (z) = 0.67008 0.05799
#
# Static dielectric constant tensor:
#      x y z
#    x 1.751150 0.000000 0.004010 
#    y 0.000000 1.785850 0.000000 
#    z 0.004010 0.000000 1.751470 
# 
# From -- ./inp_files/59382.got.cif
#   From: 2010.05.17/outbox.cif.g08.bks.cpg/sg11_30_cif.got.tgz:59382.got - 2010.06.03 12:22:45.
