data_PCOD9157173
_publ_section_title
;
Structure prediction by ZEFSAII (Michael W. Deem and Ramdas Pophale) SiO2 
 PCOD9157173
Probable space group: P 21/M
;
_chemical_formula_sum "Si O2"
_cell_formula_units_Z 24
_cell_length_a 20.162552
_cell_length_b 7.952348
_cell_length_c 23.194541
_cell_angle_alpha 90.000000
_cell_angle_beta 16.807234
_cell_angle_gamma 90.000000
_cell_volume 1075.359946
_symmetry_space_group_name_H-M "P 21/M"
_symmetry_group_IT_number 11
_symmetry_cell_setting 'monoclinic'
loop_
_space_group_symop_operation_xyz
x,y,z
-x,1/2+y,-z
-x,-y,-z
x,1/2-y,z
loop_
_atom_site_type_symbol
_atom_site_label
_atom_site_fract_x
_atom_site_fract_y
_atom_site_fract_z
Si Si1 0.905670 0.250000 0.350292
Si Si2 0.942370 0.434642 0.928287
Si Si3 0.626739 0.250000 0.749882
Si Si4 0.738507 0.941766 0.728766
Si Si5 0.145013 0.250000 0.268754
Si Si6 0.692484 0.449735 0.292869
Si Si7 0.733670 0.750000 0.051076
Si Si8 0.326211 0.058213 0.505814
O O1 0.090814 0.250000 0.247165
O O2 0.753940 0.418564 0.473019
O O3 0.048038 0.250000 0.173139
O O4 0.837679 0.250000 0.014032
O O5 0.079802 0.460295 0.873669
O O6 0.136858 0.439703 0.715619
O O7 0.767884 0.582828 0.059564
O O8 0.594071 0.415804 0.816683
O O9 0.888403 0.250000 0.509501
O O10 0.477115 0.250000 0.816998
O O11 0.701621 0.750000 0.736519
O O12 0.731119 0.909446 0.804056
O O13 0.000000 0.000000 0.500000
O O14 0.500000 0.500000 0.500000
O O15 0.730539 0.250000 0.264792
O O16 0.565512 0.486193 0.338464
O O17 0.332246 0.250000 0.478872
#
# Coordination Sequence:
#
# PCOD9157173 Si02
#       8
#     2   4   2   4   2   4   2   4
#     4  10  18  32  44  66 103 126 146 188 237 280
#     4   9  16  26  39  60  93 125 158 193 233 272
#     4  10  18  34  54  74  93 120 152 190 233 272
#     4   8  15  30  53  75  92 112 153 191 227 261
#     4   8  18  34  52  74  93 114 154 194 225 268
#     4   9  14  21  36  59  86 119 164 199 227 266
#     4  10  20  30  46  68  99 132 148 180 243 288
#     4   8  16  25  38  61  90 125 157 190 231 271
#
# _framework density 22.318107000000001
#
# number of rings (size 3 to 8) (size 9 to 14) (size 15 to 20)
#    0.500    2.667    1.667    1.500    4.667    0.667 
#    1.500    0.833    0.000    0.000    0.000    1.167 
#    0.000    0.000    0.000    0.000    0.000    0.000 
#
# Total GULP energy -133860.412434 kJ/mol
# GULP energy per Si atom -5577.517185 kJ/mol
# Density = 2.226731 g / cm^3
# Si number density = 22.318107 Si / 1000 Ang^3
#
#
#
# Elastic Constant Matrix: (Units=GPa)
#
#
# Indices 1 2 3 4 5 6 
#
# 1 101.1425 81.2157 29.6633 0.0000 -21.2667 0.0000
# 2 81.2157 195.0708 61.3454 0.0000 -49.4321 0.0000
# 3 29.6633 61.3454 100.3786 0.0000 -25.0468 0.0000
# 4 0.0000 0.0000 0.0000 5.5149 0.0000 -20.6449
# 5 -21.2667 -49.4321 -25.0468 0.0000 49.5666 0.0000
# 6 0.0000 0.0000 0.0000 -20.6449 0.0000 21.3416
#
#
#
# Elastic Compliance Matrix: (Units=1/GPa)
#
#
# Indices 1 2 3 4 5 6 
#
# 1 0.014899 -0.005947 -0.000748 0.000000 0.000084 0.000000
# 2 -0.005947 0.010025 -0.002874 0.000000 0.005994 0.000000
# 3 -0.000748 -0.002874 0.012752 0.000000 0.003257 0.000000
# 4 0.000000 0.000000 0.000000 -0.069175 0.000000 -0.066917
# 5 0.000084 0.005994 0.003257 0.000000 0.027835 0.000000
# 6 0.000000 0.000000 0.000000 -0.066917 0.000000 -0.017875
#
#
# Mechanical properties :
#
#
# Convention : Reuss Voigt Hill
#
# Bulk Modulus (GPa) = 53.93653 82.33788 68.13720
# Shear Modulus (GPa) = 1324.23069 30.24245 677.23657
#
# Velocity S-wave (km/s) = 24.38507 3.68511 17.43863
# Velocity P-wave (km/s) = 28.58430 7.42157 20.88231
#
# Compressibility (1/GPa) = 0.01854031
#
# Stress axis : x y z
#
# Youngs Moduli (GPa) = 67.11845 99.75307 78.41814
#
# Poissons Ratio (x) = 0.59319 0.05863
# Poissons Ratio (y) = 0.39913 0.22534
# Poissons Ratio (z) = 0.05018 0.28665
#
# Static dielectric constant tensor:
#      x y z
#    x 1.849440 0.000000 0.062290 
#    y 0.000000 1.804010 0.000000 
#    z 0.062290 0.000000 1.872770 
# 
# From -- ./inp_files/71852.got.cif
#   From: 2010.05.17/outbox.cif.g08.bks.cpg/sg11_36_cif.got.tgz:71852.got - 2010.06.03 12:22:45.
