data_PCOD9157325
_publ_section_title
;
Structure prediction by ZEFSAII (Michael W. Deem and Ramdas Pophale) SiO2 
 PCOD9157325
Probable space group: P 21/M
;
_chemical_formula_sum "Si O2"
_cell_formula_units_Z 32
_cell_length_a 23.313253
_cell_length_b 7.891404
_cell_length_c 14.922114
_cell_angle_alpha 90.000000
_cell_angle_beta 149.473559
_cell_angle_gamma 90.000000
_cell_volume 1394.429132
_symmetry_space_group_name_H-M "P 21/M"
_symmetry_group_IT_number 11
_symmetry_cell_setting 'monoclinic'
loop_
_space_group_symop_operation_xyz
x,y,z
-x,1/2+y,-z
-x,-y,-z
x,1/2-y,z
loop_
_atom_site_type_symbol
_atom_site_label
_atom_site_fract_x
_atom_site_fract_y
_atom_site_fract_z
Si Si1 0.665657 0.546342 0.108365
Si Si2 0.765221 0.453243 0.421961
Si Si3 0.280504 0.548771 0.440884
Si Si4 0.529131 0.955406 0.758299
Si Si5 0.980896 0.541891 0.242850
Si Si6 0.377293 0.946501 0.297566
Si Si7 0.115758 0.453980 0.704932
Si Si8 0.158327 0.444399 0.106487
O O1 0.667291 0.750000 0.110729
O O2 0.675097 0.493333 0.223851
O O3 0.777870 0.481497 0.207873
O O4 0.563911 0.495760 0.906008
O O5 0.770830 0.250000 0.434957
O O6 0.741083 0.520161 0.488947
O O7 0.891164 0.512467 0.564906
O O8 0.294198 0.750000 0.469052
O O9 0.401641 0.485188 0.568710
O O10 0.184737 0.521247 0.238459
O O11 0.535010 0.750000 0.759074
O O12 0.612742 0.024787 0.795412
O O13 0.978724 0.750000 0.238585
O O14 0.899010 0.486102 0.212818
O O15 0.936785 0.481494 0.087175
O O16 0.359606 0.750000 0.295567
O O17 0.500000 0.000000 0.500000
O O18 0.274272 0.044056 0.204782
O O19 0.126228 0.250000 0.721890
O O20 0.000000 0.500000 0.500000
O O21 0.129202 0.250000 0.083270
#
# Coordination Sequence:
#
# PCOD9157325 Si02
#       8
#     4   4   4   4   4   4   4   4
#     4  10  21  36  57  85 115 151 193 238 290 346
#     4  10  21  39  60  82 113 154 198 244 290 341
#     4  10  22  39  59  83 113 152 198 245 291 338
#     4  10  21  39  60  83 118 156 190 234 290 348
#     4   9  19  36  58  83 115 153 189 232 292 348
#     4  12  23  37  60  90 120 151 188 235 287 345
#     4  10  18  32  55  81 110 144 183 226 281 344
#     4  11  22  38  61  86 115 154 193 235 290 350
#
# _framework density 22.948457999999999
#
# number of rings (size 3 to 8) (size 9 to 14) (size 15 to 20)
#    0.000    1.750    2.500    2.250    0.000    4.000 
#    0.000    3.750    0.000    0.000    0.000    0.000 
#    0.000    0.000    0.000    0.000    0.000    0.000 
#
# Total GULP energy -178824.408402 kJ/mol
# GULP energy per Si atom -5588.262763 kJ/mol
# Density = 2.289623 g / cm^3
# Si number density = 22.948458 Si / 1000 Ang^3
#
#
#
# Elastic Constant Matrix: (Units=GPa)
#
#
# Indices 1 2 3 4 5 6 
#
# 1 75.4843 -0.0187 1.6729 0.0000 -39.2386 0.0000
# 2 -0.0187 23.0773 -4.2445 0.0000 1.7659 0.0000
# 3 1.6729 -4.2445 87.1857 0.0000 -36.3973 0.0000
# 4 0.0000 0.0000 0.0000 22.1136 0.0000 -7.6033
# 5 -39.2386 1.7659 -36.3973 0.0000 36.3131 0.0000
# 6 0.0000 0.0000 0.0000 -7.6033 0.0000 14.2589
#
#
#
# Elastic Compliance Matrix: (Units=1/GPa)
#
#
# Indices 1 2 3 4 5 6 
#
# 1 0.195408 -0.000441 0.145104 0.000000 0.356614 0.000000
# 2 -0.000441 0.043725 0.001806 0.000000 -0.000793 0.000000
# 3 0.145104 0.001806 0.127576 0.000000 0.284578 0.000000
# 4 0.000000 0.000000 0.000000 0.055373 0.000000 0.029527
# 5 0.356614 -0.000793 0.284578 0.000000 0.698160 0.000000
# 6 0.000000 0.000000 0.000000 0.029527 0.000000 0.085876
#
#
# Mechanical properties :
#
#
# Convention : Reuss Voigt Hill
#
# Bulk Modulus (GPa) = 1.51596 20.06298 10.78947
# Shear Modulus (GPa) = 4.41281 27.09294 15.75288
#
# Velocity S-wave (km/s) = 1.38820 3.43971 2.62285
# Velocity P-wave (km/s) = 1.79764 4.95349 3.72616
#
# Compressibility (1/GPa) = 0.65964683
#
# Stress axis : x y z
#
# Youngs Moduli (GPa) = 5.11749 22.87011 7.83847
#
# Poissons Ratio (x) = 0.01010 -1.13739
# Poissons Ratio (y) = 0.00226 -0.01416
# Poissons Ratio (z) = -0.74257 -0.04131
#
# Static dielectric constant tensor:
#      x y z
#    x 1.773430 0.000000 0.035260 
#    y 0.000000 1.837250 0.000000 
#    z 0.035260 0.000000 1.830390 
# 
# From -- ./inp_files/51720.got.cif
#   From: 2010.05.17/outbox.cif.g08.bks.cpg/sg11_26_cif.got.tgz:51720.got - 2010.06.03 12:22:45.
