data_PCOD9157000
_publ_section_title
;
Structure prediction by ZEFSAII (Michael W. Deem and Ramdas Pophale) SiO2 
 PCOD9157000
Probable space group: P 21/M
;
_chemical_formula_sum "Si O2"
_cell_formula_units_Z 28
_cell_length_a 5.519008
_cell_length_b 13.733597
_cell_length_c 15.095137
_cell_angle_alpha 90.000000
_cell_angle_beta 94.386418
_cell_angle_gamma 90.000000
_cell_volume 1140.797150
_symmetry_space_group_name_H-M "P 21/M"
_symmetry_group_IT_number 11
_symmetry_cell_setting 'monoclinic'
loop_
_space_group_symop_operation_xyz
x,y,z
-x,1/2+y,-z
-x,-y,-z
x,1/2-y,z
loop_
_atom_site_type_symbol
_atom_site_label
_atom_site_fract_x
_atom_site_fract_y
_atom_site_fract_z
Si Si1 0.475324 0.419067 0.881767
Si Si2 0.054159 0.101416 0.215098
Si Si3 0.980728 0.427258 0.916634
Si Si4 0.468895 0.854080 0.876856
Si Si5 0.556157 0.946948 0.329628
Si Si6 0.925366 0.365294 0.589475
Si Si7 0.193162 0.863566 0.618863
O O1 0.728529 0.372286 0.916730
O O2 0.482317 0.534156 0.911896
O O3 0.455225 0.422999 0.774894
O O4 0.233505 0.373229 0.914860
O O5 0.043278 0.992532 0.173602
O O6 0.299540 0.144925 0.182794
O O7 0.801336 0.146177 0.172275
O O8 0.595712 0.061763 0.347878
O O9 0.000000 0.500000 0.000000
O O10 0.490468 0.750000 0.925530
O O11 0.976505 0.887710 0.681363
O O12 0.309843 0.910545 0.368499
O O13 0.808521 0.902206 0.373965
O O14 0.918093 0.250000 0.606040
O O15 0.888598 0.381943 0.483665
O O16 0.259971 0.750000 0.629135
#
# Coordination Sequence:
#
# PCOD9157000 Si02
#       7
#     4   4   4   4   4   4   4
#     4  10  21  34  59  93 120 158 216 253 318 385
#     4  10  21  33  53  86 123 165 206 242 309 390
#     4  10  19  36  57  86 128 158 211 261 310 391
#     4  10  18  31  50  78 122 160 196 237 297 381
#     4  12  23  44  68  94 135 173 225 283 332 404
#     4  11  27  45  65  93 127 180 234 286 336 378
#     4  11  23  41  65  99 142 175 214 270 340 416
#
# _framework density 24.544242000000001
#
# number of rings (size 3 to 8) (size 9 to 14) (size 15 to 20)
#    0.000    1.429    2.857    3.857    2.000    1.143 
#    0.000    3.571    0.000    0.000    0.000   86.000 
#    0.000    0.000    0.000    0.000    0.000    0.000 
#
# Total GULP energy -156552.151884 kJ/mol
# GULP energy per Si atom -5591.148282 kJ/mol
# Density = 2.448838 g / cm^3
# Si number density = 24.544242 Si / 1000 Ang^3
#
#
#
# Elastic Constant Matrix: (Units=GPa)
#
#
# Indices 1 2 3 4 5 6 
#
# 1 256.9722 51.9397 75.9535 0.0000 11.0034 0.0000
# 2 51.9397 100.6879 28.7842 0.0000 -5.4078 0.0000
# 3 75.9535 28.7842 131.8821 0.0000 -11.2233 0.0000
# 4 0.0000 0.0000 0.0000 12.9338 0.0000 -7.9321
# 5 11.0034 -5.4078 -11.2233 0.0000 40.8712 0.0000
# 6 0.0000 0.0000 0.0000 -7.9321 0.0000 -4.1844
#
#
#
# Elastic Compliance Matrix: (Units=1/GPa)
#
#
# Indices 1 2 3 4 5 6 
#
# 1 0.005227 -0.002034 -0.002774 0.000000 -0.002438 0.000000
# 2 -0.002034 0.011409 -0.001171 0.000000 0.001736 0.000000
# 3 -0.002774 -0.001171 0.009713 0.000000 0.003259 0.000000
# 4 0.000000 0.000000 0.000000 0.035752 0.000000 -0.067774
# 5 -0.002438 0.001736 0.003259 0.000000 0.026248 0.000000
# 6 0.000000 0.000000 0.000000 -0.067774 0.000000 -0.110509
#
#
# Mechanical properties :
#
#
# Convention : Reuss Voigt Hill
#
# Bulk Modulus (GPa) = 69.48744 89.21077 79.34911
# Shear Modulus (GPa) = -925.04195 32.11510 -446.46342
#
# Velocity S-wave (km/s) = -19.43465 3.62119 -13.50172
# Velocity P-wave (km/s) = 21.79989 7.34233 14.51422
#
# Compressibility (1/GPa) = 0.01439109
#
# Stress axis : x y z
#
# Youngs Moduli (GPa) = 191.31893 87.65026 102.95620
#
# Poissons Ratio (x) = 0.17830 0.28557
# Poissons Ratio (y) = 0.38919 0.12054
# Poissons Ratio (z) = 0.53067 0.10262
#
# Static dielectric constant tensor:
#      x y z
#    x 1.974130 0.000000 0.001890 
#    y 0.000000 1.934860 0.000000 
#    z 0.001890 0.000000 1.980720 
# 
# From -- ./inp_files/45935.got.cif
#   From: 2010.05.17/outbox.cif.g08.bks.cpg/sg11_23_cif.got.tgz:45935.got - 2010.06.03 12:22:45.
