data_PCOD9157047
_publ_section_title
;
Structure prediction by ZEFSAII (Michael W. Deem and Ramdas Pophale) SiO2 
 PCOD9157047
Probable space group: P 21/M
;
_chemical_formula_sum "Si O2"
_cell_formula_units_Z 32
_cell_length_a 8.444961
_cell_length_b 19.078843
_cell_length_c 13.230937
_cell_angle_alpha 90.000000
_cell_angle_beta 49.098633
_cell_angle_gamma 90.000000
_cell_volume 1611.272218
_symmetry_space_group_name_H-M "P 21/M"
_symmetry_group_IT_number 11
_symmetry_cell_setting 'monoclinic'
loop_
_space_group_symop_operation_xyz
x,y,z
-x,1/2+y,-z
-x,-y,-z
x,1/2-y,z
loop_
_atom_site_type_symbol
_atom_site_label
_atom_site_fract_x
_atom_site_fract_y
_atom_site_fract_z
Si Si1 0.941304 0.929633 0.400352
Si Si2 0.475821 0.170619 0.218571
Si Si3 0.611495 0.673395 0.507230
Si Si4 0.723971 0.334221 0.812052
Si Si5 0.909554 0.165506 0.951600
Si Si6 0.875838 0.569918 0.656882
Si Si7 0.725770 0.330392 0.510811
Si Si8 0.368404 0.334858 0.822889
O O1 0.756555 0.891770 0.416500
O O2 0.847774 0.949013 0.549365
O O3 0.114799 0.868569 0.334526
O O4 0.059543 0.998872 0.313618
O O5 0.449981 0.250000 0.187051
O O6 0.407181 0.173675 0.364194
O O7 0.327398 0.113961 0.227122
O O8 0.719464 0.151630 0.107972
O O9 0.700918 0.750000 0.437169
O O10 0.386027 0.668516 0.551415
O O11 0.732846 0.250000 0.803755
O O12 0.815233 0.357109 0.882377
O O13 0.489854 0.355782 0.875352
O O14 0.931263 0.250000 0.935344
O O15 0.136407 0.138304 0.892533
O O16 0.074271 0.621005 0.575943
O O17 0.784492 0.250000 0.511176
O O18 0.536285 0.351603 0.664842
O O19 0.353157 0.250000 0.832038
#
# Coordination Sequence:
#
# PCOD9157047 Si02
#       8
#     4   4   4   4   4   4   4   4
#     4  10  19  32  50  75 103 138 169 208 258 314
#     4   9  18  35  53  71 101 139 171 207 253 308
#     4   9  18  31  51  76 102 136 168 205 263 314
#     4  10  18  31  54  79 101 133 173 218 265 303
#     4   9  18  33  52  76 102 133 175 217 260 306
#     4  10  20  32  50  75 105 138 167 207 258 313
#     4  10  18  31  51  80 106 127 165 215 262 309
#     4   9  17  29  49  77 104 127 162 216 263 300
#
# _framework density 19.860081999999998
#
# number of rings (size 3 to 8) (size 9 to 14) (size 15 to 20)
#    0.000    2.500    1.250    1.500    0.000    3.500 
#    2.250    0.625    0.000    0.750    0.000    0.000 
#    0.000    0.000    0.000    0.000    0.000    0.000 
#
# Total GULP energy -178145.959540 kJ/mol
# GULP energy per Si atom -5567.061236 kJ/mol
# Density = 1.981488 g / cm^3
# Si number density = 19.860082 Si / 1000 Ang^3
#
#
#
# Elastic Constant Matrix: (Units=GPa)
#
#
# Indices 1 2 3 4 5 6 
#
# 1 89.8371 13.0172 16.5227 0.0000 -28.2726 0.0000
# 2 13.0172 31.7704 6.1524 0.0000 -10.5865 0.0000
# 3 16.5227 6.1524 35.7282 0.0000 -21.7788 0.0000
# 4 0.0000 0.0000 0.0000 2.9434 0.0000 5.8742
# 5 -28.2726 -10.5865 -21.7788 0.0000 26.8679 0.0000
# 6 0.0000 0.0000 0.0000 5.8742 0.0000 0.0132
#
#
#
# Elastic Compliance Matrix: (Units=1/GPa)
#
#
# Indices 1 2 3 4 5 6 
#
# 1 0.017305 -0.000646 0.006036 0.000000 0.022848 0.000000
# 2 -0.000646 0.036691 0.004702 0.000000 0.017589 0.000000
# 3 0.006036 0.004702 0.058094 0.000000 0.055294 0.000000
# 4 0.000000 0.000000 0.000000 -0.000382 0.000000 0.170428
# 5 0.022848 0.017589 0.055294 0.000000 0.113012 0.000000
# 6 0.000000 0.000000 0.000000 0.170428 0.000000 -0.085398
#
#
# Mechanical properties :
#
#
# Convention : Reuss Voigt Hill
#
# Bulk Modulus (GPa) = 7.56011 25.41337 16.48674
# Shear Modulus (GPa) = 30.63178 14.07447 22.35312
#
# Velocity S-wave (km/s) = 3.93157 2.66499 3.35853
# Velocity P-wave (km/s) = 4.94213 4.72161 4.83313
#
# Compressibility (1/GPa) = 0.13227325
#
# Stress axis : x y z
#
# Youngs Moduli (GPa) = 57.78597 27.25483 17.21360
#
# Poissons Ratio (x) = 0.01760 -0.10390
# Poissons Ratio (y) = 0.03733 -0.08094
# Poissons Ratio (z) = -0.34878 -0.12815
#
# Static dielectric constant tensor:
#      x y z
#    x 1.751900 0.000000 0.027370 
#    y 0.000000 1.723560 0.000000 
#    z 0.027370 0.000000 1.732330 
# 
# From -- ./inp_files/23062.got.cif
#   From: 2010.05.17/outbox.cif.g08.bks.cpg/sg11_12_cif.got.tgz:23062.got - 2010.06.03 12:22:45.
