data_PCOD9157048
_publ_section_title
;
Structure prediction by ZEFSAII (Michael W. Deem and Ramdas Pophale) SiO2 
 PCOD9157048
Probable space group: P 21/M
;
_chemical_formula_sum "Si O2"
_cell_formula_units_Z 28
_cell_length_a 12.522972
_cell_length_b 13.749468
_cell_length_c 14.339513
_cell_angle_alpha 90.000000
_cell_angle_beta 29.548375
_cell_angle_gamma 90.000000
_cell_volume 1217.626216
_symmetry_space_group_name_H-M "P 21/M"
_symmetry_group_IT_number 11
_symmetry_cell_setting 'monoclinic'
loop_
_space_group_symop_operation_xyz
x,y,z
-x,1/2+y,-z
-x,-y,-z
x,1/2-y,z
loop_
_atom_site_type_symbol
_atom_site_label
_atom_site_fract_x
_atom_site_fract_y
_atom_site_fract_z
Si Si1 0.445486 0.640460 0.194450
Si Si2 0.226553 0.083194 0.909221
Si Si3 0.945171 0.139331 0.352122
Si Si4 0.610645 0.466886 0.510093
Si Si5 0.904020 0.358955 0.998832
Si Si6 0.858996 0.640706 0.380874
Si Si7 0.154952 0.521481 0.294310
O O1 0.439041 0.750000 0.162142
O O2 0.675510 0.620796 0.068775
O O3 0.252673 0.634985 0.420420
O O4 0.373226 0.562839 0.172263
O O5 0.030256 0.129682 0.001294
O O6 0.431480 0.104041 0.686703
O O7 0.207074 0.965338 0.925818
O O8 0.995630 0.250000 0.297205
O O9 0.841534 0.087366 0.339722
O O10 0.138609 0.078009 0.249493
O O11 0.500000 0.500000 0.500000
O O12 0.665191 0.562983 0.529193
O O13 0.798788 0.250000 0.078616
O O14 0.055376 0.359093 0.791079
O O15 0.797026 0.750000 0.453236
O O16 0.042028 0.600665 0.312039
O O17 0.000000 0.500000 0.500000
#
# Coordination Sequence:
#
# PCOD9157048 Si02
#       7
#     4   4   4   4   4   4   4
#     4   9  16  29  51  76  98 134 180 216 255 314
#     4  10  20  35  55  76 109 142 181 227 267 320
#     4   8  16  28  45  70 104 139 170 207 263 319
#     4  10  18  31  51  80 108 135 176 224 270 313
#     4  10  21  37  55  75 106 147 184 219 272 329
#     4  10  20  34  55  81 109 143 180 221 270 326
#     4   9  17  31  51  77 107 136 175 221 268 315
#
# _framework density 22.995562
#
# number of rings (size 3 to 8) (size 9 to 14) (size 15 to 20)
#    0.000    2.571    1.429    1.714    0.000    2.286 
#    0.000    1.429    0.000    0.857    0.000    0.000 
#    0.000    0.000    0.000    0.000    0.000    0.000 
#
# Total GULP energy -156106.065562 kJ/mol
# GULP energy per Si atom -5575.216627 kJ/mol
# Density = 2.294322 g / cm^3
# Si number density = 22.995562 Si / 1000 Ang^3
#
#
#
# Elastic Constant Matrix: (Units=GPa)
#
#
# Indices 1 2 3 4 5 6 
#
# 1 145.1808 65.6759 16.7022 0.0000 0.5086 0.0000
# 2 65.6759 159.7140 0.5132 0.0000 -15.0375 0.0000
# 3 16.7022 0.5132 41.0936 0.0000 6.5708 0.0000
# 4 0.0000 0.0000 0.0000 18.8553 0.0000 1.5144
# 5 0.5086 -15.0375 6.5708 0.0000 31.7048 0.0000
# 6 0.0000 0.0000 0.0000 1.5144 0.0000 16.8178
#
#
#
# Elastic Compliance Matrix: (Units=1/GPa)
#
#
# Indices 1 2 3 4 5 6 
#
# 1 0.009009 -0.003811 -0.003415 0.000000 -0.001244 0.000000
# 2 -0.003811 0.008180 0.000845 0.000000 0.003766 0.000000
# 3 -0.003415 0.000845 0.026518 0.000000 -0.005040 0.000000
# 4 0.000000 0.000000 0.000000 0.053422 0.000000 -0.004810
# 5 -0.001244 0.003766 -0.005040 0.000000 0.034392 0.000000
# 6 0.000000 0.000000 0.000000 -0.004810 0.000000 0.059894
#
#
# Mechanical properties :
#
#
# Convention : Reuss Voigt Hill
#
# Bulk Modulus (GPa) = 32.31588 56.86345 44.58966
# Shear Modulus (GPa) = 23.31088 31.01542 27.16315
#
# Velocity S-wave (km/s) = 3.18734 3.67653 3.44064
# Velocity P-wave (km/s) = 5.25634 6.54249 5.93436
#
# Compressibility (1/GPa) = 0.03094454
#
# Stress axis : x y z
#
# Youngs Moduli (GPa) = 110.99864 122.24811 37.71006
#
# Poissons Ratio (x) = 0.46586 0.12879
# Poissons Ratio (y) = 0.42299 -0.03185
# Poissons Ratio (z) = 0.37908 -0.10325
#
# Static dielectric constant tensor:
#      x y z
#    x 1.864930 0.000000 0.037250 
#    y 0.000000 1.844180 0.000000 
#    z 0.037250 0.000000 1.988210 
# 
# From -- ./inp_files/50230.got.cif
#   From: 2010.05.17/outbox.cif.g08.bks.cpg/sg11_26_cif.got.tgz:50230.got - 2010.06.03 12:22:45.
