data_PCOD9157604
_publ_section_title
;
Structure prediction by ZEFSAII (Michael W. Deem and Ramdas Pophale) SiO2 
 PCOD9157604
Probable space group: P 21/M
;
_chemical_formula_sum "Si O2"
_cell_formula_units_Z 32
_cell_length_a 16.088065
_cell_length_b 20.761374
_cell_length_c 16.327838
_cell_angle_alpha 90.000000
_cell_angle_beta 18.399316
_cell_angle_gamma 90.000000
_cell_volume 1721.382842
_symmetry_space_group_name_H-M "P 21/M"
_symmetry_group_IT_number 11
_symmetry_cell_setting 'monoclinic'
loop_
_space_group_symop_operation_xyz
x,y,z
-x,1/2+y,-z
-x,-y,-z
x,1/2-y,z
loop_
_atom_site_type_symbol
_atom_site_label
_atom_site_fract_x
_atom_site_fract_y
_atom_site_fract_z
Si Si1 0.528663 0.495810 0.705807
Si Si2 0.523647 0.827506 0.507208
Si Si3 0.033388 0.924237 0.232355
Si Si4 0.406973 0.632692 0.433084
Si Si5 0.483356 0.074770 0.906776
Si Si6 0.175165 0.956177 0.276279
Si Si7 0.091864 0.827260 0.040064
Si Si8 0.833703 0.825146 0.902951
O O1 0.522643 0.442704 0.641251
O O2 0.629193 0.453330 0.690186
O O3 0.742477 0.549458 0.487409
O O4 0.248847 0.525312 0.994025
O O5 0.515890 0.750000 0.515663
O O6 0.426857 0.847987 0.508627
O O7 0.822529 0.846690 0.246231
O O8 0.332885 0.849906 0.758360
O O9 0.052628 0.920283 0.312921
O O10 0.089660 0.859274 0.131007
O O11 0.117356 0.649340 0.668409
O O12 0.625551 0.668194 0.172511
O O13 0.673498 0.092444 0.804085
O O14 0.287147 0.129154 0.055730
O O15 0.347348 0.011146 0.070766
O O16 0.000000 0.000000 0.500000
O O17 0.099491 0.750000 0.039389
O O18 0.855058 0.750000 0.859520
#
# Coordination Sequence:
#
# PCOD9157604 Si02
#       8
#     4   4   4   4   4   4   4   4
#     4  10  20  35  56  84 115 145 180 231 286 335
#     4  10  20  37  59  80 107 148 198 237 269 332
#     4  11  21  37  58  83 112 147 188 234 285 340
#     4  11  21  37  58  85 114 149 191 231 278 337
#     4   9  20  33  53  83 113 143 185 228 271 328
#     4  10  18  34  58  84 105 142 192 233 271 325
#     4  10  22  39  58  80 110 148 190 237 283 327
#     4  11  22  35  55  84 121 154 180 225 287 345
#
# _framework density 18.589706
#
# number of rings (size 3 to 8) (size 9 to 14) (size 15 to 20)
#    0.000    1.750    1.250    4.875    1.750    1.000 
#    0.000    4.375    0.000    0.750    0.000    0.000 
#    0.000    0.000    0.000    0.000    0.000    0.000 
#
# Total GULP energy -178369.267971 kJ/mol
# GULP energy per Si atom -5574.039624 kJ/mol
# Density = 1.854740 g / cm^3
# Si number density = 18.589706 Si / 1000 Ang^3
#
#
#
# Elastic Constant Matrix: (Units=GPa)
#
#
# Indices 1 2 3 4 5 6 
#
# 1 93.1106 26.5504 18.6296 0.0000 -0.8129 0.0000
# 2 26.5504 37.1947 9.4235 0.0000 -5.1449 0.0000
# 3 18.6296 9.4235 90.1199 0.0000 0.3522 0.0000
# 4 0.0000 0.0000 0.0000 20.9157 0.0000 5.3685
# 5 -0.8129 -5.1449 0.3522 0.0000 24.1565 0.0000
# 6 0.0000 0.0000 0.0000 5.3685 0.0000 28.0615
#
#
#
# Elastic Compliance Matrix: (Units=1/GPa)
#
#
# Indices 1 2 3 4 5 6 
#
# 1 0.013841 -0.009627 -0.001849 0.000000 -0.001558 0.000000
# 2 -0.009627 0.035188 -0.001717 0.000000 0.007196 0.000000
# 3 -0.001849 -0.001717 0.011660 0.000000 -0.000598 0.000000
# 4 0.000000 0.000000 0.000000 0.050280 0.000000 -0.009619
# 5 -0.001558 0.007196 -0.000598 0.000000 0.042886 0.000000
# 6 0.000000 0.000000 0.000000 -0.009619 0.000000 0.037476
#
#
# Mechanical properties :
#
#
# Convention : Reuss Voigt Hill
#
# Bulk Modulus (GPa) = 29.15174 36.62581 32.88877
# Shear Modulus (GPa) = 21.81947 25.68152 23.75049
#
# Velocity S-wave (km/s) = 3.42970 3.72087 3.57825
# Velocity P-wave (km/s) = 5.60353 6.18101 5.89934
#
# Compressibility (1/GPa) = 0.03430328
#
# Stress axis : x y z
#
# Youngs Moduli (GPa) = 72.24695 28.41856 85.76058
#
# Poissons Ratio (x) = 0.27360 0.15853
# Poissons Ratio (y) = 0.69555 0.14729
# Poissons Ratio (z) = 0.13355 0.04881
#
# Static dielectric constant tensor:
#      x y z
#    x 1.705980 0.000000 -0.005890 
#    y 0.000000 1.644580 0.000000 
#    z -0.005890 0.000000 1.702240 
# 
# From -- ./inp_files/52709.got.cif
#   From: 2010.05.17/outbox.cif.g08.bks.cpg/sg11_27_cif.got.tgz:52709.got - 2010.06.03 12:22:45.
