data_PCOD9157561
_publ_section_title
;
Structure prediction by ZEFSAII (Michael W. Deem and Ramdas Pophale) SiO2 
 PCOD9157561
Probable space group: P 21/M
;
_chemical_formula_sum "Si O2"
_cell_formula_units_Z 32
_cell_length_a 28.546690
_cell_length_b 7.513607
_cell_length_c 22.326632
_cell_angle_alpha 90.000000
_cell_angle_beta 161.086119
_cell_angle_gamma 90.000000
_cell_volume 1552.275992
_symmetry_space_group_name_H-M "P 21/M"
_symmetry_group_IT_number 11
_symmetry_cell_setting 'monoclinic'
loop_
_space_group_symop_operation_xyz
x,y,z
-x,1/2+y,-z
-x,-y,-z
x,1/2-y,z
loop_
_atom_site_type_symbol
_atom_site_label
_atom_site_fract_x
_atom_site_fract_y
_atom_site_fract_z
Si Si1 0.127758 0.965108 0.776651
Si Si2 0.051052 0.537165 0.995043
Si Si3 0.805557 0.033487 0.013391
Si Si4 0.896825 0.532602 0.691128
Si Si5 0.312097 0.968540 0.886565
Si Si6 0.367785 0.045904 0.702725
Si Si7 0.211259 0.958855 0.634100
Si Si8 0.341146 0.536820 0.283390
O O1 0.132004 0.750000 0.781618
O O2 0.202536 0.025924 0.805995
O O3 0.207822 0.026231 0.934298
O O4 0.960635 0.017926 0.577446
O O5 0.056086 0.750000 0.995348
O O6 0.210606 0.471326 0.168488
O O7 0.000000 0.500000 0.000000
O O8 0.937982 0.474353 0.807739
O O9 0.799787 0.250000 0.007230
O O10 0.694849 0.972819 0.827792
O O11 0.965821 0.984078 0.183880
O O12 0.891489 0.750000 0.683531
O O13 0.747543 0.465511 0.482956
O O14 0.311222 0.750000 0.884162
O O15 0.265458 0.026701 0.763978
O O16 0.473070 0.031145 0.097305
O O17 0.390736 0.250000 0.711081
O O18 0.289736 0.046018 0.672716
O O19 0.245768 0.750000 0.672021
O O20 0.500000 0.500000 0.500000
O O21 0.328535 0.750000 0.265936
#
# Coordination Sequence:
#
# PCOD9157561 Si02
#       8
#     4   4   4   4   4   4   4   4
#     4  10  18  34  56  75  96 131 174 210 246 294
#     4   9  18  33  52  76 105 132 163 206 249 292
#     4   8  14  28  52  76  94 122 169 213 240 277
#     4   8  14  28  52  76  94 122 169 213 240 277
#     4   9  20  33  49  77 106 127 162 214 257 293
#     4  10  18  34  56  75  96 131 174 210 246 294
#     4  11  21  33  49  75 106 133 164 206 253 303
#     4   9  18  33  52  76 105 132 163 206 249 292
#
# _framework density 20.614891
#
# number of rings (size 3 to 8) (size 9 to 14) (size 15 to 20)
#    0.000    2.750    1.250    2.625    0.000    0.500 
#    2.250    3.125    0.000    0.000    0.000    0.000 
#    0.000    0.000    0.000    0.000    0.000    0.000 
#
# Total GULP energy -178536.458610 kJ/mol
# GULP energy per Si atom -5579.264332 kJ/mol
# Density = 2.056797 g / cm^3
# Si number density = 20.614891 Si / 1000 Ang^3
#
#
#
# Elastic Constant Matrix: (Units=GPa)
#
#
# Indices 1 2 3 4 5 6 
#
# 1 59.4300 -5.7178 7.7560 0.0000 -19.8871 0.0000
# 2 -5.7178 53.5718 -3.3690 0.0000 -3.6008 0.0000
# 3 7.7560 -3.3690 92.8775 0.0000 -20.7945 0.0000
# 4 0.0000 0.0000 0.0000 15.6191 0.0000 2.9021
# 5 -19.8871 -3.6008 -20.7945 0.0000 33.5737 0.0000
# 6 0.0000 0.0000 0.0000 2.9021 0.0000 22.6364
#
#
#
# Elastic Compliance Matrix: (Units=1/GPa)
#
#
# Indices 1 2 3 4 5 6 
#
# 1 0.021680 0.003355 0.001471 0.000000 0.014113 0.000000
# 2 0.003355 0.019461 0.001553 0.000000 0.005037 0.000000
# 3 0.001471 0.001553 0.012693 0.000000 0.008900 0.000000
# 4 0.000000 0.000000 0.000000 0.065586 0.000000 -0.008409
# 5 0.014113 0.005037 0.008900 0.000000 0.044197 0.000000
# 6 0.000000 0.000000 0.000000 -0.008409 0.000000 0.045255
#
#
# Mechanical properties :
#
#
# Convention : Reuss Voigt Hill
#
# Bulk Modulus (GPa) = 15.01671 22.57976 18.79823
# Shear Modulus (GPa) = 22.90315 28.17985 25.54150
#
# Velocity S-wave (km/s) = 3.33678 3.70126 3.52374
# Velocity P-wave (km/s) = 4.70592 5.40765 5.06894
#
# Compressibility (1/GPa) = 0.06659249
#
# Stress axis : x y z
#
# Youngs Moduli (GPa) = 46.12568 51.38523 78.78423
#
# Poissons Ratio (x) = -0.17240 -0.11589
# Poissons Ratio (y) = -0.15475 -0.12238
# Poissons Ratio (z) = -0.06785 -0.07982
#
# Static dielectric constant tensor:
#      x y z
#    x 1.717880 0.000000 -0.023410 
#    y 0.000000 1.914110 0.000000 
#    z -0.023410 0.000000 1.726920 
# 
# From -- ./inp_files/66989.got.cif
#   From: 2010.05.17/outbox.cif.g08.bks.cpg/sg11_34_cif.got.tgz:66989.got - 2010.06.03 12:22:45.
