data_PCOD9157233
_publ_section_title
;
Structure prediction by ZEFSAII (Michael W. Deem and Ramdas Pophale) SiO2 
 PCOD9157233
Probable space group: P 21/M
;
_chemical_formula_sum "Si O2"
_cell_formula_units_Z 32
_cell_length_a 12.403373
_cell_length_b 14.010316
_cell_length_c 16.448108
_cell_angle_alpha 90.000000
_cell_angle_beta 25.855381
_cell_angle_gamma 90.000000
_cell_volume 1246.496010
_symmetry_space_group_name_H-M "P 21/M"
_symmetry_group_IT_number 11
_symmetry_cell_setting 'monoclinic'
loop_
_space_group_symop_operation_xyz
x,y,z
-x,1/2+y,-z
-x,-y,-z
x,1/2-y,z
loop_
_atom_site_type_symbol
_atom_site_label
_atom_site_fract_x
_atom_site_fract_y
_atom_site_fract_z
Si Si1 0.858414 0.910823 0.467136
Si Si2 0.897932 0.484397 0.935385
Si Si3 0.554541 0.575056 0.836016
Si Si4 0.080549 0.137056 0.954127
Si Si5 0.019226 0.624624 0.590003
Si Si6 0.515429 0.358493 0.406692
Si Si7 0.188186 0.854733 0.650593
Si Si8 0.675627 0.351628 0.780294
O O1 0.686698 0.916448 0.505030
O O2 0.110849 0.851597 0.295523
O O3 0.683560 0.891499 0.663501
O O4 0.960845 0.012352 0.422057
O O5 0.777504 0.563121 0.081231
O O6 0.022179 0.557931 0.789956
O O7 0.728012 0.415630 0.997035
O O8 0.063850 0.416605 0.879330
O O9 0.560775 0.459186 0.852750
O O10 0.719891 0.634763 0.787959
O O11 0.152614 0.250000 0.903704
O O12 0.792105 0.131731 0.181241
O O13 0.165184 0.654148 0.570681
O O14 0.164810 0.654052 0.411304
O O15 0.435952 0.250000 0.446488
O O16 0.557265 0.373264 0.474208
O O17 0.106240 0.750000 0.738958
O O18 0.531070 0.250000 0.882637
#
# Coordination Sequence:
#
# PCOD9157233 Si02
#       8
#     4   4   4   4   4   4   4   4
#     4   9  16  30  49  73  95 122 162 205 253 295
#     4  10  18  32  53  73 102 133 163 212 257 288
#     4   9  18  31  50  74  96 125 166 203 252 302
#     4   9  18  31  50  77 102 129 167 208 255 302
#     4   9  19  33  47  68 101 133 166 201 241 300
#     4   9  16  28  49  74  97 122 163 208 244 295
#     4  10  21  34  49  72 100 136 174 203 245 302
#     4   9  17  29  49  73  98 125 158 209 255 292
#
# _framework density 25.671965
#
# number of rings (size 3 to 8) (size 9 to 14) (size 15 to 20)
#    0.000    2.750    1.250    3.375    0.000    2.000 
#    0.000    0.625    0.000    3.750    0.000    0.000 
#    0.000    0.000    0.000    0.000    0.000    0.000 
#
# Total GULP energy -178233.322905 kJ/mol
# GULP energy per Si atom -5569.791341 kJ/mol
# Density = 2.561353 g / cm^3
# Si number density = 25.671965 Si / 1000 Ang^3
#
#
#
# Elastic Constant Matrix: (Units=GPa)
#
#
# Indices 1 2 3 4 5 6 
#
# 1 144.8083 1.9444 25.3773 0.0000 -5.0547 0.0000
# 2 1.9444 77.3113 0.6047 0.0000 9.8903 0.0000
# 3 25.3773 0.6047 35.8486 0.0000 -3.4115 0.0000
# 4 0.0000 0.0000 0.0000 -432.1260 0.0000 -438.1348
# 5 -5.0547 9.8903 -3.4115 0.0000 19.3959 0.0000
# 6 0.0000 0.0000 0.0000 -438.1348 0.0000 -525.2357
#
#
#
# Elastic Compliance Matrix: (Units=1/GPa)
#
#
# Indices 1 2 3 4 5 6 
#
# 1 0.007914 -0.000318 -0.005477 0.000000 0.001261 0.000000
# 2 -0.000318 0.013880 -0.000703 0.000000 -0.007284 0.000000
# 3 -0.005477 -0.000703 0.032222 0.000000 0.004598 0.000000
# 4 0.000000 0.000000 0.000000 -0.015004 0.000000 0.012516
# 5 0.001261 -0.007284 0.004598 0.000000 0.056409 0.000000
# 6 0.000000 0.000000 0.000000 0.012516 0.000000 -0.012344
#
#
# Mechanical properties :
#
#
# Convention : Reuss Voigt Hill
#
# Bulk Modulus (GPa) = 24.37738 34.86900 29.62319
# Shear Modulus (GPa) = 45.56090 -172.25704 -63.34807
#
# Velocity S-wave (km/s) = 4.21733 -8.20030 -4.97288
# Velocity P-wave (km/s) = 5.76462 8.72055 4.62694
#
# Compressibility (1/GPa) = 0.04102164
#
# Stress axis : x y z
#
# Youngs Moduli (GPa) = 126.36220 72.04593 31.03514
#
# Poissons Ratio (x) = 0.02288 0.16997
# Poissons Ratio (y) = 0.04012 0.02180
# Poissons Ratio (z) = 0.69206 0.05061
#
# Static dielectric constant tensor:
#      x y z
#    x 2.070550 0.000000 0.012900 
#    y 0.000000 2.142470 0.000000 
#    z 0.012900 0.000000 2.081460 
# 
# From -- ./inp_files/35478.got.cif
#   From: 2010.05.17/outbox.cif.g08.bks.cpg/sg11_18_cif.got.tgz:35478.got - 2010.06.03 12:22:45.
