data_PCOD9157431
_publ_section_title
;
Structure prediction by ZEFSAII (Michael W. Deem and Ramdas Pophale) SiO2 
 PCOD9157431
Probable space group: P 21/M
;
_chemical_formula_sum "Si O2"
_cell_formula_units_Z 24
_cell_length_a 14.431032
_cell_length_b 10.422542
_cell_length_c 14.849674
_cell_angle_alpha 90.000000
_cell_angle_beta 148.447883
_cell_angle_gamma 90.000000
_cell_volume 1168.737702
_symmetry_space_group_name_H-M "P 21/M"
_symmetry_group_IT_number 11
_symmetry_cell_setting 'monoclinic'
loop_
_space_group_symop_operation_xyz
x,y,z
-x,1/2+y,-z
-x,-y,-z
x,1/2-y,z
loop_
_atom_site_type_symbol
_atom_site_label
_atom_site_fract_x
_atom_site_fract_y
_atom_site_fract_z
Si Si1 0.013041 0.610953 0.895877
Si Si2 0.275144 0.541364 0.260720
Si Si3 0.847785 0.402545 0.501331
Si Si4 0.429757 0.890685 0.573357
Si Si5 0.159495 0.098383 0.879168
Si Si6 0.542961 0.403496 0.116417
O O1 0.026622 0.750000 0.862400
O O2 0.087007 0.495387 0.896308
O O3 0.815000 0.579772 0.763952
O O4 0.124553 0.611087 0.080421
O O5 0.417886 0.494725 0.306871
O O6 0.360411 0.615785 0.413672
O O7 0.856883 0.250000 0.495079
O O8 0.728478 0.426283 0.491290
O O9 0.046185 0.440455 0.695215
O O10 0.724042 0.447376 0.316618
O O11 0.495824 0.750000 0.656507
O O12 0.119907 0.250000 0.864821
O O13 0.369491 0.087211 0.037255
O O14 0.556348 0.250000 0.103568
O O15 0.500000 0.500000 0.000000
#
# Coordination Sequence:
#
# PCOD9157431 Si02
#       6
#     4   4   4   4   4   4
#     4  11  22  35  52  82 119 154 194 243 290 332
#     4  10  21  32  50  77 114 156 197 238 284 332
#     4   9  18  35  59  83 110 147 190 232 278 339
#     4  10  18  33  54  77 106 150 200 238 275 326
#     4  10  21  39  62  84 112 153 195 233 283 349
#     4  10  22  40  63  89 114 142 183 232 290 357
#
# _framework density 20.534977000000001
#
# number of rings (size 3 to 8) (size 9 to 14) (size 15 to 20)
#    0.000    2.000    1.667    2.000    0.000    6.000 
#    0.000    0.833    0.000    0.000    0.000    0.000 
#    0.000    0.000    0.000    0.000    0.000    0.000 
#
# Total GULP energy -133743.078747 kJ/mol
# GULP energy per Si atom -5572.628281 kJ/mol
# Density = 2.048824 g / cm^3
# Si number density = 20.534977 Si / 1000 Ang^3
#
#
#
# Elastic Constant Matrix: (Units=GPa)
#
#
# Indices 1 2 3 4 5 6 
#
# 1 29.9860 14.7936 -7.1995 0.0000 -9.1924 0.0000
# 2 14.7936 75.8300 6.3379 0.0000 -5.6279 0.0000
# 3 -7.1995 6.3379 95.6620 0.0000 -13.9905 0.0000
# 4 0.0000 0.0000 0.0000 8.5170 0.0000 -8.7075
# 5 -9.1924 -5.6279 -13.9905 0.0000 25.8272 0.0000
# 6 0.0000 0.0000 0.0000 -8.7075 0.0000 24.4121
#
#
#
# Elastic Compliance Matrix: (Units=1/GPa)
#
#
# Indices 1 2 3 4 5 6 
#
# 1 0.044102 -0.007843 0.006391 0.000000 0.017450 0.000000
# 2 -0.007843 0.014821 -0.001638 0.000000 -0.000449 0.000000
# 3 0.006391 -0.001638 0.012298 0.000000 0.008579 0.000000
# 4 0.000000 0.000000 0.000000 0.184803 0.000000 0.065917
# 5 0.017450 -0.000449 0.008579 0.000000 0.049479 0.000000
# 6 0.000000 0.000000 0.000000 0.065917 0.000000 0.064475
#
#
# Mechanical properties :
#
#
# Convention : Reuss Voigt Hill
#
# Bulk Modulus (GPa) = 15.37505 25.48243 20.42874
# Shear Modulus (GPa) = 12.56791 24.25432 18.41111
#
# Velocity S-wave (km/s) = 2.47660 3.44047 2.99753
# Velocity P-wave (km/s) = 3.95999 5.31213 4.68510
#
# Compressibility (1/GPa) = 0.06504044
#
# Stress axis : x y z
#
# Youngs Moduli (GPa) = 22.67480 67.47177 81.31625
#
# Poissons Ratio (x) = 0.52917 -0.51967
# Poissons Ratio (y) = 0.17784 0.13318
# Poissons Ratio (z) = -0.14491 0.11051
#
# Static dielectric constant tensor:
#      x y z
#    x 1.716070 0.000000 -0.010250 
#    y 0.000000 1.758410 0.000000 
#    z -0.010250 0.000000 1.794140 
# 
# From -- ./inp_files/27549.got.cif
#   From: 2010.05.17/outbox.cif.g08.bks.cpg/sg11_14_cif.got.tgz:27549.got - 2010.06.03 12:22:45.
