data_PCOD9157803
_publ_section_title
;
Structure prediction by ZEFSAII (Michael W. Deem and Ramdas Pophale) SiO2 
 PCOD9157803
Probable space group: P 21/M
;
_chemical_formula_sum "Si O2"
_cell_formula_units_Z 30
_cell_length_a 13.532126
_cell_length_b 12.290388
_cell_length_c 9.042362
_cell_angle_alpha 90.000000
_cell_angle_beta 83.313155
_cell_angle_gamma 90.000000
_cell_volume 1493.650865
_symmetry_space_group_name_H-M "P 21/M"
_symmetry_group_IT_number 11
_symmetry_cell_setting 'monoclinic'
loop_
_space_group_symop_operation_xyz
x,y,z
-x,1/2+y,-z
-x,-y,-z
x,1/2-y,z
loop_
_atom_site_type_symbol
_atom_site_label
_atom_site_fract_x
_atom_site_fract_y
_atom_site_fract_z
Si Si1 0.706143 0.449570 0.264648
Si Si2 0.925866 0.951975 0.890869
Si Si3 0.849020 0.374392 0.680745
Si Si4 0.626848 0.122030 0.581477
Si Si5 0.410106 0.962252 0.119416
Si Si6 0.909591 0.376139 0.355745
Si Si7 0.662649 0.250000 0.044840
Si Si8 0.718943 0.874458 0.019191
O O1 0.636802 0.432025 0.419368
O O2 0.820234 0.446198 0.302508
O O3 0.691859 0.346455 0.159672
O O4 0.691314 0.557541 0.170544
O O5 0.992302 0.890766 0.757778
O O6 0.872491 0.050285 0.813839
O O7 0.837844 0.882098 0.977216
O O8 0.000000 0.000000 0.000000
O O9 0.862202 0.250000 0.726407
O O10 0.738574 0.384449 0.632670
O O11 0.919758 0.399537 0.528323
O O12 0.601021 0.250000 0.572296
O O13 0.563295 0.057569 0.714272
O O14 0.370065 0.846856 0.066881
O O15 0.330937 0.058977 0.107125
O O16 0.500000 0.000000 0.000000
O O17 0.876514 0.250000 0.355212
O O18 0.685603 0.750000 0.029171
#
# Coordination Sequence:
#
# PCOD9157803 Si02
#       8
#     4   4   4   4   4   4   2   4
#     4  10  19  38  66  92 124 160 197 264 315 369
#     4  12  22  36  56  86 123 167 208 249 298 372
#     4   9  20  35  57  87 116 154 200 261 301 358
#     4  10  18  38  69  97 119 150 211 260 319 366
#     4  11  24  41  69  92 124 165 209 261 313 380
#     4  10  19  35  57  86 120 153 204 248 306 363
#     4  10  20  38  66 100 120 154 204 264 312 362
#     4  11  25  43  58  87 133 168 207 257 320 377
#
# _framework density 20.085016
#
# number of rings (size 3 to 8) (size 9 to 14) (size 15 to 20)
#    0.000    1.600    4.667    1.600    0.933    1.067 
#    0.000    3.333    2.933    0.000    0.000    0.000 
#    0.000    0.000    0.000    0.000    0.000    0.000 
#
# Total GULP energy -167009.927983 kJ/mol
# GULP energy per Si atom -5566.997599 kJ/mol
# Density = 2.003930 g / cm^3
# Si number density = 20.085016 Si / 1000 Ang^3
#
#
#
# Elastic Constant Matrix: (Units=GPa)
#
#
# Indices 1 2 3 4 5 6 
#
# 1 36.7018 11.1686 15.7772 0.0000 -6.2384 0.0000
# 2 11.1686 146.1598 44.6649 0.0000 9.9661 0.0000
# 3 15.7772 44.6649 106.9152 0.0000 -10.1026 0.0000
# 4 0.0000 0.0000 0.0000 23.4708 0.0000 7.2548
# 5 -6.2384 9.9661 -10.1026 0.0000 33.2553 0.0000
# 6 0.0000 0.0000 0.0000 7.2548 0.0000 16.7755
#
#
#
# Elastic Compliance Matrix: (Units=1/GPa)
#
#
# Indices 1 2 3 4 5 6 
#
# 1 0.030021 -0.001649 -0.003256 0.000000 0.005137 0.000000
# 2 -0.001649 0.008337 -0.003608 0.000000 -0.003904 0.000000
# 3 -0.003256 -0.003608 0.011722 0.000000 0.004032 0.000000
# 4 0.000000 0.000000 0.000000 0.049180 0.000000 -0.021269
# 5 0.005137 -0.003904 0.004032 0.000000 0.033429 0.000000
# 6 0.000000 0.000000 0.000000 -0.021269 0.000000 0.068809
#
#
# Mechanical properties :
#
#
# Convention : Reuss Voigt Hill
#
# Bulk Modulus (GPa) = 30.25421 48.11092 39.18256
# Shear Modulus (GPa) = 21.78248 29.24471 25.51359
#
# Velocity S-wave (km/s) = 3.29677 3.81996 3.56797
# Velocity P-wave (km/s) = 5.43943 6.59255 6.04355
#
# Compressibility (1/GPa) = 0.03305325
#
# Stress axis : x y z
#
# Youngs Moduli (GPa) = 33.30977 119.95155 85.30990
#
# Poissons Ratio (x) = 0.19785 0.27774
# Poissons Ratio (y) = 0.05494 0.30782
# Poissons Ratio (z) = 0.10845 0.43281
#
# Static dielectric constant tensor:
#      x y z
#    x 1.762040 0.000000 -0.046250 
#    y 0.000000 1.678680 0.000000 
#    z -0.046250 0.000000 1.783520 
# 
# From -- ./inp_files/21460.got.cif
#   From: 2010.05.17/outbox.cif.g08.bks.cpg/sg11_11_cif.got.tgz:21460.got - 2010.06.03 12:22:45.
