data_PCOD9157928
_publ_section_title
;
Structure prediction by ZEFSAII (Michael W. Deem and Ramdas Pophale) SiO2 
 PCOD9157928
Probable space group: P 21/M
;
_chemical_formula_sum "Si O2"
_cell_formula_units_Z 32
_cell_length_a 27.147432
_cell_length_b 8.977081
_cell_length_c 18.845444
_cell_angle_alpha 90.000000
_cell_angle_beta 29.095071
_cell_angle_gamma 90.000000
_cell_volume 2233.258550
_symmetry_space_group_name_H-M "P 21/M"
_symmetry_group_IT_number 11
_symmetry_cell_setting 'monoclinic'
loop_
_space_group_symop_operation_xyz
x,y,z
-x,1/2+y,-z
-x,-y,-z
x,1/2-y,z
loop_
_atom_site_type_symbol
_atom_site_label
_atom_site_fract_x
_atom_site_fract_y
_atom_site_fract_z
Si Si1 0.128274 0.570881 0.903126
Si Si2 0.653430 0.921278 0.777898
Si Si3 0.654645 0.071414 0.318367
Si Si4 0.901541 0.570691 0.211588
Si Si5 0.429565 0.920363 0.987386
Si Si6 0.517232 0.072547 0.744227
Si Si7 0.724673 0.569408 0.539744
Si Si8 0.491205 0.927714 0.626119
O O1 0.127905 0.750000 0.896093
O O2 0.227781 0.530290 0.822271
O O3 0.133939 0.499907 0.817901
O O4 0.019364 0.527304 0.072744
O O5 0.677131 0.750000 0.765853
O O6 0.540716 0.922622 0.884845
O O7 0.723398 0.973084 0.624552
O O8 0.646571 0.017364 0.857498
O O9 0.644839 0.250000 0.342395
O O10 0.603054 0.039299 0.307613
O O11 0.589292 0.987582 0.460282
O O12 0.897434 0.750000 0.210282
O O13 0.825755 0.528577 0.370056
O O14 0.407198 0.750000 0.996754
O O15 0.442618 0.018937 0.900937
O O16 0.523493 0.250000 0.734629
O O17 0.627434 0.004247 0.624890
O O18 0.484536 0.007568 0.709799
O O19 0.711836 0.750000 0.553608
O O20 0.498605 0.750000 0.626454
#
# Coordination Sequence:
#
# PCOD9157928 Si02
#       8
#     4   4   4   4   4   4   4   4
#     4   9  17  29  43  59  80 105 134 167 201 236
#     4   8  14  24  37  54  77 104 133 162 192 230
#     4   9  18  31  45  60  79 105 135 168 204 239
#     4   9  17  28  42  60  81 106 135 165 197 234
#     4   9  16  26  39  55  77 105 135 163 194 234
#     4  11  20  28  40  58  81 108 137 168 200 234
#     4   9  17  28  41  58  81 109 138 166 197 234
#     4  10  19  30  43  59  80 105 135 169 203 240
#
# _framework density 14.328839
#
# number of rings (size 3 to 8) (size 9 to 14) (size 15 to 20)
#    0.000    2.750    0.000    3.375    0.000    6.500 
#    0.000    0.000    0.000    0.000    0.000    0.000 
#    0.000    1.000    0.000    1.750    0.000    2.750 
#
# Total GULP energy -178240.622548 kJ/mol
# GULP energy per Si atom -5570.019455 kJ/mol
# Density = 1.429623 g / cm^3
# Si number density = 14.328839 Si / 1000 Ang^3
#
#
#
# Elastic Constant Matrix: (Units=GPa)
#
#
# Indices 1 2 3 4 5 6 
#
# 1 75.6751 36.7740 57.5339 0.0000 8.3699 0.0000
# 2 36.7740 45.8134 36.8821 0.0000 10.5067 0.0000
# 3 57.5339 36.8821 119.7772 0.0000 16.5475 0.0000
# 4 0.0000 0.0000 0.0000 19.6878 0.0000 6.0743
# 5 8.3699 10.5067 16.5475 0.0000 24.4327 0.0000
# 6 0.0000 0.0000 0.0000 6.0743 0.0000 16.0891
#
#
#
# Elastic Compliance Matrix: (Units=1/GPa)
#
#
# Indices 1 2 3 4 5 6 
#
# 1 0.026891 -0.015383 -0.008628 0.000000 0.003247 0.000000
# 2 -0.015383 0.038980 -0.003338 0.000000 -0.009232 0.000000
# 3 -0.008628 -0.003338 0.014248 0.000000 -0.005258 0.000000
# 4 0.000000 0.000000 0.000000 0.057490 0.000000 -0.021705
# 5 0.003247 -0.009232 -0.005258 0.000000 0.047347 0.000000
# 6 0.000000 0.000000 0.000000 -0.021705 0.000000 0.070349
#
#
# Mechanical properties :
#
#
# Convention : Reuss Voigt Hill
#
# Bulk Modulus (GPa) = 39.34093 55.96065 47.65079
# Shear Modulus (GPa) = 15.69971 19.38031 17.54001
#
# Velocity S-wave (km/s) = 3.31368 3.68168 3.50252
# Velocity P-wave (km/s) = 6.49277 7.56388 7.04870
#
# Compressibility (1/GPa) = 0.02541882
#
# Stress axis : x y z
#
# Youngs Moduli (GPa) = 37.18764 25.65397 70.18626
#
# Poissons Ratio (x) = 0.39464 0.60560
# Poissons Ratio (y) = 0.57207 0.23430
# Poissons Ratio (z) = 0.32087 0.08564
#
# Static dielectric constant tensor:
#      x y z
#    x 1.454680 0.000000 0.004340 
#    y 0.000000 1.481170 0.000000 
#    z 0.004340 0.000000 1.482460 
# 
# From -- ./inp_files/52958.got.cif
#   From: 2010.05.17/outbox.cif.g08.bks.cpg/sg11_27_cif.got.tgz:52958.got - 2010.06.03 12:22:45.
