data_PCOD9157158
_publ_section_title
;
Structure prediction by ZEFSAII (Michael W. Deem and Ramdas Pophale) SiO2 
 PCOD9157158
Probable space group: P 21/M
;
_chemical_formula_sum "Si O2"
_cell_formula_units_Z 32
_cell_length_a 14.366875
_cell_length_b 7.965833
_cell_length_c 23.899131
_cell_angle_alpha 90.000000
_cell_angle_beta 151.306878
_cell_angle_gamma 90.000000
_cell_volume 1313.178573
_symmetry_space_group_name_H-M "P 21/M"
_symmetry_group_IT_number 11
_symmetry_cell_setting 'monoclinic'
loop_
_space_group_symop_operation_xyz
x,y,z
-x,1/2+y,-z
-x,-y,-z
x,1/2-y,z
loop_
_atom_site_type_symbol
_atom_site_label
_atom_site_fract_x
_atom_site_fract_y
_atom_site_fract_z
Si Si1 0.341179 0.045449 0.525495
Si Si2 0.352097 0.939889 0.030107
Si Si3 0.231545 0.056825 0.347923
Si Si4 0.356126 0.056844 0.225020
Si Si5 0.949866 0.437715 0.856449
Si Si6 0.612878 0.441177 0.262170
Si Si7 0.817271 0.947309 0.170077
Si Si8 0.909336 0.046993 0.336881
O O1 0.360533 0.250000 0.537990
O O2 0.351413 0.995732 0.465301
O O3 0.131132 0.000454 0.441011
O O4 0.498337 0.955953 0.646061
O O5 0.424098 0.750000 0.071586
O O6 0.334773 0.996303 0.956740
O O7 0.132132 0.946737 0.938562
O O8 0.478599 0.056269 0.136481
O O9 0.278396 0.250000 0.360343
O O10 0.203331 0.956400 0.275715
O O11 0.012935 0.048659 0.258295
O O12 0.310909 0.250000 0.187266
O O13 0.480089 0.977001 0.239901
O O14 0.160659 0.973090 0.144346
O O15 0.026576 0.250000 0.896298
O O16 0.651091 0.250000 0.301252
O O17 0.813858 0.514755 0.344463
O O18 0.854697 0.750000 0.182072
O O19 0.786446 0.982711 0.218884
O O20 0.900142 0.250000 0.332571
#
# Coordination Sequence:
#
# PCOD9157158 Si02
#       8
#     4   4   4   4   4   4   4   4
#     4   9  19  36  59  86 116 150 185 228 284 338
#     4  11  22  38  61  87 116 149 185 231 286 340
#     4   9  17  33  57  85 117 149 184 228 279 337
#     4  11  24  40  58  82 113 150 194 240 283 333
#     4  11  22  38  61  86 115 150 187 232 284 339
#     4  10  23  42  60  81 111 150 197 241 280 329
#     4  10  18  31  55  87 119 148 183 227 278 340
#     4   9  19  38  61  84 115 152 189 233 282 332
#
# _framework density 24.368355000000001
#
# number of rings (size 3 to 8) (size 9 to 14) (size 15 to 20)
#    0.000    2.000    0.000    6.375    0.000    6.000 
#    0.000    0.000    0.000    0.000    0.000    0.000 
#    0.000    0.000    0.000    0.000    0.000    0.000 
#
# Total GULP energy -178874.829931 kJ/mol
# GULP energy per Si atom -5589.838435 kJ/mol
# Density = 2.431289 g / cm^3
# Si number density = 24.368355 Si / 1000 Ang^3
#
#
#
# Elastic Constant Matrix: (Units=GPa)
#
#
# Indices 1 2 3 4 5 6 
#
# 1 165.5241 6.0421 -11.5695 0.0000 14.2541 0.0000
# 2 6.0421 76.4699 -10.6811 0.0000 4.5880 0.0000
# 3 -11.5695 -10.6811 34.3207 0.0000 4.7482 0.0000
# 4 0.0000 0.0000 0.0000 20.6317 0.0000 -0.0422
# 5 14.2541 4.5880 4.7482 0.0000 21.3268 0.0000
# 6 0.0000 0.0000 0.0000 -0.0422 0.0000 8.8180
#
#
#
# Elastic Compliance Matrix: (Units=1/GPa)
#
#
# Indices 1 2 3 4 5 6 
#
# 1 0.006694 0.000207 0.003040 0.000000 -0.005195 0.000000
# 2 0.000207 0.014019 0.005024 0.000000 -0.004273 0.000000
# 3 0.003040 0.005024 0.033178 0.000000 -0.010499 0.000000
# 4 0.000000 0.000000 0.000000 0.048470 0.000000 0.000232
# 5 -0.005195 -0.004273 -0.010499 0.000000 0.053618 0.000000
# 6 0.000000 0.000000 0.000000 0.000232 0.000000 0.113406
#
#
# Mechanical properties :
#
#
# Convention : Reuss Voigt Hill
#
# Bulk Modulus (GPa) = 14.19805 27.09975 20.64890
# Shear Modulus (GPa) = 18.09499 29.65683 23.87591
#
# Velocity S-wave (km/s) = 2.72795 3.49237 3.13356
# Velocity P-wave (km/s) = 3.97006 5.23519 4.64589
#
# Compressibility (1/GPa) = 0.07043219
#
# Stress axis : x y z
#
# Youngs Moduli (GPa) = 149.39424 71.33303 30.14074
#
# Poissons Ratio (x) = -0.01479 -0.09162
# Poissons Ratio (y) = -0.03098 -0.15142
# Poissons Ratio (z) = -0.45412 -0.35837
#
# Static dielectric constant tensor:
#      x y z
#    x 2.014770 0.000000 0.042740 
#    y 0.000000 1.830440 0.000000 
#    z 0.042740 0.000000 1.961540 
# 
# From -- ./inp_files/69128.got.cif
#   From: 2010.05.17/outbox.cif.g08.bks.cpg/sg11_35_cif.got.tgz:69128.got - 2010.06.03 12:22:45.
