data_PCOD9157494
_publ_section_title
;
Structure prediction by ZEFSAII (Michael W. Deem and Ramdas Pophale) SiO2 
 PCOD9157494
Probable space group: P 21/M
;
_chemical_formula_sum "Si O2"
_cell_formula_units_Z 28
_cell_length_a 8.820820
_cell_length_b 17.480747
_cell_length_c 15.695601
_cell_angle_alpha 90.000000
_cell_angle_beta 144.754555
_cell_angle_gamma 90.000000
_cell_volume 1396.635638
_symmetry_space_group_name_H-M "P 21/M"
_symmetry_group_IT_number 11
_symmetry_cell_setting 'monoclinic'
loop_
_space_group_symop_operation_xyz
x,y,z
-x,1/2+y,-z
-x,-y,-z
x,1/2-y,z
loop_
_atom_site_type_symbol
_atom_site_label
_atom_site_fract_x
_atom_site_fract_y
_atom_site_fract_z
Si Si1 0.274291 0.382505 0.884726
Si Si2 0.723136 0.080007 0.852890
Si Si3 0.232118 0.166616 0.051184
Si Si4 0.120674 0.659267 0.812576
Si Si5 0.155607 0.092958 0.645575
Si Si6 0.222174 0.909938 0.678282
Si Si7 0.018323 0.979851 0.862066
O O1 0.152982 0.368157 0.736760
O O2 0.178383 0.467304 0.869110
O O3 0.196129 0.335095 0.932353
O O4 0.585685 0.366347 0.022499
O O5 0.430782 0.110655 0.724863
O O6 0.789455 0.034489 0.969800
O O7 0.781354 0.027386 0.796858
O O8 0.952032 0.142896 0.958348
O O9 0.314054 0.250000 0.117211
O O10 0.469413 0.109980 0.182509
O O11 0.083722 0.750000 0.808022
O O12 0.112334 0.636636 0.709126
O O13 0.941832 0.600234 0.783790
O O14 0.919289 0.111897 0.474325
O O15 0.169294 0.000508 0.665549
#
# Coordination Sequence:
#
# PCOD9157494 Si02
#       7
#     4   4   4   4   4   4   4
#     4  10  18  34  62  84 110 147 203 244 276 336
#     4  10  20  34  61  89 116 146 197 245 291 332
#     4  10  22  40  59  83 119 162 194 234 297 359
#     4  11  20  33  54  85 116 152 196 238 288 349
#     4  11  20  36  61  94 112 144 197 254 290 336
#     4  10  21  35  59  88 119 147 191 244 299 345
#     4  10  18  33  58  84 112 150 190 242 284 335
#
# _framework density 20.048179000000001
#
# number of rings (size 3 to 8) (size 9 to 14) (size 15 to 20)
#    0.000    1.714    2.857    5.571    0.000    0.571 
#    0.000    5.000    6.286    0.000    0.000    0.000 
#    0.000    0.000    0.000    0.000    0.000    0.000 
#
# Total GULP energy -156147.435604 kJ/mol
# GULP energy per Si atom -5576.694129 kJ/mol
# Density = 2.000255 g / cm^3
# Si number density = 20.048179 Si / 1000 Ang^3
#
#
#
# Elastic Constant Matrix: (Units=GPa)
#
#
# Indices 1 2 3 4 5 6 
#
# 1 57.6234 16.0379 33.6642 0.0000 -7.0653 0.0000
# 2 16.0379 90.1127 23.1433 0.0000 -1.1046 0.0000
# 3 33.6642 23.1433 107.8001 0.0000 -26.6649 0.0000
# 4 0.0000 0.0000 0.0000 9.5844 0.0000 -4.7818
# 5 -7.0653 -1.1046 -26.6649 0.0000 21.8147 0.0000
# 6 0.0000 0.0000 0.0000 -4.7818 0.0000 8.9702
#
#
#
# Elastic Compliance Matrix: (Units=1/GPa)
#
#
# Indices 1 2 3 4 5 6 
#
# 1 0.021665 -0.002180 -0.006578 0.000000 -0.001134 0.000000
# 2 -0.002180 0.012161 -0.002798 0.000000 -0.003511 0.000000
# 3 -0.006578 -0.002798 0.016297 0.000000 0.017648 0.000000
# 4 0.000000 0.000000 0.000000 0.142140 0.000000 0.075772
# 5 -0.001134 -0.003511 0.017648 0.000000 0.066867 0.000000
# 6 0.000000 0.000000 0.000000 0.075772 0.000000 0.151873
#
#
# Mechanical properties :
#
#
# Convention : Reuss Voigt Hill
#
# Bulk Modulus (GPa) = 37.02468 44.58079 40.80273
# Shear Modulus (GPa) = 11.28366 20.25324 15.76845
#
# Velocity S-wave (km/s) = 2.37497 3.18186 2.80755
# Velocity P-wave (km/s) = 5.10182 5.98198 5.55935
#
# Compressibility (1/GPa) = 0.02700901
#
# Stress axis : x y z
#
# Youngs Moduli (GPa) = 46.15785 82.23071 61.36211
#
# Poissons Ratio (x) = 0.17929 0.40364
# Poissons Ratio (y) = 0.10064 0.17171
# Poissons Ratio (z) = 0.30363 0.23011
#
# Static dielectric constant tensor:
#      x y z
#    x 1.764890 0.000000 -0.004430 
#    y 0.000000 1.786680 0.000000 
#    z -0.004430 0.000000 1.672110 
# 
# From -- ./inp_files/48031.got.cif
#   From: 2010.05.17/outbox.cif.g08.bks.cpg/sg11_25_cif.got.tgz:48031.got - 2010.06.03 12:22:45.
