data_PCOD9157619
_publ_section_title
;
Structure prediction by ZEFSAII (Michael W. Deem and Ramdas Pophale) SiO2 
 PCOD9157619
Probable space group: P 21/M
;
_chemical_formula_sum "Si O2"
_cell_formula_units_Z 32
_cell_length_a 11.511528
_cell_length_b 17.721697
_cell_length_c 14.270829
_cell_angle_alpha 90.000000
_cell_angle_beta 146.936815
_cell_angle_gamma 90.000000
_cell_volume 1588.301157
_symmetry_space_group_name_H-M "P 21/M"
_symmetry_group_IT_number 11
_symmetry_cell_setting 'monoclinic'
loop_
_space_group_symop_operation_xyz
x,y,z
-x,1/2+y,-z
-x,-y,-z
x,1/2-y,z
loop_
_atom_site_type_symbol
_atom_site_label
_atom_site_fract_x
_atom_site_fract_y
_atom_site_fract_z
Si Si1 0.505758 0.335127 0.270313
Si Si2 0.031521 0.079029 0.468269
Si Si3 0.982624 0.064478 0.784844
Si Si4 0.817213 0.660749 0.248047
Si Si5 0.011701 0.163585 0.982720
Si Si6 0.818132 0.037397 0.941572
Si Si7 0.381222 0.663506 0.868328
Si Si8 0.642003 0.005239 0.435280
O O1 0.586306 0.250000 0.349423
O O2 0.501954 0.337592 0.154737
O O3 0.635296 0.409158 0.387838
O O4 0.269523 0.343196 0.154095
O O5 0.098591 0.139247 0.592521
O O6 0.817736 0.107885 0.273772
O O7 0.215147 0.056738 0.520575
O O8 0.000000 0.000000 0.500000
O O9 0.069982 0.107768 0.752909
O O10 0.940842 0.124846 0.837884
O O11 0.766032 0.019518 0.615732
O O12 0.158228 0.006106 0.944557
O O13 0.849908 0.750000 0.250497
O O14 0.564343 0.645428 0.066770
O O15 0.957562 0.250000 0.944484
O O16 0.894627 0.123135 0.989760
O O17 0.596514 0.023292 0.740584
O O18 0.000000 0.000000 0.000000
O O19 0.307969 0.750000 0.833024
#
# Coordination Sequence:
#
# PCOD9157619 Si02
#       8
#     4   4   4   4   4   4   4   4
#     4  10  18  34  59  86 119 151 192 253 310 350
#     4  12  24  36  55  93 130 165 200 245 308 374
#     4  11  21  35  65  93 121 154 201 255 310 366
#     4  11  22  39  64  92 123 164 210 258 309 361
#     4  10  20  39  64  90 120 155 200 257 313 362
#     4  10  22  41  62  88 125 161 199 258 311 368
#     4  10  20  37  58  83 121 160 201 254 300 354
#     4  12  23  39  58  91 124 162 201 248 307 368
#
# _framework density 20.147311999999999
#
# number of rings (size 3 to 8) (size 9 to 14) (size 15 to 20)
#    0.000    1.250    6.250    0.750    0.000    5.500 
#    0.000    1.250    0.000    1.500    0.000    0.000 
#    0.000    0.000    0.000    0.000    0.000    0.000 
#
# Total GULP energy -178491.434061 kJ/mol
# GULP energy per Si atom -5577.857314 kJ/mol
# Density = 2.010146 g / cm^3
# Si number density = 20.147312 Si / 1000 Ang^3
#
#
#
# Elastic Constant Matrix: (Units=GPa)
#
#
# Indices 1 2 3 4 5 6 
#
# 1 27.6239 40.7722 23.9164 0.0000 7.3483 0.0000
# 2 40.7722 94.0161 42.5372 0.0000 9.2867 0.0000
# 3 23.9164 42.5372 127.3043 0.0000 20.3435 0.0000
# 4 0.0000 0.0000 0.0000 28.5814 0.0000 5.1253
# 5 7.3483 9.2867 20.3435 0.0000 29.2396 0.0000
# 6 0.0000 0.0000 0.0000 5.1253 0.0000 24.1542
#
#
#
# Elastic Compliance Matrix: (Units=1/GPa)
#
#
# Indices 1 2 3 4 5 6 
#
# 1 0.106120 -0.043271 -0.003839 0.000000 -0.010255 0.000000
# 2 -0.043271 0.030213 -0.002442 0.000000 0.002978 0.000000
# 3 -0.003839 -0.002442 0.010254 0.000000 -0.005394 0.000000
# 4 0.000000 0.000000 0.000000 0.036372 0.000000 -0.007718
# 5 -0.010255 0.002978 -0.005394 0.000000 0.039585 0.000000
# 6 0.000000 0.000000 0.000000 -0.007718 0.000000 0.043038
#
#
# Mechanical properties :
#
#
# Convention : Reuss Voigt Hill
#
# Bulk Modulus (GPa) = 21.06046 51.48843 36.27445
# Shear Modulus (GPa) = 13.14014 25.84293 19.49154
#
# Velocity S-wave (km/s) = 2.55660 3.58536 3.11376
# Velocity P-wave (km/s) = 4.38074 6.53844 5.56516
#
# Compressibility (1/GPa) = 0.04748234
#
# Stress axis : x y z
#
# Youngs Moduli (GPa) = 9.42331 33.09868 97.51977
#
# Poissons Ratio (x) = 1.43222 0.37440
# Poissons Ratio (y) = 0.40776 0.23812
# Poissons Ratio (z) = 0.03618 0.08082
#
# Static dielectric constant tensor:
#      x y z
#    x 1.743870 0.000000 0.004390 
#    y 0.000000 1.789660 0.000000 
#    z 0.004390 0.000000 1.751610 
# 
# From -- ./inp_files/50730.got.cif
#   From: 2010.05.17/outbox.cif.g08.bks.cpg/sg11_26_cif.got.tgz:50730.got - 2010.06.03 12:22:45.
