data_PCOD9157424
_publ_section_title
;
Structure prediction by ZEFSAII (Michael W. Deem and Ramdas Pophale) SiO2 
 PCOD9157424
Probable space group: P 21/M
;
_chemical_formula_sum "Si O2"
_cell_formula_units_Z 28
_cell_length_a 19.565692
_cell_length_b 8.509370
_cell_length_c 9.697774
_cell_angle_alpha 90.000000
_cell_angle_beta 44.893295
_cell_angle_gamma 90.000000
_cell_volume 1139.565686
_symmetry_space_group_name_H-M "P 21/M"
_symmetry_group_IT_number 11
_symmetry_cell_setting 'monoclinic'
loop_
_space_group_symop_operation_xyz
x,y,z
-x,1/2+y,-z
-x,-y,-z
x,1/2-y,z
loop_
_atom_site_type_symbol
_atom_site_label
_atom_site_fract_x
_atom_site_fract_y
_atom_site_fract_z
Si Si1 0.429116 0.564445 0.287679
Si Si2 0.688544 0.570256 0.769885
Si Si3 0.877874 0.070784 0.407222
Si Si4 0.731162 0.563986 0.279448
Si Si5 0.826830 0.432066 0.781677
Si Si6 0.922792 0.436203 0.930307
Si Si7 0.582393 0.939636 0.276125
O O1 0.587658 0.750000 0.273859
O O2 0.395423 0.529480 0.181216
O O3 0.350807 0.472975 0.492204
O O4 0.534372 0.518453 0.197491
O O5 0.658552 0.750000 0.813287
O O6 0.784421 0.541607 0.536175
O O7 0.734250 0.524311 0.852320
O O8 0.849331 0.250000 0.415249
O O9 0.896686 0.065716 0.546924
O O10 0.975539 0.021149 0.193042
O O11 0.749107 0.750000 0.246264
O O12 0.681516 0.504315 0.206765
O O13 0.832887 0.478228 0.156611
O O14 0.798931 0.250000 0.842765
O O15 0.881625 0.488433 0.838671
O O16 0.939504 0.250000 0.904550
O O17 0.418707 0.750000 0.327276
O O18 0.500000 0.000000 0.500000
#
# Coordination Sequence:
#
# PCOD9157424 Si02
#       7
#     4   4   4   4   4   4   4
#     4  10  18  33  54  74  98 129 163 201 243 289
#     4  10  19  31  50  75  99 126 164 205 243 287
#     4   9  18  33  50  72  98 130 166 203 241 283
#     4  10  20  33  49  75 104 130 161 198 243 293
#     4   8  18  33  50  71  98 129 166 203 240 284
#     4  11  20  32  50  74 102 132 163 201 245 288
#     4   8  16  30  50  72  95 124 160 200 240 284
#
# _framework density 24.570765999999999
#
# number of rings (size 3 to 8) (size 9 to 14) (size 15 to 20)
#    0.857    1.714    0.000    3.000    0.000    2.286 
#    0.000    0.714    0.000    0.857    0.000    0.000 
#    0.000    0.000    0.000    0.000    0.000    0.000 
#
# Total GULP energy -156358.100817 kJ/mol
# GULP energy per Si atom -5584.217886 kJ/mol
# Density = 2.451484 g / cm^3
# Si number density = 24.570766 Si / 1000 Ang^3
#
#
#
# Elastic Constant Matrix: (Units=GPa)
#
#
# Indices 1 2 3 4 5 6 
#
# 1 124.0323 8.4511 10.0809 0.0000 -9.1860 0.0000
# 2 8.4511 31.2582 -10.8007 0.0000 -9.9473 0.0000
# 3 10.0809 -10.8007 71.1020 0.0000 -11.1711 0.0000
# 4 0.0000 0.0000 0.0000 10.3856 0.0000 -0.0577
# 5 -9.1860 -9.9473 -11.1711 0.0000 49.0718 0.0000
# 6 0.0000 0.0000 0.0000 -0.0577 0.0000 30.0135
#
#
#
# Elastic Compliance Matrix: (Units=1/GPa)
#
#
# Indices 1 2 3 4 5 6 
#
# 1 0.008409 -0.002550 -0.001466 0.000000 0.000724 0.000000
# 2 -0.002550 0.038154 0.007568 0.000000 0.008980 0.000000
# 3 -0.001466 0.007568 0.016199 0.000000 0.004947 0.000000
# 4 0.000000 0.000000 0.000000 0.096288 0.000000 0.000185
# 5 0.000724 0.008980 0.004947 0.000000 0.023460 0.000000
# 6 0.000000 0.000000 0.000000 0.000185 0.000000 0.033319
#
#
# Mechanical properties :
#
#
# Convention : Reuss Voigt Hill
#
# Bulk Modulus (GPa) = 14.31305 26.87279 20.59292
# Shear Modulus (GPa) = 21.55055 32.47159 27.01107
#
# Velocity S-wave (km/s) = 2.96477 3.63926 3.31919
# Velocity P-wave (km/s) = 4.19019 5.34973 4.80506
#
# Compressibility (1/GPa) = 0.06986631
#
# Stress axis : x y z
#
# Youngs Moduli (GPa) = 118.92202 26.20989 61.73209
#
# Poissons Ratio (x) = 0.06683 0.09049
# Poissons Ratio (y) = 0.30322 -0.46719
# Poissons Ratio (z) = 0.17432 -0.19836
#
# Static dielectric constant tensor:
#      x y z
#    x 1.999590 0.000000 0.125680 
#    y 0.000000 1.832650 0.000000 
#    z 0.125680 0.000000 2.227910 
# 
# From -- ./inp_files/42341.got.cif
#   From: 2010.05.17/outbox.cif.g08.bks.cpg/sg11_22_cif.got.tgz:42341.got - 2010.06.03 12:22:45.
