data_PCOD9157843
_publ_section_title
;
Structure prediction by ZEFSAII (Michael W. Deem and Ramdas Pophale) SiO2 
 PCOD9157843
Probable space group: P 21/M
;
_chemical_formula_sum "Si O2"
_cell_formula_units_Z 32
_cell_length_a 10.368578
_cell_length_b 7.205802
_cell_length_c 21.573191
_cell_angle_alpha 90.000000
_cell_angle_beta 136.104094
_cell_angle_gamma 90.000000
_cell_volume 1117.554329
_symmetry_space_group_name_H-M "P 21/M"
_symmetry_group_IT_number 11
_symmetry_cell_setting 'monoclinic'
loop_
_space_group_symop_operation_xyz
x,y,z
-x,1/2+y,-z
-x,-y,-z
x,1/2-y,z
loop_
_atom_site_type_symbol
_atom_site_label
_atom_site_fract_x
_atom_site_fract_y
_atom_site_fract_z
Si Si1 0.973593 0.529932 0.563546
Si Si2 0.473593 0.470068 0.063546
Si Si3 0.245225 0.474017 0.092134
Si Si4 0.874822 0.475977 0.204187
Si Si5 0.254776 0.025983 0.407867
Si Si6 0.942959 0.972960 0.853720
Si Si7 0.557039 0.972960 0.646279
Si Si8 0.374821 0.975977 0.704187
O O1 0.967450 0.750000 0.571224
O O2 0.173841 0.463016 0.658025
O O3 0.000000 0.500000 0.500000
O O4 0.794933 0.458472 0.539858
O O5 0.467451 0.250000 0.071225
O O6 0.294933 0.541528 0.039858
O O7 0.673842 0.536985 0.158025
O O8 0.500000 0.500000 0.000000
O O9 0.230196 0.250000 0.087820
O O10 0.088162 0.542121 0.086515
O O11 0.441390 0.522847 0.194040
O O12 0.870756 0.250000 0.202308
O O13 0.058611 0.522847 0.305960
O O14 0.905982 0.539413 0.143646
O O15 0.269804 0.250000 0.412180
O O16 0.411839 0.957879 0.413486
O O17 0.955973 0.750000 0.861006
O O18 0.749999 0.011960 0.750000
O O19 0.544025 0.750000 0.638993
O O20 0.405981 0.039413 0.643645
O O21 0.370755 0.750000 0.702308
#
# Coordination Sequence:
#
# PCOD9157843 Si02
#       8
#     4   4   4   4   4   4   4   4
#     4  10  19  29  41  59  85 112 136 164 198 238
#     4  10  19  29  41  59  85 112 136 164 198 238
#     4   8  13  23  41  62  80 101 133 171 205 235
#     4   8  13  23  41  62  80 101 133 171 205 235
#     4   8  13  23  41  62  80 101 133 171 205 235
#     4   7  10  18  35  60  83  97 120 167 214 238
#     4   7  10  18  35  60  83  97 120 167 214 238
#     4   8  13  23  41  62  80 101 133 171 205 235
#
# _framework density 28.633953999999999
#
# number of rings (size 3 to 8) (size 9 to 14) (size 15 to 20)
#    0.000    3.750    0.000    3.750    0.000    3.000 
#    0.000    1.250    0.000    3.000    0.000    0.000 
#    0.000    6.000    0.000    0.000    0.000    0.000 
#
# Total GULP energy -178859.113482 kJ/mol
# GULP energy per Si atom -5589.347296 kJ/mol
# Density = 2.856878 g / cm^3
# Si number density = 28.633954 Si / 1000 Ang^3
#
#
#
# Elastic Constant Matrix: (Units=GPa)
#
#
# Indices 1 2 3 4 5 6 
#
# 1 291.0741 11.1136 27.2369 0.0000 -26.0505 0.0000
# 2 11.1136 145.7797 -1.0402 0.0000 2.3808 0.0000
# 3 27.2369 -1.0402 101.2393 0.0000 -33.3445 0.0000
# 4 0.0000 0.0000 0.0000 -1.5785 0.0000 -11.7728
# 5 -26.0505 2.3808 -33.3445 0.0000 61.3115 0.0000
# 6 0.0000 0.0000 0.0000 -11.7728 0.0000 -7.2165
#
#
#
# Elastic Compliance Matrix: (Units=1/GPa)
#
#
# Indices 1 2 3 4 5 6 
#
# 1 0.003611 -0.000300 -0.000567 0.000000 0.001237 0.000000
# 2 -0.000300 0.006889 0.000026 0.000000 -0.000381 0.000000
# 3 -0.000567 0.000026 0.012122 0.000000 0.006351 0.000000
# 4 0.000000 0.000000 0.000000 0.056730 0.000000 -0.092548
# 5 0.001237 -0.000381 0.006351 0.000000 0.020305 0.000000
# 6 0.000000 0.000000 0.000000 -0.092548 0.000000 0.012409
#
#
# Mechanical properties :
#
#
# Convention : Reuss Voigt Hill
#
# Bulk Modulus (GPa) = 47.75350 68.07930 57.91640
# Shear Modulus (GPa) = 41.41600 43.88883 42.65242
#
# Velocity S-wave (km/s) = 3.80728 3.91929 3.86369
# Velocity P-wave (km/s) = 6.00338 6.65646 6.33834
#
# Compressibility (1/GPa) = 0.02094087
#
# Stress axis : x y z
#
# Youngs Moduli (GPa) = 276.94781 145.16107 82.49405
#
# Poissons Ratio (x) = 0.04348 0.04677
# Poissons Ratio (y) = 0.08295 -0.00214
# Poissons Ratio (z) = 0.15701 -0.00377
#
# Static dielectric constant tensor:
#      x y z
#    x 2.302350 0.000000 -0.040290 
#    y 0.000000 2.096820 0.000000 
#    z -0.040290 0.000000 2.364690 
# 
# From -- ./inp_files/59083.got.cif
#   From: 2010.05.17/outbox.cif.g08.bks.cpg/sg11_30_cif.got.tgz:59083.got - 2010.06.03 12:22:45.
