data_PCOD9157254
_publ_section_title
;
Structure prediction by ZEFSAII (Michael W. Deem and Ramdas Pophale) SiO2 
 PCOD9157254
Probable space group: P 21/M
;
_chemical_formula_sum "Si O2"
_cell_formula_units_Z 32
_cell_length_a 20.989021
_cell_length_b 7.776291
_cell_length_c 12.609367
_cell_angle_alpha 90.000000
_cell_angle_beta 53.363022
_cell_angle_gamma 90.000000
_cell_volume 1651.454025
_symmetry_space_group_name_H-M "P 21/M"
_symmetry_group_IT_number 11
_symmetry_cell_setting 'monoclinic'
loop_
_space_group_symop_operation_xyz
x,y,z
-x,1/2+y,-z
-x,-y,-z
x,1/2-y,z
loop_
_atom_site_type_symbol
_atom_site_label
_atom_site_fract_x
_atom_site_fract_y
_atom_site_fract_z
Si Si1 0.289854 0.039173 0.356858
Si Si2 0.746280 0.048513 0.155797
Si Si3 0.968199 0.456438 0.148657
Si Si4 0.785234 0.548210 0.349621
Si Si5 0.764539 0.541276 0.816371
Si Si6 0.885969 0.950236 0.866135
Si Si7 0.377890 0.954644 0.884813
Si Si8 0.470720 0.042626 0.147170
O O1 0.289123 0.250000 0.357450
O O2 0.250779 0.979811 0.505008
O O3 0.242947 0.985173 0.297529
O O4 0.381256 0.982104 0.255824
O O5 0.754260 0.250000 0.121326
O O6 0.749270 0.029603 0.278234
O O7 0.666921 0.981500 0.176304
O O8 0.821990 0.960293 0.025411
O O9 0.965296 0.250000 0.158925
O O10 0.879863 0.523904 0.252836
O O11 0.032099 0.524782 0.170815
O O12 0.000000 0.500000 0.000000
O O13 0.767573 0.750000 0.362405
O O14 0.766240 0.750000 0.817124
O O15 0.839788 0.476701 0.809878
O O16 0.685383 0.487138 0.958298
O O17 0.901155 0.750000 0.827916
O O18 0.387989 0.750000 0.862403
O O19 0.462905 0.024810 0.836664
O O20 0.468730 0.250000 0.157042
O O21 0.500000 0.000000 0.000000
#
# Coordination Sequence:
#
# PCOD9157254 Si02
#       8
#     4   4   4   4   4   4   4   4
#     4   9  19  34  53  75 104 141 175 209 256 310
#     4  10  19  32  50  74 104 136 169 211 264 310
#     4  11  21  34  53  79 106 134 170 216 262 306
#     4  11  22  36  52  73 103 141 180 214 253 306
#     4   9  16  31  53  76 101 133 171 208 249 305
#     4   9  18  31  52  78 102 128 166 213 256 304
#     4   9  18  30  49  78 107 131 163 215 267 305
#     4  10  18  32  53  79 106 134 172 215 258 306
#
# _framework density 19.376864000000001
#
# number of rings (size 3 to 8) (size 9 to 14) (size 15 to 20)
#    0.000    2.250    2.500    1.125    0.000    1.000 
#    0.000    3.750    0.000    0.000    0.000    0.000 
#    0.000    0.000    0.000    0.000    0.000    0.000 
#
# Total GULP energy -178499.136347 kJ/mol
# GULP energy per Si atom -5578.098011 kJ/mol
# Density = 1.933276 g / cm^3
# Si number density = 19.376864 Si / 1000 Ang^3
#
#
#
# Elastic Constant Matrix: (Units=GPa)
#
#
# Indices 1 2 3 4 5 6 
#
# 1 178.4837 -3.0190 74.5506 0.0000 20.1154 0.0000
# 2 -3.0190 26.1535 -12.6293 0.0000 -1.3431 0.0000
# 3 74.5506 -12.6293 112.5774 0.0000 12.1578 0.0000
# 4 0.0000 0.0000 0.0000 13.7609 0.0000 -0.3814
# 5 20.1154 -1.3431 12.1578 0.0000 25.4844 0.0000
# 6 0.0000 0.0000 0.0000 -0.3814 0.0000 14.1308
#
#
#
# Elastic Compliance Matrix: (Units=1/GPa)
#
#
# Indices 1 2 3 4 5 6 
#
# 1 0.008201 -0.001768 -0.005187 0.000000 -0.004091 0.000000
# 2 -0.001768 0.040807 0.005657 0.000000 0.000847 0.000000
# 3 -0.005187 0.005657 0.013156 0.000000 -0.001884 0.000000
# 4 0.000000 0.000000 0.000000 0.072724 0.000000 0.001963
# 5 -0.004091 0.000847 -0.001884 0.000000 0.043413 0.000000
# 6 0.000000 0.000000 0.000000 0.001963 0.000000 0.070820
#
#
# Mechanical properties :
#
#
# Convention : Reuss Voigt Hill
#
# Bulk Modulus (GPa) = 16.78769 48.33548 32.56159
# Shear Modulus (GPa) = 18.41132 27.89605 23.15369
#
# Velocity S-wave (km/s) = 3.08583 3.79840 3.46050
# Velocity P-wave (km/s) = 4.62375 6.65103 5.72779
#
# Compressibility (1/GPa) = 0.05956744
#
# Stress axis : x y z
#
# Youngs Moduli (GPa) = 121.94348 24.50555 76.01206
#
# Poissons Ratio (x) = 0.04333 0.39428
# Poissons Ratio (y) = 0.21563 -0.43002
# Poissons Ratio (z) = 0.63252 -0.13864
#
# Static dielectric constant tensor:
#      x y z
#    x 1.718540 0.000000 0.013900 
#    y 0.000000 1.707440 0.000000 
#    z 0.013900 0.000000 1.627050 
# 
# From -- ./inp_files/40690.got.cif
#   From: 2010.05.17/outbox.cif.g08.bks.cpg/sg11_21_cif.got.tgz:40690.got - 2010.06.03 12:22:45.
