data_PCOD9157285
_publ_section_title
;
Structure prediction by ZEFSAII (Michael W. Deem and Ramdas Pophale) SiO2 
 PCOD9157285
Probable space group: P 21/M
;
_chemical_formula_sum "Si O2"
_cell_formula_units_Z 26
_cell_length_a 13.842103
_cell_length_b 7.776774
_cell_length_c 12.532743
_cell_angle_alpha 90.000000
_cell_angle_beta 129.157395
_cell_angle_gamma 90.000000
_cell_volume 1046.119907
_symmetry_space_group_name_H-M "P 21/M"
_symmetry_group_IT_number 11
_symmetry_cell_setting 'monoclinic'
loop_
_space_group_symop_operation_xyz
x,y,z
-x,1/2+y,-z
-x,-y,-z
x,1/2-y,z
loop_
_atom_site_type_symbol
_atom_site_label
_atom_site_fract_x
_atom_site_fract_y
_atom_site_fract_z
Si Si1 0.462780 0.051376 0.741346
Si Si2 0.868338 0.961967 0.713715
Si Si3 0.228445 0.553611 0.804916
Si Si4 0.500000 0.500000 0.000000
Si Si5 0.829794 0.545408 0.456298
Si Si6 0.873944 0.455951 0.031296
Si Si7 0.664640 0.945722 0.721404
O O1 0.480008 0.250000 0.784298
O O2 0.514844 0.955323 0.881348
O O3 0.317630 0.014993 0.623801
O O4 0.544454 0.025680 0.692532
O O5 0.867104 0.750000 0.712218
O O6 0.891704 0.016986 0.608538
O O7 0.736618 0.021669 0.669522
O O8 0.982617 0.014650 0.868922
O O9 0.279343 0.750000 0.846592
O O10 0.144717 0.536541 0.641119
O O11 0.165003 0.519199 0.872320
O O12 0.354198 0.448710 0.876749
O O13 0.849629 0.750000 0.460133
O O14 0.866862 0.250000 0.005695
O O15 0.774573 0.546368 0.886916
O O16 0.632574 0.750000 0.673544
#
# Coordination Sequence:
#
# PCOD9157285 Si02
#       7
#     4   4   4   2   4   4   4
#     4  10  20  35  56  82 112 148 183 223 279 334
#     4   9  20  39  59  78 110 152 189 227 276 330
#     4  10  20  34  55  84 112 142 182 227 278 331
#     4  10  18  32  54  78 110 142 178 220 266 330
#     4   9  20  38  57  80 111 150 187 223 275 336
#     4  10  20  38  60  81 110 148 185 228 283 336
#     4  11  22  35  56  86 113 143 188 236 275 324
#
# _framework density 24.853746999999998
#
# number of rings (size 3 to 8) (size 9 to 14) (size 15 to 20)
#    0.000    2.154    1.538    1.385    0.000    5.538 
#    0.000    3.077    0.000    0.000    0.000    0.000 
#    0.000    0.000    0.000    0.000    0.000    0.000 
#
# Total GULP energy -144806.140883 kJ/mol
# GULP energy per Si atom -5569.466957 kJ/mol
# Density = 2.479718 g / cm^3
# Si number density = 24.853747 Si / 1000 Ang^3
#
#
#
# Elastic Constant Matrix: (Units=GPa)
#
#
# Indices 1 2 3 4 5 6 
#
# 1 80.3439 18.3370 -19.8618 0.0000 -17.4429 0.0000
# 2 18.3370 27.6943 0.2674 0.0000 -0.0591 0.0000
# 3 -19.8618 0.2674 80.7878 0.0000 -11.3152 0.0000
# 4 0.0000 0.0000 0.0000 9.7739 0.0000 -0.2588
# 5 -17.4429 -0.0591 -11.3152 0.0000 39.3577 0.0000
# 6 0.0000 0.0000 0.0000 -0.2588 0.0000 13.4131
#
#
#
# Elastic Compliance Matrix: (Units=1/GPa)
#
#
# Indices 1 2 3 4 5 6 
#
# 1 0.019077 -0.012669 0.006162 0.000000 0.010207 0.000000
# 2 -0.012669 0.044523 -0.004209 0.000000 -0.006758 0.000000
# 3 0.006162 -0.004209 0.014888 0.000000 0.007005 0.000000
# 4 0.000000 0.000000 0.000000 0.102365 0.000000 0.001975
# 5 0.010207 -0.006758 0.007005 0.000000 0.031935 0.000000
# 6 0.000000 0.000000 0.000000 0.001975 0.000000 0.074592
#
#
# Mechanical properties :
#
#
# Convention : Reuss Voigt Hill
#
# Bulk Modulus (GPa) = 17.52655 20.70127 19.11391
# Shear Modulus (GPa) = 15.25169 25.18117 20.21643
#
# Velocity S-wave (km/s) = 2.47990 3.18649 2.85514
# Velocity P-wave (km/s) = 3.90731 4.67821 4.31003
#
# Compressibility (1/GPa) = 0.05705630
#
# Stress axis : x y z
#
# Youngs Moduli (GPa) = 52.41826 22.46010 67.16821
#
# Poissons Ratio (x) = 0.28455 -0.41387
# Poissons Ratio (y) = 0.66410 0.28269
# Poissons Ratio (z) = -0.32299 0.09453
#
# Static dielectric constant tensor:
#      x y z
#    x 1.852320 0.000000 -0.052510 
#    y 0.000000 1.992440 0.000000 
#    z -0.052510 0.000000 1.972580 
# 
# From -- ./inp_files/37781.got.cif
#   From: 2010.05.17/outbox.cif.g08.bks.cpg/sg11_19_cif.got.tgz:37781.got - 2010.06.03 12:22:45.
