data_PCOD9157699
_publ_section_title
;
Structure prediction by ZEFSAII (Michael W. Deem and Ramdas Pophale) SiO2 
 PCOD9157699
Probable space group: P 21/M
;
_chemical_formula_sum "Si O2"
_cell_formula_units_Z 26
_cell_length_a 7.042240
_cell_length_b 9.587812
_cell_length_c 24.047672
_cell_angle_alpha 90.000000
_cell_angle_beta 138.978815
_cell_angle_gamma 90.000000
_cell_volume 1065.690133
_symmetry_space_group_name_H-M "P 21/M"
_symmetry_group_IT_number 11
_symmetry_cell_setting 'monoclinic'
loop_
_space_group_symop_operation_xyz
x,y,z
-x,1/2+y,-z
-x,-y,-z
x,1/2-y,z
loop_
_atom_site_type_symbol
_atom_site_label
_atom_site_fract_x
_atom_site_fract_y
_atom_site_fract_z
Si Si1 0.363334 0.750000 0.498871
Si Si2 0.551886 0.908670 0.894281
Si Si3 0.286522 0.414519 0.232208
Si Si4 0.164571 0.250000 0.556996
Si Si5 0.955935 0.750000 0.586562
Si Si6 0.182976 0.493799 0.710098
Si Si7 0.594651 0.492000 0.621819
Si Si8 0.851736 0.092536 0.046881
O O1 0.606686 0.750000 0.505141
O O2 0.448852 0.605889 0.549504
O O3 0.016995 0.750000 0.426354
O O4 0.468750 0.750000 0.887643
O O5 0.853150 0.906636 0.925408
O O6 0.318994 0.972795 0.800581
O O7 0.632348 0.990915 0.967722
O O8 0.354037 0.250000 0.232157
O O9 0.289453 0.426782 0.298560
O O10 0.981374 0.444734 0.135658
O O11 0.519553 0.525842 0.259003
O O12 0.944952 0.250000 0.455170
O O13 0.356502 0.386203 0.591817
O O14 0.057925 0.620424 0.645079
O O15 0.876569 0.419696 0.655742
O O16 0.736771 0.250000 0.021820
#
# Coordination Sequence:
#
# PCOD9157699 Si02
#       8
#     2   4   4   2   2   4   4   4
#     4  10  22  40  66  86 108 156 202 232 296 366
#     4   9  15  29  54  83 114 149 194 238 278 335
#     4  10  18  35  63  87 118 161 205 239 280 349
#     4  12  26  42  58  91 126 148 184 261 306 342
#     4  10  20  36  62  87 112 150 200 239 286 356
#     4  10  19  36  61  88 114 155 201 237 284 349
#     4  11  24  40  62  89 119 154 198 243 297 352
#     4   8  16  29  50  85 117 152 191 234 284 337
#
# _framework density 24.397335000000002
#
# number of rings (size 3 to 8) (size 9 to 14) (size 15 to 20)
#    0.000    2.154    2.308    2.308    0.000    3.692 
#    2.769    0.769    0.000    0.000    0.000    0.000 
#    0.000    0.000    0.000    0.000    0.000    0.000 
#
# Total GULP energy -145137.256843 kJ/mol
# GULP energy per Si atom -5582.202186 kJ/mol
# Density = 2.434181 g / cm^3
# Si number density = 24.397335 Si / 1000 Ang^3
#
#
#
# Elastic Constant Matrix: (Units=GPa)
#
#
# Indices 1 2 3 4 5 6 
#
# 1 89.3252 -4.1472 4.3598 0.0000 21.7304 0.0000
# 2 -4.1472 35.2975 3.2634 0.0000 4.5081 0.0000
# 3 4.3598 3.2634 74.9384 0.0000 0.8108 0.0000
# 4 0.0000 0.0000 0.0000 24.4000 0.0000 -1.1819
# 5 21.7304 4.5081 0.8108 0.0000 52.4800 0.0000
# 6 0.0000 0.0000 0.0000 -1.1819 0.0000 23.9257
#
#
#
# Elastic Compliance Matrix: (Units=1/GPa)
#
#
# Indices 1 2 3 4 5 6 
#
# 1 0.012656 0.002251 -0.000776 0.000000 -0.005422 0.000000
# 2 0.002251 0.029157 -0.001364 0.000000 -0.003416 0.000000
# 3 -0.000776 -0.001364 0.013446 0.000000 0.000231 0.000000
# 4 0.000000 0.000000 0.000000 0.041082 0.000000 0.002029
# 5 -0.005422 -0.003416 0.000231 0.000000 0.021590 0.000000
# 6 0.000000 0.000000 0.000000 0.002029 0.000000 0.041896
#
#
# Mechanical properties :
#
#
# Convention : Reuss Voigt Hill
#
# Bulk Modulus (GPa) = 18.02327 22.94589 20.48458
# Shear Modulus (GPa) = 28.07421 33.23347 30.65384
#
# Velocity S-wave (km/s) = 3.39589 3.69477 3.54848
# Velocity P-wave (km/s) = 4.77279 5.25617 5.02030
#
# Compressibility (1/GPa) = 0.05548381
#
# Stress axis : x y z
#
# Youngs Moduli (GPa) = 79.01093 34.29655 74.36978
#
# Poissons Ratio (x) = -0.07721 0.05769
# Poissons Ratio (y) = -0.17787 0.10142
# Poissons Ratio (z) = 0.06129 0.04677
#
# Static dielectric constant tensor:
#      x y z
#    x 2.054940 0.000000 0.030600 
#    y 0.000000 1.932110 0.000000 
#    z 0.030600 0.000000 1.919180 
# 
# From -- ./inp_files/71076.got.cif
#   From: 2010.05.17/outbox.cif.g08.bks.cpg/sg11_36_cif.got.tgz:71076.got - 2010.06.03 12:22:45.
