data_PCOD9157268
_publ_section_title
;
Structure prediction by ZEFSAII (Michael W. Deem and Ramdas Pophale) SiO2 
 PCOD9157268
Probable space group: P 21/M
;
_chemical_formula_sum "Si O2"
_cell_formula_units_Z 32
_cell_length_a 12.911206
_cell_length_b 7.437817
_cell_length_c 14.871510
_cell_angle_alpha 90.000000
_cell_angle_beta 92.284121
_cell_angle_gamma 90.000000
_cell_volume 1426.994086
_symmetry_space_group_name_H-M "P 21/M"
_symmetry_group_IT_number 11
_symmetry_cell_setting 'monoclinic'
loop_
_space_group_symop_operation_xyz
x,y,z
-x,1/2+y,-z
-x,-y,-z
x,1/2-y,z
loop_
_atom_site_type_symbol
_atom_site_label
_atom_site_fract_x
_atom_site_fract_y
_atom_site_fract_z
Si Si1 0.668316 0.532214 0.509346
Si Si2 0.969947 0.466012 0.895408
Si Si3 0.137029 0.030549 0.754488
Si Si4 0.306703 0.032927 0.895194
Si Si5 0.495016 0.460562 0.643373
Si Si6 0.475143 0.529326 0.153746
Si Si7 0.747553 0.457719 0.911402
Si Si8 0.110941 0.465158 0.549146
O O1 0.667533 0.750000 0.508553
O O2 0.604265 0.477908 0.595338
O O3 0.596000 0.466991 0.423894
O O4 0.786744 0.470902 0.501374
O O5 0.967440 0.250000 0.886454
O O6 0.853478 0.537229 0.877246
O O7 0.050726 0.530220 0.823430
O O8 0.000000 0.500000 0.000000
O O9 0.134824 0.250000 0.752365
O O10 0.247265 0.980287 0.802135
O O11 0.117865 0.968218 0.652417
O O12 0.304318 0.250000 0.899296
O O13 0.425523 0.972067 0.900281
O O14 0.247421 0.964817 0.980486
O O15 0.471104 0.250000 0.652628
O O16 0.504000 0.531433 0.743796
O O17 0.474115 0.750000 0.151072
O O18 0.363299 0.463348 0.118629
O O19 0.744906 0.250000 0.882252
O O20 0.120971 0.250000 0.553862
O O21 0.000000 0.500000 0.500000
#
# Coordination Sequence:
#
# PCOD9157268 Si02
#       8
#     4   4   4   4   4   4   4   4
#     4   9  18  33  53  77 105 132 166 216 265 302
#     4  10  19  33  52  73  99 131 170 212 251 295
#     4   9  18  33  55  77  96 131 177 212 250 303
#     4  10  18  32  54  74  97 132 173 207 243 303
#     4   9  17  32  55  78 100 134 174 209 252 312
#     4   9  18  31  49  75 103 131 167 206 247 300
#     4  10  20  32  47  72 105 133 160 208 260 294
#     4  10  21  37  55  77 107 139 174 219 265 311
#
# _framework density 22.424759000000002
#
# number of rings (size 3 to 8) (size 9 to 14) (size 15 to 20)
#    0.000    2.500    1.250    1.125    0.000    4.500 
#    0.000    5.000    0.000    1.500    0.000    0.000 
#    0.000    0.000    0.000    0.000    0.000    0.000 
#
# Total GULP energy -178686.923806 kJ/mol
# GULP energy per Si atom -5583.966369 kJ/mol
# Density = 2.237372 g / cm^3
# Si number density = 22.424759 Si / 1000 Ang^3
#
#
#
# Elastic Constant Matrix: (Units=GPa)
#
#
# Indices 1 2 3 4 5 6 
#
# 1 149.6149 -6.0934 4.5505 0.0000 0.6046 0.0000
# 2 -6.0934 68.7465 -12.9185 0.0000 3.0754 0.0000
# 3 4.5505 -12.9185 28.8452 0.0000 1.0717 0.0000
# 4 0.0000 0.0000 0.0000 11.5054 0.0000 0.8065
# 5 0.6046 3.0754 1.0717 0.0000 23.6352 0.0000
# 6 0.0000 0.0000 0.0000 0.8065 0.0000 10.6196
#
#
#
# Elastic Compliance Matrix: (Units=1/GPa)
#
#
# Indices 1 2 3 4 5 6 
#
# 1 0.006729 0.000444 -0.000855 0.000000 -0.000191 0.000000
# 2 0.000444 0.016049 0.007208 0.000000 -0.002426 0.000000
# 3 -0.000855 0.007208 0.038129 0.000000 -0.002645 0.000000
# 4 0.000000 0.000000 0.000000 0.087381 0.000000 -0.006636
# 5 -0.000191 -0.002426 -0.002645 0.000000 0.042750 0.000000
# 6 0.000000 0.000000 0.000000 -0.006636 0.000000 0.094670
#
#
# Mechanical properties :
#
#
# Convention : Reuss Voigt Hill
#
# Bulk Modulus (GPa) = 13.42304 24.25374 18.83839
# Shear Modulus (GPa) = 16.83798 26.59657 21.71727
#
# Velocity S-wave (km/s) = 2.74317 3.44762 3.11537
# Velocity P-wave (km/s) = 4.00401 5.16597 4.62165
#
# Compressibility (1/GPa) = 0.07449876
#
# Stress axis : x y z
#
# Youngs Moduli (GPa) = 148.61697 62.31109 26.22676
#
# Poissons Ratio (x) = -0.02768 0.02244
# Poissons Ratio (y) = -0.06602 -0.18903
# Poissons Ratio (z) = 0.12713 -0.44911
#
# Static dielectric constant tensor:
#      x y z
#    x 1.837630 0.000000 0.004660 
#    y 0.000000 1.882270 0.000000 
#    z 0.004660 0.000000 1.788780 
# 
# From -- ./inp_files/41209.got.cif
#   From: 2010.05.17/outbox.cif.g08.bks.cpg/sg11_21_cif.got.tgz:41209.got - 2010.06.03 12:22:45.
