data_PCOD9157232
_publ_section_title
;
Structure prediction by ZEFSAII (Michael W. Deem and Ramdas Pophale) SiO2 
 PCOD9157232
Probable space group: P 21/M
;
_chemical_formula_sum "Si O2"
_cell_formula_units_Z 32
_cell_length_a 23.410729
_cell_length_b 13.865282
_cell_length_c 20.465657
_cell_angle_alpha 90.000000
_cell_angle_beta 17.190733
_cell_angle_gamma 90.000000
_cell_volume 1963.385146
_symmetry_space_group_name_H-M "P 21/M"
_symmetry_group_IT_number 11
_symmetry_cell_setting 'monoclinic'
loop_
_space_group_symop_operation_xyz
x,y,z
-x,1/2+y,-z
-x,-y,-z
x,1/2-y,z
loop_
_atom_site_type_symbol
_atom_site_label
_atom_site_fract_x
_atom_site_fract_y
_atom_site_fract_z
Si Si1 0.003541 0.636837 0.590870
Si Si2 0.053214 0.136481 0.873822
Si Si3 0.757499 0.365797 0.540360
Si Si4 0.405184 0.862234 0.075773
Si Si5 0.400606 0.054212 0.008760
Si Si6 0.322546 0.865936 0.632996
Si Si7 0.751828 0.865847 0.201799
Si Si8 0.116541 0.953192 0.734066
O O1 0.949063 0.750000 0.648443
O O2 0.087653 0.615489 0.570977
O O3 0.187656 0.624214 0.341851
O O4 0.817725 0.575767 0.773972
O O5 0.065420 0.250000 0.846499
O O6 0.188348 0.113424 0.788819
O O7 0.106132 0.067691 0.756513
O O8 0.839085 0.113193 0.135528
O O9 0.744574 0.250000 0.546074
O O10 0.552999 0.405944 0.789641
O O11 0.820679 0.416343 0.404747
O O12 0.430004 0.750000 0.031034
O O13 0.547037 0.889987 0.980833
O O14 0.433188 0.941453 0.989082
O O15 0.318840 0.750000 0.628556
O O16 0.534978 0.895409 0.422686
O O17 0.258492 0.912018 0.634917
O O18 0.766790 0.750000 0.178576
O O19 0.907643 0.911752 0.983199
#
# Coordination Sequence:
#
# PCOD9157232 Si02
#       8
#     4   4   4   4   4   4   4   4
#     4   9  17  31  51  73  99 128 156 191 234 278
#     4   9  19  33  47  66  92 122 158 200 241 282
#     4  10  21  34  47  70 100 126 159 196 229 279
#     4   9  18  31  51  80 103 121 157 202 233 268
#     4  10  18  32  53  73 100 134 159 186 234 282
#     4   9  17  30  50  74  95 116 149 197 248 292
#     4   9  17  30  49  73  97 118 148 195 247 292
#     4  11  20  31  48  68  95 127 159 195 234 280
#
# _framework density 16.298380999999999
#
# number of rings (size 3 to 8) (size 9 to 14) (size 15 to 20)
#    0.000    2.500    0.000    5.625    0.000    3.000 
#    0.000    1.875    0.000    0.750    0.000    0.000 
#    0.000    0.000    0.000    0.000    0.000    0.000 
#
# Total GULP energy -178490.523452 kJ/mol
# GULP energy per Si atom -5577.828858 kJ/mol
# Density = 1.626128 g / cm^3
# Si number density = 16.298381 Si / 1000 Ang^3
#
#
#
# Elastic Constant Matrix: (Units=GPa)
#
#
# Indices 1 2 3 4 5 6 
#
# 1 53.5891 42.7635 52.5284 0.0000 2.8462 0.0000
# 2 42.7635 98.1299 41.1755 0.0000 6.9941 0.0000
# 3 52.5284 41.1755 71.4059 0.0000 -15.6815 0.0000
# 4 0.0000 0.0000 0.0000 17.7778 0.0000 11.6152
# 5 2.8462 6.9941 -15.6815 0.0000 30.2335 0.0000
# 6 0.0000 0.0000 0.0000 11.6152 0.0000 17.3749
#
#
#
# Elastic Compliance Matrix: (Units=1/GPa)
#
#
# Indices 1 2 3 4 5 6 
#
# 1 0.142938 -0.008526 -0.115965 0.000000 -0.071633 0.000000
# 2 -0.008526 0.015944 -0.004013 0.000000 -0.004967 0.000000
# 3 -0.115965 -0.004013 0.117626 0.000000 0.072856 0.000000
# 4 0.000000 0.000000 0.000000 0.099871 0.000000 -0.066764
# 5 -0.071633 -0.004967 0.072856 0.000000 0.078757 0.000000
# 6 0.000000 0.000000 0.000000 -0.066764 0.000000 0.102186
#
#
# Mechanical properties :
#
#
# Convention : Reuss Voigt Hill
#
# Bulk Modulus (GPa) = 51.28015 55.11774 53.19894
# Shear Modulus (GPa) = 6.09140 18.85442 12.47291
#
# Velocity S-wave (km/s) = 1.93534 3.40491 2.76938
# Velocity P-wave (km/s) = 6.04365 7.02490 6.55267
#
# Compressibility (1/GPa) = 0.01950072
#
# Stress axis : x y z
#
# Youngs Moduli (GPa) = 6.99603 62.72043 8.50154
#
# Poissons Ratio (x) = 0.53474 0.98588
# Poissons Ratio (y) = 0.05965 0.03412
# Poissons Ratio (z) = 0.81129 0.25169
#
# Static dielectric constant tensor:
#      x y z
#    x 1.524620 0.000000 -0.016820 
#    y 0.000000 1.572070 0.000000 
#    z -0.016820 0.000000 1.535750 
# 
# From -- ./inp_files/61594.got.cif
#   From: 2010.05.17/outbox.cif.g08.bks.cpg/sg11_31_cif.got.tgz:61594.got - 2010.06.03 12:22:45.
