data_PCOD9157564
_publ_section_title
;
Structure prediction by ZEFSAII (Michael W. Deem and Ramdas Pophale) SiO2 
 PCOD9157564
Probable space group: P 21/M
;
_chemical_formula_sum "Si O2"
_cell_formula_units_Z 32
_cell_length_a 15.416102
_cell_length_b 7.521068
_cell_length_c 22.167864
_cell_angle_alpha 90.000000
_cell_angle_beta 35.617157
_cell_angle_gamma 90.000000
_cell_volume 1496.836162
_symmetry_space_group_name_H-M "P 21/M"
_symmetry_group_IT_number 11
_symmetry_cell_setting 'monoclinic'
loop_
_space_group_symop_operation_xyz
x,y,z
-x,1/2+y,-z
-x,-y,-z
x,1/2-y,z
loop_
_atom_site_type_symbol
_atom_site_label
_atom_site_fract_x
_atom_site_fract_y
_atom_site_fract_z
Si Si1 0.441987 0.468674 0.730782
Si Si2 0.037710 0.468767 0.276548
Si Si3 0.903985 0.958423 0.891096
Si Si4 0.696908 0.963118 0.785377
Si Si5 0.112236 0.039181 0.881806
Si Si6 0.733523 0.449884 0.508832
Si Si7 0.411195 0.461995 0.885126
Si Si8 0.829081 0.961724 0.585318
O O1 0.448746 0.250000 0.726456
O O2 0.277631 0.526188 0.803490
O O3 0.569386 0.531304 0.611924
O O4 0.462185 0.527708 0.789561
O O5 0.034152 0.250000 0.281716
O O6 0.057830 0.528860 0.196522
O O7 0.182913 0.526044 0.233383
O O8 0.877467 0.529286 0.393574
O O9 0.873518 0.750000 0.898640
O O10 0.752902 0.033019 0.006102
O O11 0.037851 0.972831 0.862560
O O12 0.708249 0.750000 0.779950
O O13 0.749435 0.028549 0.690267
O O14 0.521802 0.004688 0.879081
O O15 0.123925 0.250000 0.870053
O O16 0.000000 0.000000 0.000000
O O17 0.713835 0.250000 0.495317
O O18 0.783295 0.443810 0.550369
O O19 0.400901 0.250000 0.883534
O O20 0.804714 0.750000 0.592262
O O21 0.000000 0.000000 0.500000
#
# Coordination Sequence:
#
# PCOD9157564 Si02
#       8
#     4   4   4   4   4   4   4   4
#     4   9  18  32  54  83 110 135 170 219 276 328
#     4   9  19  36  56  75 105 150 189 219 258 320
#     4  10  21  39  58  78 107 145 186 221 265 328
#     4  10  20  33  50  79 111 142 184 227 267 314
#     4  11  21  37  60  87 112 138 175 223 277 328
#     4  10  18  34  56  77 105 143 183 219 266 321
#     4  10  19  33  53  79 109 142 176 220 274 324
#     4  11  20  30  48  76 107 139 180 227 268 310
#
# _framework density 21.378425
#
# number of rings (size 3 to 8) (size 9 to 14) (size 15 to 20)
#    0.000    2.000    3.750    0.750    0.000    1.500 
#    0.000    3.125    0.000    0.000    0.000    0.000 
#    0.000    0.000    0.000    0.000    0.000    0.000 
#
# Total GULP energy -178459.326331 kJ/mol
# GULP energy per Si atom -5576.853948 kJ/mol
# Density = 2.132977 g / cm^3
# Si number density = 21.378425 Si / 1000 Ang^3
#
#
#
# Elastic Constant Matrix: (Units=GPa)
#
#
# Indices 1 2 3 4 5 6 
#
# 1 130.4572 -11.0402 86.4921 0.0000 -13.5995 0.0000
# 2 -11.0402 58.5109 6.2264 0.0000 4.2260 0.0000
# 3 86.4921 6.2264 105.1138 0.0000 -14.1761 0.0000
# 4 0.0000 0.0000 0.0000 3.0000 0.0000 -0.2525
# 5 -13.5995 4.2260 -14.1761 0.0000 44.1915 0.0000
# 6 0.0000 0.0000 0.0000 -0.2525 0.0000 16.4301
#
#
#
# Elastic Compliance Matrix: (Units=1/GPa)
#
#
# Indices 1 2 3 4 5 6 
#
# 1 0.018252 0.005054 -0.015287 0.000000 0.000230 0.000000
# 2 0.005054 0.018780 -0.005543 0.000000 -0.002019 0.000000
# 3 -0.015287 -0.005543 0.022846 0.000000 0.003154 0.000000
# 4 0.000000 0.000000 0.000000 0.333770 0.000000 0.005129
# 5 0.000230 -0.002019 0.003154 0.000000 0.023904 0.000000
# 6 0.000000 0.000000 0.000000 0.005129 0.000000 0.060943
#
#
# Mechanical properties :
#
#
# Convention : Reuss Voigt Hill
#
# Bulk Modulus (GPa) = 35.30364 50.82652 43.06508
# Shear Modulus (GPa) = 9.62481 26.88455 18.25468
#
# Velocity S-wave (km/s) = 2.12412 3.55005 2.92530
# Velocity P-wave (km/s) = 4.75030 6.37417 5.62119
#
# Compressibility (1/GPa) = 0.02832569
#
# Stress axis : x y z
#
# Youngs Moduli (GPa) = 54.78764 53.24757 43.77091
#
# Poissons Ratio (x) = -0.26912 0.66913
# Poissons Ratio (y) = -0.27690 0.24264
# Poissons Ratio (z) = 0.83755 0.29518
#
# Static dielectric constant tensor:
#      x y z
#    x 1.742030 0.000000 -0.047540 
#    y 0.000000 1.784420 0.000000 
#    z -0.047540 0.000000 1.830530 
# 
# From -- ./inp_files/65216.got.cif
#   From: 2010.05.17/outbox.cif.g08.bks.cpg/sg11_33_cif.got.tgz:65216.got - 2010.06.03 12:22:45.
