data_PCOD9157438
_publ_section_title
;
Structure prediction by ZEFSAII (Michael W. Deem and Ramdas Pophale) SiO2 
 PCOD9157438
Probable space group: P 21/M
;
_chemical_formula_sum "Si O2"
_cell_formula_units_Z 28
_cell_length_a 12.957801
_cell_length_b 8.124270
_cell_length_c 15.657719
_cell_angle_alpha 90.000000
_cell_angle_beta 105.676587
_cell_angle_gamma 90.000000
_cell_volume 1587.015769
_symmetry_space_group_name_H-M "P 21/M"
_symmetry_group_IT_number 11
_symmetry_cell_setting 'monoclinic'
loop_
_space_group_symop_operation_xyz
x,y,z
-x,1/2+y,-z
-x,-y,-z
x,1/2-y,z
loop_
_atom_site_type_symbol
_atom_site_label
_atom_site_fract_x
_atom_site_fract_y
_atom_site_fract_z
Si Si1 0.394820 0.051305 0.785521
Si Si2 0.793782 0.448572 0.781017
Si Si3 0.631219 0.451089 0.894795
Si Si4 0.347863 0.948328 0.405013
Si Si5 0.748513 0.448567 0.092226
Si Si6 0.016384 0.553686 0.905869
Si Si7 0.585461 0.551776 0.401521
O O1 0.398045 0.250000 0.784624
O O2 0.511133 0.994196 0.845963
O O3 0.380862 0.993625 0.684761
O O4 0.303428 0.999048 0.830392
O O5 0.790735 0.250000 0.780586
O O6 0.714593 0.503151 0.839875
O O7 0.744156 0.506277 0.680087
O O8 0.914056 0.500152 0.828372
O O9 0.630580 0.250000 0.894204
O O10 0.674280 0.505746 0.996500
O O11 0.348916 0.750000 0.402753
O O12 0.463796 0.005457 0.394926
O O13 0.342572 0.000434 0.502177
O O14 0.750303 0.250000 0.089001
O O15 0.869541 0.509152 0.103575
O O16 0.021213 0.750000 0.906511
O O17 0.000000 0.500000 0.000000
O O18 0.582391 0.750000 0.398950
#
# Coordination Sequence:
#
# PCOD9157438 Si02
#       7
#     4   4   4   4   4   4   4
#     4  10  19  32  52  75 102 138 173 204 246 305
#     4  10  18  33  55  76 104 137 168 207 256 305
#     4   9  16  31  51  72 103 138 165 198 252 304
#     4   9  17  30  51  76 102 135 167 202 255 307
#     4  10  21  35  50  70 102 139 170 208 254 295
#     4  11  22  36  54  75 101 135 174 215 256 296
#     4   9  17  30  49  74 105 135 165 205 252 302
#
# _framework density 17.643176
#
# number of rings (size 3 to 8) (size 9 to 14) (size 15 to 20)
#    0.000    2.286    2.857    0.857    0.000    2.286 
#    0.000    0.714    0.000    0.857    0.000    0.000 
#    0.000    0.000    0.000    0.000    0.000    0.000 
#
# Total GULP energy -156204.967410 kJ/mol
# GULP energy per Si atom -5578.748836 kJ/mol
# Density = 1.760302 g / cm^3
# Si number density = 17.643176 Si / 1000 Ang^3
#
#
#
# Elastic Constant Matrix: (Units=GPa)
#
#
# Indices 1 2 3 4 5 6 
#
# 1 122.9123 9.6360 92.6511 0.0000 -12.8570 0.0000
# 2 9.6360 8.7798 14.7006 0.0000 -0.0800 0.0000
# 3 92.6511 14.7006 191.9362 0.0000 -4.5696 0.0000
# 4 0.0000 0.0000 0.0000 25.4315 0.0000 -0.0698
# 5 -12.8570 -0.0800 -4.5696 0.0000 25.5089 0.0000
# 6 0.0000 0.0000 0.0000 -0.0698 0.0000 20.8468
#
#
#
# Elastic Compliance Matrix: (Units=1/GPa)
#
#
# Indices 1 2 3 4 5 6 
#
# 1 0.013736 -0.004763 -0.006127 0.000000 0.005811 0.000000
# 2 -0.004763 0.132354 -0.007919 0.000000 -0.003404 0.000000
# 3 -0.006127 -0.007919 0.008738 0.000000 -0.001548 0.000000
# 4 0.000000 0.000000 0.000000 0.039322 0.000000 0.000132
# 5 0.005811 -0.003404 -0.001548 0.000000 0.041843 0.000000
# 6 0.000000 0.000000 0.000000 0.000132 0.000000 0.047969
#
#
# Mechanical properties :
#
#
# Convention : Reuss Voigt Hill
#
# Bulk Modulus (GPa) = 8.53181 61.95595 35.24388
# Shear Modulus (GPa) = 13.86390 28.13350 20.99870
#
# Velocity S-wave (km/s) = 2.80624 3.99755 3.45365
# Velocity P-wave (km/s) = 3.91743 7.51662 5.99357
#
# Compressibility (1/GPa) = 0.11720840
#
# Stress axis : x y z
#
# Youngs Moduli (GPa) = 72.80166 7.55552 114.44825
#
# Poissons Ratio (x) = 0.03599 0.70128
# Poissons Ratio (y) = 0.34674 0.90632
# Poissons Ratio (z) = 0.44609 0.05983
#
# Static dielectric constant tensor:
#      x y z
#    x 1.579440 0.000000 0.000200 
#    y 0.000000 1.632200 0.000000 
#    z 0.000200 0.000000 1.597610 
# 
# From -- ./inp_files/37494.got.cif
#   From: 2010.05.17/outbox.cif.g08.bks.cpg/sg11_19_cif.got.tgz:37494.got - 2010.06.03 12:22:45.
