data_PCOD9157597
_publ_section_title
;
Structure prediction by ZEFSAII (Michael W. Deem and Ramdas Pophale) SiO2 
 PCOD9157597
Probable space group: P 21/M
;
_chemical_formula_sum "Si O2"
_cell_formula_units_Z 20
_cell_length_a 9.852008
_cell_length_b 15.525420
_cell_length_c 11.453328
_cell_angle_alpha 90.000000
_cell_angle_beta 36.079555
_cell_angle_gamma 90.000000
_cell_volume 1031.685360
_symmetry_space_group_name_H-M "P 21/M"
_symmetry_group_IT_number 11
_symmetry_cell_setting 'monoclinic'
loop_
_space_group_symop_operation_xyz
x,y,z
-x,1/2+y,-z
-x,-y,-z
x,1/2-y,z
loop_
_atom_site_type_symbol
_atom_site_label
_atom_site_fract_x
_atom_site_fract_y
_atom_site_fract_z
Si Si1 0.307305 0.573515 0.314679
Si Si2 0.640827 0.845924 0.248027
Si Si3 0.499755 0.348645 0.389022
Si Si4 0.961681 0.568009 0.355722
Si Si5 0.755240 0.485550 0.057978
O O1 0.428317 0.648506 0.304469
O O2 0.139463 0.519352 0.516483
O O3 0.526052 0.510387 0.140767
O O4 0.166357 0.598092 0.298514
O O5 0.742638 0.750000 0.178312
O O6 0.538479 0.865236 0.446840
O O7 0.801755 0.924332 0.092813
O O8 0.571230 0.250000 0.323259
O O9 0.248838 0.365922 0.506764
O O10 0.670796 0.415285 0.209313
O O11 0.055387 0.547291 0.162392
#
# Coordination Sequence:
#
# PCOD9157597 Si02
#       5
#     4   4   4   4   4
#     4   8  19  34  55  78 106 138 171 218 266 314
#     4   9  19  37  54  74 111 143 172 217 265 314
#     4  10  21  36  52  79 109 138 179 221 260 311
#     4  10  18  34  58  80 102 138 178 219 262 316
#     4   9  19  34  60  74 108 140 178 212 267 311
#
# _framework density 19.385755
#
# number of rings (size 3 to 8) (size 9 to 14) (size 15 to 20)
#    1.200    1.600    0.000    1.200    0.000    2.400 
#    0.000    1.000    0.000    0.000    0.000    0.000 
#    0.000    0.000    0.000    0.000    0.000    0.000 
#
# Total GULP energy -111390.230343 kJ/mol
# GULP energy per Si atom -5569.511517 kJ/mol
# Density = 1.934163 g / cm^3
# Si number density = 19.385755 Si / 1000 Ang^3
#
#
#
# Elastic Constant Matrix: (Units=GPa)
#
#
# Indices 1 2 3 4 5 6 
#
# 1 81.4311 12.8659 10.6034 0.0000 4.9578 0.0000
# 2 12.8659 76.9669 27.8175 0.0000 11.2381 0.0000
# 3 10.6034 27.8175 59.4193 0.0000 4.0065 0.0000
# 4 0.0000 0.0000 0.0000 -9.1589 0.0000 5.0247
# 5 4.9578 11.2381 4.0065 0.0000 26.2085 0.0000
# 6 0.0000 0.0000 0.0000 5.0247 0.0000 14.4014
#
#
#
# Elastic Compliance Matrix: (Units=1/GPa)
#
#
# Indices 1 2 3 4 5 6 
#
# 1 0.012792 -0.001345 -0.001544 0.000000 -0.001607 0.000000
# 2 -0.001345 0.016653 -0.007166 0.000000 -0.005791 0.000000
# 3 -0.001544 -0.007166 0.020444 0.000000 0.000239 0.000000
# 4 0.000000 0.000000 0.000000 -0.091641 0.000000 0.031974
# 5 -0.001607 -0.005791 0.000239 0.000000 0.040906 0.000000
# 6 0.000000 0.000000 0.000000 0.031974 0.000000 0.058282
#
#
# Mechanical properties :
#
#
# Convention : Reuss Voigt Hill
#
# Bulk Modulus (GPa) = 33.58269 35.59898 34.59083
# Shear Modulus (GPa) = 57.16161 17.39223 37.27692
#
# Velocity S-wave (km/s) = 5.43603 2.99852 4.38985
# Velocity P-wave (km/s) = 7.53403 5.51285 6.60125
#
# Compressibility (1/GPa) = 0.02977724
#
# Stress axis : x y z
#
# Youngs Moduli (GPa) = 78.17488 60.05000 48.91503
#
# Poissons Ratio (x) = 0.08080 0.07555
# Poissons Ratio (y) = 0.10518 0.35050
# Poissons Ratio (z) = 0.12074 0.43029
#
# Static dielectric constant tensor:
#      x y z
#    x 1.728370 0.000000 -0.022730 
#    y 0.000000 1.656230 0.000000 
#    z -0.022730 0.000000 1.637430 
# 
# From -- ./inp_files/4350.got.cif
#   From: 2010.05.17/outbox.cif.g08.bks.cpg/sg11_3_cif.got.tgz:4350.got - 2010.06.03 12:22:45.
