data_PCOD9157132
_publ_section_title
;
Structure prediction by ZEFSAII (Michael W. Deem and Ramdas Pophale) SiO2 
 PCOD9157132
Probable space group: P 21/M
;
_chemical_formula_sum "Si O2"
_cell_formula_units_Z 32
_cell_length_a 11.255725
_cell_length_b 14.434056
_cell_length_c 9.629263
_cell_angle_alpha 90.000000
_cell_angle_beta 102.703189
_cell_angle_gamma 90.000000
_cell_volume 1526.132049
_symmetry_space_group_name_H-M "P 21/M"
_symmetry_group_IT_number 11
_symmetry_cell_setting 'monoclinic'
loop_
_space_group_symop_operation_xyz
x,y,z
-x,1/2+y,-z
-x,-y,-z
x,1/2-y,z
loop_
_atom_site_type_symbol
_atom_site_label
_atom_site_fract_x
_atom_site_fract_y
_atom_site_fract_z
Si Si1 0.623097 0.863613 0.056664
Si Si2 0.543144 0.137446 0.226782
Si Si3 0.772060 0.138709 0.099411
Si Si4 0.891356 0.644809 0.140163
Si Si5 0.077078 0.532144 0.384102
Si Si6 0.604221 0.362750 0.816796
Si Si7 0.327450 0.862847 0.472533
Si Si8 0.036558 0.422491 0.123757
O O1 0.628431 0.750000 0.058241
O O2 0.571845 0.893911 0.893161
O O3 0.757325 0.898350 0.124156
O O4 0.520280 0.892077 0.140696
O O5 0.537348 0.250000 0.221993
O O6 0.666585 0.110431 0.177602
O O7 0.570274 0.109916 0.389645
O O8 0.774022 0.250000 0.101866
O O9 0.908115 0.107164 0.156684
O O10 0.721325 0.108098 0.936614
O O11 0.890793 0.750000 0.189769
O O12 0.990474 0.593895 0.260897
O O13 0.910809 0.647372 0.977446
O O14 0.197078 0.588270 0.460581
O O15 0.000000 0.500000 0.500000
O O16 0.113063 0.453253 0.278123
O O17 0.602130 0.250000 0.821362
O O18 0.623292 0.389600 0.665092
O O19 0.310702 0.750000 0.474374
O O20 0.000000 0.500000 0.000000
#
# Coordination Sequence:
#
# PCOD9157132 Si02
#       8
#     4   4   4   4   4   4   4   4
#     4   8  15  30  52  79 105 129 167 220 272 314
#     4   8  15  27  48  76 100 124 161 218 268 297
#     4   9  15  27  47  69  94 126 172 218 253 298
#     4  10  20  37  60  81 105 141 184 221 259 323
#     4  11  23  37  53  77 116 151 174 217 280 331
#     4   8  14  25  47  77 102 126 165 223 272 304
#     4  10  18  31  54  79 101 133 182 225 260 313
#     4  10  20  32  50  74 104 141 178 218 263 310
#
# _framework density 20.968039999999998
#
# number of rings (size 3 to 8) (size 9 to 14) (size 15 to 20)
#    0.000    2.750    0.000    4.500    0.000    1.000 
#    0.000    3.125    0.000   31.500    0.000    0.000 
#    0.000    0.000    0.000    0.000    0.000    0.000 
#
# Total GULP energy -178350.952941 kJ/mol
# GULP energy per Si atom -5573.467279 kJ/mol
# Density = 2.092032 g / cm^3
# Si number density = 20.968040 Si / 1000 Ang^3
#
#
#
# Elastic Constant Matrix: (Units=GPa)
#
#
# Indices 1 2 3 4 5 6 
#
# 1 58.9104 2.8884 -5.9588 0.0000 16.0986 0.0000
# 2 2.8884 38.1491 7.1063 0.0000 2.8487 0.0000
# 3 -5.9588 7.1063 100.9453 0.0000 2.4476 0.0000
# 4 0.0000 0.0000 0.0000 14.9294 0.0000 -2.5797
# 5 16.0986 2.8487 2.4476 0.0000 17.4098 0.0000
# 6 0.0000 0.0000 0.0000 -2.5797 0.0000 12.5523
#
#
#
# Elastic Compliance Matrix: (Units=1/GPa)
#
#
# Indices 1 2 3 4 5 6 
#
# 1 0.023076 -0.000497 0.001919 0.000000 -0.021527 0.000000
# 2 -0.000497 0.026866 -0.001831 0.000000 -0.003679 0.000000
# 3 0.001919 -0.001831 0.010219 0.000000 -0.002912 0.000000
# 4 0.000000 0.000000 0.000000 0.069448 0.000000 0.014273
# 5 -0.021527 -0.003679 -0.002912 0.000000 0.078356 0.000000
# 6 0.000000 0.000000 0.000000 0.014273 0.000000 0.082600
#
#
# Mechanical properties :
#
#
# Convention : Reuss Voigt Hill
#
# Bulk Modulus (GPa) = 16.85131 22.89740 19.87436
# Shear Modulus (GPa) = 16.06862 21.90955 18.98909
#
# Velocity S-wave (km/s) = 2.77129 3.23600 3.01262
# Velocity P-wave (km/s) = 4.27717 4.99060 4.64759
#
# Compressibility (1/GPa) = 0.05934255
#
# Stress axis : x y z
#
# Youngs Moduli (GPa) = 43.33489 37.22113 97.85531
#
# Poissons Ratio (x) = 0.01851 -0.18780
# Poissons Ratio (y) = 0.02155 0.17922
# Poissons Ratio (z) = -0.08317 0.06817
#
# Static dielectric constant tensor:
#      x y z
#    x 1.756300 0.000000 -0.021810 
#    y 0.000000 1.729890 0.000000 
#    z -0.021810 0.000000 1.775970 
# 
# From -- ./inp_files/18638.got.cif
#   From: 2010.05.17/outbox.cif.g08.bks.cpg/sg11_10_cif.got.tgz:18638.got - 2010.06.03 12:22:45.
