data_PCOD9157502
_publ_section_title
;
Structure prediction by ZEFSAII (Michael W. Deem and Ramdas Pophale) SiO2 
 PCOD9157502
Probable space group: P 21/M
;
_chemical_formula_sum "Si O2"
_cell_formula_units_Z 26
_cell_length_a 15.724940
_cell_length_b 14.680373
_cell_length_c 8.143509
_cell_angle_alpha 90.000000
_cell_angle_beta 149.004440
_cell_angle_gamma 90.000000
_cell_volume 968.101713
_symmetry_space_group_name_H-M "P 21/M"
_symmetry_group_IT_number 11
_symmetry_cell_setting 'monoclinic'
loop_
_space_group_symop_operation_xyz
x,y,z
-x,1/2+y,-z
-x,-y,-z
x,1/2-y,z
loop_
_atom_site_type_symbol
_atom_site_label
_atom_site_fract_x
_atom_site_fract_y
_atom_site_fract_z
Si Si1 0.594557 0.644503 0.823617
Si Si2 0.241614 0.152577 0.545464
Si Si3 0.094517 0.090470 0.881953
Si Si4 0.909345 0.250000 0.769338
Si Si5 0.532388 0.974540 0.242057
Si Si6 0.777232 0.146637 0.167961
Si Si7 0.860272 0.116607 0.942792
O O1 0.546363 0.750000 0.714889
O O2 0.681657 0.639845 0.146835
O O3 0.734065 0.615996 0.923534
O O4 0.465630 0.560417 0.631518
O O5 0.304523 0.250000 0.590264
O O6 0.300734 0.080871 0.509598
O O7 0.047704 0.155859 0.252620
O O8 0.030105 0.170219 0.892005
O O9 0.941912 0.093872 0.497120
O O10 0.105955 0.990255 0.977560
O O11 0.796921 0.167814 0.674184
O O12 0.384441 0.907862 0.047884
O O13 0.500000 0.000000 0.000000
O O14 0.781321 0.250000 0.249516
O O15 0.778911 0.151048 0.975470
#
# Coordination Sequence:
#
# PCOD9157502 Si02
#       7
#     4   4   4   2   4   4   4
#     4  10  18  33  58  88 122 161 197 250 314 362
#     4  10  19  36  60  92 128 156 199 254 313 373
#     4  12  22  39  63  96 127 157 208 264 315 364
#     4  12  26  40  58  94 130 166 208 252 314 378
#     4  10  21  34  56 100 124 156 201 260 318 363
#     4  12  21  38  67  99 125 157 204 265 317 366
#     4  12  23  40  65  96 124 164 208 259 316 372
#
# _framework density 26.856683
#
# number of rings (size 3 to 8) (size 9 to 14) (size 15 to 20)
#    0.000    0.923    6.154    3.231    0.000    0.615 
#    0.000    0.000    0.000    0.923   20.000    0.000 
#    0.000    0.000    0.000    0.000    0.000    0.000 
#
# Total GULP energy -145187.555503 kJ/mol
# GULP energy per Si atom -5584.136750 kJ/mol
# Density = 2.679556 g / cm^3
# Si number density = 26.856683 Si / 1000 Ang^3
#
#
#
# Elastic Constant Matrix: (Units=GPa)
#
#
# Indices 1 2 3 4 5 6 
#
# 1 181.0441 95.1686 11.4987 0.0000 38.9541 0.0000
# 2 95.1686 265.7949 22.5003 0.0000 15.6510 0.0000
# 3 11.4987 22.5003 45.5074 0.0000 -4.3902 0.0000
# 4 0.0000 0.0000 0.0000 46.6672 0.0000 7.0112
# 5 38.9541 15.6510 -4.3902 0.0000 29.2409 0.0000
# 6 0.0000 0.0000 0.0000 7.0112 0.0000 68.9083
#
#
#
# Elastic Compliance Matrix: (Units=1/GPa)
#
#
# Indices 1 2 3 4 5 6 
#
# 1 0.009501 -0.002523 -0.002277 0.000000 -0.011648 0.000000
# 2 -0.002523 0.004774 -0.001669 0.000000 0.000555 0.000000
# 3 -0.002277 -0.001669 0.024103 0.000000 0.007546 0.000000
# 4 0.000000 0.000000 0.000000 0.021761 0.000000 -0.002214
# 5 -0.011648 0.000555 0.007546 0.000000 0.050552 0.000000
# 6 0.000000 0.000000 0.000000 -0.002214 0.000000 0.014737
#
#
# Mechanical properties :
#
#
# Convention : Reuss Voigt Hill
#
# Bulk Modulus (GPa) = 39.30923 83.40905 61.35914
# Shear Modulus (GPa) = 34.04914 53.17519 43.61216
#
# Velocity S-wave (km/s) = 3.56449 4.45450 4.03412
# Velocity P-wave (km/s) = 5.62221 7.58823 6.67797
#
# Compressibility (1/GPa) = 0.02543932
#
# Stress axis : x y z
#
# Youngs Moduli (GPa) = 105.25600 209.45266 41.48836
#
# Poissons Ratio (x) = 0.52848 0.09446
# Poissons Ratio (y) = 0.26557 0.06926
# Poissons Ratio (z) = 0.23965 0.34968
#
# Static dielectric constant tensor:
#      x y z
#    x 2.082530 0.000000 -0.168000 
#    y 0.000000 2.143190 0.000000 
#    z -0.168000 0.000000 2.454410 
# 
# From -- ./inp_files/22393.got.cif
#   From: 2010.05.17/outbox.cif.g08.bks.cpg/sg11_12_cif.got.tgz:22393.got - 2010.06.03 12:22:45.
