data_PCOD9157929
_publ_section_title
;
Structure prediction by ZEFSAII (Michael W. Deem and Ramdas Pophale) SiO2 
 PCOD9157929
Probable space group: P 21/M
;
_chemical_formula_sum "Si O2"
_cell_formula_units_Z 32
_cell_length_a 31.594078
_cell_length_b 8.891818
_cell_length_c 16.570017
_cell_angle_alpha 90.000000
_cell_angle_beta 29.373116
_cell_angle_gamma 90.000000
_cell_volume 2283.251297
_symmetry_space_group_name_H-M "P 21/M"
_symmetry_group_IT_number 11
_symmetry_cell_setting 'monoclinic'
loop_
_space_group_symop_operation_xyz
x,y,z
-x,1/2+y,-z
-x,-y,-z
x,1/2-y,z
loop_
_atom_site_type_symbol
_atom_site_label
_atom_site_fract_x
_atom_site_fract_y
_atom_site_fract_z
Si Si1 0.531355 0.430487 0.069638
Si Si2 0.011444 0.069376 0.891868
Si Si3 0.638343 0.570694 0.750696
Si Si4 0.331890 0.069610 0.657166
Si Si5 0.178487 0.569820 0.810751
Si Si6 0.811533 0.430296 0.395226
Si Si7 0.480217 0.931181 0.724668
Si Si8 0.586354 0.569740 0.317513
O O1 0.543254 0.250000 0.043108
O O2 0.436693 0.464566 0.190200
O O3 0.535425 0.472553 0.156633
O O4 0.600294 0.512824 0.898623
O O5 0.017829 0.250000 0.886153
O O6 0.101122 0.000556 0.712802
O O7 0.920323 0.031185 0.001118
O O8 0.000000 0.000000 0.000000
O O9 0.650250 0.750000 0.732244
O O10 0.726431 0.490467 0.579806
O O11 0.327163 0.250000 0.658993
O O12 0.422253 0.024001 0.463897
O O13 0.340782 0.030597 0.737441
O O14 0.250727 0.000492 0.747079
O O15 0.185970 0.750000 0.801030
O O16 0.192107 0.525131 0.694011
O O17 0.816497 0.250000 0.390359
O O18 0.475771 0.750000 0.724706
O O19 0.413444 0.003751 0.772576
O O20 0.500000 0.500000 0.500000
O O21 0.579283 0.750000 0.326544
#
# Coordination Sequence:
#
# PCOD9157929 Si02
#       8
#     4   4   4   4   4   4   4   4
#     4   9  18  31  44  60  84 110 139 175 210 245
#     4   9  17  29  42  59  82 107 137 171 205 243
#     4  10  19  30  44  61  82 110 141 174 210 243
#     4   9  17  27  40  59  83 109 137 168 203 243
#     4   9  18  28  40  60  83 107 137 170 202 240
#     4  10  19  30  43  60  82 110 142 173 207 245
#     4   9  17  29  43  59  80 109 141 171 206 243
#     4   9  17  28  40  57  80 106 137 171 204 241
#
# _framework density 14.015102000000001
#
# number of rings (size 3 to 8) (size 9 to 14) (size 15 to 20)
#    0.000    2.750    0.000    3.750    0.000    7.500 
#    0.000    0.000    0.000    0.000    0.000    0.000 
#    0.000    1.000    0.000    3.250    0.000    4.750 
#
# Total GULP energy -178195.377216 kJ/mol
# GULP energy per Si atom -5568.605538 kJ/mol
# Density = 1.398320 g / cm^3
# Si number density = 14.015102 Si / 1000 Ang^3
#
#
#
# Elastic Constant Matrix: (Units=GPa)
#
#
# Indices 1 2 3 4 5 6 
#
# 1 116.8527 38.5405 54.8273 0.0000 -1.7577 0.0000
# 2 38.5405 36.1145 37.0887 0.0000 -3.6606 0.0000
# 3 54.8273 37.0887 90.5730 0.0000 -9.6656 0.0000
# 4 0.0000 0.0000 0.0000 21.9511 0.0000 -2.1023
# 5 -1.7577 -3.6606 -9.6656 0.0000 24.2375 0.0000
# 6 0.0000 0.0000 0.0000 -2.1023 0.0000 25.4001
#
#
#
# Elastic Compliance Matrix: (Units=1/GPa)
#
#
# Indices 1 2 3 4 5 6 
#
# 1 0.014154 -0.010849 -0.004377 0.000000 -0.002358 0.000000
# 2 -0.010849 0.056109 -0.016281 0.000000 0.001195 0.000000
# 3 -0.004377 -0.016281 0.020953 0.000000 0.005579 0.000000
# 4 0.000000 0.000000 0.000000 0.045920 0.000000 0.003801
# 5 -0.002358 0.001195 0.005579 0.000000 0.043493 0.000000
# 6 0.000000 0.000000 0.000000 0.003801 0.000000 0.039684
#
#
# Mechanical properties :
#
#
# Convention : Reuss Voigt Hill
#
# Bulk Modulus (GPa) = 35.45924 56.05034 45.75479
# Shear Modulus (GPa) = 17.08067 21.85664 19.46866
#
# Velocity S-wave (km/s) = 3.49482 3.95334 3.73113
# Velocity P-wave (km/s) = 6.45296 7.80501 7.16097
#
# Compressibility (1/GPa) = 0.02820140
#
# Stress axis : x y z
#
# Youngs Moduli (GPa) = 70.65011 17.82252 47.72574
#
# Poissons Ratio (x) = 0.19335 0.20891
# Poissons Ratio (y) = 0.76646 0.77704
# Poissons Ratio (z) = 0.30926 0.29018
#
# Static dielectric constant tensor:
#      x y z
#    x 1.470830 0.000000 -0.002520 
#    y 0.000000 1.463670 0.000000 
#    z -0.002520 0.000000 1.456140 
# 
# From -- ./inp_files/56469.got.cif
#   From: 2010.05.17/outbox.cif.g08.bks.cpg/sg11_29_cif.got.tgz:56469.got - 2010.06.03 12:22:45.
