data_PCOD9157106
_publ_section_title
;
Structure prediction by ZEFSAII (Michael W. Deem and Ramdas Pophale) SiO2 
 PCOD9157106
Probable space group: P 21/M
;
_chemical_formula_sum "Si O2"
_cell_formula_units_Z 32
_cell_length_a 19.793842
_cell_length_b 9.246180
_cell_length_c 10.979770
_cell_angle_alpha 90.000000
_cell_angle_beta 59.190583
_cell_angle_gamma 90.000000
_cell_volume 1725.901535
_symmetry_space_group_name_H-M "P 21/M"
_symmetry_group_IT_number 11
_symmetry_cell_setting 'monoclinic'
loop_
_space_group_symop_operation_xyz
x,y,z
-x,1/2+y,-z
-x,-y,-z
x,1/2-y,z
loop_
_atom_site_type_symbol
_atom_site_label
_atom_site_fract_x
_atom_site_fract_y
_atom_site_fract_z
Si Si1 0.340898 0.583693 0.195322
Si Si2 0.764214 0.077370 0.933004
Si Si3 0.529349 0.918297 0.789760
Si Si4 0.364053 0.419170 0.551627
Si Si5 0.082345 0.078172 0.570310
Si Si6 0.383829 0.921691 0.775644
Si Si7 0.918107 0.921396 0.720150
Si Si8 0.231673 0.582345 0.537472
O O1 0.359502 0.750000 0.148472
O O2 0.287779 0.526382 0.134621
O O3 0.420956 0.503974 0.156516
O O4 0.285310 0.580036 0.365795
O O5 0.779648 0.250000 0.903724
O O6 0.845019 0.990974 0.858215
O O7 0.706177 0.058138 0.100295
O O8 0.527777 0.750000 0.825322
O O9 0.578000 0.931614 0.617691
O O10 0.442056 0.965747 0.831920
O O11 0.348875 0.250000 0.585291
O O12 0.399640 0.491006 0.638894
O O13 0.284450 0.503202 0.589440
O O14 0.079819 0.250000 0.595099
O O15 0.096278 0.056978 0.412015
O O16 0.152219 0.002139 0.579269
O O17 0.999115 0.003077 0.675033
O O18 0.397501 0.750000 0.743418
O O19 0.925123 0.750000 0.734960
O O20 0.216868 0.750000 0.581927
#
# Coordination Sequence:
#
# PCOD9157106 Si02
#       8
#     4   4   4   4   4   4   4   4
#     4   9  18  31  49  74 103 136 170 208 258 310
#     4  10  20  35  52  72 105 142 175 212 255 309
#     4   9  19  34  52  75 102 132 170 221 268 306
#     4  10  20  34  53  76 103 133 173 223 266 305
#     4  10  19  31  51  79 109 137 169 209 254 301
#     4  10  21  36  53  73 100 138 179 217 261 310
#     4  10  20  32  50  77 108 140 172 208 250 303
#     4  10  18  31  53  78 106 136 170 212 258 308
#
# _framework density 18.541034
#
# number of rings (size 3 to 8) (size 9 to 14) (size 15 to 20)
#    0.000    2.250    1.250    1.875    0.000    4.000 
#    0.000    0.000    0.000    0.750    0.000    0.000 
#    0.000    0.000    0.000    0.000    0.000    0.000 
#
# Total GULP energy -178638.310655 kJ/mol
# GULP energy per Si atom -5582.447208 kJ/mol
# Density = 1.849883 g / cm^3
# Si number density = 18.541034 Si / 1000 Ang^3
#
#
#
# Elastic Constant Matrix: (Units=GPa)
#
#
# Indices 1 2 3 4 5 6 
#
# 1 86.0918 40.8099 17.3327 0.0000 -28.2198 0.0000
# 2 40.8099 76.1174 24.8025 0.0000 -20.0846 0.0000
# 3 17.3327 24.8025 33.6294 0.0000 -16.4768 0.0000
# 4 0.0000 0.0000 0.0000 15.4134 0.0000 -4.1001
# 5 -28.2198 -20.0846 -16.4768 0.0000 32.7729 0.0000
# 6 0.0000 0.0000 0.0000 -4.1001 0.0000 37.2170
#
#
#
# Elastic Compliance Matrix: (Units=1/GPa)
#
#
# Indices 1 2 3 4 5 6 
#
# 1 0.018907 -0.007419 0.001958 0.000000 0.012718 0.000000
# 2 -0.007419 0.021002 -0.011264 0.000000 0.000819 0.000000
# 3 0.001958 -0.011264 0.045747 0.000000 0.017783 0.000000
# 4 0.000000 0.000000 0.000000 0.066837 0.000000 0.007363
# 5 0.012718 0.000819 0.017783 0.000000 0.050907 0.000000
# 6 0.000000 0.000000 0.000000 0.007363 0.000000 0.027681
#
#
# Mechanical properties :
#
#
# Convention : Reuss Voigt Hill
#
# Bulk Modulus (GPa) = 19.15502 40.19208 29.67355
# Shear Modulus (GPa) = 17.73478 24.60688 21.17083
#
# Velocity S-wave (km/s) = 3.09611 3.64697 3.38277
# Velocity P-wave (km/s) = 4.80987 6.28158 5.59433
#
# Compressibility (1/GPa) = 0.05220563
#
# Stress axis : x y z
#
# Youngs Moduli (GPa) = 52.89077 47.61484 21.85951
#
# Poissons Ratio (x) = 0.35326 -0.04281
# Poissons Ratio (y) = 0.39240 0.24623
# Poissons Ratio (z) = -0.10358 0.53634
#
# Static dielectric constant tensor:
#      x y z
#    x 1.620960 0.000000 -0.007850 
#    y 0.000000 1.618350 0.000000 
#    z -0.007850 0.000000 1.650950 
# 
# From -- ./inp_files/38197.got.cif
#   From: 2010.05.17/outbox.cif.g08.bks.cpg/sg11_20_cif.got.tgz:38197.got - 2010.06.03 12:22:45.
