data_PCOD9157637
_publ_section_title
;
Structure prediction by ZEFSAII (Michael W. Deem and Ramdas Pophale) SiO2 
 PCOD9157637
Probable space group: P 21/M
;
_chemical_formula_sum "Si O2"
_cell_formula_units_Z 28
_cell_length_a 20.947124
_cell_length_b 8.843410
_cell_length_c 7.366890
_cell_angle_alpha 90.000000
_cell_angle_beta 94.801372
_cell_angle_gamma 90.000000
_cell_volume 1359.883382
_symmetry_space_group_name_H-M "P 21/M"
_symmetry_group_IT_number 11
_symmetry_cell_setting 'monoclinic'
loop_
_space_group_symop_operation_xyz
x,y,z
-x,1/2+y,-z
-x,-y,-z
x,1/2-y,z
loop_
_atom_site_type_symbol
_atom_site_label
_atom_site_fract_x
_atom_site_fract_y
_atom_site_fract_z
Si Si1 0.045708 0.927598 0.240673
Si Si2 0.351431 0.571959 0.599855
Si Si3 0.089819 0.931354 0.866205
Si Si4 0.564656 0.930044 0.092559
Si Si5 0.260807 0.071578 0.302233
Si Si6 0.308142 0.572075 0.974915
Si Si7 0.842156 0.428661 0.457560
O O1 0.029756 0.750000 0.210733
O O2 0.088622 0.939930 0.428080
O O3 0.088347 0.976936 0.076550
O O4 0.980108 0.019095 0.221422
O O5 0.359698 0.750000 0.568574
O O6 0.324759 0.487931 0.419411
O O7 0.414394 0.499895 0.707244
O O8 0.299787 0.555521 0.755030
O O9 0.094815 0.750000 0.860367
O O10 0.144882 0.986579 0.743067
O O11 0.561291 0.750000 0.100926
O O12 0.624683 0.983652 0.983351
O O13 0.500000 0.000000 0.000000
O O14 0.261499 0.250000 0.282479
O O15 0.258126 0.993210 0.104894
O O16 0.205325 0.018307 0.424446
O O17 0.316293 0.750000 0.010402
O O18 0.823701 0.250000 0.453605
#
# Coordination Sequence:
#
# PCOD9157637 Si02
#       7
#     4   4   4   4   4   4   4
#     4   9  18  33  53  76 102 134 173 222 278 332
#     4   9  20  38  60  82 111 152 191 231 282 336
#     4   9  18  33  53  76 102 134 173 222 278 332
#     4  10  18  34  60  90 120 150 189 232 281 334
#     4  12  24  37  56  83 115 150 191 240 288 338
#     4   9  20  38  60  82 111 152 191 231 282 336
#     4  10  21  35  51  73 105 142 183 224 269 336
#
# _framework density 20.590001999999998
#
# number of rings (size 3 to 8) (size 9 to 14) (size 15 to 20)
#    0.857    1.429    0.000    3.429    0.000    2.286 
#    0.000    3.571    0.000    0.000    0.000    0.000 
#    0.000    0.000    0.000    0.000    0.000    0.000 
#
# Total GULP energy -156127.360294 kJ/mol
# GULP energy per Si atom -5575.977153 kJ/mol
# Density = 2.054314 g / cm^3
# Si number density = 20.590002 Si / 1000 Ang^3
#
#
#
# Elastic Constant Matrix: (Units=GPa)
#
#
# Indices 1 2 3 4 5 6 
#
# 1 27.7284 -4.6173 2.6341 0.0000 -2.7446 0.0000
# 2 -4.6173 68.4740 20.2625 0.0000 -4.9635 0.0000
# 3 2.6341 20.2625 64.9219 0.0000 -2.9185 0.0000
# 4 0.0000 0.0000 0.0000 22.9386 0.0000 -1.0682
# 5 -2.7446 -4.9635 -2.9185 0.0000 26.9068 0.0000
# 6 0.0000 0.0000 0.0000 -1.0682 0.0000 31.3380
#
#
#
# Elastic Compliance Matrix: (Units=1/GPa)
#
#
# Indices 1 2 3 4 5 6 
#
# 1 0.037299 0.003538 -0.002429 0.000000 0.004194 0.000000
# 2 0.003538 0.016586 -0.005192 0.000000 0.002857 0.000000
# 3 -0.002429 -0.005192 0.017151 0.000000 0.000655 0.000000
# 4 0.000000 0.000000 0.000000 0.043664 0.000000 0.001488
# 5 0.004194 0.002857 0.000655 0.000000 0.038191 0.000000
# 6 0.000000 0.000000 0.000000 0.001488 0.000000 0.031961
#
#
# Mechanical properties :
#
#
# Convention : Reuss Voigt Hill
#
# Bulk Modulus (GPa) = 15.90558 21.96478 18.93518
# Shear Modulus (GPa) = 23.36716 25.75968 24.56342
#
# Velocity S-wave (km/s) = 3.37245 3.54089 3.45770
# Velocity P-wave (km/s) = 4.78605 5.23527 5.01569
#
# Compressibility (1/GPa) = 0.06287101
#
# Stress axis : x y z
#
# Youngs Moduli (GPa) = 26.81028 60.29152 58.30396
#
# Poissons Ratio (x) = -0.21331 0.14162
# Poissons Ratio (y) = -0.09485 0.30270
# Poissons Ratio (z) = 0.06512 0.31302
#
# Static dielectric constant tensor:
#      x y z
#    x 1.761730 0.000000 -0.017090 
#    y 0.000000 1.677070 0.000000 
#    z -0.017090 0.000000 1.770480 
# 
# From -- ./inp_files/25569.got.cif
#   From: 2010.05.17/outbox.cif.g08.bks.cpg/sg11_13_cif.got.tgz:25569.got - 2010.06.03 12:22:45.
