data_PCOD9157350
_publ_section_title
;
Structure prediction by ZEFSAII (Michael W. Deem and Ramdas Pophale) SiO2 
 PCOD9157350
Probable space group: P 21/M
;
_chemical_formula_sum "Si O2"
_cell_formula_units_Z 32
_cell_length_a 21.117907
_cell_length_b 8.703529
_cell_length_c 25.985866
_cell_angle_alpha 90.000000
_cell_angle_beta 157.589929
_cell_angle_gamma 90.000000
_cell_volume 1820.848439
_symmetry_space_group_name_H-M "P 21/M"
_symmetry_group_IT_number 11
_symmetry_cell_setting 'monoclinic'
loop_
_space_group_symop_operation_xyz
x,y,z
-x,1/2+y,-z
-x,-y,-z
x,1/2-y,z
loop_
_atom_site_type_symbol
_atom_site_label
_atom_site_fract_x
_atom_site_fract_y
_atom_site_fract_z
Si Si1 0.506720 0.064918 0.339280
Si Si2 0.837568 0.065997 0.642335
Si Si3 0.326546 0.066108 0.637341
Si Si4 0.400505 0.936787 0.079030
Si Si5 0.997787 0.066513 0.651995
Si Si6 0.873287 0.566290 0.946225
Si Si7 0.643420 0.065584 0.071753
Si Si8 0.081631 0.566201 0.906504
O O1 0.516292 0.250000 0.338459
O O2 0.645687 0.026829 0.486334
O O3 0.318047 0.023269 0.210050
O O4 0.564142 0.984357 0.329827
O O5 0.850235 0.250000 0.658643
O O6 0.936524 0.025326 0.664001
O O7 0.922097 0.983253 0.753602
O O8 0.310099 0.250000 0.625105
O O9 0.430091 0.016691 0.765269
O O10 0.147123 0.991205 0.494547
O O11 0.397221 0.750000 0.076395
O O12 0.384055 0.987724 0.007947
O O13 0.243081 0.986692 0.995020
O O14 0.009541 0.250000 0.658270
O O15 0.175130 0.991682 0.775221
O O16 0.883408 0.750000 0.953637
O O17 0.913338 0.505603 0.033307
O O18 0.000000 0.500000 0.000000
O O19 0.639080 0.250000 0.069363
O O20 0.500000 0.000000 0.000000
O O21 0.088301 0.750000 0.915943
#
# Coordination Sequence:
#
# PCOD9157350 Si02
#       8
#     4   4   4   4   4   4   4   4
#     4   9  19  35  54  80 113 145 181 228 279 327
#     4   9  18  33  54  82 112 141 179 228 277 325
#     4  10  18  32  56  84 110 142 181 228 278 328
#     4   9  19  34  55  83 114 142 182 233 277 326
#     4  10  20  35  54  82 115 148 184 229 278 329
#     4  11  23  39  58  82 114 152 187 230 281 336
#     4  11  22  39  58  82 114 151 189 231 283 338
#     4  11  20  35  57  85 113 144 186 232 277 327
#
# _framework density 17.574225999999999
#
# number of rings (size 3 to 8) (size 9 to 14) (size 15 to 20)
#    0.000    2.000    2.500    2.625    0.000    2.500 
#    0.000    3.750    0.000    0.000    0.000    0.000 
#    0.000    0.000    0.000    0.000    0.000    0.000 
#
# Total GULP energy -178614.739528 kJ/mol
# GULP energy per Si atom -5581.710610 kJ/mol
# Density = 1.753423 g / cm^3
# Si number density = 17.574226 Si / 1000 Ang^3
#
#
#
# Elastic Constant Matrix: (Units=GPa)
#
#
# Indices 1 2 3 4 5 6 
#
# 1 91.8668 26.0092 63.0983 0.0000 3.5042 0.0000
# 2 26.0092 38.8957 40.8033 0.0000 5.3401 0.0000
# 3 63.0983 40.8033 155.0585 0.0000 1.8337 0.0000
# 4 0.0000 0.0000 0.0000 27.6948 0.0000 1.4617
# 5 3.5042 5.3401 1.8337 0.0000 25.2635 0.0000
# 6 0.0000 0.0000 0.0000 1.4617 0.0000 26.4685
#
#
#
# Elastic Compliance Matrix: (Units=1/GPa)
#
#
# Indices 1 2 3 4 5 6 
#
# 1 0.015874 -0.005175 -0.005089 0.000000 -0.000739 0.000000
# 2 -0.005175 0.038420 -0.007924 0.000000 -0.006828 0.000000
# 3 -0.005089 -0.007924 0.010586 0.000000 0.001612 0.000000
# 4 0.000000 0.000000 0.000000 0.036213 0.000000 -0.002000
# 5 -0.000739 -0.006828 0.001612 0.000000 0.041012 0.000000
# 6 0.000000 0.000000 0.000000 -0.002000 0.000000 0.037891
#
#
# Mechanical properties :
#
#
# Convention : Reuss Voigt Hill
#
# Bulk Modulus (GPa) = 35.08157 60.62698 47.85428
# Shear Modulus (GPa) = 22.13638 26.27936 24.20787
#
# Velocity S-wave (km/s) = 3.55293 3.87115 3.71545
# Velocity P-wave (km/s) = 6.06929 7.38604 6.75981
#
# Compressibility (1/GPa) = 0.02850500
#
# Stress axis : x y z
#
# Youngs Moduli (GPa) = 62.99588 26.02836 94.46293
#
# Poissons Ratio (x) = 0.13469 0.48075
# Poissons Ratio (y) = 0.32598 0.74849
# Poissons Ratio (z) = 0.32060 0.20624
#
# Static dielectric constant tensor:
#      x y z
#    x 1.566780 0.000000 -0.004870 
#    y 0.000000 1.588620 0.000000 
#    z -0.004870 0.000000 1.607150 
# 
# From -- ./inp_files/67124.got.cif
#   From: 2010.05.17/outbox.cif.g08.bks.cpg/sg11_34_cif.got.tgz:67124.got - 2010.06.03 12:22:45.
