data_PCOD9157778
_publ_section_title
;
Structure prediction by ZEFSAII (Michael W. Deem and Ramdas Pophale) SiO2 
 PCOD9157778
Probable space group: P 21/M
;
_chemical_formula_sum "Si O2"
_cell_formula_units_Z 30
_cell_length_a 7.711670
_cell_length_b 22.904311
_cell_length_c 12.303396
_cell_angle_alpha 90.000000
_cell_angle_beta 35.284871
_cell_angle_gamma 90.000000
_cell_volume 1255.305730
_symmetry_space_group_name_H-M "P 21/M"
_symmetry_group_IT_number 11
_symmetry_cell_setting 'monoclinic'
loop_
_space_group_symop_operation_xyz
x,y,z
-x,1/2+y,-z
-x,-y,-z
x,1/2-y,z
loop_
_atom_site_type_symbol
_atom_site_label
_atom_site_fract_x
_atom_site_fract_y
_atom_site_fract_z
Si Si1 0.208533 0.606459 0.701308
Si Si2 0.933696 0.750000 0.446672
Si Si3 0.660777 0.133455 0.795415
Si Si4 0.445810 0.925599 0.368106
Si Si5 0.307407 0.687993 0.823930
Si Si6 0.784525 0.557295 0.538890
Si Si7 0.028855 0.510672 0.114319
Si Si8 0.482540 0.399828 0.114335
O O1 0.290455 0.616438 0.535381
O O2 0.133358 0.662871 0.809354
O O3 0.492646 0.582067 0.625784
O O4 0.999710 0.549932 0.809919
O O5 0.656080 0.701129 0.611649
O O6 0.179305 0.696414 0.301324
O O7 0.494487 0.110332 0.771878
O O8 0.463680 0.129320 0.006065
O O9 0.924513 0.083772 0.667822
O O10 0.745064 0.947576 0.276993
O O11 0.273271 0.987352 0.432047
O O12 0.178090 0.750000 0.924704
O O13 0.306231 0.643973 0.924174
O O14 0.772990 0.584649 0.666800
O O15 0.337630 0.540226 0.984628
O O16 0.000000 0.500000 0.000000
#
# Coordination Sequence:
#
# PCOD9157778 Si02
#       8
#     4   2   4   4   4   4   4   4
#     4  10  18  37  62  90 119 161 202 248 308 368
#     4  10  22  42  62  82 118 166 212 260 292 356
#     4  12  24  40  60  92 122 165 208 250 310 364
#     4  11  23  36  59  94 131 159 190 251 323 375
#     4   9  19  38  64  86 104 154 227 252 285 347
#     4  10  19  41  62  94 120 160 205 246 301 372
#     4  11  19  36  61  92 128 154 191 254 315 362
#     4  11  21  38  67  91 122 159 207 256 305 371
#
# _framework density 23.898558000000001
#
# number of rings (size 3 to 8) (size 9 to 14) (size 15 to 20)
#    0.400    1.067    6.667    3.600    0.933    0.533 
#    3.600    0.000    1.467    0.000    0.000    0.000 
#    0.000    0.000    0.000    0.000    0.000    0.000 
#
# Total GULP energy -167015.669813 kJ/mol
# GULP energy per Si atom -5567.188994 kJ/mol
# Density = 2.384416 g / cm^3
# Si number density = 23.898558 Si / 1000 Ang^3
#
#
#
# Elastic Constant Matrix: (Units=GPa)
#
#
# Indices 1 2 3 4 5 6 
#
# 1 69.0963 23.6925 20.1922 0.0000 8.1009 0.0000
# 2 23.6925 98.8799 19.4051 0.0000 5.3806 0.0000
# 3 20.1922 19.4051 78.4960 0.0000 34.5081 0.0000
# 4 0.0000 0.0000 0.0000 32.7378 0.0000 -14.3922
# 5 8.1009 5.3806 34.5081 0.0000 39.9816 0.0000
# 6 0.0000 0.0000 0.0000 -14.3922 0.0000 18.3786
#
#
#
# Elastic Compliance Matrix: (Units=1/GPa)
#
#
# Indices 1 2 3 4 5 6 
#
# 1 0.016616 -0.003299 -0.003503 0.000000 0.000101 0.000000
# 2 -0.003299 0.011329 -0.002539 0.000000 0.001335 0.000000
# 3 -0.003503 -0.002539 0.022247 0.000000 -0.018150 0.000000
# 4 0.000000 0.000000 0.000000 0.046582 0.000000 0.036479
# 5 0.000101 0.001335 -0.018150 0.000000 0.040477 0.000000
# 6 0.000000 0.000000 0.000000 0.036479 0.000000 0.082977
#
#
# Mechanical properties :
#
#
# Convention : Reuss Voigt Hill
#
# Bulk Modulus (GPa) = 31.73586 41.45020 36.59303
# Shear Modulus (GPa) = 20.04691 30.43177 25.23934
#
# Velocity S-wave (km/s) = 2.89940 3.57231 3.25330
# Velocity P-wave (km/s) = 4.95146 5.86490 5.42743
#
# Compressibility (1/GPa) = 0.03151009
#
# Stress axis : x y z
#
# Youngs Moduli (GPa) = 60.18401 88.26551 44.94908
#
# Poissons Ratio (x) = 0.29122 0.15745
# Poissons Ratio (y) = 0.19857 0.11413
# Poissons Ratio (z) = 0.21081 0.22411
#
# Static dielectric constant tensor:
#      x y z
#    x 1.981760 0.000000 -0.047910 
#    y 0.000000 1.999000 0.000000 
#    z -0.047910 0.000000 2.015690 
# 
# From -- ./inp_files/33040.got.cif
#   From: 2010.05.17/outbox.cif.g08.bks.cpg/sg11_17_cif.got.tgz:33040.got - 2010.06.03 12:22:45.
