data_PCOD9157659
_publ_section_title
;
Structure prediction by ZEFSAII (Michael W. Deem and Ramdas Pophale) SiO2 
 PCOD9157659
Probable space group: P 21/M
;
_chemical_formula_sum "Si O2"
_cell_formula_units_Z 28
_cell_length_a 7.546979
_cell_length_b 18.845208
_cell_length_c 18.476711
_cell_angle_alpha 90.000000
_cell_angle_beta 34.379626
_cell_angle_gamma 90.000000
_cell_volume 1483.871173
_symmetry_space_group_name_H-M "P 21/M"
_symmetry_group_IT_number 11
_symmetry_cell_setting 'monoclinic'
loop_
_space_group_symop_operation_xyz
x,y,z
-x,1/2+y,-z
-x,-y,-z
x,1/2-y,z
loop_
_atom_site_type_symbol
_atom_site_label
_atom_site_fract_x
_atom_site_fract_y
_atom_site_fract_z
Si Si1 0.169724 0.925467 0.430153
Si Si2 0.421513 0.170773 0.335569
Si Si3 0.351245 0.060718 0.602598
Si Si4 0.164291 0.449939 0.205053
Si Si5 0.013708 0.573877 0.897769
Si Si6 0.587726 0.962015 0.160297
Si Si7 0.690906 0.170543 0.406189
O O1 0.451651 0.927323 0.391687
O O2 0.312402 0.927180 0.301236
O O3 0.912494 0.867166 0.539074
O O4 0.000000 0.000000 0.500000
O O5 0.383811 0.250000 0.318945
O O6 0.683371 0.124992 0.205936
O O7 0.578747 0.174749 0.361696
O O8 0.398211 0.134364 0.545637
O O9 0.500000 0.000000 0.500000
O O10 0.025502 0.024480 0.730611
O O11 0.462310 0.473502 0.151298
O O12 0.159930 0.427954 0.121860
O O13 0.975645 0.386747 0.310310
O O14 0.167292 0.497860 0.866577
O O15 0.768993 0.589377 0.044255
O O16 0.768357 0.250000 0.405494
#
# Coordination Sequence:
#
# PCOD9157659 Si02
#       7
#     4   4   4   4   4   4   4
#     4  12  19  34  55  85 114 141 189 240 276 335
#     4  10  21  37  57  81 112 150 186 231 290 341
#     4  10  19  30  49  78 110 144 183 230 282 329
#     4  10  18  35  54  80 109 149 188 234 281 332
#     4  10  21  37  54  84 113 147 188 234 276 340
#     4  11  21  34  58  83 113 145 188 235 283 327
#     4   9  18  32  50  77 112 143 184 231 284 345
#
# _framework density 18.869561999999998
#
# number of rings (size 3 to 8) (size 9 to 14) (size 15 to 20)
#    0.000    1.714    2.857    4.714    0.000    0.571 
#    0.000    0.714    0.000    0.857    0.000    1.000 
#    0.000    0.000    0.000    0.000    0.000    0.000 
#
# Total GULP energy -155951.770089 kJ/mol
# GULP energy per Si atom -5569.706075 kJ/mol
# Density = 1.882661 g / cm^3
# Si number density = 18.869562 Si / 1000 Ang^3
#
#
#
# Elastic Constant Matrix: (Units=GPa)
#
#
# Indices 1 2 3 4 5 6 
#
# 1 66.1936 18.3337 23.8622 0.0000 3.0567 0.0000
# 2 18.3337 93.0190 51.2184 0.0000 6.6803 0.0000
# 3 23.8622 51.2184 131.5788 0.0000 19.7532 0.0000
# 4 0.0000 0.0000 0.0000 13.1412 0.0000 -2.7833
# 5 3.0567 6.6803 19.7532 0.0000 27.5132 0.0000
# 6 0.0000 0.0000 0.0000 -2.7833 0.0000 17.0457
#
#
#
# Elastic Compliance Matrix: (Units=1/GPa)
#
#
# Indices 1 2 3 4 5 6 
#
# 1 0.016464 -0.002034 -0.002234 0.000000 0.000269 0.000000
# 2 -0.002034 0.013942 -0.005138 0.000000 0.000529 0.000000
# 3 -0.002234 -0.005138 0.010962 0.000000 -0.006375 0.000000
# 4 0.000000 0.000000 0.000000 0.078822 0.000000 0.012870
# 5 0.000269 0.000529 -0.006375 0.000000 0.040764 0.000000
# 6 0.000000 0.000000 0.000000 0.012870 0.000000 0.060767
#
#
# Mechanical properties :
#
#
# Convention : Reuss Voigt Hill
#
# Bulk Modulus (GPa) = 44.33439 53.06889 48.70164
# Shear Modulus (GPa) = 20.15697 24.69849 22.42773
#
# Velocity S-wave (km/s) = 3.27192 3.62181 3.45130
# Velocity P-wave (km/s) = 6.14981 6.75834 6.46124
#
# Compressibility (1/GPa) = 0.02255586
#
# Stress axis : x y z
#
# Youngs Moduli (GPa) = 60.74013 71.72389 91.22293
#
# Poissons Ratio (x) = 0.14588 0.20383
# Poissons Ratio (y) = 0.12354 0.46869
# Poissons Ratio (z) = 0.13572 0.36851
#
# Static dielectric constant tensor:
#      x y z
#    x 1.685790 0.000000 0.003670 
#    y 0.000000 1.668070 0.000000 
#    z 0.003670 0.000000 1.730680 
# 
# From -- ./inp_files/63925.got.cif
#   From: 2010.05.17/outbox.cif.g08.bks.cpg/sg11_32_cif.got.tgz:63925.got - 2010.06.03 12:22:45.
