data_PCOD9157189
_publ_section_title
;
Structure prediction by ZEFSAII (Michael W. Deem and Ramdas Pophale) SiO2 
 PCOD9157189
Probable space group: P 21/M
;
_chemical_formula_sum "Si O2"
_cell_formula_units_Z 32
_cell_length_a 31.812767
_cell_length_b 8.972155
_cell_length_c 15.467441
_cell_angle_alpha 90.000000
_cell_angle_beta 28.441320
_cell_angle_gamma 90.000000
_cell_volume 2102.613193
_symmetry_space_group_name_H-M "P 21/M"
_symmetry_group_IT_number 11
_symmetry_cell_setting 'monoclinic'
loop_
_space_group_symop_operation_xyz
x,y,z
-x,1/2+y,-z
-x,-y,-z
x,1/2-y,z
loop_
_atom_site_type_symbol
_atom_site_label
_atom_site_fract_x
_atom_site_fract_y
_atom_site_fract_z
Si Si1 0.195705 0.569777 0.178812
Si Si2 0.243470 0.569864 0.772634
Si Si3 0.920262 0.428859 0.447131
Si Si4 0.425850 0.928629 0.520281
Si Si5 0.393314 0.928691 0.779413
Si Si6 0.119559 0.428815 0.143446
Si Si7 0.071342 0.072341 0.751682
Si Si8 0.874760 0.071430 0.172694
O O1 0.190989 0.750000 0.177749
O O2 0.148470 0.529084 0.353665
O O3 0.146159 0.496393 0.187549
O O4 0.298685 0.526271 0.988137
O O5 0.236702 0.750000 0.794546
O O6 0.345259 0.528046 0.603945
O O7 0.202524 0.530098 0.753945
O O8 0.184318 0.495926 0.953978
O O9 0.917073 0.250000 0.442235
O O10 0.903157 0.504397 0.386256
O O11 0.019010 0.467888 0.300406
O O12 0.434923 0.750000 0.501344
O O13 0.397451 0.969843 0.669963
O O14 0.520606 0.001035 0.332625
O O15 0.399669 0.750000 0.772850
O O16 0.127253 0.250000 0.131531
O O17 0.078048 0.250000 0.737517
O O18 0.125720 0.007464 0.733992
O O19 0.968530 0.033156 0.957740
O O20 0.873604 0.250000 0.187243
#
# Coordination Sequence:
#
# PCOD9157189 Si02
#       8
#     4   4   4   4   4   4   4   4
#     4  10  20  35  50  64  91 132 167 194 229 279
#     4  10  18  32  50  69  94 130 160 185 231 287
#     4  10  21  34  48  67  94 128 165 198 230 273
#     4   9  17  29  47  68  92 120 154 193 233 279
#     4   9  17  30  47  66  90 122 157 193 233 276
#     4  11  21  30  44  70  98 125 160 201 231 263
#     4  10  19  31  49  70  94 124 156 195 237 275
#     4   9  18  31  49  69  93 124 157 191 231 282
#
# _framework density 15.219156999999999
#
# number of rings (size 3 to 8) (size 9 to 14) (size 15 to 20)
#    0.000    2.250    2.500    1.125    0.000    3.000 
#    0.000    0.000    0.000    0.000    0.000    0.875 
#    0.000    0.000    0.000    0.000    0.000    0.000 
#
# Total GULP energy -178474.560577 kJ/mol
# GULP energy per Si atom -5577.330018 kJ/mol
# Density = 1.518452 g / cm^3
# Si number density = 15.219157 Si / 1000 Ang^3
#
#
#
# Elastic Constant Matrix: (Units=GPa)
#
#
# Indices 1 2 3 4 5 6 
#
# 1 149.0782 42.0050 73.5036 0.0000 -0.4958 0.0000
# 2 42.0050 16.7787 29.4910 0.0000 2.2308 0.0000
# 3 73.5036 29.4910 83.9573 0.0000 2.7247 0.0000
# 4 0.0000 0.0000 0.0000 19.9217 0.0000 -1.0945
# 5 -0.4958 2.2308 2.7247 0.0000 21.9664 0.0000
# 6 0.0000 0.0000 0.0000 -1.0945 0.0000 23.0302
#
#
#
# Elastic Compliance Matrix: (Units=1/GPa)
#
#
# Indices 1 2 3 4 5 6 
#
# 1 0.023697 -0.061072 0.000489 0.000000 0.006676 0.000000
# 2 -0.061072 0.314992 -0.056321 0.000000 -0.026382 0.000000
# 3 0.000489 -0.056321 0.031205 0.000000 0.001860 0.000000
# 4 0.000000 0.000000 0.000000 0.050328 0.000000 0.002392
# 5 0.006676 -0.026382 0.001860 0.000000 0.048123 0.000000
# 6 0.000000 0.000000 0.000000 0.002392 0.000000 0.043535
#
#
# Mechanical properties :
#
#
# Convention : Reuss Voigt Hill
#
# Bulk Modulus (GPa) = 7.34824 59.97925 33.66375
# Shear Modulus (GPa) = 6.32073 19.97129 13.14601
#
# Velocity S-wave (km/s) = 2.04014 3.62642 2.94220
# Velocity P-wave (km/s) = 3.22309 7.55186 5.80598
#
# Compressibility (1/GPa) = 0.13608697
#
# Stress axis : x y z
#
# Youngs Moduli (GPa) = 42.19986 3.17469 32.04595
#
# Poissons Ratio (x) = 0.19389 -0.01569
# Poissons Ratio (y) = 2.57724 1.80484
# Poissons Ratio (z) = -0.02066 0.17880
#
# Static dielectric constant tensor:
#      x y z
#    x 1.494770 0.000000 -0.013340 
#    y 0.000000 1.507400 0.000000 
#    z -0.013340 0.000000 1.490130 
# 
# From -- ./inp_files/51205.got.cif
#   From: 2010.05.17/outbox.cif.g08.bks.cpg/sg11_26_cif.got.tgz:51205.got - 2010.06.03 12:22:45.
