data_PCOD9157875
_publ_section_title
;
Structure prediction by ZEFSAII (Michael W. Deem and Ramdas Pophale) SiO2 
 PCOD9157875
Probable space group: P 21/M
;
_chemical_formula_sum "Si O2"
_cell_formula_units_Z 32
_cell_length_a 18.910077
_cell_length_b 9.012393
_cell_length_c 13.940576
_cell_angle_alpha 90.000000
_cell_angle_beta 112.725368
_cell_angle_gamma 90.000000
_cell_volume 2191.381336
_symmetry_space_group_name_H-M "P 21/M"
_symmetry_group_IT_number 11
_symmetry_cell_setting 'monoclinic'
loop_
_space_group_symop_operation_xyz
x,y,z
-x,1/2+y,-z
-x,-y,-z
x,1/2-y,z
loop_
_atom_site_type_symbol
_atom_site_label
_atom_site_fract_x
_atom_site_fract_y
_atom_site_fract_z
Si Si1 0.954614 0.926084 0.113033
Si Si2 0.119063 0.073728 0.518602
Si Si3 0.737024 0.428689 0.497913
Si Si4 0.742291 0.573299 0.710995
Si Si5 0.566477 0.079742 0.409754
Si Si6 0.585976 0.419496 0.652051
Si Si7 0.119941 0.574645 0.103592
Si Si8 0.023140 0.072886 0.657505
O O1 0.938937 0.750000 0.093995
O O2 0.949085 0.966491 0.221725
O O3 0.042429 0.950231 0.125008
O O4 0.900835 0.017044 0.013290
O O5 0.128886 0.250000 0.511812
O O6 0.085643 0.044839 0.607434
O O7 0.197325 0.989621 0.536568
O O8 0.053432 0.014038 0.412309
O O9 0.739884 0.250000 0.507722
O O10 0.750124 0.499053 0.609909
O O11 0.650637 0.469374 0.419660
O O12 0.744353 0.750000 0.703005
O O13 0.660127 0.519962 0.708721
O O14 0.810526 0.513720 0.812811
O O15 0.552989 0.250000 0.373555
O O16 0.574466 0.079299 0.530202
O O17 0.493156 0.981295 0.346597
O O18 0.600540 0.250000 0.688228
O O19 0.136180 0.750000 0.112425
O O20 0.006081 0.250000 0.648004
#
# Coordination Sequence:
#
# PCOD9157875 Si02
#       8
#     4   4   4   4   4   4   4   4
#     4   9  18  32  47  61  82 113 144 176 216 256
#     4  10  19  29  44  66  87 111 147 183 214 253
#     4  10  19  30  43  60  86 117 146 179 217 253
#     4  11  20  29  43  62  86 115 147 179 210 251
#     4   8  15  26  39  56  79 110 144 173 206 250
#     4   9  16  26  40  58  82 111 141 173 210 249
#     4  10  19  30  45  65  87 110 141 179 216 255
#     4   9  18  32  47  62  85 116 146 179 217 255
#
# _framework density 14.602662
#
# number of rings (size 3 to 8) (size 9 to 14) (size 15 to 20)
#    0.000    2.500    0.000    4.125    0.000    6.000 
#    0.000    0.000    0.000    0.000    0.000    0.000 
#    0.000    1.000    0.000    3.000    0.000    4.875 
#
# Total GULP energy -178381.601690 kJ/mol
# GULP energy per Si atom -5574.425053 kJ/mol
# Density = 1.456943 g / cm^3
# Si number density = 14.602662 Si / 1000 Ang^3
#
#
#
# Elastic Constant Matrix: (Units=GPa)
#
#
# Indices 1 2 3 4 5 6 
#
# 1 85.5113 46.1828 20.3693 0.0000 7.4454 0.0000
# 2 46.1828 74.4779 28.9641 0.0000 8.2398 0.0000
# 3 20.3693 28.9641 52.7833 0.0000 -1.1969 0.0000
# 4 0.0000 0.0000 0.0000 20.6671 0.0000 4.2927
# 5 7.4454 8.2398 -1.1969 0.0000 15.4527 0.0000
# 6 0.0000 0.0000 0.0000 4.2927 0.0000 25.6536
#
#
#
# Elastic Compliance Matrix: (Units=1/GPa)
#
#
# Indices 1 2 3 4 5 6 
#
# 1 0.017776 -0.010124 -0.001378 0.000000 -0.003273 0.000000
# 2 -0.010124 0.024474 -0.009725 0.000000 -0.008926 0.000000
# 3 -0.001378 -0.009725 0.024991 0.000000 0.007786 0.000000
# 4 0.000000 0.000000 0.000000 0.050128 0.000000 -0.008388
# 5 -0.003273 -0.008926 0.007786 0.000000 0.071653 0.000000
# 6 0.000000 0.000000 0.000000 -0.008388 0.000000 0.040385
#
#
# Mechanical properties :
#
#
# Convention : Reuss Voigt Hill
#
# Bulk Modulus (GPa) = 40.34783 44.86722 42.60753
# Shear Modulus (GPa) = 17.84925 20.17176 19.01051
#
# Velocity S-wave (km/s) = 3.49997 3.72072 3.61203
# Velocity P-wave (km/s) = 6.63502 7.01786 6.82913
#
# Compressibility (1/GPa) = 0.02478448
#
# Stress axis : x y z
#
# Youngs Moduli (GPa) = 56.25699 40.85906 40.01520
#
# Poissons Ratio (x) = 0.41367 0.05515
# Poissons Ratio (y) = 0.56956 0.38916
# Poissons Ratio (z) = 0.07754 0.39737
#
# Static dielectric constant tensor:
#      x y z
#    x 1.490720 0.000000 -0.000750 
#    y 0.000000 1.489080 0.000000 
#    z -0.000750 0.000000 1.454060 
# 
# From -- ./inp_files/52964.got.cif
#   From: 2010.05.17/outbox.cif.g08.bks.cpg/sg11_27_cif.got.tgz:52964.got - 2010.06.03 12:22:45.
