data_PCOD9157668
_publ_section_title
;
Structure prediction by ZEFSAII (Michael W. Deem and Ramdas Pophale) SiO2 
 PCOD9157668
Probable space group: P 21/M
;
_chemical_formula_sum "Si O2"
_cell_formula_units_Z 32
_cell_length_a 9.298448
_cell_length_b 13.469749
_cell_length_c 25.647708
_cell_angle_alpha 90.000000
_cell_angle_beta 26.261324
_cell_angle_gamma 90.000000
_cell_volume 1421.341302
_symmetry_space_group_name_H-M "P 21/M"
_symmetry_group_IT_number 11
_symmetry_cell_setting 'monoclinic'
loop_
_space_group_symop_operation_xyz
x,y,z
-x,1/2+y,-z
-x,-y,-z
x,1/2-y,z
loop_
_atom_site_type_symbol
_atom_site_label
_atom_site_fract_x
_atom_site_fract_y
_atom_site_fract_z
Si Si1 0.555863 0.637471 0.902089
Si Si2 0.450658 0.867259 0.050828
Si Si3 0.406244 0.954970 0.172157
Si Si4 0.224933 0.135775 0.856323
Si Si5 0.437281 0.361743 0.388395
Si Si6 0.935148 0.361736 0.455682
Si Si7 0.184198 0.455671 0.574163
Si Si8 0.291490 0.429155 0.719703
O O1 0.672228 0.750000 0.859602
O O2 0.689309 0.565177 0.815014
O O3 0.600301 0.599475 0.946988
O O4 0.164914 0.637280 0.021433
O O5 0.498370 0.750000 0.036040
O O6 0.566626 0.911508 0.067491
O O7 0.066214 0.889384 0.175191
O O8 0.655579 0.936535 0.137405
O O9 0.068765 0.908973 0.302772
O O10 0.329347 0.250000 0.832388
O O11 0.361422 0.098789 0.756814
O O12 0.570673 0.250000 0.341861
O O13 0.286122 0.382285 0.494491
O O14 0.678461 0.453237 0.299860
O O15 0.163760 0.371575 0.432262
O O16 0.977185 0.250000 0.421089
O O17 0.993433 0.451112 0.396654
O O18 0.566342 0.378367 0.595105
O O19 0.500000 0.500000 0.500000
#
# Coordination Sequence:
#
# PCOD9157668 Si02
#       8
#     4   4   4   4   4   4   4   4
#     4   9  21  40  59  81 112 149 186 228 286 350
#     4  10  21  37  58  83 110 145 188 231 279 340
#     4  12  21  35  59  85 113 148 189 238 286 337
#     4  10  20  35  59  90 116 142 184 239 292 339
#     4  10  21  37  56  79 112 152 196 241 283 334
#     4  10  19  34  55  77 105 147 195 238 280 337
#     4  11  24  37  52  82 119 153 190 236 291 344
#     4  10  18  35  57  79 108 148 189 227 278 339
#
# _framework density 22.513945
#
# number of rings (size 3 to 8) (size 9 to 14) (size 15 to 20)
#    0.000    1.750    0.000    7.500    0.000    3.000 
#    0.000    2.500    0.000    6.000    0.000    0.000 
#    0.000    0.000    0.000    0.000    0.000    0.000 
#
# Total GULP energy -178932.878712 kJ/mol
# GULP energy per Si atom -5591.652460 kJ/mol
# Density = 2.246270 g / cm^3
# Si number density = 22.513945 Si / 1000 Ang^3
#
#
#
# Elastic Constant Matrix: (Units=GPa)
#
#
# Indices 1 2 3 4 5 6 
#
# 1 89.5103 21.9807 11.8609 0.0000 24.6139 0.0000
# 2 21.9807 81.4752 -8.3495 0.0000 10.8403 0.0000
# 3 11.8609 -8.3495 52.7070 0.0000 7.4807 0.0000
# 4 0.0000 0.0000 0.0000 19.6153 0.0000 0.9279
# 5 24.6139 10.8403 7.4807 0.0000 33.3134 0.0000
# 6 0.0000 0.0000 0.0000 0.9279 0.0000 22.2440
#
#
#
# Elastic Compliance Matrix: (Units=1/GPa)
#
#
# Indices 1 2 3 4 5 6 
#
# 1 0.014828 -0.003000 -0.002475 0.000000 -0.009424 0.000000
# 2 -0.003000 0.013822 0.003294 0.000000 -0.003021 0.000000
# 3 -0.002475 0.003294 0.020601 0.000000 -0.003869 0.000000
# 4 0.000000 0.000000 0.000000 0.051081 0.000000 -0.002131
# 5 -0.009424 -0.003021 -0.003869 0.000000 0.038833 0.000000
# 6 0.000000 0.000000 0.000000 -0.002131 0.000000 0.045045
#
#
# Mechanical properties :
#
#
# Convention : Reuss Voigt Hill
#
# Bulk Modulus (GPa) = 22.27725 30.51966 26.39845
# Shear Modulus (GPa) = 24.56579 28.24790 26.40685
#
# Velocity S-wave (km/s) = 3.30682 3.54600 3.42849
# Velocity P-wave (km/s) = 4.94939 5.50915 5.23675
#
# Compressibility (1/GPa) = 0.04488884
#
# Stress axis : x y z
#
# Youngs Moduli (GPa) = 67.44028 72.34592 48.54231
#
# Poissons Ratio (x) = 0.21704 0.12012
# Poissons Ratio (y) = 0.20233 -0.15988
# Poissons Ratio (z) = 0.16688 -0.23827
#
# Static dielectric constant tensor:
#      x y z
#    x 1.840670 0.000000 -0.010130 
#    y 0.000000 1.856630 0.000000 
#    z -0.010130 0.000000 1.802990 
# 
# From -- ./inp_files/68135.got.cif
#   From: 2010.05.17/outbox.cif.g08.bks.cpg/sg11_35_cif.got.tgz:68135.got - 2010.06.03 12:22:45.
