data_PCOD9157728
_publ_section_title
;
Structure prediction by ZEFSAII (Michael W. Deem and Ramdas Pophale) SiO2 
 PCOD9157728
Probable space group: P 21/M
;
_chemical_formula_sum "Si O2"
_cell_formula_units_Z 28
_cell_length_a 5.432234
_cell_length_b 14.817377
_cell_length_c 14.460157
_cell_angle_alpha 90.000000
_cell_angle_beta 99.412443
_cell_angle_gamma 90.000000
_cell_volume 1148.248907
_symmetry_space_group_name_H-M "P 21/M"
_symmetry_group_IT_number 11
_symmetry_cell_setting 'monoclinic'
loop_
_space_group_symop_operation_xyz
x,y,z
-x,1/2+y,-z
-x,-y,-z
x,1/2-y,z
loop_
_atom_site_type_symbol
_atom_site_label
_atom_site_fract_x
_atom_site_fract_y
_atom_site_fract_z
Si Si1 0.666974 0.536149 0.926975
Si Si2 0.905337 0.947362 0.698520
Si Si3 0.411646 0.250000 0.716889
Si Si4 0.097409 0.100906 0.500435
Si Si5 0.859192 0.250000 0.597384
Si Si6 0.593855 0.563124 0.310692
Si Si7 0.740906 0.150901 0.154597
Si Si8 0.089447 0.851720 0.041273
O O1 0.480380 0.580236 0.842072
O O2 0.825374 0.616139 0.983526
O O3 0.500000 0.500000 0.000000
O O4 0.821645 0.446458 0.905521
O O5 0.999853 0.887206 0.789782
O O6 0.862469 0.884517 0.605621
O O7 0.150513 0.010579 0.697490
O O8 0.659426 0.007631 0.693636
O O9 0.119720 0.250000 0.670497
O O10 0.439666 0.149384 0.759910
O O11 0.632571 0.250000 0.653755
O O12 0.889346 0.164866 0.531920
O O13 0.336117 0.103511 0.582504
O O14 0.000000 0.000000 0.500000
O O15 0.690516 0.250000 0.190403
O O16 0.758315 0.157694 0.045053
O O17 0.085731 0.750000 0.084686
#
# Coordination Sequence:
#
# PCOD9157728 Si02
#       8
#     4   4   2   4   2   4   4   4
#     4   9  18  35  61  89 119 160 201 242 290 354
#     4  11  23  36  58  84 124 162 201 246 318 366
#     4  10  18  36  60  80 102 142 206 262 315 345
#     4   9  19  36  56  80 114 152 205 261 306 351
#     4  10  20  30  56  84 104 140 196 260 309 361
#     4  10  21  38  59  83 109 160 211 266 303 368
#     4  10  22  37  58  88 129 163 193 237 306 378
#     4   9  18  35  63  93 121 159 203 246 294 352
#
# _framework density 24.384955999999999
#
# number of rings (size 3 to 8) (size 9 to 14) (size 15 to 20)
#    0.000    2.286    0.000    3.429    3.000    4.000 
#    0.000    0.000    4.714    0.000    0.000    0.000 
#    0.000    0.000    0.000    0.000    0.000    0.000 
#
# Total GULP energy -156083.447764 kJ/mol
# GULP energy per Si atom -5574.408849 kJ/mol
# Density = 2.432945 g / cm^3
# Si number density = 24.384956 Si / 1000 Ang^3
#
#
#
# Elastic Constant Matrix: (Units=GPa)
#
#
# Indices 1 2 3 4 5 6 
#
# 1 136.5625 36.3040 12.8898 0.0000 19.8458 0.0000
# 2 36.3040 117.9939 15.9125 0.0000 18.6311 0.0000
# 3 12.8898 15.9125 46.8673 0.0000 16.6457 0.0000
# 4 0.0000 0.0000 0.0000 21.9214 0.0000 7.1876
# 5 19.8458 18.6311 16.6457 0.0000 29.0273 0.0000
# 6 0.0000 0.0000 0.0000 7.1876 0.0000 27.3139
#
#
#
# Elastic Compliance Matrix: (Units=1/GPa)
#
#
# Indices 1 2 3 4 5 6 
#
# 1 0.008492 -0.001883 -0.000080 0.000000 -0.004552 0.000000
# 2 -0.001883 0.009914 -0.001313 0.000000 -0.004323 0.000000
# 3 -0.000080 -0.001313 0.026981 0.000000 -0.014575 0.000000
# 4 0.000000 0.000000 0.000000 0.049925 0.000000 -0.013138
# 5 -0.004552 -0.004323 -0.014575 0.000000 0.048695 0.000000
# 6 0.000000 0.000000 0.000000 -0.013138 0.000000 0.040069
#
#
# Mechanical properties :
#
#
# Convention : Reuss Voigt Hill
#
# Bulk Modulus (GPa) = 25.74928 47.95960 36.85444
# Shear Modulus (GPa) = 24.56120 31.40701 27.98410
#
# Velocity S-wave (km/s) = 3.17713 3.59272 3.39130
# Velocity P-wave (km/s) = 4.90319 6.07623 5.52095
#
# Compressibility (1/GPa) = 0.03883604
#
# Stress axis : x y z
#
# Youngs Moduli (GPa) = 117.75328 100.86624 37.06304
#
# Poissons Ratio (x) = 0.18998 0.00295
# Poissons Ratio (y) = 0.22178 0.04865
# Poissons Ratio (z) = 0.00937 0.13241
#
# Static dielectric constant tensor:
#      x y z
#    x 1.935260 0.000000 -0.048640 
#    y 0.000000 2.047180 0.000000 
#    z -0.048640 0.000000 2.096180 
# 
# From -- ./inp_files/56974.got.cif
#   From: 2010.05.17/outbox.cif.g08.bks.cpg/sg11_29_cif.got.tgz:56974.got - 2010.06.03 12:22:45.
