data_PCOD9157702
_publ_section_title
;
Structure prediction by ZEFSAII (Michael W. Deem and Ramdas Pophale) SiO2 
 PCOD9157702
Probable space group: P 21/M
;
_chemical_formula_sum "Si O2"
_cell_formula_units_Z 24
_cell_length_a 14.374166
_cell_length_b 17.552793
_cell_length_c 8.881266
_cell_angle_alpha 90.000000
_cell_angle_beta 31.142459
_cell_angle_gamma 90.000000
_cell_volume 1158.871219
_symmetry_space_group_name_H-M "P 21/M"
_symmetry_group_IT_number 11
_symmetry_cell_setting 'monoclinic'
loop_
_space_group_symop_operation_xyz
x,y,z
-x,1/2+y,-z
-x,-y,-z
x,1/2-y,z
loop_
_atom_site_type_symbol
_atom_site_label
_atom_site_fract_x
_atom_site_fract_y
_atom_site_fract_z
Si Si1 0.254810 0.421277 0.860267
Si Si2 0.466066 0.996540 0.306826
Si Si3 0.340174 0.750000 0.848424
Si Si4 0.161109 0.750000 0.789967
Si Si5 0.301961 0.250000 0.853898
Si Si6 0.475867 0.250000 0.918213
Si Si7 0.121463 0.899963 0.676207
Si Si8 0.369840 0.866763 0.076143
O O1 0.372145 0.449675 0.839206
O O2 0.379107 0.445838 0.549261
O O3 0.221603 0.331397 0.924061
O O4 0.053766 0.451958 0.107952
O O5 0.554920 0.050062 0.059638
O O6 0.300092 0.943556 0.487202
O O7 0.186801 0.750000 0.933666
O O8 0.515888 0.750000 0.499026
O O9 0.341772 0.821670 0.959100
O O10 0.080613 0.830573 0.847757
O O11 0.348157 0.750000 0.434360
O O12 0.323296 0.250000 0.005183
O O13 0.491725 0.321240 0.008131
O O14 0.185862 0.867760 0.425529
#
# Coordination Sequence:
#
# PCOD9157702 Si02
#       8
#     4   4   2   2   2   2   4   4
#     4  11  24  39  66  92 120 163 207 251 298 368
#     4  11  23  40  62  93 125 163 202 246 311 364
#     4  10  18  35  65  91 119 162 207 250 303 359
#     4   9  19  36  62  86 117 161 202 253 300 352
#     4  11  19  39  63  89 115 161 214 246 295 371
#     4   8  18  34  62  90 115 160 203 247 302 354
#     4  11  23  41  63  91 125 158 207 254 305 361
#     4  10  20  37  63  91 125 162 199 252 311 358
#
# _framework density 20.709807999999999
#
# number of rings (size 3 to 8) (size 9 to 14) (size 15 to 20)
#    0.000    1.667    1.667    5.000    2.333    0.667 
#    0.000    0.000    3.667    0.000    0.000    0.000 
#    0.000    0.000    0.000    0.000    0.000    0.000 
#
# Total GULP energy -133806.725388 kJ/mol
# GULP energy per Si atom -5575.280225 kJ/mol
# Density = 2.066267 g / cm^3
# Si number density = 20.709808 Si / 1000 Ang^3
#
#
#
# Elastic Constant Matrix: (Units=GPa)
#
#
# Indices 1 2 3 4 5 6 
#
# 1 155.9339 56.0975 49.5136 0.0000 0.0050 0.0000
# 2 56.0975 93.3109 15.6736 0.0000 -0.7714 0.0000
# 3 49.5136 15.6736 38.2828 0.0000 3.6565 0.0000
# 4 0.0000 0.0000 0.0000 11.1417 0.0000 1.0750
# 5 0.0050 -0.7714 3.6565 0.0000 38.8812 0.0000
# 6 0.0000 0.0000 0.0000 1.0750 0.0000 -14.8035
#
#
#
# Elastic Compliance Matrix: (Units=1/GPa)
#
#
# Indices 1 2 3 4 5 6 
#
# 1 0.013029 -0.005338 -0.014788 0.000000 0.001283 0.000000
# 2 -0.005338 0.013713 0.001275 0.000000 0.000153 0.000000
# 3 -0.014788 0.001275 0.045129 0.000000 -0.004217 0.000000
# 4 0.000000 0.000000 0.000000 0.089129 0.000000 0.006473
# 5 0.001283 0.000153 -0.004217 0.000000 0.026119 0.000000
# 6 0.000000 0.000000 0.000000 0.006473 0.000000 -0.067082
#
#
# Mechanical properties :
#
#
# Convention : Reuss Voigt Hill
#
# Bulk Modulus (GPa) = 29.26678 58.89969 44.08324
# Shear Modulus (GPa) = 29.56324 18.12674 23.84499
#
# Velocity S-wave (km/s) = 3.78233 2.96171 3.39689
# Velocity P-wave (km/s) = 5.76517 6.34018 6.05950
#
# Compressibility (1/GPa) = 0.03416843
#
# Stress axis : x y z
#
# Youngs Moduli (GPa) = 76.75102 72.92221 22.15886
#
# Poissons Ratio (x) = 0.38928 0.32769
# Poissons Ratio (y) = 0.40972 -0.02826
# Poissons Ratio (z) = 1.13502 -0.09300
#
# Static dielectric constant tensor:
#      x y z
#    x 1.800520 0.000000 -0.048330 
#    y 0.000000 1.775570 0.000000 
#    z -0.048330 0.000000 1.745190 
# 
# From -- ./inp_files/13314.got.cif
#   From: 2010.05.17/outbox.cif.g08.bks.cpg/sg11_7_cif.got.tgz:13314.got - 2010.06.03 12:22:45.
