data_PCOD9157202
_publ_section_title
;
Structure prediction by ZEFSAII (Michael W. Deem and Ramdas Pophale) SiO2 
 PCOD9157202
Probable space group: P 21/M
;
_chemical_formula_sum "Si O2"
_cell_formula_units_Z 28
_cell_length_a 15.510181
_cell_length_b 8.753600
_cell_length_c 12.311392
_cell_angle_alpha 90.000000
_cell_angle_beta 118.881581
_cell_angle_gamma 90.000000
_cell_volume 1463.613202
_symmetry_space_group_name_H-M "P 21/M"
_symmetry_group_IT_number 11
_symmetry_cell_setting 'monoclinic'
loop_
_space_group_symop_operation_xyz
x,y,z
-x,1/2+y,-z
-x,-y,-z
x,1/2-y,z
loop_
_atom_site_type_symbol
_atom_site_label
_atom_site_fract_x
_atom_site_fract_y
_atom_site_fract_z
Si Si1 0.992293 0.432251 0.117485
Si Si2 0.179038 0.064205 0.370832
Si Si3 0.388759 0.434828 0.923631
Si Si4 0.492784 0.429852 0.614456
Si Si5 0.210513 0.072906 0.969976
Si Si6 0.692928 0.563741 0.359216
Si Si7 0.312557 0.073657 0.253302
O O1 0.001086 0.250000 0.112419
O O2 0.078902 0.487791 0.251632
O O3 0.887520 0.476402 0.106102
O O4 0.000000 0.500000 0.000000
O O5 0.175538 0.250000 0.370360
O O6 0.212096 0.014262 0.511751
O O7 0.266075 0.023921 0.338959
O O8 0.398651 0.250000 0.929413
O O9 0.332156 0.483268 0.778447
O O10 0.500000 0.500000 0.000000
O O11 0.311128 0.475904 0.971309
O O12 0.500000 0.500000 0.500000
O O13 0.481652 0.250000 0.598533
O O14 0.401594 0.487169 0.628509
O O15 0.596507 0.473401 0.729456
O O16 0.192704 0.250000 0.927615
O O17 0.230724 0.069468 0.111062
O O18 0.695724 0.750000 0.359025
O O19 0.345471 0.250000 0.284039
#
# Coordination Sequence:
#
# PCOD9157202 Si02
#       7
#     4   4   4   4   4   4   4
#     4  11  21  35  58  85 113 148 187 233 281 332
#     4   9  17  32  53  76 106 142 177 218 273 330
#     4  10  21  38  61  83 109 147 188 230 274 328
#     4  11  20  30  48  76 107 139 178 222 273 333
#     4  10  21  37  56  81 113 148 184 227 283 335
#     4   9  18  34  54  75 104 144 184 221 269 331
#     4  10  18  32  51  73 107 143 174 217 273 329
#
# _framework density 19.130737
#
# number of rings (size 3 to 8) (size 9 to 14) (size 15 to 20)
#    0.000    2.000    2.857    1.714    0.000    1.143 
#    0.000    1.429    0.000    0.000    0.000    0.000 
#    0.000    0.000    0.000    0.000    0.000    0.000 
#
# Total GULP energy -156038.375289 kJ/mol
# GULP energy per Si atom -5572.799117 kJ/mol
# Density = 1.908719 g / cm^3
# Si number density = 19.130737 Si / 1000 Ang^3
#
#
#
# Elastic Constant Matrix: (Units=GPa)
#
#
# Indices 1 2 3 4 5 6 
#
# 1 77.6963 14.9074 41.0849 0.0000 10.9062 0.0000
# 2 14.9074 17.1802 16.2339 0.0000 3.9119 0.0000
# 3 41.0849 16.2339 136.4952 0.0000 10.6008 0.0000
# 4 0.0000 0.0000 0.0000 20.3698 0.0000 6.7195
# 5 10.9062 3.9119 10.6008 0.0000 33.8034 0.0000
# 6 0.0000 0.0000 0.0000 6.7195 0.0000 25.9948
#
#
#
# Elastic Compliance Matrix: (Units=1/GPa)
#
#
# Indices 1 2 3 4 5 6 
#
# 1 0.017347 -0.010845 -0.003684 0.000000 -0.003186 0.000000
# 2 -0.010845 0.073286 -0.005191 0.000000 -0.003354 0.000000
# 3 -0.003684 -0.005191 0.009136 0.000000 -0.001076 0.000000
# 4 0.000000 0.000000 0.000000 0.053669 0.000000 -0.013873
# 5 -0.003186 -0.003354 -0.001076 0.000000 0.031336 0.000000
# 6 0.000000 0.000000 0.000000 -0.013873 0.000000 0.042055
#
#
# Mechanical properties :
#
#
# Convention : Reuss Voigt Hill
#
# Bulk Modulus (GPa) = 16.57615 41.75822 29.16718
# Shear Modulus (GPa) = 17.45934 26.64331 22.05133
#
# Velocity S-wave (km/s) = 3.02426 3.73593 3.39877
# Velocity P-wave (km/s) = 4.56928 6.36277 5.53909
#
# Compressibility (1/GPa) = 0.06032764
#
# Stress axis : x y z
#
# Youngs Moduli (GPa) = 57.64741 13.64518 109.45571
#
# Poissons Ratio (x) = 0.14799 0.40324
# Poissons Ratio (y) = 0.62521 0.56821
# Poissons Ratio (z) = 0.21237 0.07084
#
# Static dielectric constant tensor:
#      x y z
#    x 1.672100 0.000000 0.026000 
#    y 0.000000 1.666840 0.000000 
#    z 0.026000 0.000000 1.733170 
# 
# From -- ./inp_files/38487.got.cif
#   From: 2010.05.17/outbox.cif.g08.bks.cpg/sg11_20_cif.got.tgz:38487.got - 2010.06.03 12:22:45.
