data_PCOD9157673
_publ_section_title
;
Structure prediction by ZEFSAII (Michael W. Deem and Ramdas Pophale) SiO2 
 PCOD9157673
Probable space group: P 21/M
;
_chemical_formula_sum "Si O2"
_cell_formula_units_Z 32
_cell_length_a 23.850875
_cell_length_b 15.380705
_cell_length_c 9.340903
_cell_angle_alpha 90.000000
_cell_angle_beta 30.652566
_cell_angle_gamma 90.000000
_cell_volume 1747.010702
_symmetry_space_group_name_H-M "P 21/M"
_symmetry_group_IT_number 11
_symmetry_cell_setting 'monoclinic'
loop_
_space_group_symop_operation_xyz
x,y,z
-x,1/2+y,-z
-x,-y,-z
x,1/2-y,z
loop_
_atom_site_type_symbol
_atom_site_label
_atom_site_fract_x
_atom_site_fract_y
_atom_site_fract_z
Si Si1 0.808064 0.403760 0.581392
Si Si2 0.965912 0.846119 0.040368
Si Si3 0.136962 0.850395 0.245268
Si Si4 0.437323 0.848874 0.808493
Si Si5 0.612257 0.349073 0.410594
Si Si6 0.929713 0.148078 0.904872
Si Si7 0.431020 0.012385 0.295644
Si Si8 0.801028 0.509282 0.322454
O O1 0.856694 0.414770 0.634523
O O2 0.783945 0.482922 0.526669
O O3 0.690913 0.357700 0.862686
O O4 0.906690 0.352220 0.287174
O O5 0.923425 0.750000 0.103805
O O6 0.896821 0.919641 0.114057
O O7 0.970636 0.861158 0.201573
O O8 0.121561 0.750000 0.330951
O O9 0.052203 0.868093 0.303243
O O10 0.256753 0.853015 0.907321
O O11 0.472113 0.750000 0.759573
O O12 0.440216 0.864474 0.631144
O O13 0.510166 0.917047 0.734007
O O14 0.586699 0.250000 0.512389
O O15 0.577868 0.421902 0.598221
O O16 0.894234 0.250000 0.993901
O O17 0.842270 0.077757 0.152309
O O18 0.309196 0.039238 0.512433
O O19 0.500000 0.000000 0.000000
#
# Coordination Sequence:
#
# PCOD9157673 Si02
#       8
#     4   4   4   4   4   4   4   4
#     4  10  18  35  58  84 112 133 183 237 278 323
#     4  10  21  37  57  77 108 154 183 222 277 331
#     4   9  16  29  55  87 109 134 175 233 284 324
#     4  10  21  37  60  85 109 145 188 234 284 329
#     4   9  19  37  59  82 110 145 185 232 284 332
#     4   9  17  32  56  82 106 138 180 225 276 324
#     4  12  23  37  55  84 118 150 187 232 276 332
#     4  11  22  37  53  80 118 147 187 221 276 336
#
# _framework density 18.317001999999999
#
# number of rings (size 3 to 8) (size 9 to 14) (size 15 to 20)
#    0.000    2.000    2.500    3.750    0.000    2.000 
#    0.000    2.500    0.000    0.000    0.000    0.000 
#    0.000    0.000    0.000    0.000    0.000    0.000 
#
# Total GULP energy -178274.617784 kJ/mol
# GULP energy per Si atom -5571.081806 kJ/mol
# Density = 1.827531 g / cm^3
# Si number density = 18.317002 Si / 1000 Ang^3
#
#
#
# Elastic Constant Matrix: (Units=GPa)
#
#
# Indices 1 2 3 4 5 6 
#
# 1 125.5182 65.6736 30.0845 0.0000 4.8640 0.0000
# 2 65.6736 78.2559 29.3821 0.0000 2.0886 0.0000
# 3 30.0845 29.3821 32.3249 0.0000 4.9340 0.0000
# 4 0.0000 0.0000 0.0000 13.2228 0.0000 1.9265
# 5 4.8640 2.0886 4.9340 0.0000 26.3117 0.0000
# 6 0.0000 0.0000 0.0000 1.9265 0.0000 21.5792
#
#
#
# Elastic Compliance Matrix: (Units=1/GPa)
#
#
# Indices 1 2 3 4 5 6 
#
# 1 0.014523 -0.010853 -0.003473 0.000000 -0.001172 0.000000
# 2 -0.010853 0.027594 -0.015394 0.000000 0.002703 0.000000
# 3 -0.003473 -0.015394 0.049287 0.000000 -0.007378 0.000000
# 4 0.000000 0.000000 0.000000 0.076624 0.000000 -0.006841
# 5 -0.001172 0.002703 -0.007378 0.000000 0.039392 0.000000
# 6 0.000000 0.000000 0.000000 -0.006841 0.000000 0.046952
#
#
# Mechanical properties :
#
#
# Convention : Reuss Voigt Hill
#
# Bulk Modulus (GPa) = 31.28431 54.04217 42.66324
# Shear Modulus (GPa) = 15.40994 19.61997 17.51495
#
# Velocity S-wave (km/s) = 2.90365 3.27637 3.09562
# Velocity P-wave (km/s) = 5.32523 6.62425 6.00994
#
# Compressibility (1/GPa) = 0.03196490
#
# Stress axis : x y z
#
# Youngs Moduli (GPa) = 68.85510 36.23941 20.28937
#
# Poissons Ratio (x) = 0.39330 0.07046
# Poissons Ratio (y) = 0.74728 0.31233
# Poissons Ratio (z) = 0.23913 0.55787
#
# Static dielectric constant tensor:
#      x y z
#    x 1.678050 0.000000 0.024100 
#    y 0.000000 1.627800 0.000000 
#    z 0.024100 0.000000 1.624470 
# 
# From -- ./inp_files/27771.got.cif
#   From: 2010.05.17/outbox.cif.g08.bks.cpg/sg11_14_cif.got.tgz:27771.got - 2010.06.03 12:22:45.
