data_PCOD9157855
_publ_section_title
;
Structure prediction by ZEFSAII (Michael W. Deem and Ramdas Pophale) SiO2 
 PCOD9157855
Probable space group: P 21/M
;
_chemical_formula_sum "Si O2"
_cell_formula_units_Z 32
_cell_length_a 32.011853
_cell_length_b 9.009464
_cell_length_c 21.295654
_cell_angle_alpha 90.000000
_cell_angle_beta 20.233601
_cell_angle_gamma 90.000000
_cell_volume 2124.157269
_symmetry_space_group_name_H-M "P 21/M"
_symmetry_group_IT_number 11
_symmetry_cell_setting 'monoclinic'
loop_
_space_group_symop_operation_xyz
x,y,z
-x,1/2+y,-z
-x,-y,-z
x,1/2-y,z
loop_
_atom_site_type_symbol
_atom_site_label
_atom_site_fract_x
_atom_site_fract_y
_atom_site_fract_z
Si Si1 0.508685 0.574076 0.556012
Si Si2 0.929235 0.924822 0.504775
Si Si3 0.109645 0.572583 0.806472
Si Si4 0.977232 0.574105 0.745558
Si Si5 0.709638 0.924408 0.065309
Si Si6 0.257135 0.573505 0.716025
Si Si7 0.994443 0.072862 0.856419
Si Si8 0.161196 0.073549 0.239286
O O1 0.500000 0.500000 0.500000
O O2 0.510633 0.750000 0.546582
O O3 0.393390 0.522204 0.758750
O O4 0.630090 0.517009 0.418074
O O5 0.930040 0.750000 0.489977
O O6 0.829229 0.954848 0.699842
O O7 0.932675 0.015299 0.435534
O O8 0.053328 0.972839 0.364541
O O9 0.093896 0.750000 0.825530
O O10 0.224516 0.543245 0.689074
O O11 0.096017 0.501875 0.757252
O O12 0.000000 0.500000 0.000000
O O13 0.990655 0.750000 0.734656
O O14 0.995623 0.491010 0.784959
O O15 0.840164 0.547372 0.913641
O O16 0.681391 0.750000 0.114689
O O17 0.728919 0.950129 0.963569
O O18 0.280233 0.750000 0.689925
O O19 0.136717 0.539982 0.926896
O O20 0.008678 0.250000 0.836827
O O21 0.127960 0.250000 0.279302
#
# Coordination Sequence:
#
# PCOD9157855 Si02
#       8
#     4   4   4   4   4   4   4   4
#     4  12  24  34  46  63  85 115 150 186 221 254
#     4   9  15  24  40  61  84 110 141 176 213 255
#     4   9  17  30  48  67  86 110 140 176 217 261
#     4  10  19  29  42  62  89 120 149 177 215 260
#     4   9  18  32  46  60  83 115 150 185 217 253
#     4   9  19  34  49  64  84 112 146 181 217 256
#     4  10  19  30  46  67  89 114 144 179 218 260
#     4   8  15  27  42  59  80 110 144 176 214 257
#
# _framework density 15.064798
#
# number of rings (size 3 to 8) (size 9 to 14) (size 15 to 20)
#    0.000    2.500    0.000    4.875    0.000    8.000 
#    0.000    0.000    0.000    0.000    0.000    0.000 
#    0.000    1.000    0.000    3.000    0.000    4.250 
#
# Total GULP energy -178238.580650 kJ/mol
# GULP energy per Si atom -5569.955645 kJ/mol
# Density = 1.503051 g / cm^3
# Si number density = 15.064798 Si / 1000 Ang^3
#
#
#
# Elastic Constant Matrix: (Units=GPa)
#
#
# Indices 1 2 3 4 5 6 
#
# 1 122.7337 64.9993 49.2340 0.0000 12.1235 0.0000
# 2 64.9993 76.0610 43.7995 0.0000 2.0378 0.0000
# 3 49.2340 43.7995 51.9375 0.0000 9.3660 0.0000
# 4 0.0000 0.0000 0.0000 20.3997 0.0000 2.1590
# 5 12.1235 2.0378 9.3660 0.0000 20.8667 0.0000
# 6 0.0000 0.0000 0.0000 2.1590 0.0000 28.4539
#
#
#
# Elastic Compliance Matrix: (Units=1/GPa)
#
#
# Indices 1 2 3 4 5 6 
#
# 1 0.016814 -0.011021 -0.005524 0.000000 -0.006213 0.000000
# 2 -0.011021 0.034010 -0.020444 0.000000 0.012258 0.000000
# 3 -0.005524 -0.020444 0.044385 0.000000 -0.014716 0.000000
# 4 0.000000 0.000000 0.000000 0.049417 0.000000 -0.003750
# 5 -0.006213 0.012258 -0.014716 0.000000 0.056941 0.000000
# 6 0.000000 0.000000 0.000000 -0.003750 0.000000 0.035429
#
#
# Mechanical properties :
#
#
# Convention : Reuss Voigt Hill
#
# Bulk Modulus (GPa) = 47.10253 62.97752 55.04003
# Shear Modulus (GPa) = 15.72069 20.12403 17.92236
#
# Velocity S-wave (km/s) = 3.23389 3.65887 3.45292
# Velocity P-wave (km/s) = 6.72893 7.72948 7.24650
#
# Compressibility (1/GPa) = 0.02123028
#
# Stress axis : x y z
#
# Youngs Moduli (GPa) = 59.47283 29.40312 22.53027
#
# Poissons Ratio (x) = 0.32407 0.12446
# Poissons Ratio (y) = 0.65548 0.46060
# Poissons Ratio (z) = 0.32854 0.60111
#
# Static dielectric constant tensor:
#      x y z
#    x 1.528830 0.000000 0.024880 
#    y 0.000000 1.498960 0.000000 
#    z 0.024880 0.000000 1.492580 
# 
# From -- ./inp_files/67387.got.cif
#   From: 2010.05.17/outbox.cif.g08.bks.cpg/sg11_34_cif.got.tgz:67387.got - 2010.06.03 12:22:45.
