data_PCOD9157717
_publ_section_title
;
Structure prediction by ZEFSAII (Michael W. Deem and Ramdas Pophale) SiO2 
 PCOD9157717
Probable space group: P 21/M
;
_chemical_formula_sum "Si O2"
_cell_formula_units_Z 20
_cell_length_a 7.979565
_cell_length_b 14.268483
_cell_length_c 15.276903
_cell_angle_alpha 90.000000
_cell_angle_beta 148.361291
_cell_angle_gamma 90.000000
_cell_volume 912.406803
_symmetry_space_group_name_H-M "P 21/M"
_symmetry_group_IT_number 11
_symmetry_cell_setting 'monoclinic'
loop_
_space_group_symop_operation_xyz
x,y,z
-x,1/2+y,-z
-x,-y,-z
x,1/2-y,z
loop_
_atom_site_type_symbol
_atom_site_label
_atom_site_fract_x
_atom_site_fract_y
_atom_site_fract_z
Si Si1 0.484078 0.852636 0.805023
Si Si2 0.836900 0.404100 0.894668
Si Si3 0.894941 0.495806 0.237980
Si Si4 0.315729 0.519648 0.581246
Si Si5 0.649623 0.142205 0.002549
O O1 0.337528 0.750000 0.746911
O O2 0.310542 0.928741 0.788063
O O3 0.460300 0.889247 0.694145
O O4 0.853176 0.848992 0.997868
O O5 0.563044 0.434428 0.705949
O O6 0.685460 0.359056 0.913794
O O7 0.000000 0.500000 0.000000
O O8 0.916528 0.427303 0.163886
O O9 0.199940 0.525430 0.430224
O O10 0.679290 0.586889 0.122925
O O11 0.000000 0.500000 0.500000
O O12 0.662462 0.250000 0.038792
#
# Coordination Sequence:
#
# PCOD9157717 Si02
#       5
#     4   4   4   4   4
#     4  10  19  34  58  84 113 148 186 227 281 336
#     4  10  18  36  58  82 110 147 186 229 282 332
#     4  10  21  38  56  83 116 145 188 237 282 325
#     4   9  17  35  55  81 109 145 184 232 281 314
#     4  11  21  35  58  82 112 153 190 227 280 342
#
# _framework density 21.920045999999999
#
# number of rings (size 3 to 8) (size 9 to 14) (size 15 to 20)
#    0.000    2.000    6.000    1.200    0.000    0.800 
#    0.000    7.000    0.000    0.000    0.000    0.000 
#    0.000    0.000    0.000    0.000    0.000    0.000 
#
# Total GULP energy -111521.535407 kJ/mol
# GULP energy per Si atom -5576.076770 kJ/mol
# Density = 2.187015 g / cm^3
# Si number density = 21.920046 Si / 1000 Ang^3
#
#
#
# Elastic Constant Matrix: (Units=GPa)
#
#
# Indices 1 2 3 4 5 6 
#
# 1 56.1586 15.3861 14.6790 0.0000 -14.0574 0.0000
# 2 15.3861 117.3213 8.5033 0.0000 -2.4679 0.0000
# 3 14.6790 8.5033 114.9585 0.0000 -23.1782 0.0000
# 4 0.0000 0.0000 0.0000 11.2861 0.0000 -2.8755
# 5 -14.0574 -2.4679 -23.1782 0.0000 34.2269 0.0000
# 6 0.0000 0.0000 0.0000 -2.8755 0.0000 -1.1873
#
#
#
# Elastic Compliance Matrix: (Units=1/GPa)
#
#
# Indices 1 2 3 4 5 6 
#
# 1 0.020647 -0.002481 -0.000902 0.000000 0.007690 0.000000
# 2 -0.002481 0.008869 -0.000481 0.000000 -0.000705 0.000000
# 3 -0.000902 -0.000481 0.010154 0.000000 0.006471 0.000000
# 4 0.000000 0.000000 0.000000 0.054794 0.000000 -0.132704
# 5 0.007690 -0.000705 0.006471 0.000000 0.036706 0.000000
# 6 0.000000 0.000000 0.000000 -0.132704 0.000000 -0.520846
#
#
# Mechanical properties :
#
#
# Convention : Reuss Voigt Hill
#
# Bulk Modulus (GPa) = 31.30737 40.61946 35.96342
# Shear Modulus (GPa) = -13.46623 25.52315 6.02846
#
# Velocity S-wave (km/s) = -2.48127 3.41600 1.66017
# Velocity P-wave (km/s) = 2.47076 5.84206 4.48521
#
# Compressibility (1/GPa) = 0.03194136
#
# Stress axis : x y z
#
# Youngs Moduli (GPa) = 48.43287 112.75254 98.47991
#
# Poissons Ratio (x) = 0.27969 0.08887
# Poissons Ratio (y) = 0.12014 0.04742
# Poissons Ratio (z) = 0.04371 0.05429
#
# Static dielectric constant tensor:
#      x y z
#    x 1.927230 0.000000 -0.001910 
#    y 0.000000 1.794830 0.000000 
#    z -0.001910 0.000000 1.862880 
# 
# From -- ./inp_files/24706.got.cif
#   From: 2010.05.17/outbox.cif.g08.bks.cpg/sg11_13_cif.got.tgz:24706.got - 2010.06.03 12:22:45.
