data_PCOD9157543
_publ_section_title
;
Structure prediction by ZEFSAII (Michael W. Deem and Ramdas Pophale) SiO2 
 PCOD9157543
Probable space group: P 21/M
;
_chemical_formula_sum "Si O2"
_cell_formula_units_Z 28
_cell_length_a 12.899873
_cell_length_b 8.726397
_cell_length_c 15.462348
_cell_angle_alpha 90.000000
_cell_angle_beta 74.841527
_cell_angle_gamma 90.000000
_cell_volume 1680.025911
_symmetry_space_group_name_H-M "P 21/M"
_symmetry_group_IT_number 11
_symmetry_cell_setting 'monoclinic'
loop_
_space_group_symop_operation_xyz
x,y,z
-x,1/2+y,-z
-x,-y,-z
x,1/2-y,z
loop_
_atom_site_type_symbol
_atom_site_label
_atom_site_fract_x
_atom_site_fract_y
_atom_site_fract_z
Si Si1 0.654199 0.565374 0.911858
Si Si2 0.584344 0.432735 0.103300
Si Si3 0.399597 0.066590 0.712616
Si Si4 0.982957 0.434203 0.407623
Si Si5 0.204148 0.063685 0.275587
Si Si6 0.754013 0.934938 0.408245
Si Si7 0.629314 0.934936 0.610210
O O1 0.657481 0.750000 0.919648
O O2 0.540164 0.526518 0.891088
O O3 0.748458 0.514057 0.826902
O O4 0.651941 0.492305 0.006929
O O5 0.590358 0.250000 0.107464
O O6 0.616315 0.504224 0.187463
O O7 0.402580 0.250000 0.713823
O O8 0.306701 0.019017 0.666002
O O9 0.513633 0.006036 0.652859
O O10 0.983489 0.250000 0.412282
O O11 0.870344 0.492081 0.395236
O O12 0.000000 0.500000 0.500000
O O13 0.084631 0.484503 0.327303
O O14 0.204970 0.250000 0.274655
O O15 0.287100 0.017642 0.333065
O O16 0.765172 0.750000 0.407188
O O17 0.679747 0.976665 0.506756
O O18 0.619399 0.750000 0.616134
#
# Coordination Sequence:
#
# PCOD9157543 Si02
#       7
#     4   4   4   4   4   4   4
#     4   9  17  32  52  75 103 136 169 210 263 314
#     4  10  19  32  52  77 105 138 170 210 263 318
#     4  11  22  34  51  78 109 142 178 217 260 313
#     4  11  21  35  56  79 105 140 182 221 259 308
#     4   9  17  32  54  77 105 139 170 210 266 309
#     4  10  22  38  53  73 108 146 180 219 262 306
#     4  10  18  34  54  74 107 144 174 212 262 313
#
# _framework density 16.666409000000002
#
# number of rings (size 3 to 8) (size 9 to 14) (size 15 to 20)
#    0.000    2.000    2.857    1.714    0.000    2.286 
#    0.000    1.429    0.000    0.857    0.000    0.000 
#    0.000    0.000    0.000    0.000    0.000    0.000 
#
# Total GULP energy -156275.111289 kJ/mol
# GULP energy per Si atom -5581.253975 kJ/mol
# Density = 1.662848 g / cm^3
# Si number density = 16.666409 Si / 1000 Ang^3
#
#
#
# Elastic Constant Matrix: (Units=GPa)
#
#
# Indices 1 2 3 4 5 6 
#
# 1 132.6074 36.9320 99.0903 0.0000 7.2101 0.0000
# 2 36.9320 24.6942 43.9982 0.0000 3.4551 0.0000
# 3 99.0903 43.9982 175.5637 0.0000 -4.5492 0.0000
# 4 0.0000 0.0000 0.0000 22.9117 0.0000 -0.5740
# 5 7.2101 3.4551 -4.5492 0.0000 22.6580 0.0000
# 6 0.0000 0.0000 0.0000 -0.5740 0.0000 25.6252
#
#
#
# Elastic Compliance Matrix: (Units=1/GPa)
#
#
# Indices 1 2 3 4 5 6 
#
# 1 0.015524 -0.012323 -0.005783 0.000000 -0.004222 0.000000
# 2 -0.012323 0.088330 -0.015510 0.000000 -0.012662 0.000000
# 3 -0.005783 -0.015510 0.013024 0.000000 0.006820 0.000000
# 4 0.000000 0.000000 0.000000 0.043670 0.000000 0.000978
# 5 -0.004222 -0.012662 0.006820 0.000000 0.048778 0.000000
# 6 0.000000 0.000000 0.000000 0.000978 0.000000 0.039046
#
#
# Mechanical properties :
#
#
# Convention : Reuss Voigt Hill
#
# Bulk Modulus (GPa) = 20.14215 76.98959 48.56587
# Shear Modulus (GPa) = 15.05334 24.42862 19.74098
#
# Velocity S-wave (km/s) = 3.00861 3.83265 3.44536
# Velocity P-wave (km/s) = 4.91739 8.11667 6.71048
#
# Compressibility (1/GPa) = 0.04964713
#
# Stress axis : x y z
#
# Youngs Moduli (GPa) = 64.41653 11.32115 76.78358
#
# Poissons Ratio (x) = 0.13951 0.44405
# Poissons Ratio (y) = 0.79378 1.19088
# Poissons Ratio (z) = 0.37253 0.17559
#
# Static dielectric constant tensor:
#      x y z
#    x 1.536450 0.000000 -0.004620 
#    y 0.000000 1.562740 0.000000 
#    z -0.004620 0.000000 1.559310 
# 
# From -- ./inp_files/37422.got.cif
#   From: 2010.05.17/outbox.cif.g08.bks.cpg/sg11_19_cif.got.tgz:37422.got - 2010.06.03 12:22:45.
