data_PCOD9157292
_publ_section_title
;
Structure prediction by ZEFSAII (Michael W. Deem and Ramdas Pophale) SiO2 
 PCOD9157292
Probable space group: P 21/M
;
_chemical_formula_sum "Si O2"
_cell_formula_units_Z 32
_cell_length_a 21.354229
_cell_length_b 8.471866
_cell_length_c 14.744328
_cell_angle_alpha 90.000000
_cell_angle_beta 43.480763
_cell_angle_gamma 90.000000
_cell_volume 1835.466462
_symmetry_space_group_name_H-M "P 21/M"
_symmetry_group_IT_number 11
_symmetry_cell_setting 'monoclinic'
loop_
_space_group_symop_operation_xyz
x,y,z
-x,1/2+y,-z
-x,-y,-z
x,1/2-y,z
loop_
_atom_site_type_symbol
_atom_site_label
_atom_site_fract_x
_atom_site_fract_y
_atom_site_fract_z
Si Si1 0.899794 0.441487 0.578454
Si Si2 0.478772 0.938866 0.421343
Si Si3 0.862762 0.059481 0.413088
Si Si4 0.049275 0.560809 0.139823
Si Si5 0.805963 0.058465 0.857204
Si Si6 0.340050 0.560585 0.850576
Si Si7 0.275965 0.940832 0.586958
Si Si8 0.804786 0.562113 0.144544
O O1 0.901070 0.250000 0.576975
O O2 0.873139 0.496282 0.505812
O O3 0.831038 0.494779 0.730147
O O4 0.000000 0.500000 0.500000
O O5 0.477334 0.750000 0.426270
O O6 0.379493 0.995437 0.493384
O O7 0.500000 0.000000 0.500000
O O8 0.560441 0.993190 0.270894
O O9 0.864645 0.250000 0.412868
O O10 0.771480 0.009707 0.456828
O O11 0.949277 0.001661 0.264779
O O12 0.048797 0.750000 0.135416
O O13 0.112989 0.513121 0.158723
O O14 0.100011 0.494301 0.998261
O O15 0.804481 0.250000 0.857657
O O16 0.712195 0.007412 0.003173
O O17 0.344314 0.750000 0.845009
O O18 0.274334 0.507844 0.837227
O O19 0.276520 0.750000 0.589491
O O20 0.215220 0.001274 0.734102
O O21 0.799959 0.750000 0.146992
#
# Coordination Sequence:
#
# PCOD9157292 Si02
#       8
#     4   4   4   4   4   4   4   4
#     4  10  18  32  54  80 105 134 175 217 259 309
#     4  11  21  34  55  78 103 136 177 222 267 314
#     4  10  21  35  53  77 105 139 180 220 260 312
#     4  10  19  33  52  74 107 144 174 211 261 312
#     4   8  16  30  50  76 105 135 166 205 260 310
#     4  10  19  33  53  78 108 137 169 215 266 316
#     4  10  22  38  52  72 106 143 175 216 269 314
#     4  11  21  33  52  77 104 138 181 218 254 310
#
# _framework density 17.434260999999999
#
# number of rings (size 3 to 8) (size 9 to 14) (size 15 to 20)
#    0.000    2.000    2.500    3.000    0.000    1.500 
#    0.000    0.625    0.000    0.750    0.000    0.000 
#    0.000    0.000    0.000    0.000    0.000    0.625 
#
# Total GULP energy -178579.955896 kJ/mol
# GULP energy per Si atom -5580.623622 kJ/mol
# Density = 1.739458 g / cm^3
# Si number density = 17.434261 Si / 1000 Ang^3
#
#
#
# Elastic Constant Matrix: (Units=GPa)
#
#
# Indices 1 2 3 4 5 6 
#
# 1 122.6347 24.2845 79.3411 0.0000 -0.5030 0.0000
# 2 24.2845 22.8363 16.5773 0.0000 -1.3047 0.0000
# 3 79.3411 16.5773 136.3092 0.0000 0.7220 0.0000
# 4 0.0000 0.0000 0.0000 24.0391 0.0000 -4.7179
# 5 -0.5030 -1.3047 0.7220 0.0000 23.0575 0.0000
# 6 0.0000 0.0000 0.0000 -4.7179 0.0000 14.1223
#
#
#
# Elastic Compliance Matrix: (Units=1/GPa)
#
#
# Indices 1 2 3 4 5 6 
#
# 1 0.015114 -0.010627 -0.007505 0.000000 -0.000037 0.000000
# 2 -0.010627 0.055697 -0.000604 0.000000 0.002939 0.000000
# 3 -0.007505 -0.000604 0.011781 0.000000 -0.000567 0.000000
# 4 0.000000 0.000000 0.000000 0.044518 0.000000 0.014872
# 5 -0.000037 0.002939 -0.000567 0.000000 0.043553 0.000000
# 6 0.000000 0.000000 0.000000 0.014872 0.000000 0.075779
#
#
# Mechanical properties :
#
#
# Convention : Reuss Voigt Hill
#
# Bulk Modulus (GPa) = 22.16250 58.02066 40.09158
# Shear Modulus (GPa) = 16.72516 23.01560 19.87038
#
# Velocity S-wave (km/s) = 3.10066 3.63731 3.37965
# Velocity P-wave (km/s) = 5.05554 7.14087 6.18670
#
# Compressibility (1/GPa) = 0.04512126
#
# Stress axis : x y z
#
# Youngs Moduli (GPa) = 66.16495 17.95444 84.88312
#
# Poissons Ratio (x) = 0.19079 0.63702
# Poissons Ratio (y) = 0.70310 0.05125
# Poissons Ratio (z) = 0.49655 0.01084
#
# Static dielectric constant tensor:
#      x y z
#    x 1.594710 0.000000 0.008650 
#    y 0.000000 1.595260 0.000000 
#    z 0.008650 0.000000 1.602320 
# 
# From -- ./inp_files/54272.got.cif
#   From: 2010.05.17/outbox.cif.g08.bks.cpg/sg11_28_cif.got.tgz:54272.got - 2010.06.03 12:22:45.
