data_PCOD9157998
_publ_section_title
;
Structure prediction by ZEFSAII (Michael W. Deem and Ramdas Pophale) SiO2 
 PCOD9157998
Probable space group: P 21/M
;
_chemical_formula_sum "Si O2"
_cell_formula_units_Z 32
_cell_length_a 14.850831
_cell_length_b 8.968030
_cell_length_c 20.203187
_cell_angle_alpha 90.000000
_cell_angle_beta 135.312445
_cell_angle_gamma 90.000000
_cell_volume 1892.219179
_symmetry_space_group_name_H-M "P 21/M"
_symmetry_group_IT_number 11
_symmetry_cell_setting 'monoclinic'
loop_
_space_group_symop_operation_xyz
x,y,z
-x,1/2+y,-z
-x,-y,-z
x,1/2-y,z
loop_
_atom_site_type_symbol
_atom_site_label
_atom_site_fract_x
_atom_site_fract_y
_atom_site_fract_z
Si Si1 0.558041 0.925529 0.704490
Si Si2 0.660322 0.927434 0.893852
Si Si3 0.619951 0.571773 0.025998
Si Si4 0.073755 0.920555 0.956570
Si Si5 0.112660 0.578460 0.817083
Si Si6 0.852848 0.421295 0.663919
Si Si7 0.182006 0.919725 0.195207
Si Si8 0.589501 0.572482 0.489741
O O1 0.535612 0.750000 0.682024
O O2 0.557752 0.958315 0.782792
O O3 0.702420 0.968905 0.759041
O O4 0.466054 0.019926 0.609682
O O5 0.689142 0.750000 0.906420
O O6 0.616291 0.962729 0.945231
O O7 0.791375 0.015684 0.948171
O O8 0.619106 0.750000 0.032726
O O9 0.500000 0.500000 0.000000
O O10 0.753555 0.505872 0.122825
O O11 0.051151 0.750000 0.965110
O O12 0.089662 0.920847 0.884620
O O13 0.951120 0.023890 0.905175
O O14 0.120717 0.750000 0.799613
O O15 0.990065 0.496114 0.722303
O O16 0.848830 0.250000 0.638907
O O17 0.836083 0.418914 0.734878
O O18 0.733302 0.513226 0.573795
O O19 0.213007 0.750000 0.191197
O O20 0.500000 0.500000 0.500000
O O21 0.583435 0.750000 0.493181
#
# Coordination Sequence:
#
# PCOD9157998 Si02
#       8
#     4   4   4   4   4   4   4   4
#     4  11  22  35  50  68  95 131 173 217 258 300
#     4   9  20  36  51  70  99 133 166 205 252 304
#     4  10  19  34  56  82 109 135 166 203 250 308
#     4   9  17  29  47  68  94 129 169 209 248 294
#     4   9  17  30  49  76 105 133 167 207 253 302
#     4  10  19  32  50  72 100 134 173 218 261 299
#     4  10  19  30  46  67  94 130 172 213 254 297
#     4  12  23  35  51  72  98 133 177 224 264 302
#
# _framework density 16.911360999999999
#
# number of rings (size 3 to 8) (size 9 to 14) (size 15 to 20)
#    0.000    2.000    1.250    3.375    0.000    6.000 
#    0.000    0.000    0.000    0.000    0.000    0.875 
#    0.000    0.000    0.000    0.000    0.000    0.000 
#
# Total GULP energy -178678.131671 kJ/mol
# GULP energy per Si atom -5583.691615 kJ/mol
# Density = 1.687287 g / cm^3
# Si number density = 16.911361 Si / 1000 Ang^3
#
#
#
# Elastic Constant Matrix: (Units=GPa)
#
#
# Indices 1 2 3 4 5 6 
#
# 1 70.7083 43.6591 39.1402 0.0000 18.7222 0.0000
# 2 43.6591 121.2709 68.1769 0.0000 10.1744 0.0000
# 3 39.1402 68.1769 132.1828 0.0000 14.6510 0.0000
# 4 0.0000 0.0000 0.0000 30.1163 0.0000 6.2386
# 5 18.7222 10.1744 14.6510 0.0000 21.5833 0.0000
# 6 0.0000 0.0000 0.0000 6.2386 0.0000 22.3244
#
#
#
# Elastic Compliance Matrix: (Units=1/GPa)
#
#
# Indices 1 2 3 4 5 6 
#
# 1 0.023084 -0.005810 -0.002079 0.000000 -0.015874 0.000000
# 2 -0.005810 0.013122 -0.005321 0.000000 0.002466 0.000000
# 3 -0.002079 -0.005321 0.011298 0.000000 -0.003357 0.000000
# 4 0.000000 0.000000 0.000000 0.035245 0.000000 -0.009849
# 5 -0.015874 0.002466 -0.003357 0.000000 0.061218 0.000000
# 6 0.000000 0.000000 0.000000 -0.009849 0.000000 0.047546
#
#
# Mechanical properties :
#
#
# Convention : Reuss Voigt Hill
#
# Bulk Modulus (GPa) = 47.43106 69.56828 58.49967
# Shear Modulus (GPa) = 22.22605 26.35051 24.28828
#
# Velocity S-wave (km/s) = 3.62922 3.95163 3.79385
# Velocity P-wave (km/s) = 6.75791 7.87698 7.33881
#
# Compressibility (1/GPa) = 0.02108323
#
# Stress axis : x y z
#
# Youngs Moduli (GPa) = 43.32017 76.20689 88.51464
#
# Poissons Ratio (x) = 0.44274 0.18405
# Poissons Ratio (y) = 0.25168 0.47100
# Poissons Ratio (z) = 0.09008 0.40551
#
# Static dielectric constant tensor:
#      x y z
#    x 1.557950 0.000000 -0.030110 
#    y 0.000000 1.569690 0.000000 
#    z -0.030110 0.000000 1.584430 
# 
# From -- ./inp_files/51301.got.cif
#   From: 2010.05.17/outbox.cif.g08.bks.cpg/sg11_26_cif.got.tgz:51301.got - 2010.06.03 12:22:45.
