data_PCOD9157869
_publ_section_title
;
Structure prediction by ZEFSAII (Michael W. Deem and Ramdas Pophale) SiO2 
 PCOD9157869
Probable space group: P 21/M
;
_chemical_formula_sum "Si O2"
_cell_formula_units_Z 28
_cell_length_a 21.478641
_cell_length_b 9.294829
_cell_length_c 11.701424
_cell_angle_alpha 90.000000
_cell_angle_beta 49.838289
_cell_angle_gamma 90.000000
_cell_volume 1785.292618
_symmetry_space_group_name_H-M "P 21/M"
_symmetry_group_IT_number 11
_symmetry_cell_setting 'monoclinic'
loop_
_space_group_symop_operation_xyz
x,y,z
-x,1/2+y,-z
-x,-y,-z
x,1/2-y,z
loop_
_atom_site_type_symbol
_atom_site_label
_atom_site_fract_x
_atom_site_fract_y
_atom_site_fract_z
Si Si1 0.733835 0.423619 0.030868
Si Si2 0.399797 0.914954 0.508122
Si Si3 0.049580 0.422260 0.605167
Si Si4 0.931210 0.922095 0.154940
Si Si5 0.446005 0.585368 0.724117
Si Si6 0.242280 0.421653 0.756437
Si Si7 0.122214 0.921742 0.309037
O O1 0.737589 0.250000 0.046194
O O2 0.639276 0.458328 0.117096
O O3 0.758369 0.504423 0.118090
O O4 0.796530 0.460165 0.856379
O O5 0.385239 0.750000 0.492464
O O6 0.424292 0.915355 0.614064
O O7 0.476457 0.983993 0.352440
O O8 0.318483 0.009662 0.598914
O O9 0.059958 0.250000 0.585655
O O10 0.064028 0.467240 0.718273
O O11 0.108189 0.497988 0.444630
O O12 0.956946 0.455398 0.675550
O O13 0.945190 0.750000 0.134480
O O14 0.842480 0.950165 0.206961
O O15 0.000000 0.000000 0.000000
O O16 0.465920 0.750000 0.731326
O O17 0.253476 0.250000 0.754616
O O18 0.122493 0.750000 0.327589
#
# Coordination Sequence:
#
# PCOD9157869 Si02
#       7
#     4   4   4   4   4   4   4
#     4   9  17  29  45  66  92 120 148 181 224 266
#     4   9  16  26  40  59  86 119 149 178 218 264
#     4   9  18  32  47  64  89 118 147 181 221 260
#     4  10  21  34  48  67  91 120 151 184 221 261
#     4   8  14  24  39  60  86 115 145 178 217 263
#     4  10  19  29  43  65  91 119 152 184 217 262
#     4   9  17  30  48  67  87 114 148 183 218 261
#
# _framework density 15.683704000000001
#
# number of rings (size 3 to 8) (size 9 to 14) (size 15 to 20)
#    0.000    2.857    0.000    2.571    0.000    6.857 
#    0.000    2.857    0.000    0.000    0.000    1.000 
#    0.000    0.000    0.000    0.000    0.000    0.000 
#
# Total GULP energy -155996.770135 kJ/mol
# GULP energy per Si atom -5571.313219 kJ/mol
# Density = 1.564801 g / cm^3
# Si number density = 15.683704 Si / 1000 Ang^3
#
#
#
# Elastic Constant Matrix: (Units=GPa)
#
#
# Indices 1 2 3 4 5 6 
#
# 1 70.4637 47.5993 67.7489 0.0000 -9.1833 0.0000
# 2 47.5993 53.8624 60.7868 0.0000 -13.3798 0.0000
# 3 67.7489 60.7868 157.8731 0.0000 -22.3706 0.0000
# 4 0.0000 0.0000 0.0000 28.9525 0.0000 -4.0789
# 5 -9.1833 -13.3798 -22.3706 0.0000 24.2287 0.0000
# 6 0.0000 0.0000 0.0000 -4.0789 0.0000 18.7393
#
#
#
# Elastic Compliance Matrix: (Units=1/GPa)
#
#
# Indices 1 2 3 4 5 6 
#
# 1 0.039232 -0.028855 -0.006761 0.000000 -0.007307 0.000000
# 2 -0.028855 0.055261 -0.007042 0.000000 0.013078 0.000000
# 3 -0.006761 -0.007042 0.012693 0.000000 0.005269 0.000000
# 4 0.000000 0.000000 0.000000 0.035632 0.000000 0.007756
# 5 -0.007307 0.013078 0.005269 0.000000 0.050591 0.000000
# 6 0.000000 0.000000 0.000000 0.007756 0.000000 0.055052
#
#
# Mechanical properties :
#
#
# Convention : Reuss Voigt Hill
#
# Bulk Modulus (GPa) = 45.72203 70.49659 58.10931
# Shear Modulus (GPa) = 14.65989 21.45505 18.05747
#
# Velocity S-wave (km/s) = 3.06064 3.70264 3.39684
# Velocity P-wave (km/s) = 6.45801 7.95776 7.24678
#
# Compressibility (1/GPa) = 0.02187129
#
# Stress axis : x y z
#
# Youngs Moduli (GPa) = 25.48947 18.09589 78.78084
#
# Poissons Ratio (x) = 0.52216 0.53264
# Poissons Ratio (y) = 0.73550 0.55474
# Poissons Ratio (z) = 0.17233 0.12742
#
# Static dielectric constant tensor:
#      x y z
#    x 1.507470 0.000000 -0.018040 
#    y 0.000000 1.526680 0.000000 
#    z -0.018040 0.000000 1.519030 
# 
# From -- ./inp_files/42361.got.cif
#   From: 2010.05.17/outbox.cif.g08.bks.cpg/sg11_22_cif.got.tgz:42361.got - 2010.06.03 12:22:45.
