data_PCOD9157931
_publ_section_title
;
Structure prediction by ZEFSAII (Michael W. Deem and Ramdas Pophale) SiO2 
 PCOD9157931
Probable space group: P 21/M
;
_chemical_formula_sum "Si O2"
_cell_formula_units_Z 32
_cell_length_a 24.828384
_cell_length_b 8.785019
_cell_length_c 16.999602
_cell_angle_alpha 90.000000
_cell_angle_beta 28.032434
_cell_angle_gamma 90.000000
_cell_volume 1742.614229
_symmetry_space_group_name_H-M "P 21/M"
_symmetry_group_IT_number 11
_symmetry_cell_setting 'monoclinic'
loop_
_space_group_symop_operation_xyz
x,y,z
-x,1/2+y,-z
-x,-y,-z
x,1/2-y,z
loop_
_atom_site_type_symbol
_atom_site_label
_atom_site_fract_x
_atom_site_fract_y
_atom_site_fract_z
Si Si1 0.582827 0.932395 0.327693
Si Si2 0.515385 0.568023 0.236330
Si Si3 0.845257 0.428882 0.616429
Si Si4 0.929661 0.566385 0.345101
Si Si5 0.813742 0.068078 0.983389
Si Si6 0.232139 0.067138 0.129276
Si Si7 0.621791 0.922335 0.842460
Si Si8 0.294658 0.420694 0.444260
O O1 0.586066 0.750000 0.328488
O O2 0.537674 0.974124 0.298482
O O3 0.500000 0.000000 0.500000
O O4 0.711149 0.998314 0.166382
O O5 0.510597 0.750000 0.237254
O O6 0.394771 0.504433 0.362073
O O7 0.631927 0.521644 0.039171
O O8 0.867471 0.250000 0.592281
O O9 0.912135 0.500037 0.455769
O O10 0.850484 0.504403 0.695848
O O11 0.713968 0.468824 0.763578
O O12 0.914765 0.750000 0.370937
O O13 0.831657 0.511026 0.410543
O O14 0.058266 0.534434 0.152059
O O15 0.800043 0.250000 0.995831
O O16 0.803819 0.997190 0.908974
O O17 0.226849 0.250000 0.135633
O O18 0.623371 0.750000 0.874567
O O19 0.658104 0.909535 0.705271
O O20 0.500000 0.000000 0.000000
O O21 0.281323 0.250000 0.494282
#
# Coordination Sequence:
#
# PCOD9157931 Si02
#       8
#     4   4   4   4   4   4   4   4
#     4  10  21  38  60  87 114 136 163 203 255 312
#     4   9  19  33  51  77 106 134 165 209 262 308
#     4  11  21  31  46  69  97 136 185 228 268 313
#     4   9  20  37  52  71 103 142 181 220 262 307
#     4  10  20  36  58  80 104 136 173 214 263 317
#     4  10  20  34  50  71 104 140 177 226 275 316
#     4  10  19  30  43  63  94 132 176 225 271 312
#     4   9  18  31  48  70  98 134 173 211 252 304
#
# _framework density 18.363215
#
# number of rings (size 3 to 8) (size 9 to 14) (size 15 to 20)
#    0.000    2.250    0.000    4.875    0.000    9.000 
#    0.000    0.000    0.000    0.750    0.000    0.000 
#    0.000    0.000    0.000    0.000    0.000    0.000 
#
# Total GULP energy -178434.806778 kJ/mol
# GULP energy per Si atom -5576.087712 kJ/mol
# Density = 1.832142 g / cm^3
# Si number density = 18.363215 Si / 1000 Ang^3
#
#
#
# Elastic Constant Matrix: (Units=GPa)
#
#
# Indices 1 2 3 4 5 6 
#
# 1 55.6897 22.0757 45.6600 0.0000 -19.1582 0.0000
# 2 22.0757 52.0105 31.1647 0.0000 -5.6040 0.0000
# 3 45.6600 31.1647 116.5703 0.0000 -20.3179 0.0000
# 4 0.0000 0.0000 0.0000 24.8366 0.0000 1.6543
# 5 -19.1582 -5.6040 -20.3179 0.0000 30.3681 0.0000
# 6 0.0000 0.0000 0.0000 1.6543 0.0000 25.5768
#
#
#
# Elastic Compliance Matrix: (Units=1/GPa)
#
#
# Indices 1 2 3 4 5 6 
#
# 1 0.032329 -0.007251 -0.008380 0.000000 0.013450 0.000000
# 2 -0.007251 0.024522 -0.004216 0.000000 -0.002870 0.000000
# 3 -0.008380 -0.004216 0.013506 0.000000 0.002972 0.000000
# 4 0.000000 0.000000 0.000000 0.040437 0.000000 -0.002616
# 5 0.013450 -0.002870 0.002972 0.000000 0.042873 0.000000
# 6 0.000000 0.000000 0.000000 -0.002616 0.000000 0.039267
#
#
# Mechanical properties :
#
#
# Convention : Reuss Voigt Hill
#
# Bulk Modulus (GPa) = 32.61345 46.89683 39.75514
# Shear Modulus (GPa) = 20.58887 24.51429 22.55158
#
# Velocity S-wave (km/s) = 3.35207 3.65768 3.50821
# Velocity P-wave (km/s) = 5.72543 6.59030 6.17303
#
# Compressibility (1/GPa) = 0.03066219
#
# Stress axis : x y z
#
# Youngs Moduli (GPa) = 30.93178 40.78053 74.04140
#
# Poissons Ratio (x) = 0.29572 0.62048
# Poissons Ratio (y) = 0.22430 0.31213
# Poissons Ratio (z) = 0.25921 0.17192
#
# Static dielectric constant tensor:
#      x y z
#    x 1.094890 0.000000 0.446930 
#    y 0.000000 1.632900 0.000000 
#    z 0.446930 0.000000 1.240760 
# 
# From -- ./inp_files/55572.got.cif
#   From: 2010.05.17/outbox.cif.g08.bks.cpg/sg11_28_cif.got.tgz:55572.got - 2010.06.03 12:22:45.
