data_PCOD9157813
_publ_section_title
;
Structure prediction by ZEFSAII (Michael W. Deem and Ramdas Pophale) SiO2 
 PCOD9157813
Probable space group: P 21/M
;
_chemical_formula_sum "Si O2"
_cell_formula_units_Z 22
_cell_length_a 5.341791
_cell_length_b 19.638170
_cell_length_c 9.260806
_cell_angle_alpha 90.000000
_cell_angle_beta 63.529315
_cell_angle_gamma 90.000000
_cell_volume 869.638169
_symmetry_space_group_name_H-M "P 21/M"
_symmetry_group_IT_number 11
_symmetry_cell_setting 'monoclinic'
loop_
_space_group_symop_operation_xyz
x,y,z
-x,1/2+y,-z
-x,-y,-z
x,1/2-y,z
loop_
_atom_site_type_symbol
_atom_site_label
_atom_site_fract_x
_atom_site_fract_y
_atom_site_fract_z
Si Si1 0.371484 0.250000 0.844258
Si Si2 0.901985 0.398995 0.563635
Si Si3 0.237895 0.903433 0.917768
Si Si4 0.571201 0.896543 0.108704
Si Si5 0.792466 0.003291 0.348576
Si Si6 0.801263 0.250000 0.495950
Si Si7 0.781075 0.250000 0.153381
O O1 0.495849 0.316201 0.886203
O O2 0.485884 0.250000 0.649306
O O3 0.047484 0.250000 0.974478
O O4 0.588069 0.412925 0.702584
O O5 0.967109 0.442002 0.402850
O O6 0.936333 0.319667 0.520666
O O7 0.072134 0.430354 0.652908
O O8 0.249993 0.960864 0.792391
O O9 0.336191 0.827294 0.842203
O O10 0.425225 0.926259 0.004676
O O11 0.903745 0.901566 0.032271
O O12 0.500000 0.000000 0.500000
O O13 0.826331 0.250000 0.316118
#
# Coordination Sequence:
#
# PCOD9157813 Si02
#       7
#     2   4   4   4   4   2   2
#     4   8  19  37  64 100 141 170 234 298 345 404
#     4  10  24  45  68  98 138 179 232 289 348 418
#     4  11  24  42  70  99 136 184 233 285 352 411
#     4  10  23  42  68  99 135 182 233 289 347 413
#     4  11  26  43  66  98 143 181 229 292 343 420
#     4  10  18  42  72  98 130 186 232 282 358 422
#     4  10  19  39  68 100 139 180 236 292 347 416
#
# _framework density 25.297874
#
# number of rings (size 3 to 8) (size 9 to 14) (size 15 to 20)
#    0.000    1.818    1.818    0.545    7.636    1.455 
#    0.000    1.818    0.000    0.000    0.000    0.000 
#    0.000    0.000    0.000    0.000    0.000    0.000 
#
# Total GULP energy -122842.914345 kJ/mol
# GULP energy per Si atom -5583.768834 kJ/mol
# Density = 2.524030 g / cm^3
# Si number density = 25.297874 Si / 1000 Ang^3
#
#
#
# Elastic Constant Matrix: (Units=GPa)
#
#
# Indices 1 2 3 4 5 6 
#
# 1 71.7507 40.6549 29.0646 0.0000 19.4363 0.0000
# 2 40.6549 174.7057 57.3367 0.0000 25.0417 0.0000
# 3 29.0646 57.3367 84.8132 0.0000 18.8909 0.0000
# 4 0.0000 0.0000 0.0000 30.8324 0.0000 1.2320
# 5 19.4363 25.0417 18.8909 0.0000 48.6770 0.0000
# 6 0.0000 0.0000 0.0000 1.2320 0.0000 23.7831
#
#
#
# Elastic Compliance Matrix: (Units=1/GPa)
#
#
# Indices 1 2 3 4 5 6 
#
# 1 0.017947 -0.002360 -0.003535 0.000000 -0.004580 0.000000
# 2 -0.002360 0.007854 -0.004171 0.000000 -0.001479 0.000000
# 3 -0.003535 -0.004171 0.016452 0.000000 -0.002827 0.000000
# 4 0.000000 0.000000 0.000000 0.032501 0.000000 -0.001684
# 5 -0.004580 -0.001479 -0.002827 0.000000 0.024231 0.000000
# 6 0.000000 0.000000 0.000000 -0.001684 0.000000 0.042134
#
#
# Mechanical properties :
#
#
# Convention : Reuss Voigt Hill
#
# Bulk Modulus (GPa) = 45.20643 65.04243 55.12443
# Shear Modulus (GPa) = 29.65187 34.27273 31.96230
#
# Velocity S-wave (km/s) = 3.42732 3.68471 3.55834
# Velocity P-wave (km/s) = 5.79401 6.62338 6.22253
#
# Compressibility (1/GPa) = 0.02212075
#
# Stress axis : x y z
#
# Youngs Moduli (GPa) = 55.72036 127.32157 60.78381
#
# Poissons Ratio (x) = 0.30044 0.21485
# Poissons Ratio (y) = 0.13148 0.25356
# Poissons Ratio (z) = 0.19696 0.53112
#
# Static dielectric constant tensor:
#      x y z
#    x 2.063470 0.000000 0.011380 
#    y 0.000000 2.061440 0.000000 
#    z 0.011380 0.000000 2.025200 
# 
# From -- ./inp_files/2342.got.cif
#   From: 2010.05.17/outbox.cif.g08.bks.cpg/sg11_2_cif.got.tgz:2342.got - 2010.06.03 12:22:45.
