data_PCOD9157172
_publ_section_title
;
Structure prediction by ZEFSAII (Michael W. Deem and Ramdas Pophale) SiO2 
 PCOD9157172
Probable space group: P 21/M
;
_chemical_formula_sum "Si O2"
_cell_formula_units_Z 24
_cell_length_a 19.313002
_cell_length_b 13.895983
_cell_length_c 10.635435
_cell_angle_alpha 90.000000
_cell_angle_beta 157.929903
_cell_angle_gamma 90.000000
_cell_volume 1072.463452
_symmetry_space_group_name_H-M "P 21/M"
_symmetry_group_IT_number 11
_symmetry_cell_setting 'monoclinic'
loop_
_space_group_symop_operation_xyz
x,y,z
-x,1/2+y,-z
-x,-y,-z
x,1/2-y,z
loop_
_atom_site_type_symbol
_atom_site_label
_atom_site_fract_x
_atom_site_fract_y
_atom_site_fract_z
Si Si1 0.963552 0.250000 0.386975
Si Si2 0.310979 0.750000 0.865566
Si Si3 0.786746 0.541153 0.413291
Si Si4 0.284446 0.750000 0.515607
Si Si5 0.203336 0.959190 0.317639
Si Si6 0.283091 0.250000 0.757091
Si Si7 0.124023 0.960881 0.825282
Si Si8 0.448563 0.956366 0.202740
O O1 0.178123 0.250000 0.714697
O O2 0.890057 0.250000 0.405109
O O3 0.887709 0.345574 0.195989
O O4 0.278192 0.750000 0.659754
O O5 0.412770 0.846543 0.090869
O O6 0.708452 0.483533 0.397842
O O7 0.776352 0.654886 0.417761
O O8 0.995810 0.510026 0.727241
O O9 0.659804 0.521496 0.080337
O O10 0.200980 0.844550 0.310416
O O11 0.501968 0.750000 0.857994
O O12 0.339557 0.010431 0.447794
O O13 0.000000 0.000000 0.000000
O O14 0.334219 0.978003 0.138065
O O15 0.000000 0.000000 0.500000
#
# Coordination Sequence:
#
# PCOD9157172 Si02
#       8
#     2   2   4   2   4   2   4   4
#     4   8  16  28  46  92 116 130 164 230 282 320
#     4  10  18  31  62  86 112 138 182 229 276 322
#     4  10  18  35  57  85 108 142 181 229 272 321
#     4  12  22  38  56  78 106 146 184 232 272 324
#     4  12  26  39  53  78 116 151 188 224 271 329
#     4  10  18  31  62  86 112 138 182 229 276 322
#     4   8  16  28  53  82 111 131 173 227 277 315
#     4  10  18  35  57  85 108 142 181 229 272 321
#
# _framework density 22.378384
#
# number of rings (size 3 to 8) (size 9 to 14) (size 15 to 20)
#    0.000    2.000    3.333    1.500    0.000    1.333 
#    0.000    0.833    0.000    0.000    0.000    0.000 
#    0.000    0.000    0.000    0.000    0.000    0.000 
#
# Total GULP energy -133763.547331 kJ/mol
# GULP energy per Si atom -5573.481139 kJ/mol
# Density = 2.232745 g / cm^3
# Si number density = 22.378384 Si / 1000 Ang^3
#
#
#
# Elastic Constant Matrix: (Units=GPa)
#
#
# Indices 1 2 3 4 5 6 
#
# 1 107.1708 16.6794 33.6322 0.0000 49.4777 0.0000
# 2 16.6794 107.2859 -2.3584 0.0000 11.5705 0.0000
# 3 33.6322 -2.3584 101.6717 0.0000 43.6715 0.0000
# 4 0.0000 0.0000 0.0000 13.0864 0.0000 16.6627
# 5 49.4777 11.5705 43.6715 0.0000 46.9769 0.0000
# 6 0.0000 0.0000 0.0000 16.6627 0.0000 10.6937
#
#
#
# Elastic Compliance Matrix: (Units=1/GPa)
#
#
# Indices 1 2 3 4 5 6 
#
# 1 0.019039 -0.000344 0.003781 0.000000 -0.023483 0.000000
# 2 -0.000344 0.009847 0.002045 0.000000 -0.003964 0.000000
# 3 0.003781 0.002045 0.017578 0.000000 -0.020827 0.000000
# 4 0.000000 0.000000 0.000000 -0.077657 0.000000 0.121004
# 5 -0.023483 -0.003964 -0.020827 0.000000 0.066357 0.000000
# 6 0.000000 0.000000 0.000000 0.121004 0.000000 -0.095033
#
#
# Mechanical properties :
#
#
# Convention : Reuss Voigt Hill
#
# Bulk Modulus (GPa) = 17.41362 45.78165 31.59764
# Shear Modulus (GPa) = -96.73295 32.02976 -32.35159
#
# Velocity S-wave (km/s) = -6.58179 3.78733 -3.80631
# Velocity P-wave (km/s) = 7.06835 6.29504 2.27310
#
# Compressibility (1/GPa) = 0.05742632
#
# Stress axis : x y z
#
# Youngs Moduli (GPa) = 52.52292 101.55555 56.88840
#
# Poissons Ratio (x) = 0.03497 -0.21507
# Poissons Ratio (y) = 0.01809 -0.11633
# Poissons Ratio (z) = -0.19856 -0.20766
#
# Static dielectric constant tensor:
#      x y z
#    x 1.905310 0.000000 -0.018480 
#    y 0.000000 1.419280 0.000000 
#    z -0.018480 0.000000 1.898740 
# 
# From -- ./inp_files/43452.got.cif
#   From: 2010.05.17/outbox.cif.g08.bks.cpg/sg11_22_cif.got.tgz:43452.got - 2010.06.03 12:22:45.
