data_PCOD9157246
_publ_section_title
;
Structure prediction by ZEFSAII (Michael W. Deem and Ramdas Pophale) SiO2 
 PCOD9157246
Probable space group: P 21/M
;
_chemical_formula_sum "Si O2"
_cell_formula_units_Z 24
_cell_length_a 19.206974
_cell_length_b 8.568258
_cell_length_c 25.224948
_cell_angle_alpha 90.000000
_cell_angle_beta 19.131060
_cell_angle_gamma 90.000000
_cell_volume 1360.498612
_symmetry_space_group_name_H-M "P 21/M"
_symmetry_group_IT_number 11
_symmetry_cell_setting 'monoclinic'
loop_
_space_group_symop_operation_xyz
x,y,z
-x,1/2+y,-z
-x,-y,-z
x,1/2-y,z
loop_
_atom_site_type_symbol
_atom_site_label
_atom_site_fract_x
_atom_site_fract_y
_atom_site_fract_z
Si Si1 0.762154 0.563475 0.160536
Si Si2 0.925444 0.437598 0.496724
Si Si3 0.629862 0.937846 0.856992
Si Si4 0.478576 0.437749 0.851788
Si Si5 0.145660 0.564418 0.014707
Si Si6 0.672560 0.063540 0.334715
O O1 0.760943 0.750000 0.161622
O O2 0.719407 0.501219 0.132430
O O3 0.631450 0.500095 0.304648
O O4 0.000000 0.500000 0.000000
O O5 0.923134 0.250000 0.499422
O O6 0.680274 0.486480 0.669553
O O7 0.000000 0.500000 0.500000
O O8 0.119718 0.484542 0.319068
O O9 0.618758 0.750000 0.862514
O O10 0.535817 0.006272 0.869833
O O11 0.500000 0.000000 0.000000
O O12 0.460377 0.250000 0.864381
O O13 0.267789 0.512983 0.979579
O O14 0.130025 0.750000 0.021656
O O15 0.908425 0.494229 0.181608
O O16 0.671188 0.250000 0.334708
O O17 0.500000 0.000000 0.500000
#
# Coordination Sequence:
#
# PCOD9157246 Si02
#       6
#     4   4   4   4   4   4
#     4  10  18  32  53  77 102 134 173 213 255 307
#     4   8  16  30  50  72  97 127 166 207 249 300
#     4  10  19  33  52  77 105 138 174 213 260 317
#     4  10  19  34  54  77 102 134 173 219 267 313
#     4  11  21  35  54  79 107 138 175 220 267 315
#     4  11  21  36  56  80 108 141 177 216 261 316
#
# _framework density 17.640592000000002
#
# number of rings (size 3 to 8) (size 9 to 14) (size 15 to 20)
#    0.000    2.000    0.000    7.500    0.000    1.333 
#    0.000    1.667    0.000    2.000    0.000    0.000 
#    0.000    0.000    0.000    0.000    0.000    0.000 
#
# Total GULP energy -133762.478487 kJ/mol
# GULP energy per Si atom -5573.436604 kJ/mol
# Density = 1.760044 g / cm^3
# Si number density = 17.640592 Si / 1000 Ang^3
#
#
#
# Elastic Constant Matrix: (Units=GPa)
#
#
# Indices 1 2 3 4 5 6 
#
# 1 78.5036 33.8441 48.2907 0.0000 7.4204 0.0000
# 2 33.8441 129.6561 39.6973 0.0000 8.3917 0.0000
# 3 48.2907 39.6973 113.8566 0.0000 22.4061 0.0000
# 4 0.0000 0.0000 0.0000 25.6726 0.0000 5.1928
# 5 7.4204 8.3917 22.4061 0.0000 33.1418 0.0000
# 6 0.0000 0.0000 0.0000 5.1928 0.0000 28.1677
#
#
#
# Elastic Compliance Matrix: (Units=1/GPa)
#
#
# Indices 1 2 3 4 5 6 
#
# 1 0.018063 -0.002659 -0.007002 0.000000 0.001363 0.000000
# 2 -0.002659 0.009027 -0.001946 0.000000 -0.000375 0.000000
# 3 -0.007002 -0.001946 0.013871 0.000000 -0.007318 0.000000
# 4 0.000000 0.000000 0.000000 0.040461 0.000000 -0.007459
# 5 0.001363 -0.000375 -0.007318 0.000000 0.034910 0.000000
# 6 0.000000 0.000000 0.000000 -0.007459 0.000000 0.036877
#
#
# Mechanical properties :
#
#
# Convention : Reuss Voigt Hill
#
# Bulk Modulus (GPa) = 56.34793 62.85337 59.60065
# Shear Modulus (GPa) = 27.42139 30.74204 29.08171
#
# Velocity S-wave (km/s) = 3.94693 4.17908 4.06466
# Velocity P-wave (km/s) = 7.26516 7.68073 7.47583
#
# Compressibility (1/GPa) = 0.01774688
#
# Stress axis : x y z
#
# Youngs Moduli (GPa) = 55.36081 110.78075 72.09127
#
# Poissons Ratio (x) = 0.29461 0.50481
# Poissons Ratio (y) = 0.14722 0.14026
# Poissons Ratio (z) = 0.38765 0.21554
#
# Static dielectric constant tensor:
#      x y z
#    x 1.600960 0.000000 0.010320 
#    y 0.000000 1.589610 0.000000 
#    z 0.010320 0.000000 1.625490 
# 
# From -- ./inp_files/69503.got.cif
#   From: 2010.05.17/outbox.cif.g08.bks.cpg/sg11_35_cif.got.tgz:69503.got - 2010.06.03 12:22:45.
