data_PCOD9157530
_publ_section_title
;
Structure prediction by ZEFSAII (Michael W. Deem and Ramdas Pophale) SiO2 
 PCOD9157530
Probable space group: P 21/M
;
_chemical_formula_sum "Si O2"
_cell_formula_units_Z 28
_cell_length_a 6.432577
_cell_length_b 21.188884
_cell_length_c 12.632002
_cell_angle_alpha 90.000000
_cell_angle_beta 94.635264
_cell_angle_gamma 90.000000
_cell_volume 1716.099641
_symmetry_space_group_name_H-M "P 21/M"
_symmetry_group_IT_number 11
_symmetry_cell_setting 'monoclinic'
loop_
_space_group_symop_operation_xyz
x,y,z
-x,1/2+y,-z
-x,-y,-z
x,1/2-y,z
loop_
_atom_site_type_symbol
_atom_site_label
_atom_site_fract_x
_atom_site_fract_y
_atom_site_fract_z
Si Si1 0.090038 0.822453 0.252243
Si Si2 0.337590 0.998155 0.742067
Si Si3 0.448248 0.893419 0.386542
Si Si4 0.116968 0.563148 0.545249
Si Si5 0.944391 0.927176 0.098736
Si Si6 0.327406 0.480744 0.078998
Si Si7 0.155606 0.177912 0.535844
O O1 0.133733 0.750000 0.228896
O O2 0.297959 0.859050 0.296571
O O3 0.983665 0.859928 0.152630
O O4 0.941782 0.824643 0.349637
O O5 0.208618 0.950215 0.664645
O O6 0.537871 0.968777 0.810314
O O7 0.421025 0.052724 0.667310
O O8 0.186379 0.031116 0.821776
O O9 0.303837 0.923505 0.470861
O O10 0.605636 0.843184 0.443878
O O11 0.000000 0.500000 0.500000
O O12 0.966825 0.623950 0.533511
O O13 0.814620 0.928046 0.984092
O O14 0.164798 0.962324 0.091154
O O15 0.500000 0.500000 0.000000
O O16 0.131939 0.250000 0.496846
#
# Coordination Sequence:
#
# PCOD9157530 Si02
#       7
#     4   4   4   4   4   4   4
#     4  10  19  31  50  76 105 137 171 210 258 316
#     4  11  19  31  52  78 103 135 170 218 258 304
#     4  11  19  32  50  76 110 137 174 206 263 317
#     4  11  22  32  51  81 108 137 177 222 257 306
#     4  10  18  34  51  75 105 132 169 211 265 313
#     4   9  20  32  51  73 102 131 162 208 263 311
#     4  10  21  35  49  73 111 146 174 211 263 323
#
# _framework density 16.316068999999999
#
# number of rings (size 3 to 8) (size 9 to 14) (size 15 to 20)
#    0.000    1.714    4.286    1.714    0.000    0.571 
#    0.000    0.000    0.000    0.857    0.000   12.000 
#    0.000    0.000    0.000    0.000    0.000    0.000 
#
# Total GULP energy -156133.573867 kJ/mol
# GULP energy per Si atom -5576.199067 kJ/mol
# Density = 1.627893 g / cm^3
# Si number density = 16.316069 Si / 1000 Ang^3
#
#
#
# Elastic Constant Matrix: (Units=GPa)
#
#
# Indices 1 2 3 4 5 6 
#
# 1 78.4366 28.9700 14.7896 0.0000 7.2201 0.0000
# 2 28.9700 99.4722 31.7609 0.0000 16.4351 0.0000
# 3 14.7896 31.7609 52.7987 0.0000 25.6099 0.0000
# 4 0.0000 0.0000 0.0000 25.4592 0.0000 0.3814
# 5 7.2201 16.4351 25.6099 0.0000 35.4773 0.0000
# 6 0.0000 0.0000 0.0000 0.3814 0.0000 14.8711
#
#
#
# Elastic Compliance Matrix: (Units=1/GPa)
#
#
# Indices 1 2 3 4 5 6 
#
# 1 0.014435 -0.003607 -0.001938 0.000000 0.000132 0.000000
# 2 -0.003607 0.013351 -0.006735 0.000000 -0.000589 0.000000
# 3 -0.001938 -0.006735 0.033591 0.000000 -0.020734 0.000000
# 4 0.000000 0.000000 0.000000 0.039294 0.000000 -0.001008
# 5 0.000132 -0.000589 -0.020734 0.000000 0.043400 0.000000
# 6 0.000000 0.000000 0.000000 -0.001008 0.000000 0.067270
#
#
# Mechanical properties :
#
#
# Convention : Reuss Voigt Hill
#
# Bulk Modulus (GPa) = 27.16129 42.41651 34.78890
# Shear Modulus (GPa) = 20.14718 25.50733 22.82725
#
# Velocity S-wave (km/s) = 3.51779 3.95818 3.74447
# Velocity P-wave (km/s) = 5.76046 6.85148 6.32952
#
# Compressibility (1/GPa) = 0.03681711
#
# Stress axis : x y z
#
# Youngs Moduli (GPa) = 69.27814 74.89809 29.76974
#
# Poissons Ratio (x) = 0.27016 0.05768
# Poissons Ratio (y) = 0.24989 0.20051
# Poissons Ratio (z) = 0.13423 0.50447
#
# Static dielectric constant tensor:
#      x y z
#    x 1.570200 0.000000 0.014090 
#    y 0.000000 1.533460 0.000000 
#    z 0.014090 0.000000 1.552310 
# 
# From -- ./inp_files/4891.got.cif
#   From: 2010.05.17/outbox.cif.g08.bks.cpg/sg11_3_cif.got.tgz:4891.got - 2010.06.03 12:22:45.
