data_PCOD9157596
_publ_section_title
;
Structure prediction by ZEFSAII (Michael W. Deem and Ramdas Pophale) SiO2 
 PCOD9157596
Probable space group: P 21/M
;
_chemical_formula_sum "Si O2"
_cell_formula_units_Z 28
_cell_length_a 27.205647
_cell_length_b 7.630590
_cell_length_c 10.408403
_cell_angle_alpha 90.000000
_cell_angle_beta 141.741744
_cell_angle_gamma 90.000000
_cell_volume 1337.941751
_symmetry_space_group_name_H-M "P 21/M"
_symmetry_group_IT_number 11
_symmetry_cell_setting 'monoclinic'
loop_
_space_group_symop_operation_xyz
x,y,z
-x,1/2+y,-z
-x,-y,-z
x,1/2-y,z
loop_
_atom_site_type_symbol
_atom_site_label
_atom_site_fract_x
_atom_site_fract_y
_atom_site_fract_z
Si Si1 0.435277 0.539703 0.259732
Si Si2 0.734276 0.035657 0.984783
Si Si3 0.254807 0.535106 0.532141
Si Si4 0.018532 0.956834 0.686553
Si Si5 0.850711 0.459495 0.445749
Si Si6 0.567003 0.460341 0.033041
Si Si7 0.191324 0.535220 0.125354
O O1 0.500000 0.500000 0.500000
O O2 0.429721 0.750000 0.240086
O O3 0.349506 0.475593 0.131391
O O4 0.453088 0.474620 0.152137
O O5 0.734051 0.250000 0.984965
O O6 0.752549 0.981442 0.877435
O O7 0.804226 0.977122 0.223666
O O8 0.255191 0.750000 0.533622
O O9 0.194780 0.476329 0.521145
O O10 0.223753 0.478274 0.329472
O O11 0.344887 0.477737 0.746158
O O12 0.027066 0.750000 0.708026
O O13 0.943319 0.004032 0.619489
O O14 0.000000 0.000000 0.500000
O O15 0.102466 0.028172 0.909418
O O16 0.842076 0.250000 0.429077
O O17 0.572183 0.250000 0.037004
O O18 0.500000 0.500000 0.000000
O O19 0.190498 0.750000 0.125615
#
# Coordination Sequence:
#
# PCOD9157596 Si02
#       7
#     4   4   4   4   4   4   4
#     4  10  21  36  56  84 113 142 183 229 274 329
#     4   9  16  31  54  77 103 141 182 218 258 315
#     4   9  18  34  56  80 105 141 184 220 261 323
#     4  11  21  34  54  81 111 141 178 223 270 317
#     4  10  18  34  58  79 104 140 180 222 266 315
#     4  10  21  37  57  82 112 145 185 228 276 330
#     4   9  18  31  52  81 107 134 177 222 260 312
#
# _framework density 20.927669000000002
#
# number of rings (size 3 to 8) (size 9 to 14) (size 15 to 20)
#    0.000    2.286    2.857    0.429    2.000    1.143 
#    0.000    1.429    0.000    2.571    0.000    0.000 
#    0.000    0.000    0.000    0.000    0.000    0.000 
#
# Total GULP energy -156350.049236 kJ/mol
# GULP energy per Si atom -5583.930330 kJ/mol
# Density = 2.088004 g / cm^3
# Si number density = 20.927669 Si / 1000 Ang^3
#
#
#
# Elastic Constant Matrix: (Units=GPa)
#
#
# Indices 1 2 3 4 5 6 
#
# 1 204.6227 7.7820 98.8337 0.0000 -13.4884 0.0000
# 2 7.7820 37.1780 6.8338 0.0000 -3.4454 0.0000
# 3 98.8337 6.8338 156.2596 0.0000 -19.6212 0.0000
# 4 0.0000 0.0000 0.0000 13.8211 0.0000 6.8876
# 5 -13.4884 -3.4454 -19.6212 0.0000 39.9586 0.0000
# 6 0.0000 0.0000 0.0000 6.8876 0.0000 18.2708
#
#
#
# Elastic Compliance Matrix: (Units=1/GPa)
#
#
# Indices 1 2 3 4 5 6 
#
# 1 0.007054 -0.000651 -0.004413 0.000000 0.000158 0.000000
# 2 -0.000651 0.027308 -0.000548 0.000000 0.001866 0.000000
# 3 -0.004413 -0.000548 0.009615 0.000000 0.003184 0.000000
# 4 0.000000 0.000000 0.000000 0.089089 0.000000 -0.033584
# 5 0.000158 0.001866 0.003184 0.000000 0.026804 0.000000
# 6 0.000000 0.000000 0.000000 -0.033584 0.000000 0.067393
#
#
# Mechanical properties :
#
#
# Convention : Reuss Voigt Hill
#
# Bulk Modulus (GPa) = 30.53300 69.43993 49.98646
# Shear Modulus (GPa) = 20.04782 33.38414 26.71598
#
# Velocity S-wave (km/s) = 3.09845 3.99835 3.57681
# Velocity P-wave (km/s) = 5.23660 7.38706 6.40276
#
# Compressibility (1/GPa) = 0.03275145
#
# Stress axis : x y z
#
# Youngs Moduli (GPa) = 141.76749 36.61991 104.00654
#
# Poissons Ratio (x) = 0.02383 0.45900
# Poissons Ratio (y) = 0.09224 0.05704
# Poissons Ratio (z) = 0.62565 0.02008
#
# Static dielectric constant tensor:
#      x y z
#    x 1.721830 0.000000 -0.000040 
#    y 0.000000 1.802330 0.000000 
#    z -0.000040 0.000000 1.737340 
# 
# From -- ./inp_files/28618.got.cif
#   From: 2010.05.17/outbox.cif.g08.bks.cpg/sg11_15_cif.got.tgz:28618.got - 2010.06.03 12:22:45.
