data_PCOD9157626
_publ_section_title
;
Structure prediction by ZEFSAII (Michael W. Deem and Ramdas Pophale) SiO2 
 PCOD9157626
Probable space group: P 21/M
;
_chemical_formula_sum "Si O2"
_cell_formula_units_Z 24
_cell_length_a 19.851545
_cell_length_b 11.102228
_cell_length_c 15.121298
_cell_angle_alpha 90.000000
_cell_angle_beta 17.708324
_cell_angle_gamma 90.000000
_cell_volume 1013.705940
_symmetry_space_group_name_H-M "P 21/M"
_symmetry_group_IT_number 11
_symmetry_cell_setting 'monoclinic'
loop_
_space_group_symop_operation_xyz
x,y,z
-x,1/2+y,-z
-x,-y,-z
x,1/2-y,z
loop_
_atom_site_type_symbol
_atom_site_label
_atom_site_fract_x
_atom_site_fract_y
_atom_site_fract_z
Si Si1 0.696473 0.750000 0.404171
Si Si2 0.075351 0.750000 0.175559
Si Si3 0.224588 0.612939 0.511767
Si Si4 0.347496 0.488600 0.077478
Si Si5 0.221398 0.750000 0.791899
Si Si6 0.948589 0.497623 0.711665
Si Si7 0.553882 0.750000 0.785342
Si Si8 0.738226 0.491171 0.343826
O O1 0.596110 0.750000 0.627691
O O2 0.638583 0.618800 0.438074
O O3 0.966120 0.750000 0.074311
O O4 0.138970 0.869617 0.147043
O O5 0.806334 0.750000 0.506009
O O6 0.181181 0.750000 0.946527
O O7 0.199779 0.750000 0.572131
O O8 0.016707 0.571286 0.713367
O O9 0.272149 0.529635 0.537329
O O10 0.438190 0.594586 0.182518
O O11 0.168675 0.476120 0.377981
O O12 0.226364 0.449078 0.137973
O O13 0.426916 0.627882 0.971617
O O14 0.337486 0.870851 0.611145
O O15 0.000000 0.500000 0.000000
#
# Coordination Sequence:
#
# PCOD9157626 Si02
#       8
#     2   2   4   4   2   4   2   4
#     4   9  16  29  55  88 123 159 210 250 308 386
#     4  11  21  41  70  93 123 172 222 261 320 396
#     4  12  24  40  65  96 126 171 212 266 325 383
#     4  11  25  41  63  93 132 170 211 269 323 381
#     4   9  18  33  59  94 127 161 218 268 321 384
#     4  11  25  42  62  95 129 169 218 262 319 391
#     4  11  19  37  64  91 121 168 210 259 321 376
#     4  10  18  34  59  97 122 164 216 262 319 386
#
# _framework density 23.675504
#
# number of rings (size 3 to 8) (size 9 to 14) (size 15 to 20)
#    0.000    1.333    4.167    3.000    2.333    0.667 
#    0.000    0.000    0.000    4.000    0.000    0.000 
#    0.000    0.000    0.000    0.000    0.000    0.000 
#
# Total GULP energy -134258.304171 kJ/mol
# GULP energy per Si atom -5594.096007 kJ/mol
# Density = 2.362162 g / cm^3
# Si number density = 23.675504 Si / 1000 Ang^3
#
#
#
# Elastic Constant Matrix: (Units=GPa)
#
#
# Indices 1 2 3 4 5 6 
#
# 1 92.6565 26.7616 14.9992 0.0000 0.9828 0.0000
# 2 26.7616 171.8445 8.0932 0.0000 13.6983 0.0000
# 3 14.9992 8.0932 56.1764 0.0000 -3.5923 0.0000
# 4 0.0000 0.0000 0.0000 20.9703 0.0000 8.6929
# 5 0.9828 13.6983 -3.5923 0.0000 27.3266 0.0000
# 6 0.0000 0.0000 0.0000 8.6929 0.0000 14.7898
#
#
#
# Elastic Compliance Matrix: (Units=1/GPa)
#
#
# Indices 1 2 3 4 5 6 
#
# 1 0.011750 -0.001698 -0.002890 0.000000 0.000049 0.000000
# 2 -0.001698 0.006372 -0.000671 0.000000 -0.003221 0.000000
# 3 -0.002890 -0.000671 0.018856 0.000000 0.002919 0.000000
# 4 0.000000 0.000000 0.000000 0.063048 0.000000 -0.037057
# 5 0.000049 -0.003221 0.002919 0.000000 0.038591 0.000000
# 6 0.000000 0.000000 0.000000 -0.037057 0.000000 0.089395
#
#
# Mechanical properties :
#
#
# Convention : Reuss Voigt Hill
#
# Bulk Modulus (GPa) = 37.79005 46.70952 42.24978
# Shear Modulus (GPa) = 20.21437 30.67222 25.44330
#
# Velocity S-wave (km/s) = 2.92517 3.60325 3.28177
# Velocity P-wave (km/s) = 5.23499 6.08959 5.67839
#
# Compressibility (1/GPa) = 0.02646199
#
# Stress axis : x y z
#
# Youngs Moduli (GPa) = 85.10544 156.93770 53.03387
#
# Poissons Ratio (x) = 0.26642 0.15325
# Poissons Ratio (y) = 0.14448 0.03557
# Poissons Ratio (z) = 0.24592 0.10526
#
# Static dielectric constant tensor:
#      x y z
#    x 1.823230 0.000000 -0.038240 
#    y 0.000000 1.867420 0.000000 
#    z -0.038240 0.000000 1.852420 
# 
# From -- ./inp_files/54807.got.cif
#   From: 2010.05.17/outbox.cif.g08.bks.cpg/sg11_28_cif.got.tgz:54807.got - 2010.06.03 12:22:45.
