data_PCOD9157938
_publ_section_title
;
Structure prediction by ZEFSAII (Michael W. Deem and Ramdas Pophale) SiO2 
 PCOD9157938
Probable space group: P 21/M
;
_chemical_formula_sum "Si O2"
_cell_formula_units_Z 32
_cell_length_a 8.587126
_cell_length_b 29.509162
_cell_length_c 5.620187
_cell_angle_alpha 90.000000
_cell_angle_beta 89.999138
_cell_angle_gamma 90.000000
_cell_volume 1424.149160
_symmetry_space_group_name_H-M "P 21/M"
_symmetry_group_IT_number 11
_symmetry_cell_setting 'monoclinic'
loop_
_space_group_symop_operation_xyz
x,y,z
-x,1/2+y,-z
-x,-y,-z
x,1/2-y,z
loop_
_atom_site_type_symbol
_atom_site_label
_atom_site_fract_x
_atom_site_fract_y
_atom_site_fract_z
Si Si1 0.359179 0.035066 0.499991
Si Si2 0.264280 0.063763 0.999993
Si Si3 0.865353 0.450719 0.500007
Si Si4 0.005644 0.803879 0.499991
Si Si5 0.143915 0.960488 0.999993
Si Si6 0.674113 0.142832 0.500017
Si Si7 0.669667 0.124244 0.000017
Si Si8 0.041818 0.349248 0.000008
O O1 0.354485 0.062934 0.254512
O O2 0.500000 0.000000 0.500000
O O3 0.215814 0.999417 0.499991
O O4 0.354481 0.062935 0.745466
O O5 0.192476 0.012530 0.999993
O O6 0.156220 0.107915 0.000001
O O7 0.943418 0.448332 0.755615
O O8 0.752866 0.407400 0.500011
O O9 0.943418 0.448332 0.244395
O O10 0.997600 0.750000 0.499994
O O11 0.936226 0.823240 0.251804
O O12 0.185658 0.821058 0.499986
O O13 0.936226 0.823240 0.748179
O O14 0.302651 0.930281 0.999987
O O15 0.596037 0.143536 0.758602
O O16 0.596037 0.143536 0.241435
O O17 0.854978 0.138611 0.000012
#
# Coordination Sequence:
#
# PCOD9157938 Si02
#       8
#     4   4   4   4   4   4   4   4
#     4  10  19  31  46  64  88 120 154 187 223 262
#     4  10  19  30  44  63  88 117 149 184 218 258
#     4   8  14  25  40  58  82 111 145 180 212 247
#     4  10  19  31  46  64  88 116 146 179 219 266
#     4   8  14  24  38  57  82 113 145 173 201 240
#     4   8  14  25  40  58  82 111 141 176 210 247
#     4   8  14  24  38  57  82 113 145 171 201 240
#     4  10  19  30  44  63  88 117 147 182 218 258
#
# _framework density 22.469556000000001
#
# number of rings (size 3 to 8) (size 9 to 14) (size 15 to 20)
#    0.000    3.000    0.000    1.500    0.000    0.500 
#    0.000    0.000    0.000   15.000    0.000    0.000 
#    0.000    6.000    0.000    2.500    0.000    0.000 
#
# Total GULP energy -178351.504131 kJ/mol
# GULP energy per Si atom -5573.484504 kJ/mol
# Density = 2.241841 g / cm^3
# Si number density = 22.469556 Si / 1000 Ang^3
#
#
#
# Elastic Constant Matrix: (Units=GPa)
#
#
# Indices 1 2 3 4 5 6 
#
# 1 24.1201 21.3212 41.8393 0.0000 0.0016 0.0000
# 2 21.3212 102.9351 80.6756 0.0000 0.0026 0.0000
# 3 41.8393 80.6756 291.8066 0.0000 0.0078 0.0000
# 4 0.0000 0.0000 0.0000 32.1096 0.0000 0.0003
# 5 0.0016 0.0026 0.0078 0.0000 -2.7244 0.0000
# 6 0.0000 0.0000 0.0000 0.0003 0.0000 18.6870
#
#
#
# Elastic Compliance Matrix: (Units=1/GPa)
#
#
# Indices 1 2 3 4 5 6 
#
# 1 0.059028 -0.007141 -0.006489 0.000000 0.000009 0.000000
# 2 -0.007141 0.013266 -0.002644 0.000000 0.000001 0.000000
# 3 -0.006489 -0.002644 0.005088 0.000000 0.000008 0.000000
# 4 0.000000 0.000000 0.000000 0.031143 0.000000 -0.000001
# 5 0.000009 0.000001 0.000008 0.000000 -0.367047 0.000000
# 6 0.000000 0.000000 0.000000 -0.000001 0.000000 0.053513
#
#
# Mechanical properties :
#
#
# Convention : Reuss Voigt Hill
#
# Bulk Modulus (GPa) = 22.30421 78.50378 50.40399
# Shear Modulus (GPa) = -31.74266 27.94949 -1.89658
#
# Velocity S-wave (km/s) = -3.76266 3.53070 -0.91973
# Velocity P-wave (km/s) = 2.98812 7.18574 4.62093
#
# Compressibility (1/GPa) = 0.04483459
#
# Stress axis : x y z
#
# Youngs Moduli (GPa) = 16.94124 75.38069 196.52954
#
# Poissons Ratio (x) = 0.53826 1.27533
# Poissons Ratio (y) = 0.12097 0.51959
# Poissons Ratio (z) = 0.10994 0.19929
#
# Static dielectric constant tensor:
#      x y z
#    x 1.910960 0.000000 0.000010 
#    y 0.000000 1.788090 0.000000 
#    z 0.000010 0.000000 1.978430 
# 
# From -- ./inp_files/5589.got.cif
#   From: 2010.05.17/outbox.cif.g08.bks.cpg/sg11_3_cif.got.tgz:5589.got - 2010.06.03 12:22:45.
