data_PCOD9157890
_publ_section_title
;
Structure prediction by ZEFSAII (Michael W. Deem and Ramdas Pophale) SiO2 
 PCOD9157890
Probable space group: P 21/M
;
_chemical_formula_sum "Si O2"
_cell_formula_units_Z 28
_cell_length_a 16.478997
_cell_length_b 8.940251
_cell_length_c 16.531392
_cell_angle_alpha 90.000000
_cell_angle_beta 129.774621
_cell_angle_gamma 90.000000
_cell_volume 1871.852545
_symmetry_space_group_name_H-M "P 21/M"
_symmetry_group_IT_number 11
_symmetry_cell_setting 'monoclinic'
loop_
_space_group_symop_operation_xyz
x,y,z
-x,1/2+y,-z
-x,-y,-z
x,1/2-y,z
loop_
_atom_site_type_symbol
_atom_site_label
_atom_site_fract_x
_atom_site_fract_y
_atom_site_fract_z
Si Si1 0.985049 0.428857 0.791114
Si Si2 0.966754 0.571403 0.604926
Si Si3 0.836202 0.429997 0.382360
Si Si4 0.608406 0.428258 0.967907
Si Si5 0.892016 0.070639 0.896917
Si Si6 0.616211 0.429483 0.162832
Si Si7 0.792285 0.570912 0.980018
O O1 0.984591 0.250000 0.778581
O O2 0.100531 0.468309 0.901599
O O3 0.965669 0.509314 0.694563
O O4 0.898646 0.463802 0.805647
O O5 0.959565 0.750000 0.601068
O O6 0.875462 0.503853 0.490094
O O7 0.077134 0.529658 0.630872
O O8 0.838577 0.250000 0.392352
O O9 0.719968 0.473714 0.278738
O O10 0.613560 0.250000 0.960129
O O11 0.490141 0.488007 0.878357
O O12 0.633259 0.461280 0.078291
O O13 0.692749 0.508328 0.964770
O O14 0.894402 0.250000 0.907356
O O15 0.803410 0.000984 0.898007
O O16 0.000000 0.000000 0.000000
O O17 0.601628 0.250000 0.160875
O O18 0.788806 0.750000 0.971149
#
# Coordination Sequence:
#
# PCOD9157890 Si02
#       7
#     4   4   4   4   4   4   4
#     4   9  18  30  44  64  91 121 149 180 220 264
#     4  10  19  29  45  68  90 116 151 186 221 263
#     4   9  18  32  46  62  89 121 151 185 222 260
#     4  10  19  30  46  68  92 118 150 187 225 265
#     4   9  17  29  44  64  90 119 150 183 222 266
#     4   9  18  32  47  64  89 121 154 186 222 264
#     4  10  19  30  45  66  92 122 153 184 221 266
#
# _framework density 14.958444
#
# number of rings (size 3 to 8) (size 9 to 14) (size 15 to 20)
#    0.000    2.571    0.000    3.429    0.000    6.286 
#    0.000    0.000    0.000    0.000    0.000    1.000 
#    0.000    0.000    0.000    0.000    0.000    0.000 
#
# Total GULP energy -156065.594627 kJ/mol
# GULP energy per Si atom -5573.771237 kJ/mol
# Density = 1.492440 g / cm^3
# Si number density = 14.958444 Si / 1000 Ang^3
#
#
#
# Elastic Constant Matrix: (Units=GPa)
#
#
# Indices 1 2 3 4 5 6 
#
# 1 124.3540 53.2033 67.0173 0.0000 -12.4314 0.0000
# 2 53.2033 46.6297 47.0301 0.0000 -7.9223 0.0000
# 3 67.0173 47.0301 112.2059 0.0000 -6.7805 0.0000
# 4 0.0000 0.0000 0.0000 23.9149 0.0000 -2.8189
# 5 -12.4314 -7.9223 -6.7805 0.0000 25.6911 0.0000
# 6 0.0000 0.0000 0.0000 -2.8189 0.0000 26.8071
#
#
#
# Elastic Compliance Matrix: (Units=1/GPa)
#
#
# Indices 1 2 3 4 5 6 
#
# 1 0.016570 -0.014991 -0.003463 0.000000 0.002481 0.000000
# 2 -0.014991 0.052178 -0.012583 0.000000 0.005515 0.000000
# 3 -0.003463 -0.012583 0.016177 0.000000 -0.001287 0.000000
# 4 0.000000 0.000000 0.000000 0.042340 0.000000 0.004452
# 5 0.002481 0.005515 -0.001287 0.000000 0.041486 0.000000
# 6 0.000000 0.000000 0.000000 0.004452 0.000000 0.037772
#
#
# Mechanical properties :
#
#
# Convention : Reuss Voigt Hill
#
# Bulk Modulus (GPa) = 43.76357 68.63234 56.19795
# Shear Modulus (GPa) = 18.10195 23.01188 20.55692
#
# Velocity S-wave (km/s) = 3.48249 3.92648 3.71113
# Velocity P-wave (km/s) = 6.74467 8.15708 7.48427
#
# Compressibility (1/GPa) = 0.02285006
#
# Stress axis : x y z
#
# Youngs Moduli (GPa) = 60.35059 19.16516 61.81609
#
# Poissons Ratio (x) = 0.28731 0.21409
# Poissons Ratio (y) = 0.90472 0.77783
# Poissons Ratio (z) = 0.20902 0.24115
#
# Static dielectric constant tensor:
#      x y z
#    x 1.499620 0.000000 -0.008830 
#    y 0.000000 1.494850 0.000000 
#    z -0.008830 0.000000 1.476630 
# 
# From -- ./inp_files/37406.got.cif
#   From: 2010.05.17/outbox.cif.g08.bks.cpg/sg11_19_cif.got.tgz:37406.got - 2010.06.03 12:22:45.
