data_PCOD9157867
_publ_section_title
;
Structure prediction by ZEFSAII (Michael W. Deem and Ramdas Pophale) SiO2 
 PCOD9157867
Probable space group: P 21/M
;
_chemical_formula_sum "Si O2"
_cell_formula_units_Z 32
_cell_length_a 22.343767
_cell_length_b 8.965832
_cell_length_c 16.539966
_cell_angle_alpha 90.000000
_cell_angle_beta 140.432651
_cell_angle_gamma 90.000000
_cell_volume 2110.623015
_symmetry_space_group_name_H-M "P 21/M"
_symmetry_group_IT_number 11
_symmetry_cell_setting 'monoclinic'
loop_
_space_group_symop_operation_xyz
x,y,z
-x,1/2+y,-z
-x,-y,-z
x,1/2-y,z
loop_
_atom_site_type_symbol
_atom_site_label
_atom_site_fract_x
_atom_site_fract_y
_atom_site_fract_z
Si Si1 0.573546 0.579932 0.465603
Si Si2 0.306617 0.929368 0.084453
Si Si3 0.504267 0.072077 0.237927
Si Si4 0.639837 0.079074 0.686159
Si Si5 0.431033 0.070822 0.862076
Si Si6 0.217673 0.427956 0.689515
Si Si7 0.840248 0.571273 0.186596
Si Si8 0.035831 0.927951 0.453771
O O1 0.595486 0.750000 0.466027
O O2 0.567013 0.477030 0.380101
O O3 0.467696 0.579026 0.392411
O O4 0.639603 0.520140 0.605903
O O5 0.317711 0.750000 0.091901
O O6 0.301303 0.970116 0.174166
O O7 0.400180 0.006188 0.146043
O O8 0.218572 0.984536 0.941355
O O9 0.499386 0.250000 0.226138
O O10 0.544125 0.999096 0.198380
O O11 0.663309 0.250000 0.690175
O O12 0.442352 0.250000 0.871994
O O13 0.323617 0.037331 0.774802
O O14 0.500000 0.000000 0.000000
O O15 0.203231 0.250000 0.668640
O O16 0.199122 0.467562 0.764535
O O17 0.139951 0.507666 0.552955
O O18 0.828065 0.750000 0.163894
O O19 0.951864 0.537794 0.303844
O O20 0.039463 0.750000 0.466027
O O21 0.000000 0.000000 0.500000
#
# Coordination Sequence:
#
# PCOD9157867 Si02
#       8
#     4   4   4   4   4   4   4   4
#     4   9  16  27  43  61  81 109 146 182 216 257
#     4  10  19  29  43  64  89 118 150 182 217 261
#     4  11  21  32  45  61  86 120 153 186 221 256
#     4   8  15  26  39  59  85 111 141 176 216 260
#     4  11  22  35  49  66  89 117 151 188 222 258
#     4   9  19  33  47  63  85 113 146 185 223 257
#     4   9  17  29  44  65  90 114 142 177 220 265
#     4   9  17  29  46  65  85 110 142 179 218 262
#
# _framework density 15.161398999999999
#
# number of rings (size 3 to 8) (size 9 to 14) (size 15 to 20)
#    0.000    2.500    0.000    4.875    0.000    8.000 
#    0.000    0.000    0.000    0.000    0.000    0.000 
#    0.000    1.000    0.000    3.250    0.000    5.000 
#
# Total GULP energy -178309.141778 kJ/mol
# GULP energy per Si atom -5572.160681 kJ/mol
# Density = 1.512689 g / cm^3
# Si number density = 15.161399 Si / 1000 Ang^3
#
#
#
# Elastic Constant Matrix: (Units=GPa)
#
#
# Indices 1 2 3 4 5 6 
#
# 1 47.4531 35.5643 51.3405 0.0000 -0.8397 0.0000
# 2 35.5643 71.3399 63.3528 0.0000 1.7809 0.0000
# 3 51.3405 63.3528 142.4162 0.0000 -2.7571 0.0000
# 4 0.0000 0.0000 0.0000 30.3897 0.0000 -1.5592
# 5 -0.8397 1.7809 -2.7571 0.0000 20.1437 0.0000
# 6 0.0000 0.0000 0.0000 -1.5592 0.0000 18.4698
#
#
#
# Elastic Compliance Matrix: (Units=1/GPa)
#
#
# Indices 1 2 3 4 5 6 
#
# 1 0.039737 -0.011819 -0.009039 0.000000 0.001464 0.000000
# 2 -0.011819 0.026930 -0.007795 0.000000 -0.003941 0.000000
# 3 -0.009039 -0.007795 0.013790 0.000000 0.002200 0.000000
# 4 0.000000 0.000000 0.000000 0.033049 0.000000 0.002790
# 5 0.001464 -0.003941 0.002200 0.000000 0.050354 0.000000
# 6 0.000000 0.000000 0.000000 0.002790 0.000000 0.054378
#
#
# Mechanical properties :
#
#
# Convention : Reuss Voigt Hill
#
# Bulk Modulus (GPa) = 43.19502 62.41381 52.80441
# Shear Modulus (GPa) = 17.65150 21.19742 19.42446
#
# Velocity S-wave (km/s) = 3.41580 3.74320 3.58324
# Velocity P-wave (km/s) = 6.64145 7.74194 7.21272
#
# Compressibility (1/GPa) = 0.02315082
#
# Stress axis : x y z
#
# Youngs Moduli (GPa) = 25.16564 37.13280 72.51389
#
# Poissons Ratio (x) = 0.43888 0.65545
# Poissons Ratio (y) = 0.29744 0.56527
# Poissons Ratio (z) = 0.22747 0.28946
#
# Static dielectric constant tensor:
#      x y z
#    x 1.487470 0.000000 0.002340 
#    y 0.000000 1.510380 0.000000 
#    z 0.002340 0.000000 1.524200 
# 
# From -- ./inp_files/54317.got.cif
#   From: 2010.05.17/outbox.cif.g08.bks.cpg/sg11_28_cif.got.tgz:54317.got - 2010.06.03 12:22:45.
