data_PCOD9157979
_publ_section_title
;
Structure prediction by ZEFSAII (Michael W. Deem and Ramdas Pophale) SiO2 
 PCOD9157979
Probable space group: P 21/M
;
_chemical_formula_sum "Si O2"
_cell_formula_units_Z 24
_cell_length_a 23.983775
_cell_length_b 8.134863
_cell_length_c 12.283817
_cell_angle_alpha 90.000000
_cell_angle_beta 145.829689
_cell_angle_gamma 90.000000
_cell_volume 1346.078990
_symmetry_space_group_name_H-M "P 21/M"
_symmetry_group_IT_number 11
_symmetry_cell_setting 'monoclinic'
loop_
_space_group_symop_operation_xyz
x,y,z
-x,1/2+y,-z
-x,-y,-z
x,1/2-y,z
loop_
_atom_site_type_symbol
_atom_site_label
_atom_site_fract_x
_atom_site_fract_y
_atom_site_fract_z
Si Si1 0.427021 0.446227 0.738047
Si Si2 0.253750 0.053904 0.613231
Si Si3 0.713565 0.449309 0.677132
Si Si4 0.887845 0.054307 0.800921
Si Si5 0.391646 0.948424 0.280779
Si Si6 0.361254 0.948394 0.984956
O O1 0.432511 0.250000 0.762835
O O2 0.349019 0.515130 0.699384
O O3 0.376585 0.482447 0.540831
O O4 0.538436 0.512137 0.912736
O O5 0.257323 0.250000 0.616311
O O6 0.158888 0.001244 0.389613
O O7 0.268515 0.997981 0.760766
O O8 0.711288 0.250000 0.669084
O O9 0.813538 0.505963 0.777175
O O10 0.690967 0.499881 0.764035
O O11 0.884647 0.250000 0.798128
O O12 0.000000 0.000000 0.000000
O O13 0.392257 0.750000 0.278201
O O14 0.500000 0.000000 0.500000
O O15 0.367272 0.007168 0.119390
O O16 0.365370 0.750000 0.993839
#
# Coordination Sequence:
#
# PCOD9157979 Si02
#       6
#     4   4   4   4   4   4
#     4   9  17  29  45  68  99 134 168 203 241 286
#     4  10  20  32  48  72 100 130 167 206 248 296
#     4   9  18  31  49  74 101 130 166 205 246 291
#     4  10  20  36  57  78  99 124 159 208 260 305
#     4  10  19  31  48  71 102 139 173 203 237 284
#     4  10  19  30  45  68 102 139 169 200 240 286
#
# _framework density 17.829563
#
# number of rings (size 3 to 8) (size 9 to 14) (size 15 to 20)
#    0.000    2.333    1.667    1.500    0.000    2.667 
#    0.000    0.000    0.000    1.000    0.000    0.000 
#    0.000    0.000    0.000    0.000    0.000    0.000 
#
# Total GULP energy -133780.281844 kJ/mol
# GULP energy per Si atom -5574.178410 kJ/mol
# Density = 1.778898 g / cm^3
# Si number density = 17.829563 Si / 1000 Ang^3
#
#
#
# Elastic Constant Matrix: (Units=GPa)
#
#
# Indices 1 2 3 4 5 6 
#
# 1 64.3072 8.1676 74.8944 0.0000 -15.3924 0.0000
# 2 8.1676 13.2043 11.0398 0.0000 -1.5204 0.0000
# 3 74.8944 11.0398 146.9306 0.0000 -15.9566 0.0000
# 4 0.0000 0.0000 0.0000 27.0522 0.0000 -2.9942
# 5 -15.3924 -1.5204 -15.9566 0.0000 29.9357 0.0000
# 6 0.0000 0.0000 0.0000 -2.9942 0.0000 13.8685
#
#
#
# Elastic Compliance Matrix: (Units=1/GPa)
#
#
# Indices 1 2 3 4 5 6 
#
# 1 0.042061 -0.008356 -0.019646 0.000000 0.010730 0.000000
# 2 -0.008356 0.082493 -0.002071 0.000000 -0.001210 0.000000
# 3 -0.019646 -0.002071 0.016842 0.000000 -0.001230 0.000000
# 4 0.000000 0.000000 0.000000 0.037871 0.000000 0.008176
# 5 0.010730 -0.001210 -0.001230 0.000000 0.038206 0.000000
# 6 0.000000 0.000000 0.000000 0.008176 0.000000 0.073871
#
#
# Mechanical properties :
#
#
# Convention : Reuss Voigt Hill
#
# Bulk Modulus (GPa) = 12.30753 45.84952 29.07853
# Shear Modulus (GPa) = 13.20752 22.86063 18.03407
#
# Velocity S-wave (km/s) = 2.72465 3.58463 3.18381
# Velocity P-wave (km/s) = 4.10075 6.55012 5.46444
#
# Compressibility (1/GPa) = 0.08125104
#
# Stress axis : x y z
#
# Youngs Moduli (GPa) = 23.77507 12.12223 59.37447
#
# Poissons Ratio (x) = 0.10129 1.16649
# Poissons Ratio (y) = 0.19866 0.12294
# Poissons Ratio (z) = 0.46709 0.02510
#
# Static dielectric constant tensor:
#      x y z
#    x 1.674480 0.000000 0.003970 
#    y 0.000000 1.613970 0.000000 
#    z 0.003970 0.000000 1.622880 
# 
# From -- ./inp_files/33808.got.cif
#   From: 2010.05.17/outbox.cif.g08.bks.cpg/sg11_17_cif.got.tgz:33808.got - 2010.06.03 12:22:45.
