data_PCOD9157579
_publ_section_title
;
Structure prediction by ZEFSAII (Michael W. Deem and Ramdas Pophale) SiO2 
 PCOD9157579
Probable space group: P 21/M
;
_chemical_formula_sum "Si O2"
_cell_formula_units_Z 28
_cell_length_a 28.139815
_cell_length_b 7.712381
_cell_length_c 9.852422
_cell_angle_alpha 90.000000
_cell_angle_beta 142.854873
_cell_angle_gamma 90.000000
_cell_volume 1291.135176
_symmetry_space_group_name_H-M "P 21/M"
_symmetry_group_IT_number 11
_symmetry_cell_setting 'monoclinic'
loop_
_space_group_symop_operation_xyz
x,y,z
-x,1/2+y,-z
-x,-y,-z
x,1/2-y,z
loop_
_atom_site_type_symbol
_atom_site_label
_atom_site_fract_x
_atom_site_fract_y
_atom_site_fract_z
Si Si1 0.595749 0.451147 0.494884
Si Si2 0.972969 0.043953 0.092317
Si Si3 0.809022 0.954321 0.632064
Si Si4 0.426173 0.462289 0.145350
Si Si5 0.635407 0.540228 0.291385
Si Si6 0.136942 0.037329 0.544813
Si Si7 0.710583 0.953069 0.966797
O O1 0.599367 0.250000 0.537754
O O2 0.514923 0.526133 0.372589
O O3 0.592754 0.470289 0.326729
O O4 0.674836 0.531341 0.736098
O O5 0.968273 0.250000 0.094614
O O6 0.046095 0.978967 0.349685
O O7 0.884235 0.976815 0.900308
O O8 0.000000 0.000000 0.000000
O O9 0.796947 0.750000 0.585240
O O10 0.726144 0.022602 0.496060
O O11 0.831274 0.019615 0.531681
O O12 0.428156 0.250000 0.156128
O O13 0.402104 0.509015 0.937442
O O14 0.358047 0.524922 0.091137
O O15 0.633410 0.750000 0.295989
O O16 0.133130 0.250000 0.535922
O O17 0.202564 0.978523 0.801776
O O18 0.715405 0.750000 0.011400
#
# Coordination Sequence:
#
# PCOD9157579 Si02
#       7
#     4   4   4   4   4   4   4
#     4  11  23  35  47  75 111 136 164 212 266 304
#     4   9  16  26  44  73 105 132 161 202 252 299
#     4   9  16  29  50  75 100 127 166 211 252 297
#     4   9  18  34  57  77  97 130 175 220 255 296
#     4  10  19  35  57  76  97 136 180 210 246 308
#     4   8  14  27  49  74  97 126 166 206 242 292
#     4  10  18  34  57  75  96 135 178 210 245 300
#
# _framework density 21.686342
#
# number of rings (size 3 to 8) (size 9 to 14) (size 15 to 20)
#    0.000    2.571    1.429    2.571    0.000    0.571 
#    0.000    5.714    0.000    0.857    0.000    0.000 
#    0.000    0.000    0.000    0.000    0.000    0.000 
#
# Total GULP energy -156150.688235 kJ/mol
# GULP energy per Si atom -5576.810294 kJ/mol
# Density = 2.163698 g / cm^3
# Si number density = 21.686342 Si / 1000 Ang^3
#
#
#
# Elastic Constant Matrix: (Units=GPa)
#
#
# Indices 1 2 3 4 5 6 
#
# 1 21.0664 -1.4473 2.6954 0.0000 5.5290 0.0000
# 2 -1.4473 28.3498 3.3689 0.0000 3.2583 0.0000
# 3 2.6954 3.3689 110.8103 0.0000 22.1116 0.0000
# 4 0.0000 0.0000 0.0000 13.0928 0.0000 -1.6675
# 5 5.5290 3.2583 22.1116 0.0000 37.2677 0.0000
# 6 0.0000 0.0000 0.0000 -1.6675 0.0000 14.5269
#
#
#
# Elastic Compliance Matrix: (Units=1/GPa)
#
#
# Indices 1 2 3 4 5 6 
#
# 1 0.049724 0.003408 0.000248 0.000000 -0.007822 0.000000
# 2 0.003408 0.035892 -0.000507 0.000000 -0.003343 0.000000
# 3 0.000248 -0.000507 0.010245 0.000000 -0.006071 0.000000
# 4 0.000000 0.000000 0.000000 0.077511 0.000000 0.008897
# 5 -0.007822 -0.003343 -0.006071 0.000000 0.031888 0.000000
# 6 0.000000 0.000000 0.000000 0.008897 0.000000 0.069859
#
#
# Mechanical properties :
#
#
# Convention : Reuss Voigt Hill
#
# Bulk Modulus (GPa) = 9.78866 18.82894 14.30880
# Shear Modulus (GPa) = 16.50846 23.35145 19.92995
#
# Velocity S-wave (km/s) = 2.76205 3.28499 3.03481
# Velocity P-wave (km/s) = 3.83346 4.80515 4.34655
#
# Compressibility (1/GPa) = 0.10215898
#
# Stress axis : x y z
#
# Youngs Moduli (GPa) = 20.11087 27.86135 97.60586
#
# Poissons Ratio (x) = -0.09495 -0.02418
# Poissons Ratio (y) = -0.06854 0.04949
# Poissons Ratio (z) = -0.00498 0.01413
#
# Static dielectric constant tensor:
#      x y z
#    x 1.763050 0.000000 0.036770 
#    y 0.000000 1.809830 0.000000 
#    z 0.036770 0.000000 1.835510 
# 
# From -- ./inp_files/28616.got.cif
#   From: 2010.05.17/outbox.cif.g08.bks.cpg/sg11_15_cif.got.tgz:28616.got - 2010.06.03 12:22:45.
