data_PCOD9157539
_publ_section_title
;
Structure prediction by ZEFSAII (Michael W. Deem and Ramdas Pophale) SiO2 
 PCOD9157539
Probable space group: P 21/M
;
_chemical_formula_sum "Si O2"
_cell_formula_units_Z 28
_cell_length_a 9.312541
_cell_length_b 14.023339
_cell_length_c 19.551828
_cell_angle_alpha 90.000000
_cell_angle_beta 37.101730
_cell_angle_gamma 90.000000
_cell_volume 1540.250721
_symmetry_space_group_name_H-M "P 21/M"
_symmetry_group_IT_number 11
_symmetry_cell_setting 'monoclinic'
loop_
_space_group_symop_operation_xyz
x,y,z
-x,1/2+y,-z
-x,-y,-z
x,1/2-y,z
loop_
_atom_site_type_symbol
_atom_site_label
_atom_site_fract_x
_atom_site_fract_y
_atom_site_fract_z
Si Si1 0.616581 0.146475 0.244233
Si Si2 0.287703 0.637011 0.554652
Si Si3 0.104691 0.099884 0.985294
Si Si4 0.992216 0.643439 0.125104
Si Si5 0.552549 0.481686 0.058619
Si Si6 0.756515 0.856648 0.737745
Si Si7 0.673964 0.994015 0.333920
O O1 0.585891 0.250000 0.289792
O O2 0.428499 0.139937 0.254260
O O3 0.886016 0.143000 0.111604
O O4 0.574832 0.059088 0.310337
O O5 0.341367 0.750000 0.546533
O O6 0.258777 0.572362 0.634060
O O7 0.489847 0.582137 0.435172
O O8 0.032541 0.633671 0.613840
O O9 0.146224 0.146945 0.895526
O O10 0.328326 0.072100 0.947731
O O11 0.000000 0.000000 0.000000
O O12 0.997504 0.750000 0.151380
O O13 0.881401 0.567846 0.219773
O O14 0.255121 0.604194 0.009009
O O15 0.319946 0.441556 0.183659
O O16 0.500000 0.500000 0.000000
O O17 0.733609 0.750000 0.778184
#
# Coordination Sequence:
#
# PCOD9157539 Si02
#       7
#     4   4   4   4   4   4   4
#     4  11  20  35  59  85 112 148 190 231 278 334
#     4  10  23  40  57  81 112 149 191 235 287 336
#     4  10  18  34  53  81 117 146 183 226 274 340
#     4  11  20  35  58  83 112 152 189 231 282 337
#     4  11  20  33  54  82 118 150 184 233 284 336
#     4  10  20  35  54  79 112 147 186 230 278 336
#     4  11  21  38  59  82 111 144 193 239 278 336
#
# _framework density 18.178857000000001
#
# number of rings (size 3 to 8) (size 9 to 14) (size 15 to 20)
#    0.000    1.429    5.714    2.571    0.000    0.571 
#    0.000    2.143    0.000    0.000    0.000    2.000 
#    0.000    0.000    0.000    0.000    0.000    0.000 
#
# Total GULP energy -155954.111674 kJ/mol
# GULP energy per Si atom -5569.789703 kJ/mol
# Density = 1.813748 g / cm^3
# Si number density = 18.178857 Si / 1000 Ang^3
#
#
#
# Elastic Constant Matrix: (Units=GPa)
#
#
# Indices 1 2 3 4 5 6 
#
# 1 48.5851 18.9815 14.3527 0.0000 -1.0114 0.0000
# 2 18.9815 119.5472 26.7760 0.0000 1.8429 0.0000
# 3 14.3527 26.7760 59.6354 0.0000 -0.8602 0.0000
# 4 0.0000 0.0000 0.0000 3.5921 0.0000 -15.6673
# 5 -1.0114 1.8429 -0.8602 0.0000 23.4642 0.0000
# 6 0.0000 0.0000 0.0000 -15.6673 0.0000 8.2623
#
#
#
# Elastic Compliance Matrix: (Units=1/GPa)
#
#
# Indices 1 2 3 4 5 6 
#
# 1 0.022925 -0.002695 -0.004293 0.000000 0.001042 0.000000
# 2 -0.002695 0.009635 -0.003692 0.000000 -0.001008 0.000000
# 3 -0.004293 -0.003692 0.019471 0.000000 0.000819 0.000000
# 4 0.000000 0.000000 0.000000 -0.038290 0.000000 -0.072606
# 5 0.001042 -0.001008 0.000819 0.000000 0.042772 0.000000
# 6 0.000000 0.000000 0.000000 -0.072606 0.000000 -0.016647
#
#
# Mechanical properties :
#
#
# Convention : Reuss Voigt Hill
#
# Bulk Modulus (GPa) = 32.60222 38.66534 35.63378
# Shear Modulus (GPa) = 69.97848 18.24090 44.10969
#
# Velocity S-wave (km/s) = 6.21112 3.17111 4.93122
# Velocity P-wave (km/s) = 8.33129 5.89266 7.21574
#
# Compressibility (1/GPa) = 0.03067276
#
# Stress axis : x y z
#
# Youngs Moduli (GPa) = 43.62055 103.78545 51.35776
#
# Poissons Ratio (x) = 0.27966 0.22046
# Poissons Ratio (y) = 0.11754 0.18962
# Poissons Ratio (z) = 0.18724 0.38320
#
# Static dielectric constant tensor:
#      x y z
#    x 1.639530 0.000000 0.011580 
#    y 0.000000 1.662520 0.000000 
#    z 0.011580 0.000000 1.629310 
# 
# From -- ./inp_files/22119.got.cif
#   From: 2010.05.17/outbox.cif.g08.bks.cpg/sg11_12_cif.got.tgz:22119.got - 2010.06.03 12:22:45.
