data_PCOD9157722
_publ_section_title
;
Structure prediction by ZEFSAII (Michael W. Deem and Ramdas Pophale) SiO2 
 PCOD9157722
Probable space group: P 21/M
;
_chemical_formula_sum "Si O2"
_cell_formula_units_Z 26
_cell_length_a 8.399180
_cell_length_b 15.608989
_cell_length_c 7.358937
_cell_angle_alpha 90.000000
_cell_angle_beta 82.679276
_cell_angle_gamma 90.000000
_cell_volume 956.912115
_symmetry_space_group_name_H-M "P 21/M"
_symmetry_group_IT_number 11
_symmetry_cell_setting 'monoclinic'
loop_
_space_group_symop_operation_xyz
x,y,z
-x,1/2+y,-z
-x,-y,-z
x,1/2-y,z
loop_
_atom_site_type_symbol
_atom_site_label
_atom_site_fract_x
_atom_site_fract_y
_atom_site_fract_z
Si Si1 0.077535 0.152137 0.032219
Si Si2 0.243137 0.079582 0.684008
Si Si3 0.253924 0.840406 0.133778
Si Si4 0.880252 0.399882 0.410434
Si Si5 0.550742 0.156681 0.273055
Si Si6 0.434428 0.510197 0.215106
Si Si7 0.923140 0.750000 0.421864
O O1 0.142693 0.250000 0.048843
O O2 0.922843 0.162661 0.923929
O O3 0.186623 0.086799 0.905564
O O4 0.008157 0.116262 0.227532
O O5 0.427576 0.053514 0.683575
O O6 0.204141 0.173594 0.618768
O O7 0.148551 0.003483 0.593188
O O8 0.297547 0.750000 0.216037
O O9 0.284959 0.926828 0.237395
O O10 0.370806 0.843513 0.940361
O O11 0.704302 0.366621 0.371804
O O12 0.948588 0.328315 0.539322
O O13 0.488455 0.250000 0.322644
O O14 0.413806 0.085210 0.291213
O O15 0.500000 0.500000 0.000000
#
# Coordination Sequence:
#
# PCOD9157722 Si02
#       7
#     4   4   4   4   4   4   2
#     4  10  18  36  58  87 115 146 187 242 285 337
#     4  11  23  34  57  92 115 138 195 253 280 324
#     4   8  15  26  50  75 107 144 173 213 285 339
#     4  10  19  35  56  76 116 158 181 221 303 349
#     4   8  13  27  47  71  96 137 186 220 258 332
#     4   9  18  31  49  79 113 141 176 230 288 330
#     4  12  22  36  52  82 126 146 188 234 288 342
#
# _framework density 27.170729000000001
#
# number of rings (size 3 to 8) (size 9 to 14) (size 15 to 20)
#    0.000    2.462    2.308    2.769    1.077    0.000 
#    0.000    0.000    0.000    0.000    0.000   34.462 
#    0.000    0.000    0.000    0.000    0.000    0.000 
#
# Total GULP energy -145039.186415 kJ/mol
# GULP energy per Si atom -5578.430247 kJ/mol
# Density = 2.710889 g / cm^3
# Si number density = 27.170729 Si / 1000 Ang^3
#
#
#
# Elastic Constant Matrix: (Units=GPa)
#
#
# Indices 1 2 3 4 5 6 
#
# 1 63.4679 50.2590 7.2988 0.0000 3.5608 0.0000
# 2 50.2590 266.3186 40.8654 0.0000 25.0477 0.0000
# 3 7.2988 40.8654 79.9309 0.0000 -11.7936 0.0000
# 4 0.0000 0.0000 0.0000 6.6637 0.0000 -7.2815
# 5 3.5608 25.0477 -11.7936 0.0000 35.9761 0.0000
# 6 0.0000 0.0000 0.0000 -7.2815 0.0000 26.2191
#
#
#
# Elastic Compliance Matrix: (Units=1/GPa)
#
#
# Indices 1 2 3 4 5 6 
#
# 1 0.018543 -0.003613 0.000267 0.000000 0.000767 0.000000
# 2 -0.003613 0.005308 -0.003022 0.000000 -0.004328 0.000000
# 3 0.000267 -0.003022 0.015067 0.000000 0.007017 0.000000
# 4 0.000000 0.000000 0.000000 0.215449 0.000000 0.059834
# 5 0.000767 -0.004328 0.007017 0.000000 0.033034 0.000000
# 6 0.000000 0.000000 0.000000 0.059834 0.000000 0.054757
#
#
# Mechanical properties :
#
#
# Convention : Reuss Voigt Hill
#
# Bulk Modulus (GPa) = 38.19472 67.39597 52.79535
# Shear Modulus (GPa) = 13.75061 34.52471 24.13766
#
# Velocity S-wave (km/s) = 2.25207 3.56850 2.98379
# Velocity P-wave (km/s) = 4.56620 6.46818 5.59855
#
# Compressibility (1/GPa) = 0.02618163
#
# Stress axis : x y z
#
# Youngs Moduli (GPa) = 53.92892 188.41259 66.37045
#
# Poissons Ratio (x) = 0.68064 -0.01772
# Poissons Ratio (y) = 0.19482 0.20059
# Poissons Ratio (z) = -0.01439 0.56944
#
# Static dielectric constant tensor:
#      x y z
#    x 2.071960 0.000000 -0.107740 
#    y 0.000000 2.134530 0.000000 
#    z -0.107740 0.000000 2.278440 
# 
# From -- ./inp_files/17493.got.cif
#   From: 2010.05.17/outbox.cif.g08.bks.cpg/sg11_9_cif.got.tgz:17493.got - 2010.06.03 12:22:45.
