data_PCOD9157963
_publ_section_title
;
Structure prediction by ZEFSAII (Michael W. Deem and Ramdas Pophale) SiO2 
 PCOD9157963
Probable space group: P 21/M
;
_chemical_formula_sum "Si O2"
_cell_formula_units_Z 32
_cell_length_a 28.778097
_cell_length_b 8.848344
_cell_length_c 21.812598
_cell_angle_alpha 90.000000
_cell_angle_beta 158.991028
_cell_angle_gamma 90.000000
_cell_volume 1991.304842
_symmetry_space_group_name_H-M "P 21/M"
_symmetry_group_IT_number 11
_symmetry_cell_setting 'monoclinic'
loop_
_space_group_symop_operation_xyz
x,y,z
-x,1/2+y,-z
-x,-y,-z
x,1/2-y,z
loop_
_atom_site_type_symbol
_atom_site_label
_atom_site_fract_x
_atom_site_fract_y
_atom_site_fract_z
Si Si1 0.022640 0.570621 0.961106
Si Si2 0.292967 0.430432 0.253613
Si Si3 0.497663 0.570400 0.724958
Si Si4 0.197878 0.929271 0.392890
Si Si5 0.466369 0.930338 0.362869
Si Si6 0.430978 0.930115 0.064223
Si Si7 0.362349 0.931409 0.851343
Si Si8 0.296347 0.568508 0.641338
O O1 0.029039 0.750000 0.974213
O O2 0.904889 0.521826 0.772275
O O3 0.156685 0.506807 0.099618
O O4 0.000000 0.500000 0.000000
O O5 0.278276 0.250000 0.232266
O O6 0.395751 0.465407 0.434574
O O7 0.358180 0.492202 0.271994
O O8 0.511876 0.750000 0.737118
O O9 0.345413 0.539820 0.552526
O O10 0.533393 0.491123 0.705622
O O11 0.580834 0.510792 0.885046
O O12 0.174222 0.750000 0.355039
O O13 0.194967 0.962557 0.462349
O O14 0.449664 0.750000 0.343510
O O15 0.422839 0.750000 0.062569
O O16 0.574778 0.977105 0.218282
O O17 0.340346 0.978113 0.894885
O O18 0.375393 0.750000 0.869337
O O19 0.267830 0.966092 0.677577
O O20 0.500000 0.000000 0.000000
O O21 0.324964 0.750000 0.672084
#
# Coordination Sequence:
#
# PCOD9157963 Si02
#       8
#     4   4   4   4   4   4   4   4
#     4  12  24  36  51  70  94 122 154 191 229 270
#     4  10  21  37  55  73  93 118 149 185 227 274
#     4  10  19  30  45  65  92 126 159 190 227 271
#     4   9  18  31  46  65  91 123 158 193 229 272
#     4  10  20  34  53  74  94 117 148 187 228 270
#     4   9  15  22  35  57  85 115 149 188 225 265
#     4   8  13  21  34  53  78 111 148 183 221 264
#     4   8  14  25  39  55  80 115 151 185 223 270
#
# _framework density 16.069863999999999
#
# number of rings (size 3 to 8) (size 9 to 14) (size 15 to 20)
#    0.000    2.500    0.000    4.125    0.000    6.500 
#    0.000    0.000    0.000    0.000    0.000    0.000 
#    0.000    1.000    0.000    2.750    0.000    6.000 
#
# Total GULP energy -178221.255744 kJ/mol
# GULP energy per Si atom -5569.414242 kJ/mol
# Density = 1.603329 g / cm^3
# Si number density = 16.069864 Si / 1000 Ang^3
#
#
#
# Elastic Constant Matrix: (Units=GPa)
#
#
# Indices 1 2 3 4 5 6 
#
# 1 124.9746 46.9912 50.2856 0.0000 -36.0442 0.0000
# 2 46.9912 54.6991 33.8599 0.0000 -10.7199 0.0000
# 3 50.2856 33.8599 51.6128 0.0000 -17.3060 0.0000
# 4 0.0000 0.0000 0.0000 19.9796 0.0000 -2.2393
# 5 -36.0442 -10.7199 -17.3060 0.0000 26.2521 0.0000
# 6 0.0000 0.0000 0.0000 -2.2393 0.0000 25.7992
#
#
#
# Elastic Compliance Matrix: (Units=1/GPa)
#
#
# Indices 1 2 3 4 5 6 
#
# 1 0.019446 -0.008743 -0.007003 0.000000 0.018513 0.000000
# 2 -0.008743 0.034732 -0.017378 0.000000 -0.009277 0.000000
# 3 -0.007003 -0.017378 0.041075 0.000000 0.010366 0.000000
# 4 0.000000 0.000000 0.000000 0.050543 0.000000 0.004387
# 5 0.018513 -0.009277 0.010366 0.000000 0.066555 0.000000
# 6 0.000000 0.000000 0.000000 0.004387 0.000000 0.039142
#
#
# Mechanical properties :
#
#
# Convention : Reuss Voigt Hill
#
# Bulk Modulus (GPa) = 34.47747 54.83998 44.65872
# Shear Modulus (GPa) = 15.27147 21.08285 18.17716
#
# Velocity S-wave (km/s) = 3.08607 3.62601 3.36688
# Velocity P-wave (km/s) = 5.84805 7.19241 6.55478
#
# Compressibility (1/GPa) = 0.02900445
#
# Stress axis : x y z
#
# Youngs Moduli (GPa) = 51.42439 28.79205 24.34600
#
# Poissons Ratio (x) = 0.25172 0.17050
# Poissons Ratio (y) = 0.44958 0.42309
# Poissons Ratio (z) = 0.36013 0.50036
#
# Static dielectric constant tensor:
#      x y z
#    x 1.562420 0.000000 -0.044840 
#    y 0.000000 1.548620 0.000000 
#    z -0.044840 0.000000 1.536700 
# 
# From -- ./inp_files/64231.got.cif
#   From: 2010.05.17/outbox.cif.g08.bks.cpg/sg11_33_cif.got.tgz:64231.got - 2010.06.03 12:22:45.
