data_PCOD9157806
_publ_section_title
;
Structure prediction by ZEFSAII (Michael W. Deem and Ramdas Pophale) SiO2 
 PCOD9157806
Probable space group: P 21/M
;
_chemical_formula_sum "Si O2"
_cell_formula_units_Z 32
_cell_length_a 16.984400
_cell_length_b 22.806706
_cell_length_c 9.181972
_cell_angle_alpha 90.000000
_cell_angle_beta 153.887911
_cell_angle_gamma 90.000000
_cell_volume 1565.410941
_symmetry_space_group_name_H-M "P 21/M"
_symmetry_group_IT_number 11
_symmetry_cell_setting 'monoclinic'
loop_
_space_group_symop_operation_xyz
x,y,z
-x,1/2+y,-z
-x,-y,-z
x,1/2-y,z
loop_
_atom_site_type_symbol
_atom_site_label
_atom_site_fract_x
_atom_site_fract_y
_atom_site_fract_z
Si Si1 0.762071 0.816544 0.248505
Si Si2 0.156459 0.114663 0.346298
Si Si3 0.600154 0.535342 0.395998
Si Si4 0.877351 0.317553 0.331027
Si Si5 0.049704 0.505294 0.852705
Si Si6 0.115997 0.884381 0.362686
Si Si7 0.318052 0.920935 0.156326
Si Si8 0.446444 0.591138 0.702596
O O1 0.694171 0.750000 0.128166
O O2 0.838104 0.831380 0.534852
O O3 0.921505 0.823217 0.397454
O O4 0.611465 0.865137 0.976208
O O5 0.352096 0.089266 0.629280
O O6 0.057028 0.060928 0.263179
O O7 0.046088 0.129017 0.017571
O O8 0.485234 0.556777 0.341304
O O9 0.508228 0.476609 0.184032
O O10 0.796777 0.513799 0.776231
O O11 0.822760 0.250000 0.223433
O O12 0.869945 0.338050 0.485348
O O13 0.757291 0.362169 0.039449
O O14 0.926694 0.448126 0.635734
O O15 0.163133 0.529167 0.904552
O O16 0.292105 0.888998 0.556672
O O17 0.372620 0.910207 0.414129
#
# Coordination Sequence:
#
# PCOD9157806 Si02
#       8
#     4   4   4   4   4   4   4   4
#     4  11  27  45  62  89 124 169 222 262 300 370
#     4  11  20  43  68  92 130 166 201 252 323 378
#     4  10  21  36  66 104 131 155 200 263 317 384
#     4  11  27  46  61  88 125 168 223 263 299 367
#     4  10  18  39  66  97 129 160 201 249 320 389
#     4  11  22  39  69  96 126 164 202 262 317 375
#     4  11  23  41  67  95 128 172 201 256 321 376
#     4  11  22  41  66  97 129 161 204 258 322 374
#
# _framework density 20.441915999999999
#
# number of rings (size 3 to 8) (size 9 to 14) (size 15 to 20)
#    0.000    1.250    5.000    2.250    7.000    3.500 
#    0.000    0.000    0.000    0.000    0.000    0.000 
#    0.000    0.000    0.000    0.000    0.000    0.000 
#
# Total GULP energy -178848.791156 kJ/mol
# GULP energy per Si atom -5589.024724 kJ/mol
# Density = 2.039539 g / cm^3
# Si number density = 20.441916 Si / 1000 Ang^3
#
#
#
# Elastic Constant Matrix: (Units=GPa)
#
#
# Indices 1 2 3 4 5 6 
#
# 1 117.1677 16.8762 17.0158 0.0000 10.5084 0.0000
# 2 16.8762 63.5526 16.4246 0.0000 1.1363 0.0000
# 3 17.0158 16.4246 41.3012 0.0000 -5.0316 0.0000
# 4 0.0000 0.0000 0.0000 16.9867 0.0000 -1.0292
# 5 10.5084 1.1363 -5.0316 0.0000 21.6355 0.0000
# 6 0.0000 0.0000 0.0000 -1.0292 0.0000 10.9585
#
#
#
# Elastic Compliance Matrix: (Units=1/GPa)
#
#
# Indices 1 2 3 4 5 6 
#
# 1 0.009859 -0.001435 -0.004184 0.000000 -0.005686 0.000000
# 2 -0.001435 0.017892 -0.006744 0.000000 -0.001811 0.000000
# 3 -0.004184 -0.006744 0.029752 0.000000 0.009305 0.000000
# 4 0.000000 0.000000 0.000000 0.059206 0.000000 0.005560
# 5 -0.005686 -0.001811 0.009305 0.000000 0.051241 0.000000
# 6 0.000000 0.000000 0.000000 0.005560 0.000000 0.091776
#
#
# Mechanical properties :
#
#
# Convention : Reuss Voigt Hill
#
# Bulk Modulus (GPa) = 30.51052 35.85051 33.18052
# Shear Modulus (GPa) = 16.92747 21.36314 19.14531
#
# Velocity S-wave (km/s) = 2.88075 3.23625 3.06366
# Velocity P-wave (km/s) = 5.10126 5.61607 5.36485
#
# Compressibility (1/GPa) = 0.03277558
#
# Stress axis : x y z
#
# Youngs Moduli (GPa) = 101.42956 55.89244 33.61138
#
# Poissons Ratio (x) = 0.08021 0.14063
# Poissons Ratio (y) = 0.14556 0.22669
# Poissons Ratio (z) = 0.42437 0.37696
#
# Static dielectric constant tensor:
#      x y z
#    x 1.727950 0.000000 -0.014890 
#    y 0.000000 1.711550 0.000000 
#    z -0.014890 0.000000 1.772750 
# 
# From -- ./inp_files/23399.got.cif
#   From: 2010.05.17/outbox.cif.g08.bks.cpg/sg11_12_cif.got.tgz:23399.got - 2010.06.03 12:22:45.
