data_PCOD9157961
_publ_section_title
;
Structure prediction by ZEFSAII (Michael W. Deem and Ramdas Pophale) SiO2 
 PCOD9157961
Probable space group: P 21/M
;
_chemical_formula_sum "Si O2"
_cell_formula_units_Z 32
_cell_length_a 15.282492
_cell_length_b 7.721376
_cell_length_c 14.745085
_cell_angle_alpha 90.000000
_cell_angle_beta 87.247247
_cell_angle_gamma 90.000000
_cell_volume 1737.939798
_symmetry_space_group_name_H-M "P 21/M"
_symmetry_group_IT_number 11
_symmetry_cell_setting 'monoclinic'
loop_
_space_group_symop_operation_xyz
x,y,z
-x,1/2+y,-z
-x,-y,-z
x,1/2-y,z
loop_
_atom_site_type_symbol
_atom_site_label
_atom_site_fract_x
_atom_site_fract_y
_atom_site_fract_z
Si Si1 0.150618 0.456129 0.789396
Si Si2 0.103679 0.040678 0.989456
Si Si3 0.883528 0.453196 0.528731
Si Si4 0.018039 0.539505 0.309322
Si Si5 0.239922 0.545388 0.616453
Si Si6 0.598916 0.955083 0.518849
Si Si7 0.279947 0.461524 0.333238
Si Si8 0.181339 0.455355 0.171895
O O1 0.138807 0.250000 0.796642
O O2 0.143615 0.522962 0.892058
O O3 0.233331 0.486976 0.720581
O O4 0.069164 0.526225 0.734611
O O5 0.109615 0.250000 0.990935
O O6 0.155934 0.972408 0.074731
O O7 0.000000 0.000000 0.000000
O O8 0.899887 0.250000 0.513822
O O9 0.961633 0.524116 0.589155
O O10 0.840596 0.533601 0.440126
O O11 0.800507 0.470603 0.601737
O O12 0.016919 0.750000 0.312718
O O13 0.096398 0.483838 0.239249
O O14 0.227695 0.750000 0.616140
O O15 0.330583 0.509997 0.560625
O O16 0.604220 0.750000 0.522461
O O17 0.634467 0.018675 0.615165
O O18 0.500000 0.000000 0.500000
O O19 0.275622 0.250000 0.333628
O O20 0.261241 0.520255 0.231172
O O21 0.194952 0.250000 0.159570
#
# Coordination Sequence:
#
# PCOD9157961 Si02
#       8
#     4   4   4   4   4   4   4   4
#     4  10  20  31  42  61  91 126 161 197 239 277
#     4  10  19  30  45  65  90 123 165 207 241 273
#     4   8  15  27  42  60  85 118 155 192 226 265
#     4   9  16  27  42  60  86 121 158 195 235 273
#     4  10  20  33  47  66  92 122 157 193 229 273
#     4  10  19  33  54  77 100 122 145 178 225 283
#     4   8  15  27  44  68  94 119 147 182 226 273
#     4   9  16  27  44  65  90 120 158 200 234 267
#
# _framework density 18.412604999999999
#
# number of rings (size 3 to 8) (size 9 to 14) (size 15 to 20)
#    0.000    2.750    1.250    0.750    0.000    2.500 
#    0.000    0.000    0.000    0.000    0.000    0.875 
#    0.000    0.000    0.000    0.000    0.000    0.000 
#
# Total GULP energy -178253.101147 kJ/mol
# GULP energy per Si atom -5570.409411 kJ/mol
# Density = 1.837070 g / cm^3
# Si number density = 18.412605 Si / 1000 Ang^3
#
#
#
# Elastic Constant Matrix: (Units=GPa)
#
#
# Indices 1 2 3 4 5 6 
#
# 1 76.3757 3.2499 63.6396 0.0000 17.8361 0.0000
# 2 3.2499 37.6614 8.7656 0.0000 4.8039 0.0000
# 3 63.6396 8.7656 191.8614 0.0000 18.1011 0.0000
# 4 0.0000 0.0000 0.0000 9.9646 0.0000 -5.6050
# 5 17.8361 4.8039 18.1011 0.0000 21.9255 0.0000
# 6 0.0000 0.0000 0.0000 -5.6050 0.0000 18.7821
#
#
#
# Elastic Compliance Matrix: (Units=1/GPa)
#
#
# Indices 1 2 3 4 5 6 
#
# 1 0.020732 0.001128 -0.005763 0.000000 -0.012355 0.000000
# 2 0.001128 0.027475 -0.001057 0.000000 -0.006065 0.000000
# 3 -0.005763 -0.001057 0.007274 0.000000 -0.001086 0.000000
# 4 0.000000 0.000000 0.000000 0.120599 0.000000 0.035989
# 5 -0.012355 -0.006065 -0.001086 0.000000 0.057885 0.000000
# 6 0.000000 0.000000 0.000000 0.035989 0.000000 0.063982
#
#
# Mechanical properties :
#
#
# Convention : Reuss Voigt Hill
#
# Bulk Modulus (GPa) = 22.67703 50.80096 36.73900
# Shear Modulus (GPa) = 15.43066 25.48401 20.45733
#
# Velocity S-wave (km/s) = 2.89805 3.72432 3.33686
# Velocity P-wave (km/s) = 4.85191 6.79296 5.90277
#
# Compressibility (1/GPa) = 0.04409748
#
# Stress axis : x y z
#
# Youngs Moduli (GPa) = 48.23426 36.39718 137.47016
#
# Poissons Ratio (x) = -0.04106 0.79220
# Poissons Ratio (y) = -0.05441 0.14534
# Poissons Ratio (z) = 0.27796 0.03848
#
# Static dielectric constant tensor:
#      x y z
#    x 1.627620 0.000000 0.039640 
#    y 0.000000 1.660790 0.000000 
#    z 0.039640 0.000000 1.717820 
# 
# From -- ./inp_files/51281.got.cif
#   From: 2010.05.17/outbox.cif.g08.bks.cpg/sg11_26_cif.got.tgz:51281.got - 2010.06.03 12:22:45.
