data_PCOD9157501
_publ_section_title
;
Structure prediction by ZEFSAII (Michael W. Deem and Ramdas Pophale) SiO2 
 PCOD9157501
Probable space group: P 21/M
;
_chemical_formula_sum "Si O2"
_cell_formula_units_Z 32
_cell_length_a 15.251363
_cell_length_b 8.497750
_cell_length_c 11.492597
_cell_angle_alpha 90.000000
_cell_angle_beta 99.985421
_cell_angle_gamma 90.000000
_cell_volume 1466.904078
_symmetry_space_group_name_H-M "P 21/M"
_symmetry_group_IT_number 11
_symmetry_cell_setting 'monoclinic'
loop_
_space_group_symop_operation_xyz
x,y,z
-x,1/2+y,-z
-x,-y,-z
x,1/2-y,z
loop_
_atom_site_type_symbol
_atom_site_label
_atom_site_fract_x
_atom_site_fract_y
_atom_site_fract_z
Si Si1 0.899241 0.937054 0.466149
Si Si2 0.399475 0.560891 0.472523
Si Si3 0.456102 0.936529 0.106393
Si Si4 0.702221 0.441892 0.783882
Si Si5 0.379770 0.940024 0.724967
Si Si6 0.801245 0.437608 0.214077
Si Si7 0.123145 0.559847 0.291761
Si Si8 0.955880 0.937557 0.107296
O O1 0.900449 0.750000 0.451268
O O2 0.850419 0.012471 0.344586
O O3 0.855842 0.984954 0.579190
O O4 0.000000 0.000000 0.500000
O O5 0.500000 0.500000 0.500000
O O6 0.401636 0.750000 0.466720
O O7 0.347417 0.506894 0.346361
O O8 0.355673 0.519530 0.586424
O O9 0.449630 0.750000 0.093598
O O10 0.358852 0.997001 0.123284
O O11 0.527043 0.981225 0.222047
O O12 0.500000 0.000000 0.000000
O O13 0.701479 0.250000 0.787761
O O14 0.804456 0.487585 0.788981
O O15 0.389445 0.750000 0.735422
O O16 0.300986 0.990409 0.793638
O O17 0.800231 0.250000 0.205879
O O18 0.858892 0.501332 0.120310
O O19 0.126354 0.750000 0.305369
O O20 0.025224 0.515233 0.225339
O O21 0.953795 0.750000 0.102370
O O22 0.000000 0.000000 0.000000
#
# Coordination Sequence:
#
# PCOD9157501 Si02
#       8
#     4   4   4   4   4   4   4   4
#     4  12  23  37  61  93 127 161 197 244 306 370
#     4  10  18  33  58  87 118 151 190 237 293 357
#     4  11  23  40  62  87 120 161 205 255 302 358
#     4   9  19  37  61  87 117 156 197 239 299 360
#     4  10  22  39  62  90 121 159 201 247 305 365
#     4  11  23  41  65  90 123 163 204 253 305 364
#     4  10  21  40  64  88 118 158 203 250 300 362
#     4  11  24  41  63  89 120 160 207 256 304 361
#
# _framework density 21.814651999999999
#
# number of rings (size 3 to 8) (size 9 to 14) (size 15 to 20)
#    0.000    1.500    2.500    3.000    0.000    4.500 
#    0.000    5.625    0.000    0.000    0.000    0.000 
#    0.000    0.000    0.000    0.000    0.000    0.000 
#
# Total GULP energy -178859.966235 kJ/mol
# GULP energy per Si atom -5589.373945 kJ/mol
# Density = 2.176500 g / cm^3
# Si number density = 21.814652 Si / 1000 Ang^3
#
#
#
# Elastic Constant Matrix: (Units=GPa)
#
#
# Indices 1 2 3 4 5 6 
#
# 1 104.7706 11.8548 1.2775 0.0000 -43.0740 0.0000
# 2 11.8548 19.3963 8.5636 0.0000 -13.1200 0.0000
# 3 1.2775 8.5636 61.7409 0.0000 -35.9560 0.0000
# 4 0.0000 0.0000 0.0000 30.3443 0.0000 -4.8602
# 5 -43.0740 -13.1200 -35.9560 0.0000 43.3797 0.0000
# 6 0.0000 0.0000 0.0000 -4.8602 0.0000 24.0706
#
#
#
# Elastic Compliance Matrix: (Units=1/GPa)
#
#
# Indices 1 2 3 4 5 6 
#
# 1 0.041641 0.009997 0.045607 0.000000 0.082174 0.000000
# 2 0.009997 0.067927 0.015691 0.000000 0.043477 0.000000
# 3 0.045607 0.015691 0.081605 0.000000 0.117671 0.000000
# 4 0.000000 0.000000 0.000000 0.034057 0.000000 0.006876
# 5 0.082174 0.043477 0.117671 0.000000 0.215331 0.000000
# 6 0.000000 0.000000 0.000000 0.006876 0.000000 0.042933
#
#
# Mechanical properties :
#
#
# Convention : Reuss Voigt Hill
#
# Bulk Modulus (GPa) = 2.99612 25.47774 14.23693
# Shear Modulus (GPa) = 11.05813 30.50636 20.78224
#
# Velocity S-wave (km/s) = 2.25392 3.74362 3.08989
# Velocity P-wave (km/s) = 2.85481 5.51279 4.38980
#
# Compressibility (1/GPa) = 0.33376462
#
# Stress axis : x y z
#
# Youngs Moduli (GPa) = 24.01466 14.72173 12.25417
#
# Poissons Ratio (x) = -0.14718 -0.55888
# Poissons Ratio (y) = -0.24008 -0.19228
# Poissons Ratio (z) = -1.09524 -0.23100
#
# Static dielectric constant tensor:
#      x y z
#    x 1.847370 0.000000 -0.024030 
#    y 0.000000 1.743920 0.000000 
#    z -0.024030 0.000000 1.827870 
# 
# From -- ./inp_files/38064.got.cif
#   From: 2010.05.17/outbox.cif.g08.bks.cpg/sg11_20_cif.got.tgz:38064.got - 2010.06.03 12:22:45.
