data_PCOD9157274
_publ_section_title
;
Structure prediction by ZEFSAII (Michael W. Deem and Ramdas Pophale) SiO2 
 PCOD9157274
Probable space group: P 21/M
;
_chemical_formula_sum "Si O2"
_cell_formula_units_Z 32
_cell_length_a 9.119933
_cell_length_b 22.947420
_cell_length_c 13.617806
_cell_angle_alpha 90.000000
_cell_angle_beta 30.083455
_cell_angle_gamma 90.000000
_cell_volume 1428.553393
_symmetry_space_group_name_H-M "P 21/M"
_symmetry_group_IT_number 11
_symmetry_cell_setting 'monoclinic'
loop_
_space_group_symop_operation_xyz
x,y,z
-x,1/2+y,-z
-x,-y,-z
x,1/2-y,z
loop_
_atom_site_type_symbol
_atom_site_label
_atom_site_fract_x
_atom_site_fract_y
_atom_site_fract_z
Si Si1 0.418163 0.598511 0.386520
Si Si2 0.775799 0.489586 0.218435
Si Si3 0.322789 0.072347 0.348912
Si Si4 0.744863 0.818797 0.327309
Si Si5 0.811228 0.316723 0.228638
Si Si6 0.107297 0.416239 0.180220
Si Si7 0.332676 0.549175 0.228885
Si Si8 0.337139 0.818255 0.909182
O O1 0.596258 0.548228 0.340577
O O2 0.561899 0.656942 0.341372
O O3 0.452882 0.585142 0.253134
O O4 0.080065 0.592562 0.612901
O O5 0.554277 0.442766 0.300771
O O6 0.951465 0.468294 0.210331
O O7 0.000000 0.500000 0.000000
O O8 0.409384 0.133734 0.249286
O O9 0.003739 0.067494 0.582792
O O10 0.345702 0.017765 0.259126
O O11 0.775505 0.750000 0.301146
O O12 0.524990 0.830466 0.544437
O O13 0.080864 0.839558 0.131593
O O14 0.867670 0.250000 0.226484
O O15 0.821016 0.319177 0.105853
O O16 0.025875 0.359812 0.161494
O O17 0.446687 0.433027 0.985111
O O18 0.424949 0.750000 0.876521
#
# Coordination Sequence:
#
# PCOD9157274 Si02
#       8
#     4   4   4   4   4   4   4   4
#     4  10  20  32  53  78 105 133 176 211 253 310
#     4  11  18  33  56  77 104 132 169 219 265 300
#     4  10  20  37  55  73 107 145 168 213 270 306
#     4   9  18  31  50  79 107 133 167 215 266 304
#     4   9  18  31  50  79 108 131 165 218 265 303
#     4  11  19  33  56  78 101 135 176 213 253 308
#     4  10  22  38  52  71 112 144 169 210 262 317
#     4  10  18  32  54  76 102 134 173 214 258 310
#
# _framework density 22.400283999999999
#
# number of rings (size 3 to 8) (size 9 to 14) (size 15 to 20)
#    0.000    2.000    3.750    1.875    0.000    0.000 
#    0.000    8.125    0.000    0.000    0.000    0.000 
#    0.000    0.000    0.000    0.000    0.000    0.000 
#
# Total GULP energy -178746.875102 kJ/mol
# GULP energy per Si atom -5585.839847 kJ/mol
# Density = 2.234930 g / cm^3
# Si number density = 22.400284 Si / 1000 Ang^3
#
#
#
# Elastic Constant Matrix: (Units=GPa)
#
#
# Indices 1 2 3 4 5 6 
#
# 1 18.9365 1.0212 13.2262 0.0000 -0.0361 0.0000
# 2 1.0212 55.0138 51.2850 0.0000 -7.9583 0.0000
# 3 13.2262 51.2850 173.9448 0.0000 -9.2380 0.0000
# 4 0.0000 0.0000 0.0000 31.9697 0.0000 -3.8022
# 5 -0.0361 -7.9583 -9.2380 0.0000 29.8019 0.0000
# 6 0.0000 0.0000 0.0000 -3.8022 0.0000 23.7439
#
#
#
# Elastic Compliance Matrix: (Units=1/GPa)
#
#
# Indices 1 2 3 4 5 6 
#
# 1 0.056433 0.003997 -0.005500 0.000000 -0.000569 0.000000
# 2 0.003997 0.025952 -0.007714 0.000000 0.004544 0.000000
# 3 -0.005500 -0.007714 0.008471 0.000000 0.000559 0.000000
# 4 0.000000 0.000000 0.000000 0.031887 0.000000 0.005106
# 5 -0.000569 0.004544 0.000559 0.000000 0.034941 0.000000
# 6 0.000000 0.000000 0.000000 0.005106 0.000000 0.042934
#
#
# Mechanical properties :
#
#
# Convention : Reuss Voigt Hill
#
# Bulk Modulus (GPa) = 13.80799 42.10665 27.95732
# Shear Modulus (GPa) = 20.55999 29.26061 24.91030
#
# Velocity S-wave (km/s) = 3.03288 3.61814 3.33836
# Velocity P-wave (km/s) = 4.29442 6.02435 5.23139
#
# Compressibility (1/GPa) = 0.07242186
#
# Stress axis : x y z
#
# Youngs Moduli (GPa) = 17.72028 38.53338 118.04724
#
# Poissons Ratio (x) = -0.15402 0.64921
# Poissons Ratio (y) = -0.07083 0.91062
# Poissons Ratio (z) = 0.09745 0.29725
#
# Static dielectric constant tensor:
#      x y z
#    x 1.820220 0.000000 -0.000570 
#    y 0.000000 1.840160 0.000000 
#    z -0.000570 0.000000 1.873180 
# 
# From -- ./inp_files/59740.got.cif
#   From: 2010.05.17/outbox.cif.g08.bks.cpg/sg11_30_cif.got.tgz:59740.got - 2010.06.03 12:22:45.
