data_PCOD9157034
_publ_section_title
;
Structure prediction by ZEFSAII (Michael W. Deem and Ramdas Pophale) SiO2 
 PCOD9157034
Probable space group: P 21/M
;
_chemical_formula_sum "Si O2"
_cell_formula_units_Z 28
_cell_length_a 13.854816
_cell_length_b 28.196134
_cell_length_c 5.545172
_cell_angle_alpha 90.000000
_cell_angle_beta 139.280982
_cell_angle_gamma 90.000000
_cell_volume 1413.142719
_symmetry_space_group_name_H-M "P 21/M"
_symmetry_group_IT_number 11
_symmetry_cell_setting 'monoclinic'
loop_
_space_group_symop_operation_xyz
x,y,z
-x,1/2+y,-z
-x,-y,-z
x,1/2-y,z
loop_
_atom_site_type_symbol
_atom_site_label
_atom_site_fract_x
_atom_site_fract_y
_atom_site_fract_z
Si Si1 0.681381 0.942859 0.864064
Si Si2 0.089963 0.497070 0.920627
Si Si3 0.594399 0.471434 0.982110
Si Si4 0.198897 0.899681 0.110987
Si Si5 0.466584 0.806374 0.119764
Si Si6 0.796276 0.122299 0.391562
Si Si7 0.468965 0.146093 0.257396
O O1 0.527353 0.952881 0.436450
O O2 0.655147 0.894328 0.952760
O O3 0.697651 0.987048 0.075660
O O4 0.811602 0.949758 0.918710
O O5 0.000000 0.500000 0.500000
O O6 0.194844 0.543575 0.118313
O O7 0.000000 0.500000 0.000000
O O8 0.500000 0.500000 0.000000
O O9 0.688472 0.424272 0.213541
O O10 0.118769 0.879244 0.195650
O O11 0.366364 0.878609 0.428323
O O12 0.128206 0.884991 0.722299
O O13 0.458708 0.750000 0.095538
O O14 0.536468 0.823270 0.506703
O O15 0.304955 0.831177 0.811713
O O16 0.541017 0.826424 0.015111
#
# Coordination Sequence:
#
# PCOD9157034 Si02
#       7
#     4   4   4   4   4   4   4
#     4  11  21  34  50  76 107 140 185 219 246 321
#     4  12  26  37  48  71 109 154 183 217 264 295
#     4  11  19  29  55  79  99 141 174 221 251 298
#     4  10  18  36  50  72 102 132 184 212 245 313
#     4  10  19  32  49  80 119 134 155 210 280 345
#     4  10  18  31  51  77 100 139 170 201 263 305
#     4  10  20  34  56  81  99 144 177 214 267 311
#
# _framework density 19.813994999999998
#
# number of rings (size 3 to 8) (size 9 to 14) (size 15 to 20)
#    0.000    1.429    4.286    4.714    2.000    0.000 
#    0.000    0.000    0.000    0.000    0.000    0.000 
#    0.000   91.429    0.000    0.000    0.000    0.000 
#
# Total GULP energy -156123.123586 kJ/mol
# GULP energy per Si atom -5575.825842 kJ/mol
# Density = 1.976890 g / cm^3
# Si number density = 19.813995 Si / 1000 Ang^3
#
#
#
# Elastic Constant Matrix: (Units=GPa)
#
#
# Indices 1 2 3 4 5 6 
#
# 1 126.0044 53.6564 37.1881 0.0000 -42.0604 0.0000
# 2 53.6564 138.6100 21.4713 0.0000 -12.3922 0.0000
# 3 37.1881 21.4713 55.5225 0.0000 -23.6884 0.0000
# 4 0.0000 0.0000 0.0000 14.4913 0.0000 -7.7303
# 5 -42.0604 -12.3922 -23.6884 0.0000 36.0204 0.0000
# 6 0.0000 0.0000 0.0000 -7.7303 0.0000 24.6011
#
#
#
# Elastic Compliance Matrix: (Units=1/GPa)
#
#
# Indices 1 2 3 4 5 6 
#
# 1 0.015471 -0.004288 -0.002260 0.000000 0.015104 0.000000
# 2 -0.004288 0.008887 -0.001941 0.000000 -0.003227 0.000000
# 3 -0.002260 -0.001941 0.026221 0.000000 0.013938 0.000000
# 4 0.000000 0.000000 0.000000 0.082904 0.000000 0.026050
# 5 0.015104 -0.003227 0.013938 0.000000 0.053454 0.000000
# 6 0.000000 0.000000 0.000000 0.026050 0.000000 0.048834
#
#
# Mechanical properties :
#
#
# Convention : Reuss Voigt Hill
#
# Bulk Modulus (GPa) = 29.76147 60.52982 45.14565
# Shear Modulus (GPa) = 18.94300 28.87731 23.91015
#
# Velocity S-wave (km/s) = 3.09535 3.82176 3.47757
# Velocity P-wave (km/s) = 5.27522 7.07741 6.24170
#
# Compressibility (1/GPa) = 0.03360049
#
# Stress axis : x y z
#
# Youngs Moduli (GPa) = 64.63723 112.52708 38.13686
#
# Poissons Ratio (x) = 0.48257 0.08619
# Poissons Ratio (y) = 0.27719 0.07402
# Poissons Ratio (z) = 0.14607 0.21841
#
# Static dielectric constant tensor:
#      x y z
#    x 1.826520 0.000000 -0.058950 
#    y 0.000000 1.675470 0.000000 
#    z -0.058950 0.000000 1.774060 
# 
# From -- ./inp_files/7255.got.cif
#   From: 2010.05.17/outbox.cif.g08.bks.cpg/sg11_4_cif.got.tgz:7255.got - 2010.06.03 12:22:45.
