data_PCOD9157448
_publ_section_title
;
Structure prediction by ZEFSAII (Michael W. Deem and Ramdas Pophale) SiO2 
 PCOD9157448
Probable space group: P 21/M
;
_chemical_formula_sum "Si O2"
_cell_formula_units_Z 32
_cell_length_a 29.961225
_cell_length_b 8.609421
_cell_length_c 20.739726
_cell_angle_alpha 90.000000
_cell_angle_beta 19.815224
_cell_angle_gamma 90.000000
_cell_volume 1813.513252
_symmetry_space_group_name_H-M "P 21/M"
_symmetry_group_IT_number 11
_symmetry_cell_setting 'monoclinic'
loop_
_space_group_symop_operation_xyz
x,y,z
-x,1/2+y,-z
-x,-y,-z
x,1/2-y,z
loop_
_atom_site_type_symbol
_atom_site_label
_atom_site_fract_x
_atom_site_fract_y
_atom_site_fract_z
Si Si1 0.895849 0.064079 0.476353
Si Si2 0.181780 0.063899 0.551383
Si Si3 0.857322 0.436026 0.673741
Si Si4 0.857732 0.438139 0.172228
Si Si5 0.185065 0.563481 0.052487
Si Si6 0.351322 0.436086 0.940859
Si Si7 0.884738 0.438369 0.992311
Si Si8 0.350565 0.562208 0.436282
O O1 0.907551 0.250000 0.456282
O O2 0.837181 0.023984 0.625858
O O3 0.814719 0.001768 0.525686
O O4 0.042238 0.992175 0.271953
O O5 0.184530 0.250000 0.545374
O O6 0.038061 0.015822 0.775048
O O7 0.292733 0.001942 0.448258
O O8 0.858688 0.250000 0.678199
O O9 0.746834 0.504122 0.870484
O O10 0.000000 0.500000 0.500000
O O11 0.861742 0.250000 0.167358
O O12 0.746988 0.488334 0.373463
O O13 0.833334 0.490102 0.131637
O O14 0.000000 0.500000 0.000000
O O15 0.187822 0.750000 0.051094
O O16 0.296059 0.496859 0.948017
O O17 0.190601 0.511845 0.970069
O O18 0.347799 0.250000 0.944848
O O19 0.500348 0.487262 0.752381
O O20 0.882622 0.250000 0.995086
O O21 0.347825 0.750000 0.437522
#
# Coordination Sequence:
#
# PCOD9157448 Si02
#       8
#     4   4   4   4   4   4   4   4
#     4  10  20  34  55  83 112 139 175 226 279 329
#     4  10  19  33  55  82 111 144 182 224 273 327
#     4  11  22  36  58  85 110 140 181 230 275 326
#     4  10  18  33  55  81 109 140 182 230 276 322
#     4  10  19  33  54  80 109 144 184 226 276 326
#     4  11  23  38  54  78 113 151 187 225 274 330
#     4   8  16  30  51  80 109 136 173 226 276 320
#     4  10  22  37  55  79 112 151 186 226 277 329
#
# _framework density 17.645308
#
# number of rings (size 3 to 8) (size 9 to 14) (size 15 to 20)
#    0.000    2.000    2.500    2.625    0.000    2.500 
#    0.000    1.875    0.000    0.000    0.000    0.000 
#    0.000    0.000    0.000    0.000    0.000    0.000 
#
# Total GULP energy -178584.323867 kJ/mol
# GULP energy per Si atom -5580.760121 kJ/mol
# Density = 1.760515 g / cm^3
# Si number density = 17.645308 Si / 1000 Ang^3
#
#
#
# Elastic Constant Matrix: (Units=GPa)
#
#
# Indices 1 2 3 4 5 6 
#
# 1 194.7545 41.0901 87.4496 0.0000 -8.0186 0.0000
# 2 41.0901 34.7325 29.3020 0.0000 -2.1750 0.0000
# 3 87.4496 29.3020 112.7518 0.0000 -8.6099 0.0000
# 4 0.0000 0.0000 0.0000 18.9752 0.0000 -3.6366
# 5 -8.0186 -2.1750 -8.6099 0.0000 26.2276 0.0000
# 6 0.0000 0.0000 0.0000 -3.6366 0.0000 27.6411
#
#
#
# Elastic Compliance Matrix: (Units=1/GPa)
#
#
# Indices 1 2 3 4 5 6 
#
# 1 0.008740 -0.005920 -0.005204 0.000000 0.000473 0.000000
# 2 -0.005920 0.040886 -0.006066 0.000000 -0.000410 0.000000
# 3 -0.005204 -0.006066 0.014690 0.000000 0.002728 0.000000
# 4 0.000000 0.000000 0.000000 0.054064 0.000000 0.007113
# 5 0.000473 -0.000410 0.002728 0.000000 0.039134 0.000000
# 6 0.000000 0.000000 0.000000 0.007113 0.000000 0.037114
#
#
# Mechanical properties :
#
#
# Convention : Reuss Voigt Hill
#
# Bulk Modulus (GPa) = 33.40308 73.10248 53.25278
# Shear Modulus (GPa) = 20.92179 26.86192 23.89185
#
# Velocity S-wave (km/s) = 3.44711 3.90593 3.68367
# Velocity P-wave (km/s) = 5.90041 7.86515 6.95253
#
# Compressibility (1/GPa) = 0.02993736
#
# Stress axis : x y z
#
# Youngs Moduli (GPa) = 114.41867 24.45807 68.07362
#
# Poissons Ratio (x) = 0.14478 0.35426
# Poissons Ratio (y) = 0.67731 0.41291
# Poissons Ratio (z) = 0.59544 0.14836
#
# Static dielectric constant tensor:
#      x y z
#    x 1.615880 0.000000 0.016000 
#    y 0.000000 1.596290 0.000000 
#    z 0.016000 0.000000 1.572810 
# 
# From -- ./inp_files/64441.got.cif
#   From: 2010.05.17/outbox.cif.g08.bks.cpg/sg11_33_cif.got.tgz:64441.got - 2010.06.03 12:22:45.
