data_PCOD9157337
_publ_section_title
;
Structure prediction by ZEFSAII (Michael W. Deem and Ramdas Pophale) SiO2 
 PCOD9157337
Probable space group: P 21/M
;
_chemical_formula_sum "Si O2"
_cell_formula_units_Z 20
_cell_length_a 7.087452
_cell_length_b 13.948594
_cell_length_c 9.631486
_cell_angle_alpha 90.000000
_cell_angle_beta 71.641392
_cell_angle_gamma 90.000000
_cell_volume 903.706847
_symmetry_space_group_name_H-M "P 21/M"
_symmetry_group_IT_number 11
_symmetry_cell_setting 'monoclinic'
loop_
_space_group_symop_operation_xyz
x,y,z
-x,1/2+y,-z
-x,-y,-z
x,1/2-y,z
loop_
_atom_site_type_symbol
_atom_site_label
_atom_site_fract_x
_atom_site_fract_y
_atom_site_fract_z
Si Si1 0.656286 0.863751 0.868620
Si Si2 0.005971 0.500735 0.270293
Si Si3 0.172043 0.141457 0.872407
Si Si4 0.732578 0.859365 0.452382
Si Si5 0.349360 0.861942 0.727205
O O1 0.700590 0.750000 0.830252
O O2 0.436050 0.878960 0.861235
O O3 0.798321 0.938830 0.757174
O O4 0.706505 0.880869 0.017770
O O5 0.003877 0.571351 0.135829
O O6 0.920997 0.569564 0.411184
O O7 0.834434 0.425218 0.272507
O O8 0.095372 0.250000 0.905056
O O9 0.312363 0.138540 0.703230
O O10 0.790133 0.750000 0.474523
O O11 0.536903 0.883077 0.583206
O O12 0.299721 0.750000 0.724699
#
# Coordination Sequence:
#
# PCOD9157337 Si02
#       5
#     4   4   4   4   4
#     4  10  20  33  50  74 101 127 160 202 242 283
#     4  10  18  32  56  72  94 130 168 194 238 292
#     4   8  17  33  52  71  98 131 159 198 246 284
#     4   8  17  33  52  71  98 131 159 198 246 284
#     4  10  20  33  50  74 101 127 160 202 242 283
#
# _framework density 22.131070000000001
#
# number of rings (size 3 to 8) (size 9 to 14) (size 15 to 20)
#    1.200    1.600    0.000    1.800    0.000    1.600 
#    0.000    0.000    0.000    4.800    0.000    0.000 
#    0.000    0.000    0.000    0.000    0.000    0.000 
#
# Total GULP energy -111441.981221 kJ/mol
# GULP energy per Si atom -5572.099061 kJ/mol
# Density = 2.208070 g / cm^3
# Si number density = 22.131070 Si / 1000 Ang^3
#
#
#
# Elastic Constant Matrix: (Units=GPa)
#
#
# Indices 1 2 3 4 5 6 
#
# 1 48.2790 36.1494 4.6813 0.0000 -3.0292 0.0000
# 2 36.1494 82.3027 10.9531 0.0000 -4.2955 0.0000
# 3 4.6813 10.9531 66.0218 0.0000 3.4616 0.0000
# 4 0.0000 0.0000 0.0000 13.9833 0.0000 -5.4734
# 5 -3.0292 -4.2955 3.4616 0.0000 10.8666 0.0000
# 6 0.0000 0.0000 0.0000 -5.4734 0.0000 13.1825
#
#
#
# Elastic Compliance Matrix: (Units=1/GPa)
#
#
# Indices 1 2 3 4 5 6 
#
# 1 0.030982 -0.013412 -0.000149 0.000000 0.003383 0.000000
# 2 -0.013412 0.018583 -0.002360 0.000000 0.004359 0.000000
# 3 -0.000149 -0.002360 0.015865 0.000000 -0.006028 0.000000
# 4 0.000000 0.000000 0.000000 0.085392 0.000000 0.035455
# 5 0.003383 0.004359 -0.006028 0.000000 0.096611 0.000000
# 6 0.000000 0.000000 0.000000 0.035455 0.000000 0.090579
#
#
# Mechanical properties :
#
#
# Convention : Reuss Voigt Hill
#
# Bulk Modulus (GPa) = 29.77362 33.35234 31.56298
# Shear Modulus (GPa) = 13.12165 17.26112 15.19139
#
# Velocity S-wave (km/s) = 2.43761 2.79579 2.62282
# Velocity P-wave (km/s) = 4.62656 5.05223 4.84407
#
# Compressibility (1/GPa) = 0.03358677
#
# Stress axis : x y z
#
# Youngs Moduli (GPa) = 32.27713 53.81380 63.03275
#
# Poissons Ratio (x) = 0.72173 0.00940
# Poissons Ratio (y) = 0.43289 0.14879
# Poissons Ratio (z) = 0.00481 0.12703
#
# Static dielectric constant tensor:
#      x y z
#    x 1.748930 0.000000 -0.001830 
#    y 0.000000 1.872220 0.000000 
#    z -0.001830 0.000000 1.890810 
# 
# From -- ./inp_files/17162.got.cif
#   From: 2010.05.17/outbox.cif.g08.bks.cpg/sg11_9_cif.got.tgz:17162.got - 2010.06.03 12:22:45.
