data_PCOD9157045
_publ_section_title
;
Structure prediction by ZEFSAII (Michael W. Deem and Ramdas Pophale) SiO2 
 PCOD9157045
Probable space group: P 21/M
;
_chemical_formula_sum "Si O2"
_cell_formula_units_Z 32
_cell_length_a 25.971231
_cell_length_b 8.512107
_cell_length_c 20.918083
_cell_angle_alpha 90.000000
_cell_angle_beta 22.765675
_cell_angle_gamma 90.000000
_cell_volume 1789.456747
_symmetry_space_group_name_H-M "P 21/M"
_symmetry_group_IT_number 11
_symmetry_cell_setting 'monoclinic'
loop_
_space_group_symop_operation_xyz
x,y,z
-x,1/2+y,-z
-x,-y,-z
x,1/2-y,z
loop_
_atom_site_type_symbol
_atom_site_label
_atom_site_fract_x
_atom_site_fract_y
_atom_site_fract_z
Si Si1 0.631817 0.061330 0.141999
Si Si2 0.347512 0.561186 0.516215
Si Si3 0.869233 0.439655 0.340590
Si Si4 0.411387 0.559058 0.951231
Si Si5 0.285659 0.437822 0.362689
Si Si6 0.649166 0.438461 0.842872
Si Si7 0.828932 0.560265 0.022583
Si Si8 0.353189 0.061074 0.650377
O O1 0.634454 0.250000 0.139968
O O2 0.639350 0.006318 0.059620
O O3 0.490611 0.005051 0.331620
O O4 0.747900 0.997382 0.053892
O O5 0.354461 0.750000 0.508196
O O6 0.236532 0.509291 0.592181
O O7 0.316033 0.502756 0.623328
O O8 0.868728 0.250000 0.341714
O O9 0.818647 0.498505 0.466955
O O10 0.018467 0.493336 0.154223
O O11 0.413091 0.750000 0.948553
O O12 0.565538 0.509229 0.785223
O O13 0.327579 0.512496 0.110065
O O14 0.285281 0.250000 0.363696
O O15 0.265097 0.495256 0.313627
O O16 0.650294 0.250000 0.838441
O O17 0.500000 0.500000 0.000000
O O18 0.828286 0.750000 0.023145
O O19 0.749431 0.509542 0.177062
O O20 0.356402 0.250000 0.645173
O O21 0.500000 0.000000 0.500000
#
# Coordination Sequence:
#
# PCOD9157045 Si02
#       8
#     4   4   4   4   4   4   4   4
#     4  11  20  34  57  83 110 144 184 227 274 325
#     4  11  22  36  57  84 110 142 184 228 274 329
#     4  10  22  39  57  79 111 149 185 226 278 332
#     4   8  16  29  48  77 110 139 175 225 273 317
#     4  10  18  31  51  78 111 145 181 227 276 329
#     4   9  16  28  46  74 110 146 181 224 275 327
#     4  10  23  41  57  79 111 145 184 229 277 331
#     4  11  22  37  59  83 111 145 183 229 276 329
#
# _framework density 17.882522000000002
#
# number of rings (size 3 to 8) (size 9 to 14) (size 15 to 20)
#    0.000    2.000    2.500    2.625    0.000    2.000 
#    0.000    1.875    0.000    0.750    0.000    0.000 
#    0.000    0.000    0.000    0.000    0.000    0.000 
#
# Total GULP energy -178538.127180 kJ/mol
# GULP energy per Si atom -5579.316474 kJ/mol
# Density = 1.784182 g / cm^3
# Si number density = 17.882522 Si / 1000 Ang^3
#
#
#
# Elastic Constant Matrix: (Units=GPa)
#
#
# Indices 1 2 3 4 5 6 
#
# 1 106.5155 10.9422 55.7371 0.0000 25.8578 0.0000
# 2 10.9422 18.5050 17.1544 0.0000 1.4152 0.0000
# 3 55.7371 17.1544 106.6212 0.0000 12.8079 0.0000
# 4 0.0000 0.0000 0.0000 17.6405 0.0000 8.2985
# 5 25.8578 1.4152 12.8079 0.0000 35.7006 0.0000
# 6 0.0000 0.0000 0.0000 8.2985 0.0000 25.0590
#
#
#
# Elastic Compliance Matrix: (Units=1/GPa)
#
#
# Indices 1 2 3 4 5 6 
#
# 1 0.015087 -0.002241 -0.006505 0.000000 -0.008505 0.000000
# 2 -0.002241 0.063894 -0.009405 0.000000 0.002464 0.000000
# 3 -0.006505 -0.009405 0.014298 0.000000 -0.000045 0.000000
# 4 0.000000 0.000000 0.000000 0.067148 0.000000 -0.022237
# 5 -0.008505 0.002464 -0.000045 0.000000 0.034089 0.000000
# 6 0.000000 0.000000 0.000000 -0.022237 0.000000 0.047270
#
#
# Mechanical properties :
#
#
# Convention : Reuss Voigt Hill
#
# Bulk Modulus (GPa) = 17.55031 44.36769 30.95900
# Shear Modulus (GPa) = 16.83049 25.53389 21.18219
#
# Velocity S-wave (km/s) = 3.07118 3.78281 3.44542
# Velocity P-wave (km/s) = 4.73410 6.62903 5.76003
#
# Compressibility (1/GPa) = 0.05697904
#
# Stress axis : x y z
#
# Youngs Moduli (GPa) = 66.28277 15.65086 69.94014
#
# Poissons Ratio (x) = 0.03507 0.45493
# Poissons Ratio (y) = 0.14852 0.65777
# Poissons Ratio (z) = 0.43114 0.14719
#
# Static dielectric constant tensor:
#      x y z
#    x 1.619410 0.000000 0.025320 
#    y 0.000000 1.611410 0.000000 
#    z 0.025320 0.000000 1.595680 
# 
# From -- ./inp_files/66930.got.cif
#   From: 2010.05.17/outbox.cif.g08.bks.cpg/sg11_34_cif.got.tgz:66930.got - 2010.06.03 12:22:45.
