data_PCOD9157860
_publ_section_title
;
Structure prediction by ZEFSAII (Michael W. Deem and Ramdas Pophale) SiO2 
 PCOD9157860
Probable space group: P 21/M
;
_chemical_formula_sum "Si O2"
_cell_formula_units_Z 32
_cell_length_a 17.061229
_cell_length_b 8.660874
_cell_length_c 24.789526
_cell_angle_alpha 90.000000
_cell_angle_beta 28.023567
_cell_angle_gamma 90.000000
_cell_volume 1721.017724
_symmetry_space_group_name_H-M "P 21/M"
_symmetry_group_IT_number 11
_symmetry_cell_setting 'monoclinic'
loop_
_space_group_symop_operation_xyz
x,y,z
-x,1/2+y,-z
-x,-y,-z
x,1/2-y,z
loop_
_atom_site_type_symbol
_atom_site_label
_atom_site_fract_x
_atom_site_fract_y
_atom_site_fract_z
Si Si1 0.723161 0.065837 0.524037
Si Si2 0.531707 0.564854 0.173403
Si Si3 0.162072 0.934922 0.068503
Si Si4 0.340956 0.424511 0.623188
Si Si5 0.169543 0.564662 0.420789
Si Si6 0.375658 0.563919 0.765591
Si Si7 0.893504 0.430695 0.150328
Si Si8 0.062100 0.424214 0.700612
O O1 0.700148 0.250000 0.537561
O O2 0.797258 0.018731 0.537279
O O3 0.538726 0.990317 0.632387
O O4 0.854240 0.017251 0.398673
O O5 0.541206 0.750000 0.167316
O O6 0.337874 0.517946 0.286828
O O7 0.594915 0.505299 0.193209
O O8 0.654206 0.495526 0.054761
O O9 0.156439 0.750000 0.073444
O O10 0.087098 0.990821 0.171528
O O11 0.045809 0.986628 0.088381
O O12 0.500000 0.500000 0.500000
O O13 0.370609 0.250000 0.626666
O O14 0.260379 0.538124 0.715496
O O15 0.206307 0.411053 0.657694
O O16 0.161222 0.750000 0.424742
O O17 0.000000 0.500000 0.500000
O O18 0.375532 0.750000 0.767397
O O19 0.195356 0.514274 0.850950
O O20 0.933472 0.250000 0.121647
O O21 0.019153 0.250000 0.708112
#
# Coordination Sequence:
#
# PCOD9157860 Si02
#       8
#     4   4   4   4   4   4   4   4
#     4  10  20  33  52  80 109 135 169 213 261 309
#     4  10  21  37  56  79 106 134 170 213 258 310
#     4  10  21  36  53  74 102 140 184 220 256 305
#     4  10  19  29  42  63  93 130 175 223 266 309
#     4   9  20  37  58  86 111 131 159 199 251 310
#     4  10  20  33  50  73 102 138 179 221 267 312
#     4  10  20  32  46  67  97 135 180 225 264 303
#     4   9  19  33  48  70 100 135 175 214 253 304
#
# _framework density 18.59365
#
# number of rings (size 3 to 8) (size 9 to 14) (size 15 to 20)
#    0.000    2.250    0.000    4.500    0.000   11.500 
#    0.000    0.000    0.000    0.750    0.000    0.000 
#    0.000    0.000    0.000    0.000    0.000    0.000 
#
# Total GULP energy -178425.865803 kJ/mol
# GULP energy per Si atom -5575.808306 kJ/mol
# Density = 1.855133 g / cm^3
# Si number density = 18.593650 Si / 1000 Ang^3
#
#
#
# Elastic Constant Matrix: (Units=GPa)
#
#
# Indices 1 2 3 4 5 6 
#
# 1 51.5789 12.0807 29.0075 0.0000 -13.6212 0.0000
# 2 12.0807 40.9867 19.5418 0.0000 -3.4401 0.0000
# 3 29.0075 19.5418 132.6034 0.0000 -7.8104 0.0000
# 4 0.0000 0.0000 0.0000 29.7894 0.0000 0.3479
# 5 -13.6212 -3.4401 -7.8104 0.0000 18.9136 0.0000
# 6 0.0000 0.0000 0.0000 0.3479 0.0000 25.0089
#
#
#
# Elastic Compliance Matrix: (Units=1/GPa)
#
#
# Indices 1 2 3 4 5 6 
#
# 1 0.027409 -0.004586 -0.004311 0.000000 0.017125 0.000000
# 2 -0.004586 0.027206 -0.002982 0.000000 0.000415 0.000000
# 3 -0.004311 -0.002982 0.008926 0.000000 0.000039 0.000000
# 4 0.000000 0.000000 0.000000 0.033574 0.000000 -0.000467
# 5 0.017125 0.000415 0.000039 0.000000 0.065297 0.000000
# 6 0.000000 0.000000 0.000000 -0.000467 0.000000 0.039992
#
#
# Mechanical properties :
#
#
# Convention : Reuss Voigt Hill
#
# Bulk Modulus (GPa) = 25.13604 38.49211 31.81408
# Shear Modulus (GPa) = 20.88348 25.71165 23.29757
#
# Velocity S-wave (km/s) = 3.35498 3.72266 3.54359
# Velocity P-wave (km/s) = 5.34377 6.26293 5.82152
#
# Compressibility (1/GPa) = 0.03978351
#
# Stress axis : x y z
#
# Youngs Moduli (GPa) = 36.48440 36.75618 112.03075
#
# Poissons Ratio (x) = 0.16856 0.48300
# Poissons Ratio (y) = 0.16731 0.33406
# Poissons Ratio (z) = 0.15730 0.10960
#
# Static dielectric constant tensor:
#      x y z
#    x 1.643060 0.000000 0.038860 
#    y 0.000000 1.647100 0.000000 
#    z 0.038860 0.000000 2.608820 
# 
# From -- ./inp_files/69447.got.cif
#   From: 2010.05.17/outbox.cif.g08.bks.cpg/sg11_35_cif.got.tgz:69447.got - 2010.06.03 12:22:45.
