data_PCOD9157829
_publ_section_title
;
Structure prediction by ZEFSAII (Michael W. Deem and Ramdas Pophale) SiO2 
 PCOD9157829
Probable space group: P 21/M
;
_chemical_formula_sum "Si O2"
_cell_formula_units_Z 28
_cell_length_a 16.548853
_cell_length_b 9.117010
_cell_length_c 16.507372
_cell_angle_alpha 90.000000
_cell_angle_beta 129.953287
_cell_angle_gamma 90.000000
_cell_volume 1909.189756
_symmetry_space_group_name_H-M "P 21/M"
_symmetry_group_IT_number 11
_symmetry_cell_setting 'monoclinic'
loop_
_space_group_symop_operation_xyz
x,y,z
-x,1/2+y,-z
-x,-y,-z
x,1/2-y,z
loop_
_atom_site_type_symbol
_atom_site_label
_atom_site_fract_x
_atom_site_fract_y
_atom_site_fract_z
Si Si1 0.836632 0.925637 0.888660
Si Si2 0.369414 0.426343 0.338225
Si Si3 0.104602 0.425358 0.604058
Si Si4 0.790084 0.425866 0.468417
Si Si5 0.028865 0.575463 0.891452
Si Si6 0.006072 0.075357 0.704553
Si Si7 0.611364 0.073852 0.478316
O O1 0.837740 0.750000 0.902630
O O2 0.721773 0.970258 0.782767
O O3 0.921405 0.957982 0.872149
O O4 0.877836 0.005554 0.995168
O O5 0.363598 0.250000 0.343665
O O6 0.352795 0.499151 0.415087
O O7 0.488225 0.463913 0.387172
O O8 0.099363 0.250000 0.590558
O O9 0.196763 0.492673 0.608687
O O10 0.094996 0.456335 0.693623
O O11 0.000000 0.500000 0.500000
O O12 0.790939 0.250000 0.455755
O O13 0.686972 0.467454 0.452963
O O14 0.892904 0.459858 0.590214
O O15 0.040114 0.750000 0.895288
O O16 0.022115 0.509348 0.797837
O O17 0.006343 0.250000 0.720147
O O18 0.618862 0.250000 0.492588
#
# Coordination Sequence:
#
# PCOD9157829 Si02
#       7
#     4   4   4   4   4   4   4
#     4   9  18  31  43  58  84 113 140 172 207 245
#     4   9  17  29  44  62  85 114 145 174 207 248
#     4   9  17  28  42  61  85 113 142 171 207 250
#     4   9  17  28  42  62  88 116 142 170 207 249
#     4  10  19  28  42  63  82 107 143 175 206 245
#     4   9  17  28  41  59  85 113 137 165 205 248
#     4   9  17  28  43  64  88 113 142 174 208 246
#
# _framework density 14.665907000000001
#
# number of rings (size 3 to 8) (size 9 to 14) (size 15 to 20)
#    0.000    2.857    0.000    2.571    0.000    4.571 
#    0.000    0.000    0.000    0.000    0.000    1.000 
#    0.000    0.000    0.000    0.000    0.000    0.000 
#
# Total GULP energy -155953.976761 kJ/mol
# GULP energy per Si atom -5569.784884 kJ/mol
# Density = 1.463253 g / cm^3
# Si number density = 14.665907 Si / 1000 Ang^3
#
#
#
# Elastic Constant Matrix: (Units=GPa)
#
#
# Indices 1 2 3 4 5 6 
#
# 1 94.5198 36.0312 41.2368 0.0000 -16.2220 0.0000
# 2 36.0312 29.1175 38.1091 0.0000 -11.1572 0.0000
# 3 41.2368 38.1091 88.5074 0.0000 -9.0036 0.0000
# 4 0.0000 0.0000 0.0000 24.6418 0.0000 -7.1196
# 5 -16.2220 -11.1572 -9.0036 0.0000 24.5074 0.0000
# 6 0.0000 0.0000 0.0000 -7.1196 0.0000 22.4551
#
#
#
# Elastic Compliance Matrix: (Units=1/GPa)
#
#
# Indices 1 2 3 4 5 6 
#
# 1 0.020449 -0.028468 0.002897 0.000000 0.001640 0.000000
# 2 -0.028468 0.135214 -0.042188 0.000000 0.027215 0.000000
# 3 0.002897 -0.042188 0.027378 0.000000 -0.007231 0.000000
# 4 0.000000 0.000000 0.000000 0.044674 0.000000 0.014164
# 5 0.001640 0.027215 -0.007231 0.000000 0.051623 0.000000
# 6 0.000000 0.000000 0.000000 0.014164 0.000000 0.049024
#
#
# Mechanical properties :
#
#
# Convention : Reuss Voigt Hill
#
# Bulk Modulus (GPa) = 21.04187 49.21100 35.12643
# Shear Modulus (GPa) = 10.42268 20.77203 15.59735
#
# Velocity S-wave (km/s) = 2.66874 3.76752 3.26469
# Velocity P-wave (km/s) = 4.88619 7.24936 6.18175
#
# Compressibility (1/GPa) = 0.04752429
#
# Stress axis : x y z
#
# Youngs Moduli (GPa) = 48.90102 7.39566 36.52506
#
# Poissons Ratio (x) = 0.21054 -0.10580
# Poissons Ratio (y) = 1.39210 1.54092
# Poissons Ratio (z) = -0.14165 0.31201
#
# Static dielectric constant tensor:
#      x y z
#    x 1.505320 0.000000 0.003150 
#    y 0.000000 1.485910 0.000000 
#    z 0.003150 0.000000 1.459520 
# 
# From -- ./inp_files/51110.got.cif
#   From: 2010.05.17/outbox.cif.g08.bks.cpg/sg11_26_cif.got.tgz:51110.got - 2010.06.03 12:22:45.
