data_PCOD9157053
_publ_section_title
;
Structure prediction by ZEFSAII (Michael W. Deem and Ramdas Pophale) SiO2 
 PCOD9157053
Probable space group: P 21/M
;
_chemical_formula_sum "Si O2"
_cell_formula_units_Z 32
_cell_length_a 12.150376
_cell_length_b 8.750817
_cell_length_c 22.267444
_cell_angle_alpha 90.000000
_cell_angle_beta 50.921180
_cell_angle_gamma 90.000000
_cell_volume 1837.920831
_symmetry_space_group_name_H-M "P 21/M"
_symmetry_group_IT_number 11
_symmetry_cell_setting 'monoclinic'
loop_
_space_group_symop_operation_xyz
x,y,z
-x,1/2+y,-z
-x,-y,-z
x,1/2-y,z
loop_
_atom_site_type_symbol
_atom_site_label
_atom_site_fract_x
_atom_site_fract_y
_atom_site_fract_z
Si Si1 0.647448 0.434492 0.760620
Si Si2 0.346530 0.931444 0.907063
Si Si3 0.858007 0.934784 0.266194
Si Si4 0.347529 0.432473 0.034156
Si Si5 0.561484 0.073026 0.665053
Si Si6 0.143774 0.432129 0.216208
Si Si7 0.761642 0.926853 0.172611
Si Si8 0.454177 0.064729 0.579358
O O1 0.637988 0.250000 0.763938
O O2 0.502561 0.499063 0.839552
O O3 0.649994 0.491158 0.690428
O O4 0.779063 0.489860 0.754189
O O5 0.358058 0.750000 0.906015
O O6 0.246126 0.980544 0.886296
O O7 0.300758 0.997309 0.986870
O O8 0.867437 0.750000 0.262757
O O9 0.854363 0.983179 0.197029
O O10 0.707693 0.975940 0.348037
O O11 0.987754 0.006353 0.256876
O O12 0.359926 0.250000 0.024110
O O13 0.238468 0.467864 0.124888
O O14 0.500000 0.500000 0.000000
O O15 0.604507 0.250000 0.643649
O O16 0.399194 0.072436 0.745447
O O17 0.551579 0.007190 0.601586
O O18 0.143418 0.250000 0.224483
O O19 0.796965 0.750000 0.147437
O O20 0.461411 0.250000 0.576221
O O21 0.500000 0.000000 0.500000
#
# Coordination Sequence:
#
# PCOD9157053 Si02
#       8
#     4   4   4   4   4   4   4   4
#     4  10  18  31  52  72  97 136 176 212 255 303
#     4  11  20  30  48  75 102 128 168 220 266 306
#     4   9  19  36  56  76 103 139 175 206 248 314
#     4  11  22  35  50  70 100 136 174 219 265 311
#     4   7  13  27  48  74 100 128 164 205 245 293
#     4  11  23  35  50  75 105 133 170 219 265 306
#     4   8  15  31  52  71  94 130 172 211 253 302
#     4   9  17  32  55  83 110 133 164 203 247 301
#
# _framework density 17.410979000000001
#
# number of rings (size 3 to 8) (size 9 to 14) (size 15 to 20)
#    0.000    2.500    1.250    4.500    0.000    2.500 
#    0.000    6.250    0.000    0.750    0.000    0.000 
#    0.000    0.000    0.000    0.000    0.000    0.000 
#
# Total GULP energy -178370.471293 kJ/mol
# GULP energy per Si atom -5574.077228 kJ/mol
# Density = 1.737135 g / cm^3
# Si number density = 17.410979 Si / 1000 Ang^3
#
#
#
# Elastic Constant Matrix: (Units=GPa)
#
#
# Indices 1 2 3 4 5 6 
#
# 1 146.2277 41.9846 61.0952 0.0000 32.5312 0.0000
# 2 41.9846 42.0454 36.8363 0.0000 11.3284 0.0000
# 3 61.0952 36.8363 77.1958 0.0000 30.7694 0.0000
# 4 0.0000 0.0000 0.0000 22.3861 0.0000 4.6868
# 5 32.5312 11.3284 30.7694 0.0000 31.9971 0.0000
# 6 0.0000 0.0000 0.0000 4.6868 0.0000 25.0080
#
#
#
# Elastic Compliance Matrix: (Units=1/GPa)
#
#
# Indices 1 2 3 4 5 6 
#
# 1 0.011625 -0.006918 -0.003510 0.000000 -0.005994 0.000000
# 2 -0.006918 0.045962 -0.020714 0.000000 0.010680 0.000000
# 3 -0.003510 -0.020714 0.034491 0.000000 -0.022265 0.000000
# 4 0.000000 0.000000 0.000000 0.046495 0.000000 -0.008714
# 5 -0.005994 0.010680 -0.022265 0.000000 0.054977 0.000000
# 6 0.000000 0.000000 0.000000 -0.008714 0.000000 0.041620
#
#
# Mechanical properties :
#
#
# Convention : Reuss Voigt Hill
#
# Bulk Modulus (GPa) = 33.56359 60.58898 47.07629
# Shear Modulus (GPa) = 16.26627 24.24843 20.25735
#
# Velocity S-wave (km/s) = 3.05987 3.73595 3.41468
# Velocity P-wave (km/s) = 5.63940 7.31332 6.53022
#
# Compressibility (1/GPa) = 0.02979419
#
# Stress axis : x y z
#
# Youngs Moduli (GPa) = 86.02150 21.75721 28.99326
#
# Poissons Ratio (x) = 0.15052 0.10176
# Poissons Ratio (y) = 0.59510 0.60056
# Poissons Ratio (z) = 0.30193 0.45067
#
# Static dielectric constant tensor:
#      x y z
#    x 1.615370 0.000000 0.028250 
#    y 0.000000 1.585340 0.000000 
#    z 0.028250 0.000000 1.578960 
# 
# From -- ./inp_files/64340.got.cif
#   From: 2010.05.17/outbox.cif.g08.bks.cpg/sg11_33_cif.got.tgz:64340.got - 2010.06.03 12:22:45.
