data_PCOD9157400
_publ_section_title
;
Structure prediction by ZEFSAII (Michael W. Deem and Ramdas Pophale) SiO2 
 PCOD9157400
Probable space group: P 21/M
;
_chemical_formula_sum "Si O2"
_cell_formula_units_Z 32
_cell_length_a 23.436532
_cell_length_b 11.924518
_cell_length_c 11.451905
_cell_angle_alpha 90.000000
_cell_angle_beta 147.464428
_cell_angle_gamma 90.000000
_cell_volume 1721.279467
_symmetry_space_group_name_H-M "P 21/M"
_symmetry_group_IT_number 11
_symmetry_cell_setting 'monoclinic'
loop_
_space_group_symop_operation_xyz
x,y,z
-x,1/2+y,-z
-x,-y,-z
x,1/2-y,z
loop_
_atom_site_type_symbol
_atom_site_label
_atom_site_fract_x
_atom_site_fract_y
_atom_site_fract_z
Si Si1 0.829815 0.074652 0.677115
Si Si2 0.735179 0.622006 0.100566
Si Si3 0.442536 0.379346 0.783915
Si Si4 0.185093 0.383383 0.002362
Si Si5 0.511609 0.874815 0.578048
Si Si6 0.664716 0.011227 0.199626
Si Si7 0.674610 0.454739 0.598321
Si Si8 0.936859 0.628473 0.987734
O O1 0.940146 0.130263 0.832766
O O2 0.750054 0.068383 0.431734
O O3 0.762212 0.111207 0.673315
O O4 0.871819 0.953491 0.792621
O O5 0.757346 0.750000 0.176918
O O6 0.817362 0.589719 0.139226
O O7 0.621091 0.621951 0.838496
O O8 0.722957 0.540333 0.188415
O O9 0.422951 0.250000 0.723820
O O10 0.393069 0.413467 0.824111
O O11 0.386338 0.461998 0.595437
O O12 0.567810 0.406762 0.000215
O O13 0.213462 0.250000 0.056078
O O14 0.270101 0.464210 0.211236
O O15 0.083087 0.399457 0.910158
O O16 0.511050 0.750000 0.514737
O O17 0.500000 0.000000 0.500000
O O18 0.411190 0.876293 0.490480
O O19 0.889058 0.750000 0.887044
#
# Coordination Sequence:
#
# PCOD9157400 Si02
#       8
#     4   4   4   4   4   4   4   4
#     4   9  20  34  53  77 104 133 169 223 277 325
#     4  10  19  32  50  73 106 142 178 216 257 317
#     4  10  20  32  49  73 107 148 182 219 262 319
#     4   9  17  30  53  77  99 132 177 224 266 313
#     4  11  22  35  52  79 113 151 188 226 270 320
#     4  10  20  34  47  74 108 140 180 212 266 323
#     4  10  18  33  51  76 107 137 181 218 267 320
#     4   9  18  35  56  77  97 125 172 226 278 327
#
# _framework density 18.590821999999999
#
# number of rings (size 3 to 8) (size 9 to 14) (size 15 to 20)
#    0.000    2.250    2.500    0.750    0.000    5.000 
#    0.000    0.625    0.000    0.000    0.000    0.000 
#    0.000    0.000    0.000    0.000    0.000    0.000 
#
# Total GULP energy -178148.707276 kJ/mol
# GULP energy per Si atom -5567.147102 kJ/mol
# Density = 1.854851 g / cm^3
# Si number density = 18.590822 Si / 1000 Ang^3
#
#
#
# Elastic Constant Matrix: (Units=GPa)
#
#
# Indices 1 2 3 4 5 6 
#
# 1 90.5052 17.3520 -1.1945 0.0000 4.1738 0.0000
# 2 17.3520 74.8632 -3.3129 0.0000 -5.7817 0.0000
# 3 -1.1945 -3.3129 24.4690 0.0000 7.4564 0.0000
# 4 0.0000 0.0000 0.0000 -43.2044 0.0000 -9.2911
# 5 4.1738 -5.7817 7.4564 0.0000 28.2474 0.0000
# 6 0.0000 0.0000 0.0000 -9.2911 0.0000 16.3236
#
#
#
# Elastic Compliance Matrix: (Units=1/GPa)
#
#
# Indices 1 2 3 4 5 6 
#
# 1 0.011732 -0.002875 0.000969 0.000000 -0.002578 0.000000
# 2 -0.002875 0.014303 0.000842 0.000000 0.003130 0.000000
# 3 0.000969 0.000842 0.044609 0.000000 -0.011746 0.000000
# 4 0.000000 0.000000 0.000000 -0.020622 0.000000 -0.011737
# 5 -0.002578 0.003130 -0.011746 0.000000 0.039524 0.000000
# 6 0.000000 0.000000 0.000000 -0.011737 0.000000 0.054580
#
#
# Mechanical properties :
#
#
# Convention : Reuss Voigt Hill
#
# Bulk Modulus (GPa) = 14.59523 23.94739 19.27131
# Shear Modulus (GPa) = 29.56953 12.07285 20.82119
#
# Velocity S-wave (km/s) = 3.99249 2.55109 3.35023
# Velocity P-wave (km/s) = 5.39640 4.64615 5.03527
#
# Compressibility (1/GPa) = 0.06851552
#
# Stress axis : x y z
#
# Youngs Moduli (GPa) = 85.23651 69.91439 22.41717
#
# Poissons Ratio (x) = 0.20104 -0.02172
# Poissons Ratio (y) = 0.24510 -0.01888
# Poissons Ratio (z) = -0.08259 -0.05889
#
# Static dielectric constant tensor:
#      x y z
#    x 1.715850 0.000000 0.016020 
#    y 0.000000 1.701100 0.000000 
#    z 0.016020 0.000000 1.608660 
# 
# From -- ./inp_files/43153.got.cif
#   From: 2010.05.17/outbox.cif.g08.bks.cpg/sg11_22_cif.got.tgz:43153.got - 2010.06.03 12:22:45.
