data_PCOD9157968
_publ_section_title
;
Structure prediction by ZEFSAII (Michael W. Deem and Ramdas Pophale) SiO2 
 PCOD9157968
Probable space group: P 21/M
;
_chemical_formula_sum "Si O2"
_cell_formula_units_Z 32
_cell_length_a 7.120242
_cell_length_b 20.344375
_cell_length_c 14.023700
_cell_angle_alpha 90.000000
_cell_angle_beta 132.550942
_cell_angle_gamma 90.000000
_cell_volume 1496.505997
_symmetry_space_group_name_H-M "P 21/M"
_symmetry_group_IT_number 11
_symmetry_cell_setting 'monoclinic'
loop_
_space_group_symop_operation_xyz
x,y,z
-x,1/2+y,-z
-x,-y,-z
x,1/2-y,z
loop_
_atom_site_type_symbol
_atom_site_label
_atom_site_fract_x
_atom_site_fract_y
_atom_site_fract_z
Si Si1 0.525250 0.458927 0.863855
Si Si2 0.142820 0.542000 0.625598
Si Si3 0.685320 0.176732 0.959866
Si Si4 0.154036 0.324731 0.259006
Si Si5 0.767960 0.321128 0.307639
Si Si6 0.898793 0.543196 0.112263
Si Si7 0.281880 0.034182 0.359707
Si Si8 0.699861 0.822799 0.990375
O O1 0.401597 0.505660 0.742824
O O2 0.596828 0.384096 0.865422
O O3 0.306376 0.455970 0.870950
O O4 0.770985 0.493255 0.993975
O O5 0.177334 0.617086 0.608308
O O6 0.000000 0.500000 0.500000
O O7 0.960290 0.543342 0.654131
O O8 0.672338 0.250000 0.913955
O O9 0.491190 0.176247 0.983990
O O10 0.963388 0.166322 0.103352
O O11 0.266320 0.250000 0.290166
O O12 0.319836 0.391311 0.331703
O O13 0.965888 0.321219 0.286768
O O14 0.785326 0.250000 0.359581
O O15 0.490511 0.330593 0.164466
O O16 0.166342 0.515854 0.241625
O O17 0.888604 0.616539 0.066916
O O18 0.500000 0.000000 0.500000
O O19 0.815565 0.750000 0.025777
#
# Coordination Sequence:
#
# PCOD9157968 Si02
#       8
#     4   4   4   4   4   4   4   4
#     4   9  14  23  40  62  84 107 139 181 223 254
#     4  10  19  30  45  66  93 121 148 181 221 266
#     4   8  12  19  35  61  87 106 134 182 229 259
#     4   8  13  23  41  64  86 110 146 188 221 252
#     4   8  13  23  41  64  86 110 146 188 221 252
#     4   9  14  23  40  62  84 107 139 181 223 254
#     4  10  19  30  45  66  93 121 148 181 221 266
#     4   8  12  19  35  61  87 106 134 182 229 259
#
# _framework density 21.383143
#
# number of rings (size 3 to 8) (size 9 to 14) (size 15 to 20)
#    0.000    3.250    2.500    1.500    0.000    0.000 
#    0.000    1.250    0.000    3.000    0.000    0.000 
#    0.000    0.000    0.000    0.000    0.000    0.000 
#
# Total GULP energy -178491.037194 kJ/mol
# GULP energy per Si atom -5577.844912 kJ/mol
# Density = 2.133447 g / cm^3
# Si number density = 21.383143 Si / 1000 Ang^3
#
#
#
# Elastic Constant Matrix: (Units=GPa)
#
#
# Indices 1 2 3 4 5 6 
#
# 1 79.2493 -0.7692 -14.2850 0.0000 16.0682 0.0000
# 2 -0.7692 258.5058 85.7467 0.0000 16.2805 0.0000
# 3 -14.2850 85.7467 88.9262 0.0000 21.2541 0.0000
# 4 0.0000 0.0000 0.0000 32.4680 0.0000 0.9192
# 5 16.0682 16.2805 21.2541 0.0000 16.8690 0.0000
# 6 0.0000 0.0000 0.0000 0.9192 0.0000 -1.5537
#
#
#
# Elastic Compliance Matrix: (Units=1/GPa)
#
#
# Indices 1 2 3 4 5 6 
#
# 1 0.023546 -0.002697 0.015914 0.000000 -0.039875 0.000000
# 2 -0.002697 0.006046 -0.007844 0.000000 0.006618 0.000000
# 3 0.015914 -0.007844 0.033167 0.000000 -0.049376 0.000000
# 4 0.000000 0.000000 0.000000 0.030292 0.000000 0.017922
# 5 -0.039875 0.006618 -0.049376 0.000000 0.153086 0.000000
# 6 0.000000 0.000000 0.000000 0.017922 0.000000 -0.633035
#
#
# Mechanical properties :
#
#
# Convention : Reuss Voigt Hill
#
# Bulk Modulus (GPa) = 13.60511 63.11848 38.36179
# Shear Modulus (GPa) = -13.39975 33.28925 9.94475
#
# Velocity S-wave (km/s) = -2.50601 3.94991 2.15890
# Velocity P-wave (km/s) = 1.41320 7.09819 4.91870
#
# Compressibility (1/GPa) = 0.07350181
#
# Stress axis : x y z
#
# Youngs Moduli (GPa) = 42.47082 165.41004 30.15053
#
# Poissons Ratio (x) = 0.44614 -0.47980
# Poissons Ratio (y) = 0.11455 0.23652
# Poissons Ratio (z) = -0.67586 1.29756
#
# Static dielectric constant tensor:
#      x y z
#    x 2.050250 0.000000 -0.096120 
#    y 0.000000 2.162870 0.000000 
#    z -0.096120 0.000000 1.738290 
# 
# From -- ./inp_files/36220.got.cif
#   From: 2010.05.17/outbox.cif.g08.bks.cpg/sg11_19_cif.got.tgz:36220.got - 2010.06.03 12:22:45.
