data_PCOD9157735
_publ_section_title
;
Structure prediction by ZEFSAII (Michael W. Deem and Ramdas Pophale) SiO2 
 PCOD9157735
Probable space group: P 21/M
;
_chemical_formula_sum "Si O2"
_cell_formula_units_Z 22
_cell_length_a 8.391577
_cell_length_b 15.582825
_cell_length_c 8.905438
_cell_angle_alpha 90.000000
_cell_angle_beta 48.990939
_cell_angle_gamma 90.000000
_cell_volume 878.749744
_symmetry_space_group_name_H-M "P 21/M"
_symmetry_group_IT_number 11
_symmetry_cell_setting 'monoclinic'
loop_
_space_group_symop_operation_xyz
x,y,z
-x,1/2+y,-z
-x,-y,-z
x,1/2-y,z
loop_
_atom_site_type_symbol
_atom_site_label
_atom_site_fract_x
_atom_site_fract_y
_atom_site_fract_z
Si Si1 0.205323 0.586392 0.492765
Si Si2 0.687721 0.155701 0.043039
Si Si3 0.914568 0.947897 0.197221
Si Si4 0.239808 0.750000 0.692903
Si Si5 0.628141 0.851237 0.153536
Si Si6 0.221071 0.148563 0.268858
O O1 0.196787 0.507723 0.612950
O O2 0.220846 0.674086 0.579871
O O3 0.417753 0.592660 0.264761
O O4 0.979102 0.596206 0.552602
O O5 0.682734 0.250000 0.967019
O O6 0.877256 0.098380 0.868222
O O7 0.738559 0.177551 0.184442
O O8 0.451602 0.120079 0.180301
O O9 0.750405 0.880228 0.227283
O O10 0.000000 0.000000 0.000000
O O11 0.586374 0.750000 0.190241
O O12 0.771210 0.860821 0.917134
O O13 0.202371 0.250000 0.318184
#
# Coordination Sequence:
#
# PCOD9157735 Si02
#       6
#     4   4   4   2   4   4
#     4  12  22  39  63  90 119 153 203 247 296 351
#     4   9  20  37  61  88 119 159 199 237 300 352
#     4  12  21  37  62  92 119 154 200 251 293 348
#     4  10  18  36  60  88 118 150 202 246 284 350
#     4  11  23  39  64  88 117 159 200 242 294 357
#     4  10  20  38  63  83 118 163 196 237 295 358
#
# _framework density 25.035565999999999
#
# number of rings (size 3 to 8) (size 9 to 14) (size 15 to 20)
#    0.545    0.727    5.455    1.091    2.545    0.727 
#    0.000    2.727    4.000    0.000    0.000    0.000 
#    0.000    0.000    0.000    0.000    0.000    0.000 
#
# Total GULP energy -122652.495652 kJ/mol
# GULP energy per Si atom -5575.113439 kJ/mol
# Density = 2.497858 g / cm^3
# Si number density = 25.035566 Si / 1000 Ang^3
#
#
#
# Elastic Constant Matrix: (Units=GPa)
#
#
# Indices 1 2 3 4 5 6 
#
# 1 61.6322 32.5727 32.4407 0.0000 -12.0521 0.0000
# 2 32.5727 70.5439 7.8664 0.0000 10.1955 0.0000
# 3 32.4407 7.8664 85.2863 0.0000 -14.7278 0.0000
# 4 0.0000 0.0000 0.0000 35.3783 0.0000 -7.2805
# 5 -12.0521 10.1955 -14.7278 0.0000 39.4577 0.0000
# 6 0.0000 0.0000 0.0000 -7.2805 0.0000 -11.8933
#
#
#
# Elastic Compliance Matrix: (Units=1/GPa)
#
#
# Indices 1 2 3 4 5 6 
#
# 1 0.030227 -0.014428 -0.008475 0.000000 0.009797 0.000000
# 2 -0.014428 0.021992 0.001836 0.000000 -0.009404 0.000000
# 3 -0.008475 0.001836 0.015233 0.000000 0.002623 0.000000
# 4 0.000000 0.000000 0.000000 0.025104 0.000000 -0.015367
# 5 0.009797 -0.009404 0.002623 0.000000 0.031745 0.000000
# 6 0.000000 0.000000 0.000000 -0.015367 0.000000 -0.074674
#
#
# Mechanical properties :
#
#
# Convention : Reuss Voigt Hill
#
# Bulk Modulus (GPa) = 39.49926 40.35801 39.92864
# Shear Modulus (GPa) = 49.90010 22.22739 36.06375
#
# Velocity S-wave (km/s) = 4.46934 2.98288 3.79951
# Velocity P-wave (km/s) = 6.51497 5.29327 5.93563
#
# Compressibility (1/GPa) = 0.02531693
#
# Stress axis : x y z
#
# Youngs Moduli (GPa) = 33.08268 45.47107 65.64910
#
# Poissons Ratio (x) = 0.65606 0.55638
# Poissons Ratio (y) = 0.47732 -0.12051
# Poissons Ratio (z) = 0.28038 -0.08347
#
# Static dielectric constant tensor:
#      x y z
#    x 2.031050 0.000000 -0.080420 
#    y 0.000000 2.063900 0.000000 
#    z -0.080420 0.000000 2.013740 
# 
# From -- ./inp_files/32161.got.cif
#   From: 2010.05.17/outbox.cif.g08.bks.cpg/sg11_17_cif.got.tgz:32161.got - 2010.06.03 12:22:45.
