data_PCOD9157974
_publ_section_title
;
Structure prediction by ZEFSAII (Michael W. Deem and Ramdas Pophale) SiO2 
 PCOD9157974
Probable space group: P 21/M
;
_chemical_formula_sum "Si O2"
_cell_formula_units_Z 32
_cell_length_a 26.846753
_cell_length_b 7.682030
_cell_length_c 15.108847
_cell_angle_alpha 90.000000
_cell_angle_beta 32.416679
_cell_angle_gamma 90.000000
_cell_volume 1670.408403
_symmetry_space_group_name_H-M "P 21/M"
_symmetry_group_IT_number 11
_symmetry_cell_setting 'monoclinic'
loop_
_space_group_symop_operation_xyz
x,y,z
-x,1/2+y,-z
-x,-y,-z
x,1/2-y,z
loop_
_atom_site_type_symbol
_atom_site_label
_atom_site_fract_x
_atom_site_fract_y
_atom_site_fract_z
Si Si1 0.261556 0.452640 0.877515
Si Si2 0.893989 0.459708 0.559242
Si Si3 0.106011 0.459708 0.241211
Si Si4 0.638140 0.540552 0.441820
Si Si5 0.261556 0.952640 0.337818
Si Si6 0.573496 0.958040 0.037890
Si Si7 0.361861 0.959448 0.356237
Si Si8 0.426505 0.541960 0.758376
O O1 0.238222 0.250000 0.897239
O O2 0.292015 0.528601 0.737385
O O3 0.352375 0.461965 0.803315
O O4 0.176576 0.529060 0.061495
O O5 0.896067 0.250000 0.549472
O O6 0.861660 0.500000 0.707510
O O7 0.823424 0.529061 0.591222
O O8 0.000000 0.524078 0.390918
O O9 0.103934 0.250000 0.237673
O O10 0.634653 0.750000 0.438673
O O11 0.663418 0.500000 0.504874
O O12 0.532203 0.478080 0.584759
O O13 0.238222 0.750000 0.388097
O O14 0.292016 0.028601 0.386567
O O15 0.352374 0.961965 0.139560
O O16 0.575765 0.750000 0.022998
O O17 0.467798 0.021920 0.181367
O O18 0.596930 1.000000 0.104606
O O19 0.365348 0.750000 0.342631
O O20 0.424236 0.750000 0.750292
#
# Coordination Sequence:
#
# PCOD9157974 Si02
#       8
#     4   4   4   4   4   4   4   4
#     4  10  19  31  48  69  92 119 154 191 227 269
#     4   9  18  32  49  69  93 119 146 180 224 272
#     4   9  18  32  49  69  93 119 146 180 224 272
#     4   9  19  33  47  65  91 123 156 190 225 265
#     4  10  19  31  48  69  92 119 154 191 227 269
#     4  10  19  30  45  67  95 124 153 185 224 269
#     4   9  19  33  47  65  91 123 156 190 225 265
#     4  10  19  30  45  67  95 124 153 185 224 269
#
# _framework density 19.156993
#
# number of rings (size 3 to 8) (size 9 to 14) (size 15 to 20)
#    0.000    2.500    0.000    2.250    0.000    5.000 
#    0.000    0.000    0.000    0.750    0.000    0.000 
#    0.000    0.000    0.000    0.000    0.000    0.000 
#
# Total GULP energy -178579.776505 kJ/mol
# GULP energy per Si atom -5580.618016 kJ/mol
# Density = 1.911339 g / cm^3
# Si number density = 19.156993 Si / 1000 Ang^3
#
#
#
# Elastic Constant Matrix: (Units=GPa)
#
#
# Indices 1 2 3 4 5 6 
#
# 1 130.2265 -10.5147 66.1999 0.0000 -3.3428 0.0000
# 2 -10.5147 35.5737 -5.3669 0.0000 -5.1939 0.0000
# 3 66.1999 -5.3669 117.6427 0.0000 16.0389 0.0000
# 4 0.0000 0.0000 0.0000 14.4062 0.0000 3.0751
# 5 -3.3428 -5.1939 16.0389 0.0000 14.1146 0.0000
# 6 0.0000 0.0000 0.0000 3.0751 0.0000 17.4539
#
#
#
# Elastic Compliance Matrix: (Units=1/GPa)
#
#
# Indices 1 2 3 4 5 6 
#
# 1 0.013195 0.004752 -0.009316 0.000000 0.015460 0.000000
# 2 0.004752 0.031420 -0.003515 0.000000 0.016682 0.000000
# 3 -0.009316 -0.003515 0.016637 0.000000 -0.022405 0.000000
# 4 0.000000 0.000000 0.000000 0.072127 0.000000 -0.012708
# 5 0.015460 0.016682 -0.022405 0.000000 0.106108 0.000000
# 6 0.000000 0.000000 0.000000 -0.012708 0.000000 0.059533
#
#
# Mechanical properties :
#
#
# Convention : Reuss Voigt Hill
#
# Bulk Modulus (GPa) = 22.17574 42.67552 32.42563
# Shear Modulus (GPa) = 15.14185 24.73658 19.93921
#
# Velocity S-wave (km/s) = 2.81447 3.59730 3.22969
# Velocity P-wave (km/s) = 4.70771 6.29120 5.55616
#
# Compressibility (1/GPa) = 0.04509433
#
# Stress axis : x y z
#
# Youngs Moduli (GPa) = 75.78454 31.82640 60.10703
#
# Poissons Ratio (x) = -0.15124 0.55997
# Poissons Ratio (y) = -0.36012 0.21127
# Poissons Ratio (z) = 0.70603 0.11187
#
# Static dielectric constant tensor:
#      x y z
#    x 1.672970 0.000000 -0.002840 
#    y 0.000000 1.721200 0.000000 
#    z -0.002840 0.000000 1.675780 
# 
# From -- ./inp_files/51704.got.cif
#   From: 2010.05.17/outbox.cif.g08.bks.cpg/sg11_26_cif.got.tgz:51704.got - 2010.06.03 12:22:45.
