data_PCOD9157531
_publ_section_title
;
Structure prediction by ZEFSAII (Michael W. Deem and Ramdas Pophale) SiO2 
 PCOD9157531
Probable space group: P 21/M
;
_chemical_formula_sum "Si O2"
_cell_formula_units_Z 32
_cell_length_a 18.299454
_cell_length_b 8.771490
_cell_length_c 24.687671
_cell_angle_alpha 90.000000
_cell_angle_beta 149.643387
_cell_angle_gamma 90.000000
_cell_volume 2002.673230
_symmetry_space_group_name_H-M "P 21/M"
_symmetry_group_IT_number 11
_symmetry_cell_setting 'monoclinic'
loop_
_space_group_symop_operation_xyz
x,y,z
-x,1/2+y,-z
-x,-y,-z
x,1/2-y,z
loop_
_atom_site_type_symbol
_atom_site_label
_atom_site_fract_x
_atom_site_fract_y
_atom_site_fract_z
Si Si1 0.724444 0.567449 0.408370
Si Si2 0.867493 0.933523 0.184969
Si Si3 0.832067 0.433455 0.674788
Si Si4 0.555404 0.067031 0.978560
Si Si5 0.959956 0.933771 0.367134
Si Si6 0.595160 0.433209 0.431627
Si Si7 0.380301 0.432450 0.382624
Si Si8 0.314964 0.064545 0.738749
O O1 0.724758 0.750000 0.409283
O O2 0.624672 0.507161 0.392953
O O3 0.676667 0.514460 0.318017
O O4 0.886525 0.508320 0.522801
O O5 0.850926 0.750000 0.171556
O O6 0.905910 0.970804 0.271982
O O7 0.005677 0.977691 0.237205
O O8 0.718309 0.011539 0.073573
O O9 0.824884 0.250000 0.673881
O O10 0.724605 0.477251 0.556293
O O11 0.769016 0.503240 0.689641
O O12 0.550253 0.250000 0.978411
O O13 0.446756 0.016171 0.861427
O O14 0.500000 0.000000 0.000000
O O15 0.976196 0.750000 0.380041
O O16 0.836429 0.981997 0.330478
O O17 0.602100 0.250000 0.430773
O O18 0.443932 0.473384 0.364350
O O19 0.500000 0.500000 0.500000
O O20 0.380570 0.250000 0.386791
O O21 0.314960 0.250000 0.738986
#
# Coordination Sequence:
#
# PCOD9157531 Si02
#       8
#     4   4   4   4   4   4   4   4
#     4  11  21  31  47  73  98 125 167 204 232 282
#     4  10  19  33  52  73  98 131 162 196 246 292
#     4   9  17  30  47  68  98 129 157 191 240 291
#     4  11  21  36  54  71  94 126 165 207 249 289
#     4  10  18  34  52  65  96 135 159 192 248 292
#     4   9  17  31  46  65  96 134 159 184 239 291
#     4   9  17  28  44  66  95 128 161 192 232 286
#     4   9  20  36  50  66  95 131 161 201 250 284
#
# _framework density 15.978642000000001
#
# number of rings (size 3 to 8) (size 9 to 14) (size 15 to 20)
#    0.000    2.250    2.500    2.250    0.000    3.500 
#    0.000    3.125    0.000    0.000    0.000    0.875 
#    0.000    0.000    0.000    0.000    0.000    0.000 
#
# Total GULP energy -178426.035945 kJ/mol
# GULP energy per Si atom -5575.813623 kJ/mol
# Density = 1.594227 g / cm^3
# Si number density = 15.978642 Si / 1000 Ang^3
#
#
#
# Elastic Constant Matrix: (Units=GPa)
#
#
# Indices 1 2 3 4 5 6 
#
# 1 176.7717 41.3657 68.7822 0.0000 8.9951 0.0000
# 2 41.3657 22.6035 22.2610 0.0000 1.3425 0.0000
# 3 68.7822 22.2610 62.4165 0.0000 -5.9571 0.0000
# 4 0.0000 0.0000 0.0000 20.0467 0.0000 5.2400
# 5 8.9951 1.3425 -5.9571 0.0000 22.1881 0.0000
# 6 0.0000 0.0000 0.0000 5.2400 0.0000 28.8444
#
#
#
# Elastic Compliance Matrix: (Units=1/GPa)
#
#
# Indices 1 2 3 4 5 6 
#
# 1 0.013298 -0.013515 -0.010540 0.000000 -0.007403 0.000000
# 2 -0.013515 0.084618 -0.015652 0.000000 -0.003843 0.000000
# 3 -0.010540 -0.015652 0.034604 0.000000 0.014510 0.000000
# 4 0.000000 0.000000 0.000000 0.052370 0.000000 -0.009514
# 5 -0.007403 -0.003843 0.014510 0.000000 0.052199 0.000000
# 6 0.000000 0.000000 0.000000 -0.009514 0.000000 0.036397
#
#
# Mechanical properties :
#
#
# Convention : Reuss Voigt Hill
#
# Bulk Modulus (GPa) = 18.83092 58.51215 38.67153
# Shear Modulus (GPa) = 13.49155 22.84135 18.16645
#
# Velocity S-wave (km/s) = 2.90892 3.78497 3.37548
# Velocity P-wave (km/s) = 4.80552 7.46992 6.28064
#
# Compressibility (1/GPa) = 0.05310416
#
# Stress axis : x y z
#
# Youngs Moduli (GPa) = 75.20206 11.81778 28.89867
#
# Poissons Ratio (x) = 0.15972 0.30459
# Poissons Ratio (y) = 1.01638 0.45233
# Poissons Ratio (z) = 0.79263 0.18498
#
# Static dielectric constant tensor:
#      x y z
#    x 1.555850 0.000000 0.010040 
#    y 0.000000 1.544030 0.000000 
#    z 0.010040 0.000000 1.511910 
# 
# From -- ./inp_files/58706.got.cif
#   From: 2010.05.17/outbox.cif.g08.bks.cpg/sg11_30_cif.got.tgz:58706.got - 2010.06.03 12:22:45.
