data_PCOD9157271
_publ_section_title
;
Structure prediction by ZEFSAII (Michael W. Deem and Ramdas Pophale) SiO2 
 PCOD9157271
Probable space group: P 21/M
;
_chemical_formula_sum "Si O2"
_cell_formula_units_Z 32
_cell_length_a 20.882610
_cell_length_b 7.530186
_cell_length_c 26.940148
_cell_angle_alpha 90.000000
_cell_angle_beta 158.571397
_cell_angle_gamma 90.000000
_cell_volume 1547.709722
_symmetry_space_group_name_H-M "P 21/M"
_symmetry_group_IT_number 11
_symmetry_cell_setting 'monoclinic'
loop_
_space_group_symop_operation_xyz
x,y,z
-x,1/2+y,-z
-x,-y,-z
x,1/2-y,z
loop_
_atom_site_type_symbol
_atom_site_label
_atom_site_fract_x
_atom_site_fract_y
_atom_site_fract_z
Si Si1 0.281050 0.462053 0.201925
Si Si2 0.801153 0.961338 0.340685
Si Si3 0.474113 0.957284 0.773172
Si Si4 0.358424 0.532383 0.581880
Si Si5 0.859224 0.967668 0.079999
Si Si6 0.700935 0.537081 0.158743
Si Si7 0.973052 0.967613 0.271278
Si Si8 0.990175 0.037422 0.913656
O O1 0.285792 0.250000 0.199399
O O2 0.477453 0.525090 0.333478
O O3 0.191865 0.498076 0.190376
O O4 0.145677 0.531104 0.062123
O O5 0.779860 0.750000 0.324282
O O6 0.753759 0.030615 0.251528
O O7 0.667260 0.029931 0.285388
O O8 0.000000 0.000000 0.500000
O O9 0.507841 0.750000 0.787251
O O10 0.400015 0.028927 0.667926
O O11 0.661639 0.029451 0.925578
O O12 0.352923 0.750000 0.577705
O O13 0.168168 0.474619 0.426590
O O14 0.859483 0.750000 0.081562
O O15 0.920911 0.025987 0.178542
O O16 0.979543 0.024387 0.120500
O O17 0.721165 0.750000 0.174932
O O18 0.832204 0.472508 0.210636
O O19 0.500000 0.500000 0.000000
O O20 0.970837 0.750000 0.269868
O O21 0.007466 0.250000 0.925086
#
# Coordination Sequence:
#
# PCOD9157271 Si02
#       8
#     4   4   4   4   4   4   4   4
#     4   9  16  28  47  71  96 126 162 199 243 292
#     4  11  23  37  53  78 109 138 173 217 264 315
#     4  10  18  32  54  75  97 129 169 212 255 301
#     4   9  16  29  49  72  99 130 166 206 247 297
#     4   9  16  28  48  73  97 125 164 205 246 296
#     4  10  21  37  56  79 104 135 176 217 260 313
#     4   9  17  29  48  73  97 124 162 206 247 292
#     4   9  16  28  46  71  98 124 160 202 242 289
#
# _framework density 20.675711
#
# number of rings (size 3 to 8) (size 9 to 14) (size 15 to 20)
#    0.000    2.500    1.250    1.875    0.000    4.000 
#    0.000    1.875    0.000    1.500    0.000    0.000 
#    0.000    0.000    0.000    0.000    0.000    0.000 
#
# Total GULP energy -178665.408026 kJ/mol
# GULP energy per Si atom -5583.294001 kJ/mol
# Density = 2.062865 g / cm^3
# Si number density = 20.675711 Si / 1000 Ang^3
#
#
#
# Elastic Constant Matrix: (Units=GPa)
#
#
# Indices 1 2 3 4 5 6 
#
# 1 201.1482 -10.4021 134.6841 0.0000 13.3662 0.0000
# 2 -10.4021 46.9176 -0.7604 0.0000 -2.6957 0.0000
# 3 134.6841 -0.7604 192.6715 0.0000 0.7708 0.0000
# 4 0.0000 0.0000 0.0000 7.8930 0.0000 7.6743
# 5 13.3662 -2.6957 0.7708 0.0000 36.0940 0.0000
# 6 0.0000 0.0000 0.0000 7.6743 0.0000 17.0975
#
#
#
# Elastic Compliance Matrix: (Units=1/GPa)
#
#
# Indices 1 2 3 4 5 6 
#
# 1 0.009927 0.001894 -0.006918 0.000000 -0.003387 0.000000
# 2 0.001894 0.021768 -0.001242 0.000000 0.000951 0.000000
# 3 -0.006918 -0.001242 0.010012 0.000000 0.002255 0.000000
# 4 0.000000 0.000000 0.000000 0.224803 0.000000 -0.100904
# 5 -0.003387 0.000951 0.002255 0.000000 0.028983 0.000000
# 6 0.000000 0.000000 0.000000 -0.100904 0.000000 0.103779
#
#
# Mechanical properties :
#
#
# Convention : Reuss Voigt Hill
#
# Bulk Modulus (GPa) = 34.27532 76.42007 55.34770
# Shear Modulus (GPa) = 11.86159 33.36461 22.61310
#
# Velocity S-wave (km/s) = 2.39780 4.02146 3.31071
# Velocity P-wave (km/s) = 4.92742 7.65535 6.43754
#
# Compressibility (1/GPa) = 0.02917551
#
# Stress axis : x y z
#
# Youngs Moduli (GPa) = 100.73944 45.93812 99.87827
#
# Poissons Ratio (x) = -0.08701 0.69096
# Poissons Ratio (y) = -0.19081 0.12404
# Poissons Ratio (z) = 0.69692 0.05705
#
# Static dielectric constant tensor:
#      x y z
#    x 1.718180 0.000000 -0.003090 
#    y 0.000000 1.787380 0.000000 
#    z -0.003090 0.000000 1.699370 
# 
# From -- ./inp_files/72136.got.cif
#   From: 2010.05.17/outbox.cif.g08.bks.cpg/sg11_37_cif.got.tgz:72136.got - 2010.06.03 12:22:45.
