data_PCOD9157511
_publ_section_title
;
Structure prediction by ZEFSAII (Michael W. Deem and Ramdas Pophale) SiO2 
 PCOD9157511
Probable space group: P 21/M
;
_chemical_formula_sum "Si O2"
_cell_formula_units_Z 32
_cell_length_a 11.030430
_cell_length_b 14.557439
_cell_length_c 17.141655
_cell_angle_alpha 90.000000
_cell_angle_beta 33.882399
_cell_angle_gamma 90.000000
_cell_volume 1534.501568
_symmetry_space_group_name_H-M "P 21/M"
_symmetry_group_IT_number 11
_symmetry_cell_setting 'monoclinic'
loop_
_space_group_symop_operation_xyz
x,y,z
-x,1/2+y,-z
-x,-y,-z
x,1/2-y,z
loop_
_atom_site_type_symbol
_atom_site_label
_atom_site_fract_x
_atom_site_fract_y
_atom_site_fract_z
Si Si1 0.434485 0.475406 0.447965
Si Si2 0.411614 0.639220 0.871488
Si Si3 0.119825 0.360963 0.130665
Si Si4 0.105925 0.098368 0.427686
Si Si5 0.816597 0.354427 0.438362
Si Si6 0.978512 0.647726 0.356843
Si Si7 0.578320 0.137860 0.953608
Si Si8 0.187271 0.638892 0.838304
O O1 0.500000 0.500000 0.500000
O O2 0.368738 0.571886 0.443306
O O3 0.617735 0.415987 0.307519
O O4 0.215405 0.416043 0.566989
O O5 0.444326 0.750000 0.852680
O O6 0.635358 0.596012 0.720476
O O7 0.385965 0.612387 0.975212
O O8 0.216951 0.619694 0.914613
O O9 0.137916 0.250000 0.120041
O O10 0.351937 0.395987 0.037499
O O11 0.935411 0.381066 0.293905
O O12 0.030407 0.387735 0.093069
O O13 0.999854 0.139918 0.406980
O O14 0.044903 0.152809 0.537846
O O15 0.000000 0.000000 0.500000
O O16 0.736715 0.250000 0.474459
O O17 0.956342 0.750000 0.334888
O O18 0.212695 0.609217 0.207764
O O19 0.570034 0.250000 0.955723
O O20 0.216060 0.750000 0.812899
#
# Coordination Sequence:
#
# PCOD9157511 Si02
#       8
#     4   4   4   4   4   4   4   4
#     4  12  23  36  58  88 126 157 205 251 308 367
#     4  10  18  33  59  88 116 158 210 255 295 364
#     4   9  17  32  56  84 115 157 206 247 291 357
#     4  12  21  35  59  91 124 154 205 260 310 361
#     4  11  21  35  57  86 118 157 203 254 304 358
#     4  11  23  40  63  93 128 162 198 257 322 367
#     4   9  19  36  61  90 121 159 207 253 305 372
#     4  10  19  33  59  88 118 158 207 254 301 358
#
# _framework density 20.853676
#
# number of rings (size 3 to 8) (size 9 to 14) (size 15 to 20)
#    0.000    1.500    5.000    1.500    0.000    0.500 
#    0.000    2.500    2.750    0.750    0.000    0.000 
#    0.000    0.000    0.000    0.000    0.000    0.000 
#
# Total GULP energy -178703.678544 kJ/mol
# GULP energy per Si atom -5584.489954 kJ/mol
# Density = 2.080621 g / cm^3
# Si number density = 20.853676 Si / 1000 Ang^3
#
#
#
# Elastic Constant Matrix: (Units=GPa)
#
#
# Indices 1 2 3 4 5 6 
#
# 1 166.3341 9.8556 27.5519 0.0000 -7.2447 0.0000
# 2 9.8556 73.4174 -1.3714 0.0000 -8.8583 0.0000
# 3 27.5519 -1.3714 56.9062 0.0000 -0.7948 0.0000
# 4 0.0000 0.0000 0.0000 12.7627 0.0000 5.9943
# 5 -7.2447 -8.8583 -0.7948 0.0000 12.2857 0.0000
# 6 0.0000 0.0000 0.0000 5.9943 0.0000 33.0567
#
#
#
# Elastic Compliance Matrix: (Units=1/GPa)
#
#
# Indices 1 2 3 4 5 6 
#
# 1 0.006725 -0.000558 -0.003223 0.000000 0.003355 0.000000
# 2 -0.000558 0.014980 0.000778 0.000000 0.010522 0.000000
# 3 -0.003223 0.000778 0.019150 0.000000 -0.000100 0.000000
# 4 0.000000 0.000000 0.000000 0.085648 0.000000 -0.015531
# 5 0.003355 0.010522 -0.000100 0.000000 0.090954 0.000000
# 6 0.000000 0.000000 0.000000 -0.015531 0.000000 0.033067
#
#
# Mechanical properties :
#
#
# Convention : Reuss Voigt Hill
#
# Bulk Modulus (GPa) = 28.69438 40.96998 34.83218
# Shear Modulus (GPa) = 18.64658 28.99580 23.82119
#
# Velocity S-wave (km/s) = 2.99350 3.73291 3.38346
# Velocity P-wave (km/s) = 5.07324 6.18615 5.65713
#
# Compressibility (1/GPa) = 0.03485003
#
# Stress axis : x y z
#
# Youngs Moduli (GPa) = 148.69937 66.75673 52.21831
#
# Poissons Ratio (x) = 0.03726 0.16828
# Poissons Ratio (y) = 0.08300 -0.04064
# Poissons Ratio (z) = 0.47920 -0.05195
#
# Static dielectric constant tensor:
#      x y z
#    x 1.782590 0.000000 0.000660 
#    y 0.000000 1.372520 0.000000 
#    z 0.000660 0.000000 1.718600 
# 
# From -- ./inp_files/59454.got.cif
#   From: 2010.05.17/outbox.cif.g08.bks.cpg/sg11_30_cif.got.tgz:59454.got - 2010.06.03 12:22:45.
