data_PCOD9157175
_publ_section_title
;
Structure prediction by ZEFSAII (Michael W. Deem and Ramdas Pophale) SiO2 
 PCOD9157175
Probable space group: P 21/M
;
_chemical_formula_sum "Si O2"
_cell_formula_units_Z 28
_cell_length_a 14.670984
_cell_length_b 8.745693
_cell_length_c 22.509084
_cell_angle_alpha 90.000000
_cell_angle_beta 39.110552
_cell_angle_gamma 90.000000
_cell_volume 1821.863629
_symmetry_space_group_name_H-M "P 21/M"
_symmetry_group_IT_number 11
_symmetry_cell_setting 'monoclinic'
loop_
_space_group_symop_operation_xyz
x,y,z
-x,1/2+y,-z
-x,-y,-z
x,1/2-y,z
loop_
_atom_site_type_symbol
_atom_site_label
_atom_site_fract_x
_atom_site_fract_y
_atom_site_fract_z
Si Si1 0.247019 0.433666 0.977950
Si Si2 0.334573 0.566587 0.370007
Si Si3 0.039047 0.434091 0.915276
Si Si4 0.957349 0.932599 0.457402
Si Si5 0.264489 0.566890 0.266583
Si Si6 0.655348 0.564576 0.205077
Si Si7 0.489865 0.931742 0.939485
O O1 0.245938 0.250000 0.980365
O O2 0.309110 0.480220 0.881208
O O3 0.352838 0.499311 0.973862
O O4 0.083803 0.496691 0.064569
O O5 0.326594 0.750000 0.380380
O O6 0.202686 0.494540 0.473272
O O7 0.310061 0.534249 0.311991
O O8 0.495958 0.511682 0.303632
O O9 0.028550 0.250000 0.921035
O O10 0.207783 0.477976 0.823296
O O11 0.000000 0.500000 0.000000
O O12 0.953725 0.750000 0.463440
O O13 0.094450 0.972745 0.346893
O O14 0.000000 0.000000 0.500000
O O15 0.281849 0.750000 0.249464
O O16 0.369033 0.480278 0.169340
O O17 0.650332 0.750000 0.206941
O O18 0.477796 0.750000 0.948105
O O19 0.500000 0.000000 0.000000
#
# Coordination Sequence:
#
# PCOD9157175 Si02
#       7
#     4   4   4   4   4   4   4
#     4  10  18  32  47  60  86 118 149 188 230 265
#     4   9  15  26  43  63  89 121 149 178 217 260
#     4   9  16  26  41  63  87 117 153 183 220 267
#     4   9  17  27  40  60  85 115 146 180 218 261
#     4   9  17  31  46  59  85 118 148 184 228 263
#     4   8  14  25  42  62  89 121 147 177 218 260
#     4  12  24  35  49  67  86 113 153 193 229 271
#
# _framework density 15.368878
#
# number of rings (size 3 to 8) (size 9 to 14) (size 15 to 20)
#    0.000    2.571    1.429    4.286    0.000    2.857 
#    0.000    1.429    0.000    0.000    0.000    0.000 
#    0.000    1.143    0.000    3.429    0.000    5.286 
#
# Total GULP energy -155897.697761 kJ/mol
# GULP energy per Si atom -5567.774920 kJ/mol
# Density = 1.533390 g / cm^3
# Si number density = 15.368878 Si / 1000 Ang^3
#
#
#
# Elastic Constant Matrix: (Units=GPa)
#
#
# Indices 1 2 3 4 5 6 
#
# 1 98.5949 39.7973 67.4760 0.0000 -34.2877 0.0000
# 2 39.7973 60.5877 41.4872 0.0000 -12.5970 0.0000
# 3 67.4760 41.4872 82.7654 0.0000 -37.7654 0.0000
# 4 0.0000 0.0000 0.0000 23.4330 0.0000 -6.2641
# 5 -34.2877 -12.5970 -37.7654 0.0000 35.0146 0.0000
# 6 0.0000 0.0000 0.0000 -6.2641 0.0000 20.9981
#
#
#
# Elastic Compliance Matrix: (Units=1/GPa)
#
#
# Indices 1 2 3 4 5 6 
#
# 1 0.024093 -0.004634 -0.014403 0.000000 0.006391 0.000000
# 2 -0.004634 0.027532 -0.014913 0.000000 -0.010718 0.000000
# 3 -0.014403 -0.014913 0.044139 0.000000 0.028138 0.000000
# 4 0.000000 0.000000 0.000000 0.046373 0.000000 0.013834
# 5 0.006391 -0.010718 0.028138 0.000000 0.061310 0.000000
# 6 0.000000 0.000000 0.000000 0.013834 0.000000 0.051750
#
#
# Mechanical properties :
#
#
# Convention : Reuss Voigt Hill
#
# Bulk Modulus (GPa) = 35.88945 59.94098 47.91522
# Shear Modulus (GPa) = 15.04275 22.10162 18.57218
#
# Velocity S-wave (km/s) = 3.13194 3.79631 3.48002
# Velocity P-wave (km/s) = 6.03999 7.63559 6.88417
#
# Compressibility (1/GPa) = 0.02786334
#
# Stress axis : x y z
#
# Youngs Moduli (GPa) = 41.50661 36.32073 22.65568
#
# Poissons Ratio (x) = 0.16832 0.32630
# Poissons Ratio (y) = 0.19235 0.33787
# Poissons Ratio (z) = 0.59781 0.54166
#
# Static dielectric constant tensor:
#      x y z
#    x 1.529540 0.000000 -0.053110 
#    y 0.000000 1.514770 0.000000 
#    z -0.053110 0.000000 1.529150 
# 
# From -- ./inp_files/64147.got.cif
#   From: 2010.05.17/outbox.cif.g08.bks.cpg/sg11_33_cif.got.tgz:64147.got - 2010.06.03 12:22:45.
