data_PCOD9157512
_publ_section_title
;
Structure prediction by ZEFSAII (Michael W. Deem and Ramdas Pophale) SiO2 
 PCOD9157512
Probable space group: P 21/M
;
_chemical_formula_sum "Si O2"
_cell_formula_units_Z 32
_cell_length_a 13.366701
_cell_length_b 17.281413
_cell_length_c 16.812229
_cell_angle_alpha 90.000000
_cell_angle_beta 26.149649
_cell_angle_gamma 90.000000
_cell_volume 1711.546726
_symmetry_space_group_name_H-M "P 21/M"
_symmetry_group_IT_number 11
_symmetry_cell_setting 'monoclinic'
loop_
_space_group_symop_operation_xyz
x,y,z
-x,1/2+y,-z
-x,-y,-z
x,1/2-y,z
loop_
_atom_site_type_symbol
_atom_site_label
_atom_site_fract_x
_atom_site_fract_y
_atom_site_fract_z
Si Si1 0.445806 0.947608 0.754161
Si Si2 0.947919 0.338020 0.928108
Si Si3 0.822189 0.047503 0.575358
Si Si4 0.235996 0.919272 0.655467
Si Si5 0.829796 0.901014 0.069489
Si Si6 0.682206 0.594311 0.435812
Si Si7 0.556980 0.660410 0.114364
Si Si8 0.989720 0.659667 0.694249
O O1 0.559656 0.893871 0.606621
O O2 0.645374 0.987863 0.660951
O O3 0.301651 0.018865 0.818744
O O4 0.261043 0.896875 0.931791
O O5 0.872118 0.250000 0.988911
O O6 0.086946 0.360985 0.909282
O O7 0.118776 0.350198 0.733122
O O8 0.658301 0.105310 0.740904
O O9 0.951541 0.100943 0.418306
O O10 0.000000 0.000000 0.500000
O O11 0.484180 0.903750 0.511727
O O12 0.171950 0.858587 0.633342
O O13 0.226878 0.006023 0.627797
O O14 0.054136 0.915511 0.856396
O O15 0.666317 0.855378 0.124282
O O16 0.495010 0.750000 0.153745
O O17 0.750598 0.644502 0.910075
O O18 0.998652 0.750000 0.664389
#
# Coordination Sequence:
#
# PCOD9157512 Si02
#       8
#     4   4   4   4   4   4   4   4
#     4  11  22  41  62  81 120 159 202 252 300 356
#     4  12  25  37  53  84 125 168 210 242 281 353
#     4  11  24  41  66  92 110 156 213 261 306 365
#     4  10  18  33  59  89 123 159 195 234 294 369
#     4  10  18  35  60  88 120 160 197 241 298 359
#     4  11  21  34  56  84 122 166 200 230 288 361
#     4   9  20  37  60  93 128 151 184 250 317 360
#     4  10  21  38  62  96 128 151 190 257 317 356
#
# _framework density 18.696539000000001
#
# number of rings (size 3 to 8) (size 9 to 14) (size 15 to 20)
#    0.000    1.500    3.750    2.625    1.750    2.000 
#    0.000    1.250    0.000    1.500    0.000    0.000 
#    0.000    0.000    0.000    0.000    0.000    0.000 
#
# Total GULP energy -178691.797325 kJ/mol
# GULP energy per Si atom -5584.118666 kJ/mol
# Density = 1.865399 g / cm^3
# Si number density = 18.696539 Si / 1000 Ang^3
#
#
#
# Elastic Constant Matrix: (Units=GPa)
#
#
# Indices 1 2 3 4 5 6 
#
# 1 55.4230 50.5997 39.8952 0.0000 -7.0960 0.0000
# 2 50.5997 97.3633 55.3609 0.0000 -13.1322 0.0000
# 3 39.8952 55.3609 100.9626 0.0000 0.6640 0.0000
# 4 0.0000 0.0000 0.0000 23.0513 0.0000 0.6658
# 5 -7.0960 -13.1322 0.6640 0.0000 20.0632 0.0000
# 6 0.0000 0.0000 0.0000 0.6658 0.0000 19.6088
#
#
#
# Elastic Compliance Matrix: (Units=1/GPa)
#
#
# Indices 1 2 3 4 5 6 
#
# 1 0.036761 -0.015087 -0.006275 0.000000 0.003335 0.000000
# 2 -0.015087 0.023455 -0.006967 0.000000 0.010247 0.000000
# 3 -0.006275 -0.006967 0.016253 0.000000 -0.007318 0.000000
# 4 0.000000 0.000000 0.000000 0.043424 0.000000 -0.001474
# 5 0.003335 0.010247 -0.007318 0.000000 0.057971 0.000000
# 6 0.000000 0.000000 0.000000 -0.001474 0.000000 0.051048
#
#
# Mechanical properties :
#
#
# Convention : Reuss Voigt Hill
#
# Bulk Modulus (GPa) = 50.47860 60.60671 55.54265
# Shear Modulus (GPa) = 17.11316 19.73753 18.42535
#
# Velocity S-wave (km/s) = 3.02869 3.25265 3.14267
# Velocity P-wave (km/s) = 6.26803 6.82588 6.55289
#
# Compressibility (1/GPa) = 0.01981038
#
# Stress axis : x y z
#
# Youngs Moduli (GPa) = 27.20274 42.63515 61.52822
#
# Poissons Ratio (x) = 0.64322 0.38612
# Poissons Ratio (y) = 0.41040 0.42866
# Poissons Ratio (z) = 0.17071 0.29704
#
# Static dielectric constant tensor:
#      x y z
#    x 1.631090 0.000000 0.017410 
#    y 0.000000 1.635470 0.000000 
#    z 0.017410 0.000000 1.672290 
# 
# From -- ./inp_files/50652.got.cif
#   From: 2010.05.17/outbox.cif.g08.bks.cpg/sg11_26_cif.got.tgz:50652.got - 2010.06.03 12:22:45.
