data_PCOD9157973
_publ_section_title
;
Structure prediction by ZEFSAII (Michael W. Deem and Ramdas Pophale) SiO2 
 PCOD9157973
Probable space group: P 21/M
;
_chemical_formula_sum "Si O2"
_cell_formula_units_Z 28
_cell_length_a 16.498287
_cell_length_b 8.968919
_cell_length_c 16.371669
_cell_angle_alpha 90.000000
_cell_angle_beta 130.524208
_cell_angle_gamma 90.000000
_cell_volume 1841.453013
_symmetry_space_group_name_H-M "P 21/M"
_symmetry_group_IT_number 11
_symmetry_cell_setting 'monoclinic'
loop_
_space_group_symop_operation_xyz
x,y,z
-x,1/2+y,-z
-x,-y,-z
x,1/2-y,z
loop_
_atom_site_type_symbol
_atom_site_label
_atom_site_fract_x
_atom_site_fract_y
_atom_site_fract_z
Si Si1 0.383150 0.572599 0.830580
Si Si2 0.972915 0.072534 0.781633
Si Si3 0.889194 0.071244 0.896915
Si Si4 0.168513 0.427311 0.635532
Si Si5 0.016787 0.073193 0.383954
Si Si6 0.389820 0.572391 0.028259
Si Si7 0.204419 0.071834 0.013806
O O1 0.391147 0.750000 0.824479
O O2 0.281688 0.506436 0.717944
O O3 0.493461 0.494461 0.878015
O O4 0.367823 0.543725 0.917682
O O5 0.968960 0.250000 0.763285
O O6 0.890088 0.038729 0.800732
O O7 0.954754 0.983998 0.686972
O O8 0.091984 0.039120 0.894096
O O9 0.892495 0.250000 0.908697
O O10 0.802845 0.000922 0.900943
O O11 0.000000 0.000000 0.000000
O O12 0.180261 0.250000 0.653056
O O13 0.088480 0.490098 0.652071
O O14 0.109566 0.457120 0.510860
O O15 0.996636 0.250000 0.370331
O O16 0.389236 0.750000 0.040428
O O17 0.300247 0.495280 0.024314
O O18 0.212876 0.250000 0.026122
#
# Coordination Sequence:
#
# PCOD9157973 Si02
#       7
#     4   4   4   4   4   4   4
#     4  10  20  33  49  68  90 119 154 189 225 266
#     4   9  18  30  45  66  93 123 152 186 226 267
#     4   9  17  29  44  64  90 120 152 185 226 271
#     4  10  20  33  47  65  92 122 152 189 228 265
#     4  10  20  31  46  68  91 120 156 188 223 268
#     4  10  20  32  47  68  93 121 152 186 225 268
#     4  10  19  30  45  67  94 123 154 187 224 267
#
# _framework density 15.205384
#
# number of rings (size 3 to 8) (size 9 to 14) (size 15 to 20)
#    0.000    2.286    0.000    4.286    0.000    9.143 
#    0.000    0.000    0.000    0.000    0.000    1.000 
#    0.000    0.000    0.000    0.000    0.000    0.000 
#
# Total GULP energy -156163.381113 kJ/mol
# GULP energy per Si atom -5577.263611 kJ/mol
# Density = 1.517078 g / cm^3
# Si number density = 15.205384 Si / 1000 Ang^3
#
#
#
# Elastic Constant Matrix: (Units=GPa)
#
#
# Indices 1 2 3 4 5 6 
#
# 1 116.5415 56.0856 35.4647 0.0000 -9.1158 0.0000
# 2 56.0856 63.3787 37.7124 0.0000 -5.5237 0.0000
# 3 35.4647 37.7124 49.9748 0.0000 -2.9551 0.0000
# 4 0.0000 0.0000 0.0000 25.2362 0.0000 -0.8730
# 5 -9.1158 -5.5237 -2.9551 0.0000 25.3681 0.0000
# 6 0.0000 0.0000 0.0000 -0.8730 0.0000 31.3717
#
#
#
# Elastic Compliance Matrix: (Units=1/GPa)
#
#
# Indices 1 2 3 4 5 6 
#
# 1 0.015146 -0.012474 -0.001182 0.000000 0.002589 0.000000
# 2 -0.012474 0.039268 -0.020682 0.000000 0.001659 0.000000
# 3 -0.001182 -0.020682 0.036416 0.000000 -0.000686 0.000000
# 4 0.000000 0.000000 0.000000 0.039664 0.000000 0.001104
# 5 0.002589 0.001659 -0.000686 0.000000 0.040631 0.000000
# 6 0.000000 0.000000 0.000000 0.001104 0.000000 0.031907
#
#
# Mechanical properties :
#
#
# Convention : Reuss Voigt Hill
#
# Bulk Modulus (GPa) = 45.14095 54.26894 49.70495
# Shear Modulus (GPa) = 17.91516 23.10401 20.50959
#
# Velocity S-wave (km/s) = 3.43623 3.90226 3.67664
# Velocity P-wave (km/s) = 6.74504 7.48810 7.12626
#
# Compressibility (1/GPa) = 0.02215283
#
# Stress axis : x y z
#
# Youngs Moduli (GPa) = 66.02389 25.46585 27.46058
#
# Poissons Ratio (x) = 0.31767 0.03246
# Poissons Ratio (y) = 0.82360 0.56795
# Poissons Ratio (z) = 0.07804 0.52670
#
# Static dielectric constant tensor:
#      x y z
#    x 1.504980 0.000000 -0.013660 
#    y 0.000000 1.502270 0.000000 
#    z -0.013660 0.000000 1.492610 
# 
# From -- ./inp_files/37379.got.cif
#   From: 2010.05.17/outbox.cif.g08.bks.cpg/sg11_19_cif.got.tgz:37379.got - 2010.06.03 12:22:45.
