data_PCOD9157238
_publ_section_title
;
Structure prediction by ZEFSAII (Michael W. Deem and Ramdas Pophale) SiO2 
 PCOD9157238
Probable space group: P 21/M
;
_chemical_formula_sum "Si O2"
_cell_formula_units_Z 24
_cell_length_a 12.938755
_cell_length_b 15.009687
_cell_length_c 5.614651
_cell_angle_alpha 90.000000
_cell_angle_beta 124.665408
_cell_angle_gamma 90.000000
_cell_volume 896.842634
_symmetry_space_group_name_H-M "P 21/M"
_symmetry_group_IT_number 11
_symmetry_cell_setting 'monoclinic'
loop_
_space_group_symop_operation_xyz
x,y,z
-x,1/2+y,-z
-x,-y,-z
x,1/2-y,z
loop_
_atom_site_type_symbol
_atom_site_label
_atom_site_fract_x
_atom_site_fract_y
_atom_site_fract_z
Si Si1 0.034632 0.352173 0.980365
Si Si2 0.341166 0.103376 0.349768
Si Si3 0.100944 0.969926 0.825868
Si Si4 0.213736 0.654878 0.648665
Si Si5 0.363991 0.150527 0.884456
Si Si6 0.583380 0.094861 0.438517
O O1 0.083883 0.250000 0.073860
O O2 0.927757 0.344569 0.637819
O O3 0.113147 0.443893 0.017048
O O4 0.958734 0.386935 0.110991
O O5 0.286509 0.139993 0.027791
O O6 0.489327 0.136832 0.511870
O O7 0.364262 0.998463 0.402916
O O8 0.294909 0.134374 0.547024
O O9 0.217573 0.929494 0.829827
O O10 0.000000 0.000000 0.500000
O O11 0.240838 0.750000 0.802196
O O12 0.302492 0.644593 0.535745
O O13 0.414632 0.250000 0.944625
O O14 0.480822 0.086578 0.089763
#
# Coordination Sequence:
#
# PCOD9157238 Si02
#       6
#     4   4   4   4   4   4
#     4   9  18  33  54  80 110 143 180 218 267 330
#     4   9  20  34  51  73 107 148 189 223 275 339
#     4   9  18  33  52  78 110 144 176 216 269 326
#     4  10  19  32  52  85 113 136 172 225 279 330
#     4  10  18  32  53  76 100 138 188 234 273 323
#     4   9  20  32  50  74 110 141 179 220 284 328
#
# _framework density 26.760546999999999
#
# number of rings (size 3 to 8) (size 9 to 14) (size 15 to 20)
#    1.000    1.667    0.000    2.000    0.000    2.000 
#    0.000    1.667    0.000    2.000    0.000    0.000 
#    0.000    0.000    0.000    0.000    0.000    0.000 
#
# Total GULP energy -133839.272521 kJ/mol
# GULP energy per Si atom -5576.636355 kJ/mol
# Density = 2.669964 g / cm^3
# Si number density = 26.760547 Si / 1000 Ang^3
#
#
#
# Elastic Constant Matrix: (Units=GPa)
#
#
# Indices 1 2 3 4 5 6 
#
# 1 64.3112 32.1922 6.1826 0.0000 -16.2821 0.0000
# 2 32.1922 169.9147 64.7089 0.0000 -14.1701 0.0000
# 3 6.1826 64.7089 166.8565 0.0000 -23.5581 0.0000
# 4 0.0000 0.0000 0.0000 34.5830 0.0000 3.1487
# 5 -16.2821 -14.1701 -23.5581 0.0000 36.0013 0.0000
# 6 0.0000 0.0000 0.0000 3.1487 0.0000 25.8865
#
#
#
# Elastic Compliance Matrix: (Units=1/GPa)
#
#
# Indices 1 2 3 4 5 6 
#
# 1 0.019382 -0.003690 0.001923 0.000000 0.008572 0.000000
# 2 -0.003690 0.007645 -0.002907 0.000000 -0.000562 0.000000
# 3 0.001923 -0.002907 0.007724 0.000000 0.004780 0.000000
# 4 0.000000 0.000000 0.000000 0.029240 0.000000 -0.003557
# 5 0.008572 -0.000562 0.004780 0.000000 0.034560 0.000000
# 6 0.000000 0.000000 0.000000 -0.003557 0.000000 0.039063
#
#
# Mechanical properties :
#
#
# Convention : Reuss Voigt Hill
#
# Bulk Modulus (GPa) = 39.36613 67.47221 53.41917
# Shear Modulus (GPa) = 32.16915 39.16074 35.66495
#
# Velocity S-wave (km/s) = 3.47091 3.82956 3.65464
# Velocity P-wave (km/s) = 5.55026 6.69493 6.14929
#
# Compressibility (1/GPa) = 0.02540255
#
# Stress axis : x y z
#
# Youngs Moduli (GPa) = 51.59551 130.81041 129.46179
#
# Poissons Ratio (x) = 0.48263 -0.24894
# Poissons Ratio (y) = 0.19036 0.37639
# Poissons Ratio (z) = -0.09921 0.38031
#
# Static dielectric constant tensor:
#      x y z
#    x 2.339880 0.000000 0.112410 
#    y 0.000000 2.079920 0.000000 
#    z 0.112410 0.000000 2.100470 
# 
# From -- ./inp_files/6466.got.cif
#   From: 2010.05.17/outbox.cif.g08.bks.cpg/sg11_4_cif.got.tgz:6466.got - 2010.06.03 12:22:45.
