data_PCOD9157338
_publ_section_title
;
Structure prediction by ZEFSAII (Michael W. Deem and Ramdas Pophale) SiO2 
 PCOD9157338
Probable space group: P 21/M
;
_chemical_formula_sum "Si O2"
_cell_formula_units_Z 16
_cell_length_a 18.807477
_cell_length_b 9.623733
_cell_length_c 11.854873
_cell_angle_alpha 90.000000
_cell_angle_beta 153.992819
_cell_angle_gamma 90.000000
_cell_volume 940.859024
_symmetry_space_group_name_H-M "P 21/M"
_symmetry_group_IT_number 11
_symmetry_cell_setting 'monoclinic'
loop_
_space_group_symop_operation_xyz
x,y,z
-x,1/2+y,-z
-x,-y,-z
x,1/2-y,z
loop_
_atom_site_type_symbol
_atom_site_label
_atom_site_fract_x
_atom_site_fract_y
_atom_site_fract_z
Si Si1 0.143824 0.478380 0.410442
Si Si2 0.284959 0.250000 0.461098
Si Si3 0.935078 0.250000 0.846468
Si Si4 0.362418 0.750000 0.121753
Si Si5 0.867379 0.250000 0.001349
Si Si6 0.858279 0.408171 0.351273
O O1 0.269671 0.383304 0.521172
O O2 0.102836 0.613556 0.279020
O O3 0.196947 0.523798 0.610584
O O4 0.982370 0.382767 0.190878
O O5 0.446386 0.250000 0.618604
O O6 0.122637 0.250000 0.153723
O O7 0.836660 0.250000 0.823983
O O8 0.287142 0.750000 0.138643
O O9 0.284798 0.880312 0.942389
O O10 0.919022 0.250000 0.461721
O O11 0.000000 0.500000 0.500000
#
# Coordination Sequence:
#
# PCOD9157338 Si02
#       6
#     4   2   2   2   2   4
#     4  10  18  36  57  79 100 143 184 212 253 316
#     4  10  22  34  53  78 112 139 170 221 272 304
#     4  10  19  36  57  79  99 142 188 213 247 318
#     4  10  21  34  52  82 108 137 172 216 280 299
#     4  10  18  32  56  75 107 140 174 212 263 319
#     4  10  19  34  59  80 104 137 180 216 254 321
#
# _framework density 17.005735999999999
#
# number of rings (size 3 to 8) (size 9 to 14) (size 15 to 20)
#    0.750    1.500    3.750    3.000    1.750    1.000 
#    0.000    5.000    2.750    0.000    0.000    0.000 
#    0.000    0.000    0.000    0.000    0.000    0.000 
#
# Total GULP energy -89116.112567 kJ/mol
# GULP energy per Si atom -5569.757035 kJ/mol
# Density = 1.696703 g / cm^3
# Si number density = 17.005736 Si / 1000 Ang^3
#
#
#
# Elastic Constant Matrix: (Units=GPa)
#
#
# Indices 1 2 3 4 5 6 
#
# 1 149.8433 41.7771 53.5559 0.0000 14.5156 0.0000
# 2 41.7771 108.3873 15.6968 0.0000 4.3389 0.0000
# 3 53.5559 15.6968 40.1492 0.0000 7.9161 0.0000
# 4 0.0000 0.0000 0.0000 13.4310 0.0000 -10.9194
# 5 14.5156 4.3389 7.9161 0.0000 31.6832 0.0000
# 6 0.0000 0.0000 0.0000 -10.9194 0.0000 46.4853
#
#
#
# Elastic Compliance Matrix: (Units=1/GPa)
#
#
# Indices 1 2 3 4 5 6 
#
# 1 0.013568 -0.002745 -0.016697 0.000000 -0.001669 0.000000
# 2 -0.002745 0.010340 -0.000368 0.000000 -0.000067 0.000000
# 3 -0.016697 -0.000368 0.048178 0.000000 -0.004337 0.000000
# 4 0.000000 0.000000 0.000000 0.092030 0.000000 0.021618
# 5 -0.001669 -0.000067 -0.004337 0.000000 0.033420 0.000000
# 6 0.000000 0.000000 0.000000 0.021618 0.000000 0.026590
#
#
# Mechanical properties :
#
#
# Convention : Reuss Voigt Hill
#
# Bulk Modulus (GPa) = 30.80014 57.82662 44.31338
# Shear Modulus (GPa) = 18.21039 30.80989 24.51014
#
# Velocity S-wave (km/s) = 3.27592 4.26107 3.80055
# Velocity P-wave (km/s) = 5.69735 7.63459 6.73597
#
# Compressibility (1/GPa) = 0.03246739
#
# Stress axis : x y z
#
# Youngs Moduli (GPa) = 73.70152 96.71050 20.75618
#
# Poissons Ratio (x) = 0.26546 0.34656
# Poissons Ratio (y) = 0.20231 0.00764
# Poissons Ratio (z) = 1.23058 0.03559
#
# Static dielectric constant tensor:
#      x y z
#    x 1.576990 0.000000 -0.015760 
#    y 0.000000 1.579840 0.000000 
#    z -0.015760 0.000000 1.547440 
# 
# From -- ./inp_files/15576.got.cif
#   From: 2010.05.17/outbox.cif.g08.bks.cpg/sg11_8_cif.got.tgz:15576.got - 2010.06.03 12:22:45.
