data_PCOD9157281
_publ_section_title
;
Structure prediction by ZEFSAII (Michael W. Deem and Ramdas Pophale) SiO2 
 PCOD9157281
Probable space group: P 21/M
;
_chemical_formula_sum "Si O2"
_cell_formula_units_Z 28
_cell_length_a 24.529780
_cell_length_b 8.347617
_cell_length_c 20.915832
_cell_angle_alpha 90.000000
_cell_angle_beta 160.704751
_cell_angle_gamma 90.000000
_cell_volume 1415.203329
_symmetry_space_group_name_H-M "P 21/M"
_symmetry_group_IT_number 11
_symmetry_cell_setting 'monoclinic'
loop_
_space_group_symop_operation_xyz
x,y,z
-x,1/2+y,-z
-x,-y,-z
x,1/2-y,z
loop_
_atom_site_type_symbol
_atom_site_label
_atom_site_fract_x
_atom_site_fract_y
_atom_site_fract_z
Si Si1 0.687246 0.942685 0.693278
Si Si2 0.178610 0.064366 0.689426
Si Si3 0.628413 0.062121 0.197035
Si Si4 0.358028 0.945549 0.139940
Si Si5 0.915732 0.057298 0.061154
Si Si6 0.409488 0.562702 0.054593
Si Si7 0.271395 0.055177 0.407715
O O1 0.689360 0.750000 0.700078
O O2 0.740137 0.988381 0.679900
O O3 0.500000 0.000000 0.500000
O O4 0.813314 0.014720 0.884061
O O5 0.206169 0.250000 0.733976
O O6 0.216285 0.032457 0.656596
O O7 0.000000 0.000000 0.500000
O O8 0.281492 0.966716 0.855990
O O9 0.647411 0.250000 0.209473
O O10 0.569542 0.023867 0.202677
O O11 0.500000 0.000000 0.000000
O O12 0.356274 0.750000 0.141736
O O13 0.205285 0.001206 0.015193
O O14 0.343981 0.993632 0.050202
O O15 0.543919 0.996497 0.366376
O O16 0.924788 0.250000 0.077154
O O17 0.106528 0.000230 0.263511
O O18 0.447408 0.750000 0.102009
O O19 0.272142 0.250000 0.412629
#
# Coordination Sequence:
#
# PCOD9157281 Si02
#       7
#     4   4   4   4   4   4   4
#     4  11  20  33  55  81 110 143 186 236 288 338
#     4  11  21  36  57  83 113 143 180 229 280 330
#     4  10  18  32  54  78 105 137 176 218 265 320
#     4   9  18  34  54  80 113 148 189 228 268 335
#     4  10  19  35  58  80 109 145 186 235 283 329
#     4  10  19  34  55  80 109 144 185 226 273 331
#     4   9  18  33  55  81 108 142 187 234 279 331
#
# _framework density 19.785143000000001
#
# number of rings (size 3 to 8) (size 9 to 14) (size 15 to 20)
#    0.000    2.000    1.429    5.571    0.000    0.000 
#    2.571    2.143    0.000    0.000    0.000    0.000 
#    0.000    0.000    0.000    0.000    0.000    0.000 
#
# Total GULP energy -155930.217849 kJ/mol
# GULP energy per Si atom -5568.936352 kJ/mol
# Density = 1.974011 g / cm^3
# Si number density = 19.785143 Si / 1000 Ang^3
#
#
#
# Elastic Constant Matrix: (Units=GPa)
#
#
# Indices 1 2 3 4 5 6 
#
# 1 164.1272 0.6486 54.7728 0.0000 28.3830 0.0000
# 2 0.6486 20.4270 -10.9876 0.0000 3.4650 0.0000
# 3 54.7728 -10.9876 63.0848 0.0000 33.6892 0.0000
# 4 0.0000 0.0000 0.0000 16.3813 0.0000 -0.3462
# 5 28.3830 3.4650 33.6892 0.0000 35.7426 0.0000
# 6 0.0000 0.0000 0.0000 -0.3462 0.0000 21.9174
#
#
#
# Elastic Compliance Matrix: (Units=1/GPa)
#
#
# Indices 1 2 3 4 5 6 
#
# 1 0.009242 -0.007230 -0.011555 0.000000 0.004253 0.000000
# 2 -0.007230 0.079149 0.042474 0.000000 -0.041966 0.000000
# 3 -0.011555 0.042474 0.061574 0.000000 -0.052979 0.000000
# 4 0.000000 0.000000 0.000000 0.061066 0.000000 0.000965
# 5 0.004253 -0.041966 -0.052979 0.000000 0.078604 0.000000
# 6 0.000000 0.000000 0.000000 0.000965 0.000000 0.045641
#
#
# Mechanical properties :
#
#
# Convention : Reuss Voigt Hill
#
# Bulk Modulus (GPa) = 5.06730 37.38963 21.22846
# Shear Modulus (GPa) = 14.13711 28.35526 21.24618
#
# Velocity S-wave (km/s) = 2.67597 3.78982 3.28051
# Velocity P-wave (km/s) = 3.48059 6.17164 5.01017
#
# Compressibility (1/GPa) = 0.19734386
#
# Stress axis : x y z
#
# Youngs Moduli (GPa) = 108.20158 12.63432 16.24066
#
# Poissons Ratio (x) = 0.09135 0.18766
# Poissons Ratio (y) = 0.78230 -0.68981
# Poissons Ratio (z) = 1.25023 -0.53663
#
# Static dielectric constant tensor:
#      x y z
#    x 1.758110 0.000000 0.067670 
#    y 0.000000 1.676420 0.000000 
#    z 0.067670 0.000000 1.732720 
# 
# From -- ./inp_files/66717.got.cif
#   From: 2010.05.17/outbox.cif.g08.bks.cpg/sg11_34_cif.got.tgz:66717.got - 2010.06.03 12:22:45.
