data_PCOD9157198
_publ_section_title
;
Structure prediction by ZEFSAII (Michael W. Deem and Ramdas Pophale) SiO2 
 PCOD9157198
Probable space group: P 21/M
;
_chemical_formula_sum "Si O2"
_cell_formula_units_Z 26
_cell_length_a 9.574811
_cell_length_b 7.755154
_cell_length_c 19.534755
_cell_angle_alpha 90.000000
_cell_angle_beta 136.736877
_cell_angle_gamma 90.000000
_cell_volume 994.124769
_symmetry_space_group_name_H-M "P 21/M"
_symmetry_group_IT_number 11
_symmetry_cell_setting 'monoclinic'
loop_
_space_group_symop_operation_xyz
x,y,z
-x,1/2+y,-z
-x,-y,-z
x,1/2-y,z
loop_
_atom_site_type_symbol
_atom_site_label
_atom_site_fract_x
_atom_site_fract_y
_atom_site_fract_z
Si Si1 0.669383 0.250000 0.088950
Si Si2 0.999808 0.553512 0.325519
Si Si3 0.684780 0.051498 0.323886
Si Si4 0.691402 0.935087 0.993485
Si Si5 0.353992 0.452075 0.542297
Si Si6 0.186514 0.538858 0.259658
Si Si7 0.760593 0.052425 0.871931
O O1 0.719183 0.401075 0.050073
O O2 0.552917 0.398873 0.096726
O O3 0.928629 0.750000 0.293371
O O4 0.224483 0.550524 0.439654
O O5 0.030531 0.472584 0.261455
O O6 0.857222 0.460608 0.328451
O O7 0.628155 0.250000 0.314004
O O8 0.749384 0.975808 0.420235
O O9 0.482646 0.952412 0.228925
O O10 0.759909 0.750000 0.049971
O O11 0.785072 0.954678 0.951790
O O12 0.355175 0.250000 0.524928
O O13 0.585436 0.513496 0.636464
O O14 0.188708 0.750000 0.262048
O O15 0.150901 0.485691 0.168673
O O16 0.819450 0.250000 0.902400
#
# Coordination Sequence:
#
# PCOD9157198 Si02
#       7
#     2   4   4   4   4   4   4
#     4   8  16  26  44  74 106 130 160 198 232 284
#     4  11  20  33  49  66  91 123 159 204 246 293
#     4  11  22  34  46  67  92 124 164 201 242 295
#     4   9  15  27  45  72 105 135 159 194 242 281
#     4  10  19  34  51  68  87 116 156 207 255 295
#     4   8  18  32  48  69  93 122 160 196 246 297
#     4  10  18  32  51  72 100 131 156 197 243 291
#
# _framework density 26.153662000000001
#
# number of rings (size 3 to 8) (size 9 to 14) (size 15 to 20)
#    0.462    1.846    0.769    4.615    0.000    0.000 
#    0.000    8.462    0.000    0.000    0.000    0.000 
#    0.000    7.385    0.000    0.462    0.000    0.462 
#
# Total GULP energy -145067.150196 kJ/mol
# GULP energy per Si atom -5579.505777 kJ/mol
# Density = 2.609414 g / cm^3
# Si number density = 26.153662 Si / 1000 Ang^3
#
#
#
# Elastic Constant Matrix: (Units=GPa)
#
#
# Indices 1 2 3 4 5 6 
#
# 1 155.1941 3.2730 32.6435 0.0000 -43.9685 0.0000
# 2 3.2730 112.0137 0.8987 0.0000 -20.6501 0.0000
# 3 32.6435 0.8987 108.4442 0.0000 -21.9324 0.0000
# 4 0.0000 0.0000 0.0000 16.9135 0.0000 -12.2456
# 5 -43.9685 -20.6501 -21.9324 0.0000 47.1093 0.0000
# 6 0.0000 0.0000 0.0000 -12.2456 0.0000 23.7172
#
#
#
# Elastic Compliance Matrix: (Units=1/GPa)
#
#
# Indices 1 2 3 4 5 6 
#
# 1 0.009052 0.001322 -0.001005 0.000000 0.008560 0.000000
# 2 0.001322 0.009979 0.000722 0.000000 0.005944 0.000000
# 3 -0.001005 0.000722 0.010368 0.000000 0.004206 0.000000
# 4 0.000000 0.000000 0.000000 0.094421 0.000000 0.048751
# 5 0.008560 0.005944 0.004206 0.000000 0.033780 0.000000
# 6 0.000000 0.000000 0.000000 0.048751 0.000000 0.067335
#
#
# Mechanical properties :
#
#
# Convention : Reuss Voigt Hill
#
# Bulk Modulus (GPa) = 31.76943 49.92028 40.84485
# Shear Modulus (GPa) = 21.42701 40.13711 30.78206
#
# Velocity S-wave (km/s) = 2.86540 3.92173 3.43442
# Velocity P-wave (km/s) = 4.80843 6.29566 5.60162
#
# Compressibility (1/GPa) = 0.03147680
#
# Stress axis : x y z
#
# Youngs Moduli (GPa) = 110.46996 100.21239 96.44743
#
# Poissons Ratio (x) = -0.13245 0.09688
# Poissons Ratio (y) = -0.14601 -0.06959
# Poissons Ratio (z) = 0.11097 -0.07231
#
# Static dielectric constant tensor:
#      x y z
#    x 2.123190 0.000000 0.095740 
#    y 0.000000 1.908630 0.000000 
#    z 0.095740 0.000000 2.099900 
# 
# From -- ./inp_files/24146.got.cif
#   From: 2010.05.17/outbox.cif.g08.bks.cpg/sg11_13_cif.got.tgz:24146.got - 2010.06.03 12:22:45.
