data_PCOD9157308
_publ_section_title
;
Structure prediction by ZEFSAII (Michael W. Deem and Ramdas Pophale) SiO2 
 PCOD9157308
Probable space group: P 21/M
;
_chemical_formula_sum "Si O2"
_cell_formula_units_Z 32
_cell_length_a 12.297371
_cell_length_b 13.346829
_cell_length_c 15.863438
_cell_angle_alpha 90.000000
_cell_angle_beta 28.592619
_cell_angle_gamma 90.000000
_cell_volume 1246.066150
_symmetry_space_group_name_H-M "P 21/M"
_symmetry_group_IT_number 11
_symmetry_cell_setting 'monoclinic'
loop_
_space_group_symop_operation_xyz
x,y,z
-x,1/2+y,-z
-x,-y,-z
x,1/2-y,z
loop_
_atom_site_type_symbol
_atom_site_label
_atom_site_fract_x
_atom_site_fract_y
_atom_site_fract_z
Si Si1 0.646561 0.868578 0.598573
Si Si2 0.661831 0.870865 0.304183
Si Si3 0.576406 0.137853 0.967932
Si Si4 0.224845 0.514229 0.613692
Si Si5 0.347936 0.864285 0.283011
Si Si6 0.149939 0.366003 0.359711
Si Si7 0.142280 0.630718 0.934763
Si Si8 0.236685 0.005563 0.022378
O O1 0.676764 0.750000 0.565186
O O2 0.822069 0.935530 0.428664
O O3 0.689889 0.888728 0.668282
O O4 0.396525 0.896154 0.728833
O O5 0.668833 0.750000 0.313627
O O6 0.698825 0.939331 0.362517
O O7 0.878539 0.898007 0.095491
O O8 0.407260 0.905776 0.455693
O O9 0.639244 0.250000 0.957706
O O10 0.306700 0.128690 0.171026
O O11 0.645661 0.135894 0.823748
O O12 0.677544 0.047380 0.951626
O O13 0.994873 0.565290 0.802463
O O14 0.377865 0.750000 0.293088
O O15 0.102855 0.909437 0.474116
O O16 0.570191 0.928015 0.151779
O O17 0.093291 0.250000 0.413420
O O18 0.143688 0.750000 0.929670
O O19 0.170228 0.587857 0.009149
#
# Coordination Sequence:
#
# PCOD9157308 Si02
#       8
#     4   4   4   4   4   4   4   4
#     4  10  18  32  54  83 109 132 169 223 278 320
#     4   9  19  37  56  77 106 140 172 214 270 328
#     4  10  19  34  55  78 107 142 183 234 279 316
#     4  10  21  33  54  83 107 133 179 222 264 328
#     4  10  22  36  50  75 111 151 190 225 264 320
#     4   9  18  34  54  79 108 142 184 228 276 317
#     4   9  18  34  57  80 104 133 170 222 280 324
#     4  11  20  34  52  77 107 140 181 220 269 320
#
# _framework density 25.680820000000001
#
# number of rings (size 3 to 8) (size 9 to 14) (size 15 to 20)
#    0.000    2.250    1.250    1.875    0.000    4.000 
#    2.250    0.000    0.000    0.750    0.000    0.000 
#    0.000    0.000    0.000    0.000    0.000    0.000 
#
# Total GULP energy -178644.150633 kJ/mol
# GULP energy per Si atom -5582.629707 kJ/mol
# Density = 2.562237 g / cm^3
# Si number density = 25.680820 Si / 1000 Ang^3
#
#
#
# Elastic Constant Matrix: (Units=GPa)
#
#
# Indices 1 2 3 4 5 6 
#
# 1 39.8848 8.1939 -8.1022 0.0000 -6.9357 0.0000
# 2 8.1939 94.1875 36.7472 0.0000 -13.9655 0.0000
# 3 -8.1022 36.7472 170.5340 0.0000 -19.9348 0.0000
# 4 0.0000 0.0000 0.0000 36.7670 0.0000 -2.9620
# 5 -6.9357 -13.9655 -19.9348 0.0000 28.8517 0.0000
# 6 0.0000 0.0000 0.0000 -2.9620 0.0000 17.2358
#
#
#
# Elastic Compliance Matrix: (Units=1/GPa)
#
#
# Indices 1 2 3 4 5 6 
#
# 1 0.027357 -0.002336 0.002654 0.000000 0.007279 0.000000
# 2 -0.002336 0.012285 -0.002316 0.000000 0.003785 0.000000
# 3 0.002654 -0.002316 0.006998 0.000000 0.004352 0.000000
# 4 0.000000 0.000000 0.000000 0.027580 0.000000 0.004740
# 5 0.007279 0.003785 0.004352 0.000000 0.041249 0.000000
# 6 0.000000 0.000000 0.000000 0.004740 0.000000 0.058833
#
#
# Mechanical properties :
#
#
# Convention : Reuss Voigt Hill
#
# Bulk Modulus (GPa) = 23.44974 42.03156 32.74065
# Shear Modulus (GPa) = 25.97227 34.42205 30.19716
#
# Velocity S-wave (km/s) = 3.18362 3.66509 3.43281
# Velocity P-wave (km/s) = 4.76077 5.85773 5.33751
#
# Compressibility (1/GPa) = 0.04264440
#
# Stress axis : x y z
#
# Youngs Moduli (GPa) = 36.55353 81.39976 142.90224
#
# Poissons Ratio (x) = 0.19016 -0.37928
# Poissons Ratio (y) = 0.08539 0.33093
# Poissons Ratio (z) = -0.09702 0.18850
#
# Static dielectric constant tensor:
#      x y z
#    x 2.025200 0.000000 -0.055540 
#    y 0.000000 2.001640 0.000000 
#    z -0.055540 0.000000 2.140900 
# 
# From -- ./inp_files/65738.got.cif
#   From: 2010.05.17/outbox.cif.g08.bks.cpg/sg11_33_cif.got.tgz:65738.got - 2010.06.03 12:22:45.
