data_PCOD9157759
_publ_section_title
;
Structure prediction by ZEFSAII (Michael W. Deem and Ramdas Pophale) SiO2 
 PCOD9157759
Probable space group: P 21/M
;
_chemical_formula_sum "Si O2"
_cell_formula_units_Z 28
_cell_length_a 9.033489
_cell_length_b 17.927856
_cell_length_c 14.156124
_cell_angle_alpha 90.000000
_cell_angle_beta 38.526991
_cell_angle_gamma 90.000000
_cell_volume 1428.021936
_symmetry_space_group_name_H-M "P 21/M"
_symmetry_group_IT_number 11
_symmetry_cell_setting 'monoclinic'
loop_
_space_group_symop_operation_xyz
x,y,z
-x,1/2+y,-z
-x,-y,-z
x,1/2-y,z
loop_
_atom_site_type_symbol
_atom_site_label
_atom_site_fract_x
_atom_site_fract_y
_atom_site_fract_z
Si Si1 0.191363 0.076596 0.298338
Si Si2 0.532955 0.069523 0.304795
Si Si3 0.151442 0.572320 0.195694
Si Si4 0.010815 0.049795 0.138991
Si Si5 0.297043 0.924623 0.513232
Si Si6 0.628991 0.837977 0.971436
Si Si7 0.662977 0.836584 0.440091
O O1 0.373757 0.077020 0.292176
O O2 0.271363 0.136579 0.180464
O O3 0.912372 0.093072 0.456681
O O4 0.189986 0.993622 0.253019
O O5 0.814115 0.053626 0.155829
O O6 0.485012 0.142637 0.391959
O O7 0.427435 0.999311 0.415676
O O8 0.145311 0.526701 0.099195
O O9 0.902530 0.614990 0.326188
O O10 0.363833 0.629807 0.103372
O O11 0.845933 0.062172 0.316489
O O12 0.204129 0.115316 0.040044
O O13 0.496211 0.863986 0.437155
O O14 0.641116 0.750000 0.979516
O O15 0.715761 0.750000 0.407270
#
# Coordination Sequence:
#
# PCOD9157759 Si02
#       7
#     4   4   4   4   4   4   4
#     4  10  21  32  60  78 106 135 178 216 264 308
#     4  11  18  34  55  83 107 135 165 224 262 314
#     4  10  18  37  54  77  99 140 184 218 245 312
#     4   9  17  32  58  76 101 134 186 209 247 311
#     4   9  17  33  53  77 106 138 169 212 249 314
#     4  10  21  37  54  75 104 140 179 222 262 301
#     4  11  20  31  54  82 107 139 174 212 266 311
#
# _framework density 19.607541999999999
#
# number of rings (size 3 to 8) (size 9 to 14) (size 15 to 20)
#    0.000    2.286    4.286    3.429    0.000    5.714 
#    0.000    2.857    0.000    0.000    0.000    0.000 
#    0.000    0.000    0.000    0.000    0.000    0.000 
#
# Total GULP energy -156085.726794 kJ/mol
# GULP energy per Si atom -5574.490243 kJ/mol
# Density = 1.956291 g / cm^3
# Si number density = 19.607542 Si / 1000 Ang^3
#
#
#
# Elastic Constant Matrix: (Units=GPa)
#
#
# Indices 1 2 3 4 5 6 
#
# 1 132.4027 21.6559 18.6541 0.0000 -38.4139 0.0000
# 2 21.6559 97.5034 15.2827 0.0000 -13.8809 0.0000
# 3 18.6541 15.2827 46.9452 0.0000 -30.2123 0.0000
# 4 0.0000 0.0000 0.0000 19.0751 0.0000 -6.1095
# 5 -38.4139 -13.8809 -30.2123 0.0000 30.5918 0.0000
# 6 0.0000 0.0000 0.0000 -6.1095 0.0000 14.1509
#
#
#
# Elastic Compliance Matrix: (Units=1/GPa)
#
#
# Indices 1 2 3 4 5 6 
#
# 1 0.016120 -0.001062 0.018267 0.000000 0.037800 0.000000
# 2 -0.001062 0.011052 -0.002214 0.000000 0.001494 0.000000
# 3 0.018267 -0.002214 0.079247 0.000000 0.100197 0.000000
# 4 0.000000 0.000000 0.000000 0.060837 0.000000 0.026266
# 5 0.037800 0.001494 0.100197 0.000000 0.179785 0.000000
# 6 0.000000 0.000000 0.000000 0.026266 0.000000 0.082007
#
#
# Mechanical properties :
#
#
# Convention : Reuss Voigt Hill
#
# Bulk Modulus (GPa) = 7.33139 43.11517 25.22328
# Shear Modulus (GPa) = 11.24780 27.51414 19.38097
#
# Velocity S-wave (km/s) = 2.39769 3.75005 3.14736
# Velocity P-wave (km/s) = 3.37823 6.38650 5.10880
#
# Compressibility (1/GPa) = 0.13639978
#
# Stress axis : x y z
#
# Youngs Moduli (GPa) = 62.03625 90.48357 12.61883
#
# Poissons Ratio (x) = 0.09611 -0.23051
# Poissons Ratio (y) = 0.06589 0.02794
# Poissons Ratio (z) = -1.13322 0.20034
#
# Static dielectric constant tensor:
#      x y z
#    x 1.775590 0.000000 -0.006200 
#    y 0.000000 1.659490 0.000000 
#    z -0.006200 0.000000 1.754920 
# 
# From -- ./inp_files/58107.got.cif
#   From: 2010.05.17/outbox.cif.g08.bks.cpg/sg11_30_cif.got.tgz:58107.got - 2010.06.03 12:22:45.
