data_PCOD9157675
_publ_section_title
;
Structure prediction by ZEFSAII (Michael W. Deem and Ramdas Pophale) SiO2 
 PCOD9157675
Probable space group: P 21/M
;
_chemical_formula_sum "Si O2"
_cell_formula_units_Z 26
_cell_length_a 19.433961
_cell_length_b 18.287832
_cell_length_c 9.077923
_cell_angle_alpha 90.000000
_cell_angle_beta 27.121372
_cell_angle_gamma 90.000000
_cell_volume 1470.813695
_symmetry_space_group_name_H-M "P 21/M"
_symmetry_group_IT_number 11
_symmetry_cell_setting 'monoclinic'
loop_
_space_group_symop_operation_xyz
x,y,z
-x,1/2+y,-z
-x,-y,-z
x,1/2-y,z
loop_
_atom_site_type_symbol
_atom_site_label
_atom_site_fract_x
_atom_site_fract_y
_atom_site_fract_z
Si Si1 0.251805 0.401730 0.349213
Si Si2 0.738107 0.750000 0.166442
Si Si3 0.775213 0.596422 0.253309
Si Si4 0.322550 0.907968 0.822960
Si Si5 0.970483 0.477125 0.724791
Si Si6 0.580264 0.250000 0.340636
Si Si7 0.526469 0.500807 0.228977
Si Si8 0.319138 0.250000 0.056280
O O1 0.215703 0.393629 0.589444
O O2 0.111116 0.437865 0.531856
O O3 0.393253 0.457207 0.057196
O O4 0.287188 0.323306 0.208303
O O5 0.784574 0.674530 0.154151
O O6 0.555590 0.750000 0.517204
O O7 0.772670 0.750000 0.924827
O O8 0.615392 0.553687 0.526426
O O9 0.908478 0.545511 0.936516
O O10 0.329638 0.823717 0.846451
O O11 0.464016 0.935002 0.454823
O O12 0.345717 0.956201 0.925300
O O13 0.173503 0.924342 0.015895
O O14 0.000000 0.500000 0.500000
O O15 0.491061 0.250000 0.667094
#
# Coordination Sequence:
#
# PCOD9157675 Si02
#       8
#     4   2   4   4   4   2   4   2
#     4  12  22  38  58  90 123 154 194 244 303 356
#     4  10  19  37  59  85 111 150 199 241 288 347
#     4  11  23  37  59  89 121 156 193 249 302 348
#     4  10  19  34  60  85 112 146 202 246 281 339
#     4  11  23  38  60  84 118 160 200 241 286 356
#     4  10  18  35  60  86 111 141 192 256 289 336
#     4  10  18  35  58  86 112 150 199 244 288 342
#     4  10  21  36  63  87 110 155 197 243 289 359
#
# _framework density 17.677289999999999
#
# number of rings (size 3 to 8) (size 9 to 14) (size 15 to 20)
#    0.462    0.923    4.615    2.308    2.154    0.615 
#    0.000    0.769    0.000    0.000    0.000    0.000 
#    0.000    0.000    0.000    0.000    0.000    0.000 
#
# Total GULP energy -144939.352352 kJ/mol
# GULP energy per Si atom -5574.590475 kJ/mol
# Density = 1.763706 g / cm^3
# Si number density = 17.677290 Si / 1000 Ang^3
#
#
#
# Elastic Constant Matrix: (Units=GPa)
#
#
# Indices 1 2 3 4 5 6 
#
# 1 66.5462 16.5704 8.2427 0.0000 17.5341 0.0000
# 2 16.5704 116.1746 22.6871 0.0000 1.8211 0.0000
# 3 8.2427 22.6871 42.5654 0.0000 10.6576 0.0000
# 4 0.0000 0.0000 0.0000 20.5684 0.0000 6.5308
# 5 17.5341 1.8211 10.6576 0.0000 36.5796 0.0000
# 6 0.0000 0.0000 0.0000 6.5308 0.0000 24.3615
#
#
#
# Elastic Compliance Matrix: (Units=1/GPa)
#
#
# Indices 1 2 3 4 5 6 
#
# 1 0.017851 -0.002401 -0.000070 0.000000 -0.008417 0.000000
# 2 -0.002401 0.009971 -0.005408 0.000000 0.002230 0.000000
# 3 -0.000070 -0.005408 0.028384 0.000000 -0.007967 0.000000
# 4 0.000000 0.000000 0.000000 0.053142 0.000000 -0.014246
# 5 -0.008417 0.002230 -0.007967 0.000000 0.033583 0.000000
# 6 0.000000 0.000000 0.000000 -0.014246 0.000000 0.044867
#
#
# Mechanical properties :
#
#
# Convention : Reuss Voigt Hill
#
# Bulk Modulus (GPa) = 24.72216 35.58740 30.15478
# Shear Modulus (GPa) = 23.03736 28.15430 25.59583
#
# Velocity S-wave (km/s) = 3.61393 3.99517 3.80932
# Velocity P-wave (km/s) = 5.60621 6.43873 6.03684
#
# Compressibility (1/GPa) = 0.04044954
#
# Stress axis : x y z
#
# Youngs Moduli (GPa) = 56.01816 100.28779 35.23099
#
# Poissons Ratio (x) = 0.24075 0.00246
# Poissons Ratio (y) = 0.13448 0.19053
# Poissons Ratio (z) = 0.00391 0.54237
#
# Static dielectric constant tensor:
#      x y z
#    x 1.591680 0.000000 -0.001620 
#    y 0.000000 1.602070 0.000000 
#    z -0.001620 0.000000 1.625040 
# 
# From -- ./inp_files/25196.got.cif
#   From: 2010.05.17/outbox.cif.g08.bks.cpg/sg11_13_cif.got.tgz:25196.got - 2010.06.03 12:22:45.
