data_PCOD9157114
_publ_section_title
;
Structure prediction by ZEFSAII (Michael W. Deem and Ramdas Pophale) SiO2 
 PCOD9157114
Probable space group: P 21/M
;
_chemical_formula_sum "Si O2"
_cell_formula_units_Z 28
_cell_length_a 8.108473
_cell_length_b 8.499610
_cell_length_c 26.855109
_cell_angle_alpha 90.000000
_cell_angle_beta 141.250361
_cell_angle_gamma 90.000000
_cell_volume 1158.464745
_symmetry_space_group_name_H-M "P 21/M"
_symmetry_group_IT_number 11
_symmetry_cell_setting 'monoclinic'
loop_
_space_group_symop_operation_xyz
x,y,z
-x,1/2+y,-z
-x,-y,-z
x,1/2-y,z
loop_
_atom_site_type_symbol
_atom_site_label
_atom_site_fract_x
_atom_site_fract_y
_atom_site_fract_z
Si Si1 0.883803 0.932248 0.089199
Si Si2 0.286982 0.563623 0.049897
Si Si3 0.936001 0.561873 0.768751
Si Si4 0.344470 0.561879 0.614693
Si Si5 0.019653 0.436571 0.332360
Si Si6 0.801302 0.066946 0.527052
Si Si7 0.566910 0.565466 0.817392
O O1 0.821610 0.750000 0.069391
O O2 0.887094 0.983775 0.147318
O O3 0.187899 0.964980 0.144046
O O4 0.709647 0.026311 0.007963
O O5 0.308829 0.750000 0.062662
O O6 0.468421 0.471564 0.131913
O O7 0.000000 0.500000 0.000000
O O8 0.986120 0.750000 0.781175
O O9 0.624447 0.540128 0.706728
O O10 0.955280 0.496804 0.717257
O O11 0.281758 0.750000 0.602324
O O12 0.365695 0.518633 0.560861
O O13 0.100586 0.466596 0.578883
O O14 0.054484 0.250000 0.335392
O O15 0.207434 0.488475 0.421058
O O16 0.713160 0.465132 0.273855
O O17 0.755947 0.250000 0.523743
O O18 0.634147 0.750000 0.827242
#
# Coordination Sequence:
#
# PCOD9157114 Si02
#       7
#     4   4   4   4   4   4   4
#     4  11  21  34  54  81 108 136 173 217 264 310
#     4  10  18  31  53  80 106 135 172 215 262 308
#     4  10  21  38  55  74 104 142 181 216 257 311
#     4   9  19  36  57  79 105 138 175 217 263 309
#     4  10  22  37  54  76 106 143 177 213 261 314
#     4  10  20  34  55  82 108 135 173 219 263 310
#     4  10  19  34  55  79 106 137 174 216 262 310
#
# _framework density 24.169917999999999
#
# number of rings (size 3 to 8) (size 9 to 14) (size 15 to 20)
#    0.000    2.000    0.000    6.000    0.000    6.857 
#    0.000    0.714    0.000    0.000    0.000    0.000 
#    0.000    0.000    0.000    0.000    0.000    0.000 
#
# Total GULP energy -156599.904043 kJ/mol
# GULP energy per Si atom -5592.853716 kJ/mol
# Density = 2.411491 g / cm^3
# Si number density = 24.169918 Si / 1000 Ang^3
#
#
#
# Elastic Constant Matrix: (Units=GPa)
#
#
# Indices 1 2 3 4 5 6 
#
# 1 74.8212 -3.3725 9.2207 0.0000 -24.3783 0.0000
# 2 -3.3725 28.5703 24.1850 0.0000 8.0067 0.0000
# 3 9.2207 24.1850 153.6951 0.0000 -24.6197 0.0000
# 4 0.0000 0.0000 0.0000 23.6659 0.0000 -19.0279
# 5 -24.3783 8.0067 -24.6197 0.0000 42.6761 0.0000
# 6 0.0000 0.0000 0.0000 -19.0279 0.0000 23.8450
#
#
#
# Elastic Compliance Matrix: (Units=1/GPa)
#
#
# Indices 1 2 3 4 5 6 
#
# 1 0.016530 -0.001723 0.000930 0.000000 0.010302 0.000000
# 2 -0.001723 0.047527 -0.009874 0.000000 -0.015597 0.000000
# 3 0.000930 -0.009874 0.009240 0.000000 0.007714 0.000000
# 4 0.000000 0.000000 0.000000 0.117897 0.000000 0.094079
# 5 0.010302 -0.015597 0.007714 0.000000 0.036694 0.000000
# 6 0.000000 0.000000 0.000000 0.094079 0.000000 0.117011
#
#
# Mechanical properties :
#
#
# Convention : Reuss Voigt Hill
#
# Bulk Modulus (GPa) = 19.24452 35.23923 27.24187
# Shear Modulus (GPa) = 13.03601 33.17431 23.10516
#
# Velocity S-wave (km/s) = 2.32491 3.70881 3.09519
# Velocity P-wave (km/s) = 3.89697 5.74036 4.90602
#
# Compressibility (1/GPa) = 0.05196284
#
# Stress axis : x y z
#
# Youngs Moduli (GPa) = 60.49774 21.04055 108.22507
#
# Poissons Ratio (x) = 0.03625 -0.10061
# Poissons Ratio (y) = 0.10423 1.06859
# Poissons Ratio (z) = -0.05624 0.20775
#
# Static dielectric constant tensor:
#      x y z
#    x 2.122270 0.000000 0.006820 
#    y 0.000000 1.800680 0.000000 
#    z 0.006820 0.000000 1.944090 
# 
# From -- ./inp_files/70920.got.cif
#   From: 2010.05.17/outbox.cif.g08.bks.cpg/sg11_36_cif.got.tgz:70920.got - 2010.06.03 12:22:45.
