data_PCOD9157021
_publ_section_title
;
Structure prediction by ZEFSAII (Michael W. Deem and Ramdas Pophale) SiO2 
 PCOD9157021
Probable space group: P 21/M
;
_chemical_formula_sum "Si O2"
_cell_formula_units_Z 28
_cell_length_a 10.140959
_cell_length_b 8.364132
_cell_length_c 29.101815
_cell_angle_alpha 90.000000
_cell_angle_beta 35.823067
_cell_angle_gamma 90.000000
_cell_volume 1444.730195
_symmetry_space_group_name_H-M "P 21/M"
_symmetry_group_IT_number 11
_symmetry_cell_setting 'monoclinic'
loop_
_space_group_symop_operation_xyz
x,y,z
-x,1/2+y,-z
-x,-y,-z
x,1/2-y,z
loop_
_atom_site_type_symbol
_atom_site_label
_atom_site_fract_x
_atom_site_fract_y
_atom_site_fract_z
Si Si1 0.050097 0.059597 0.855048
Si Si2 0.985803 0.943103 0.404884
Si Si3 0.374732 0.442151 0.423567
Si Si4 0.800931 0.556395 0.359906
Si Si5 0.539389 0.940802 0.704202
Si Si6 0.609337 0.941306 0.017040
Si Si7 0.158828 0.555477 0.183728
O O1 0.048396 0.250000 0.854247
O O2 0.965038 0.001866 0.828445
O O3 0.302976 0.001183 0.790587
O O4 0.863021 0.004897 0.944612
O O5 0.991367 0.750000 0.403839
O O6 0.855205 0.000304 0.487468
O O7 0.846065 0.992937 0.399388
O O8 0.239383 0.004555 0.331488
O O9 0.361548 0.250000 0.424434
O O10 0.578009 0.487228 0.399910
O O11 0.427464 0.503787 0.357623
O O12 0.786468 0.750000 0.362598
O O13 0.012572 0.505313 0.268482
O O14 0.531572 0.750000 0.704945
O O15 0.617949 0.750000 0.014530
O O16 0.421111 0.993764 0.107261
O O17 0.500000 0.000000 0.000000
O O18 0.157031 0.750000 0.183600
#
# Coordination Sequence:
#
# PCOD9157021 Si02
#       7
#     4   4   4   4   4   4   4
#     4  10  18  31  51  75 104 135 171 214 263 311
#     4  10  22  37  53  75 106 140 176 215 260 312
#     4  10  21  36  53  78 105 134 175 222 264 306
#     4  10  19  34  56  79 104 139 175 211 258 312
#     4  11  22  35  53  76 105 139 177 218 263 310
#     4   9  16  27  45  73 107 136 168 210 257 307
#     4   8  15  28  48  75 103 132 166 206 254 304
#
# _framework density 19.380780000000001
#
# number of rings (size 3 to 8) (size 9 to 14) (size 15 to 20)
#    0.000    2.286    1.429    3.000    0.000    1.714 
#    0.000    0.714    0.000    0.857    0.000    0.000 
#    0.000    0.000    0.000    0.000    0.000    0.000 
#
# Total GULP energy -156190.085945 kJ/mol
# GULP energy per Si atom -5578.217355 kJ/mol
# Density = 1.933667 g / cm^3
# Si number density = 19.380780 Si / 1000 Ang^3
#
#
#
# Elastic Constant Matrix: (Units=GPa)
#
#
# Indices 1 2 3 4 5 6 
#
# 1 28.0776 -7.7913 -14.4757 0.0000 -10.3708 0.0000
# 2 -7.7913 12.4325 -3.6557 0.0000 0.7714 0.0000
# 3 -14.4757 -3.6557 86.3450 0.0000 -20.4279 0.0000
# 4 0.0000 0.0000 0.0000 16.2897 0.0000 -6.9355
# 5 -10.3708 0.7714 -20.4279 0.0000 22.8565 0.0000
# 6 0.0000 0.0000 0.0000 -6.9355 0.0000 20.7161
#
#
#
# Elastic Compliance Matrix: (Units=1/GPa)
#
#
# Indices 1 2 3 4 5 6 
#
# 1 0.108224 0.074714 0.040996 0.000000 0.083224 0.000000
# 2 0.074714 0.133031 0.031851 0.000000 0.057877 0.000000
# 3 0.040996 0.031851 0.030371 0.000000 0.044671 0.000000
# 4 0.000000 0.000000 0.000000 0.071593 0.000000 0.023968
# 5 0.083224 0.057877 0.044671 0.000000 0.119484 0.000000
# 6 0.000000 0.000000 0.000000 0.023968 0.000000 0.056296
#
#
# Mechanical properties :
#
#
# Convention : Reuss Voigt Hill
#
# Bulk Modulus (GPa) = 1.76445 8.33440 5.04943
# Shear Modulus (GPa) = 12.11260 22.15764 17.13512
#
# Velocity S-wave (km/s) = 2.50267 3.38491 2.97666
# Velocity P-wave (km/s) = 3.04361 4.42566 3.79803
#
# Compressibility (1/GPa) = 0.56674828
#
# Stress axis : x y z
#
# Youngs Moduli (GPa) = 9.24012 7.51704 32.92565
#
# Poissons Ratio (x) = -0.56163 -1.34983
# Poissons Ratio (y) = -0.69036 -1.04871
# Poissons Ratio (z) = -0.37881 -0.23942
#
# Static dielectric constant tensor:
#      x y z
#    x 1.648640 0.000000 0.001950 
#    y 0.000000 1.658770 0.000000 
#    z 0.001950 0.000000 1.714200 
# 
# From -- ./inp_files/28268.got.cif
#   From: 2010.05.17/outbox.cif.g08.bks.cpg/sg11_15_cif.got.tgz:28268.got - 2010.06.03 12:22:45.
