data_PCOD9157169
_publ_section_title
;
Structure prediction by ZEFSAII (Michael W. Deem and Ramdas Pophale) SiO2 
 PCOD9157169
Probable space group: P 21/M
;
_chemical_formula_sum "Si O2"
_cell_formula_units_Z 28
_cell_length_a 9.661385
_cell_length_b 16.671923
_cell_length_c 14.238072
_cell_angle_alpha 90.000000
_cell_angle_beta 41.918214
_cell_angle_gamma 90.000000
_cell_volume 1532.137268
_symmetry_space_group_name_H-M "P 21/M"
_symmetry_group_IT_number 11
_symmetry_cell_setting 'monoclinic'
loop_
_space_group_symop_operation_xyz
x,y,z
-x,1/2+y,-z
-x,-y,-z
x,1/2-y,z
loop_
_atom_site_type_symbol
_atom_site_label
_atom_site_fract_x
_atom_site_fract_y
_atom_site_fract_z
Si Si1 0.477691 0.344546 0.286751
Si Si2 0.869642 0.345954 0.955214
Si Si3 0.731451 0.154853 0.653429
Si Si4 0.906178 0.065270 0.746168
Si Si5 0.397996 0.084250 0.524034
Si Si6 0.912177 0.570247 0.612903
Si Si7 0.331925 0.344681 0.756131
O O1 0.426141 0.250000 0.317410
O O2 0.500285 0.378385 0.380239
O O3 0.291113 0.390750 0.329014
O O4 0.687299 0.354370 0.121911
O O5 0.884388 0.250000 0.922328
O O6 0.829388 0.400009 0.883785
O O7 0.094030 0.372127 0.882487
O O8 0.721588 0.250000 0.667342
O O9 0.808907 0.118638 0.712258
O O10 0.507494 0.120634 0.735968
O O11 0.899059 0.132629 0.488406
O O12 0.154987 0.074511 0.622398
O O13 0.867294 0.973450 0.734087
O O14 0.404562 0.138943 0.613173
O O15 0.500000 0.000000 0.500000
O O16 0.000000 0.500000 0.500000
O O17 0.327292 0.250000 0.775653
#
# Coordination Sequence:
#
# PCOD9157169 Si02
#       7
#     4   4   4   4   4   4   4
#     4  11  22  38  62  87 116 153 196 244 292 345
#     4   9  20  38  58  83 115 156 201 238 282 349
#     4  10  18  31  58  85 112 149 194 245 292 344
#     4  10  20  35  57  84 116 154 191 237 288 353
#     4  11  21  35  60  84 114 150 192 244 291 343
#     4  10  19  32  55  85 117 143 186 242 291 338
#     4   9  19  34  55  82 113 150 196 240 286 348
#
# _framework density 18.275124000000002
#
# number of rings (size 3 to 8) (size 9 to 14) (size 15 to 20)
#    0.000    2.000    2.857    2.143    2.000    1.714 
#    0.000    2.857    6.286    0.000    0.000    0.000 
#    0.000    0.000    0.000    0.000    0.000    0.000 
#
# Total GULP energy -156090.550975 kJ/mol
# GULP energy per Si atom -5574.662535 kJ/mol
# Density = 1.823353 g / cm^3
# Si number density = 18.275124 Si / 1000 Ang^3
#
#
#
# Elastic Constant Matrix: (Units=GPa)
#
#
# Indices 1 2 3 4 5 6 
#
# 1 126.3746 43.1916 48.1387 0.0000 -14.7611 0.0000
# 2 43.1916 52.5527 38.7888 0.0000 -0.4791 0.0000
# 3 48.1387 38.7888 93.8364 0.0000 -0.9523 0.0000
# 4 0.0000 0.0000 0.0000 20.9734 0.0000 0.8985
# 5 -14.7611 -0.4791 -0.9523 0.0000 21.4420 0.0000
# 6 0.0000 0.0000 0.0000 0.8985 0.0000 35.5233
#
#
#
# Elastic Compliance Matrix: (Units=1/GPa)
#
#
# Indices 1 2 3 4 5 6 
#
# 1 0.012922 -0.008222 -0.003143 0.000000 0.008572 0.000000
# 2 -0.008222 0.032615 -0.009318 0.000000 -0.005345 0.000000
# 3 -0.003143 -0.009318 0.016104 0.000000 -0.001657 0.000000
# 4 0.000000 0.000000 0.000000 0.047731 0.000000 -0.001207
# 5 0.008572 -0.005345 -0.001657 0.000000 0.052346 0.000000
# 6 0.000000 0.000000 0.000000 -0.001207 0.000000 0.028181
#
#
# Mechanical properties :
#
#
# Convention : Reuss Voigt Hill
#
# Bulk Modulus (GPa) = 49.32378 59.22242 54.27310
# Shear Modulus (GPa) = 21.00635 25.09738 23.05186
#
# Velocity S-wave (km/s) = 3.39403 3.70984 3.55544
# Velocity P-wave (km/s) = 6.51210 7.12930 6.82768
#
# Compressibility (1/GPa) = 0.02027420
#
# Stress axis : x y z
#
# Youngs Moduli (GPa) = 77.39014 30.66099 62.09471
#
# Poissons Ratio (x) = 0.25208 0.19518
# Poissons Ratio (y) = 0.63628 0.57862
# Poissons Ratio (z) = 0.24326 0.28571
#
# Static dielectric constant tensor:
#      x y z
#    x 1.652860 0.000000 -0.013860 
#    y 0.000000 1.260580 0.000000 
#    z -0.013860 0.000000 1.631960 
# 
# From -- ./inp_files/22763.got.cif
#   From: 2010.05.17/outbox.cif.g08.bks.cpg/sg11_12_cif.got.tgz:22763.got - 2010.06.03 12:22:45.
