data_PCOD9157665
_publ_section_title
;
Structure prediction by ZEFSAII (Michael W. Deem and Ramdas Pophale) SiO2 
 PCOD9157665
Probable space group: P 21/M
;
_chemical_formula_sum "Si O2"
_cell_formula_units_Z 24
_cell_length_a 16.220790
_cell_length_b 16.746450
_cell_length_c 9.083369
_cell_angle_alpha 90.000000
_cell_angle_beta 148.245609
_cell_angle_gamma 90.000000
_cell_volume 1298.547474
_symmetry_space_group_name_H-M "P 21/M"
_symmetry_group_IT_number 11
_symmetry_cell_setting 'monoclinic'
loop_
_space_group_symop_operation_xyz
x,y,z
-x,1/2+y,-z
-x,-y,-z
x,1/2-y,z
loop_
_atom_site_type_symbol
_atom_site_label
_atom_site_fract_x
_atom_site_fract_y
_atom_site_fract_z
Si Si1 0.319568 0.995401 0.387450
Si Si2 0.260351 0.661460 0.106467
Si Si3 0.183246 0.999218 0.493167
Si Si4 0.858288 0.562267 0.134197
Si Si5 0.350331 0.557741 0.003197
Si Si6 0.891356 0.660088 0.469382
O O1 0.204911 0.995106 0.352568
O O2 0.490952 0.014947 0.707843
O O3 0.309659 0.910171 0.289918
O O4 0.267617 0.061978 0.188809
O O5 0.301695 0.750000 0.221777
O O6 0.338744 0.641902 0.067519
O O7 0.073046 0.658542 0.795702
O O8 0.192389 0.090868 0.563347
O O9 0.018714 0.963753 0.299849
O O10 0.317173 0.948469 0.780681
O O11 0.879374 0.635105 0.278706
O O12 0.793926 0.491945 0.142752
O O13 0.831926 0.750000 0.400858
#
# Coordination Sequence:
#
# PCOD9157665 Si02
#       6
#     4   4   4   4   4   4
#     4  11  22  33  57  85 112 139 176 225 276 321
#     4  10  19  35  56  80 107 142 185 226 265 314
#     4  11  19  36  57  81 109 142 179 221 270 326
#     4  10  18  35  56  77 102 140 188 214 252 324
#     4  10  19  37  55  79 105 146 183 211 262 334
#     4  10  19  34  56  81 105 143 186 229 265 308
#
# _framework density 18.482189999999999
#
# number of rings (size 3 to 8) (size 9 to 14) (size 15 to 20)
#    0.000    1.667    5.000    4.000    0.000    0.000 
#    0.000   10.833    0.000    0.000    0.000    0.000 
#    0.000    0.000    0.000    0.000    0.000    0.000 
#
# Total GULP energy -133749.702513 kJ/mol
# GULP energy per Si atom -5572.904271 kJ/mol
# Density = 1.844012 g / cm^3
# Si number density = 18.482190 Si / 1000 Ang^3
#
#
#
# Elastic Constant Matrix: (Units=GPa)
#
#
# Indices 1 2 3 4 5 6 
#
# 1 41.5476 1.7372 -9.1901 0.0000 -5.9601 0.0000
# 2 1.7372 76.3935 1.3957 0.0000 0.3438 0.0000
# 3 -9.1901 1.3957 58.9413 0.0000 1.4809 0.0000
# 4 0.0000 0.0000 0.0000 15.8210 0.0000 -2.1623
# 5 -5.9601 0.3438 1.4809 0.0000 26.5730 0.0000
# 6 0.0000 0.0000 0.0000 -2.1623 0.0000 13.1079
#
#
#
# Elastic Compliance Matrix: (Units=1/GPa)
#
#
# Indices 1 2 3 4 5 6 
#
# 1 0.025757 -0.000682 0.003892 0.000000 0.005569 0.000000
# 2 -0.000682 0.013114 -0.000409 0.000000 -0.000300 0.000000
# 3 0.003892 -0.000409 0.017585 0.000000 -0.000102 0.000000
# 4 0.000000 0.000000 0.000000 0.064665 0.000000 0.010667
# 5 0.005569 -0.000300 -0.000102 0.000000 0.038891 0.000000
# 6 0.000000 0.000000 0.000000 0.010667 0.000000 0.078050
#
#
# Mechanical properties :
#
#
# Convention : Reuss Voigt Hill
#
# Bulk Modulus (GPa) = 16.11372 18.30754 17.21063
# Shear Modulus (GPa) = 19.75140 23.29635 21.52387
#
# Velocity S-wave (km/s) = 3.27260 3.55417 3.41629
# Velocity P-wave (km/s) = 4.79764 5.17396 4.98935
#
# Compressibility (1/GPa) = 0.06205891
#
# Stress axis : x y z
#
# Youngs Moduli (GPa) = 38.82418 76.25178 56.86607
#
# Poissons Ratio (x) = 0.05199 -0.22134
# Poissons Ratio (y) = 0.02647 0.02328
# Poissons Ratio (z) = -0.15111 0.03121
#
# Static dielectric constant tensor:
#      x y z
#    x 1.659540 0.000000 -0.005600 
#    y 0.000000 1.650460 0.000000 
#    z -0.005600 0.000000 1.686840 
# 
# From -- ./inp_files/25146.got.cif
#   From: 2010.05.17/outbox.cif.g08.bks.cpg/sg11_13_cif.got.tgz:25146.got - 2010.06.03 12:22:45.
