data_PCOD9157171
_publ_section_title
;
Structure prediction by ZEFSAII (Michael W. Deem and Ramdas Pophale) SiO2 
 PCOD9157171
Probable space group: P 21/M
;
_chemical_formula_sum "Si O2"
_cell_formula_units_Z 32
_cell_length_a 6.812142
_cell_length_b 27.125767
_cell_length_c 9.194158
_cell_angle_alpha 90.000000
_cell_angle_beta 108.568970
_cell_angle_gamma 90.000000
_cell_volume 1610.493569
_symmetry_space_group_name_H-M "P 21/M"
_symmetry_group_IT_number 11
_symmetry_cell_setting 'monoclinic'
loop_
_space_group_symop_operation_xyz
x,y,z
-x,1/2+y,-z
-x,-y,-z
x,1/2-y,z
loop_
_atom_site_type_symbol
_atom_site_label
_atom_site_fract_x
_atom_site_fract_y
_atom_site_fract_z
Si Si1 0.468391 0.642812 0.574225
Si Si2 0.173638 0.193105 0.527779
Si Si3 0.901107 0.382691 0.025542
Si Si4 0.948875 0.370024 0.704048
Si Si5 0.772489 0.013071 0.017871
Si Si6 0.986202 0.013536 0.663429
Si Si7 0.303525 0.443201 0.229291
Si Si8 0.238246 0.694233 0.769108
O O1 0.653572 0.665450 0.524822
O O2 0.269548 0.641953 0.423325
O O3 0.525185 0.588917 0.649709
O O4 0.417583 0.675428 0.704091
O O5 0.230068 0.250000 0.571374
O O6 0.117733 0.162606 0.659301
O O7 0.967697 0.193520 0.379547
O O8 0.114242 0.405508 0.143641
O O9 0.746818 0.429784 0.975679
O O10 0.804060 0.342860 0.109553
O O11 0.945106 0.362260 0.875777
O O12 0.980899 0.428173 0.685581
O O13 0.365634 0.027317 0.096663
O O14 0.817564 0.005372 0.197300
O O15 0.000000 0.000000 0.000000
O O16 0.789947 0.984648 0.685238
O O17 0.000000 0.000000 0.500000
O O18 0.275759 0.750000 0.827048
#
# Coordination Sequence:
#
# PCOD9157171 Si02
#       8
#     4   4   4   4   4   4   4   4
#     4  11  23  38  62  92 122 152 207 252 292 358
#     4  10  22  42  63  85 117 161 202 245 309 362
#     4  10  18  40  62  85 123 158 198 242 301 359
#     4  11  22  38  63  91 123 158 193 254 306 350
#     4   8  16  32  58  80 117 164 190 232 289 356
#     4  10  18  31  59  88 119 158 202 240 291 357
#     4  10  18  38  59  85 119 167 196 236 295 360
#     4  10  22  40  66  88 113 158 205 251 301 354
#
# _framework density 19.869686000000002
#
# number of rings (size 3 to 8) (size 9 to 14) (size 15 to 20)
#    0.000    2.250    5.000    1.125    5.250    1.500 
#    2.250    0.625    0.000    0.000    0.000    0.000 
#    0.000    0.000    0.000    0.000    0.000    0.000 
#
# Total GULP energy -178606.741424 kJ/mol
# GULP energy per Si atom -5581.460669 kJ/mol
# Density = 1.982446 g / cm^3
# Si number density = 19.869686 Si / 1000 Ang^3
#
#
#
# Elastic Constant Matrix: (Units=GPa)
#
#
# Indices 1 2 3 4 5 6 
#
# 1 45.2339 17.0942 20.9187 0.0000 -11.8615 0.0000
# 2 17.0942 125.5176 50.5517 0.0000 -27.5716 0.0000
# 3 20.9187 50.5517 133.7849 0.0000 -39.0930 0.0000
# 4 0.0000 0.0000 0.0000 33.8394 0.0000 -10.4310
# 5 -11.8615 -27.5716 -39.0930 0.0000 20.7402 0.0000
# 6 0.0000 0.0000 0.0000 -10.4310 0.0000 11.9179
#
#
#
# Elastic Compliance Matrix: (Units=1/GPa)
#
#
# Indices 1 2 3 4 5 6 
#
# 1 0.026044 -0.000379 0.000615 0.000000 0.015550 0.000000
# 2 -0.000379 0.011263 0.000257 0.000000 0.015240 0.000000
# 3 0.000615 0.000257 0.016660 0.000000 0.032095 0.000000
# 4 0.000000 0.000000 0.000000 0.040470 0.000000 0.035421
# 5 0.015550 0.015240 0.032095 0.000000 0.137864 0.000000
# 6 0.000000 0.000000 0.000000 0.035421 0.000000 0.114909
#
#
# Mechanical properties :
#
#
# Convention : Reuss Voigt Hill
#
# Bulk Modulus (GPa) = 18.19777 53.51839 35.85808
# Shear Modulus (GPa) = 13.71586 27.69761 20.70674
#
# Velocity S-wave (km/s) = 2.63019 3.73763 3.23170
# Velocity P-wave (km/s) = 4.28979 6.75424 5.65783
#
# Compressibility (1/GPa) = 0.05495178
#
# Stress axis : x y z
#
# Youngs Moduli (GPa) = 38.39694 88.78747 60.02380
#
# Poissons Ratio (x) = 0.03363 -0.03689
# Poissons Ratio (y) = 0.01454 -0.01541
# Poissons Ratio (z) = -0.02360 -0.02279
#
# Static dielectric constant tensor:
#      x y z
#    x 1.755370 0.000000 0.009900 
#    y 0.000000 1.698590 0.000000 
#    z 0.009900 0.000000 1.707480 
# 
# From -- ./inp_files/10846.got.cif
#   From: 2010.05.17/outbox.cif.g08.bks.cpg/sg11_6_cif.got.tgz:10846.got - 2010.06.03 12:22:45.
