data_PCOD9157068
_publ_section_title
;
Structure prediction by ZEFSAII (Michael W. Deem and Ramdas Pophale) SiO2 
 PCOD9157068
Probable space group: P 21/M
;
_chemical_formula_sum "Si O2"
_cell_formula_units_Z 28
_cell_length_a 17.943313
_cell_length_b 7.751777
_cell_length_c 10.761859
_cell_angle_alpha 90.000000
_cell_angle_beta 46.734286
_cell_angle_gamma 90.000000
_cell_volume 1090.013184
_symmetry_space_group_name_H-M "P 21/M"
_symmetry_group_IT_number 11
_symmetry_cell_setting 'monoclinic'
loop_
_space_group_symop_operation_xyz
x,y,z
-x,1/2+y,-z
-x,-y,-z
x,1/2-y,z
loop_
_atom_site_type_symbol
_atom_site_label
_atom_site_fract_x
_atom_site_fract_y
_atom_site_fract_z
Si Si1 0.447061 0.055195 0.362827
Si Si2 0.936376 0.956858 0.197970
Si Si3 0.277705 0.946815 0.367578
Si Si4 0.409093 0.449271 0.009238
Si Si5 0.864331 0.041499 0.900348
Si Si6 0.263397 0.457793 0.712086
Si Si7 0.117800 0.957573 0.386191
O O1 0.475567 0.250000 0.360698
O O2 0.378907 0.976630 0.552705
O O3 0.356608 0.051983 0.360807
O O4 0.544722 0.975827 0.181244
O O5 0.929634 0.750000 0.217073
O O6 0.821501 0.020330 0.293198
O O7 0.021371 0.025012 0.197528
O O8 0.000000 0.000000 0.000000
O O9 0.279064 0.750000 0.410439
O O10 0.167256 0.024886 0.458833
O O11 0.321013 0.942463 0.175777
O O12 0.383592 0.250000 0.052672
O O13 0.500000 0.500000 0.000000
O O14 0.870169 0.250000 0.888567
O O15 0.834948 0.976527 0.798213
O O16 0.784391 0.998184 0.099828
O O17 0.268670 0.250000 0.695621
O O18 0.126122 0.750000 0.386758
O O19 0.000000 0.000000 0.500000
#
# Coordination Sequence:
#
# PCOD9157068 Si02
#       7
#     4   4   4   4   4   4   4
#     4  10  19  31  52  81 109 136 166 210 262 313
#     4   8  14  26  43  64  90 123 160 198 239 290
#     4  10  20  35  52  75 106 138 174 214 256 305
#     4  10  18  31  52  77 104 135 169 210 260 312
#     4   9  18  33  51  69  97 135 172 210 254 300
#     4   9  18  30  48  75 102 131 166 207 258 306
#     4  10  23  38  54  76 103 139 179 217 254 298
#
# _framework density 25.687761999999999
#
# number of rings (size 3 to 8) (size 9 to 14) (size 15 to 20)
#    0.000    2.571    0.000    3.857    2.000    2.857 
#    0.000    0.000    0.000    0.857    0.000    0.000 
#    0.000    0.000    0.000    0.000    0.000    0.000 
#
# Total GULP energy -156167.196648 kJ/mol
# GULP energy per Si atom -5577.399880 kJ/mol
# Density = 2.562930 g / cm^3
# Si number density = 25.687762 Si / 1000 Ang^3
#
#
#
# Elastic Constant Matrix: (Units=GPa)
#
#
# Indices 1 2 3 4 5 6 
#
# 1 34.8586 -7.2283 -33.8977 0.0000 19.9956 0.0000
# 2 -7.2283 99.0066 9.9846 0.0000 -3.4090 0.0000
# 3 -33.8977 9.9846 99.6808 0.0000 2.1661 0.0000
# 4 0.0000 0.0000 0.0000 36.8718 0.0000 -4.5515
# 5 19.9956 -3.4090 2.1661 0.0000 34.7103 0.0000
# 6 0.0000 0.0000 0.0000 -4.5515 0.0000 14.3716
#
#
#
# Elastic Compliance Matrix: (Units=1/GPa)
#
#
# Indices 1 2 3 4 5 6 
#
# 1 0.091719 0.001563 0.032222 0.000000 -0.054694 0.000000
# 2 0.001563 0.010270 -0.000500 0.000000 0.000139 0.000000
# 3 0.032222 -0.000500 0.021473 0.000000 -0.019951 0.000000
# 4 0.000000 0.000000 0.000000 0.028224 0.000000 0.008939
# 5 -0.054694 0.000139 -0.019951 0.000000 0.061576 0.000000
# 6 0.000000 0.000000 0.000000 0.008939 0.000000 0.072413
#
#
# Mechanical properties :
#
#
# Convention : Reuss Voigt Hill
#
# Bulk Modulus (GPa) = 5.26224 19.02924 12.14574
# Shear Modulus (GPa) = 17.70232 34.83656 26.26944
#
# Velocity S-wave (km/s) = 2.62799 3.68659 3.20135
# Velocity P-wave (km/s) = 3.35580 5.05423 4.28991
#
# Compressibility (1/GPa) = 0.19003316
#
# Stress axis : x y z
#
# Youngs Moduli (GPa) = 10.90285 97.37381 46.56965
#
# Poissons Ratio (x) = -0.15224 -1.50057
# Poissons Ratio (y) = -0.01705 0.02329
# Poissons Ratio (z) = -0.35131 0.04869
#
# Static dielectric constant tensor:
#      x y z
#    x 2.029770 0.000000 0.031830 
#    y 0.000000 1.997760 0.000000 
#    z 0.031830 0.000000 2.553690 
# 
# From -- ./inp_files/42369.got.cif
#   From: 2010.05.17/outbox.cif.g08.bks.cpg/sg11_22_cif.got.tgz:42369.got - 2010.06.03 12:22:45.
