data_PCOD9157252
_publ_section_title
;
Structure prediction by ZEFSAII (Michael W. Deem and Ramdas Pophale) SiO2 
 PCOD9157252
Probable space group: P 21/M
;
_chemical_formula_sum "Si O2"
_cell_formula_units_Z 32
_cell_length_a 23.868282
_cell_length_b 8.659235
_cell_length_c 29.902143
_cell_angle_alpha 90.000000
_cell_angle_beta 16.850807
_cell_angle_gamma 90.000000
_cell_volume 1791.521937
_symmetry_space_group_name_H-M "P 21/M"
_symmetry_group_IT_number 11
_symmetry_cell_setting 'monoclinic'
loop_
_space_group_symop_operation_xyz
x,y,z
-x,1/2+y,-z
-x,-y,-z
x,1/2-y,z
loop_
_atom_site_type_symbol
_atom_site_label
_atom_site_fract_x
_atom_site_fract_y
_atom_site_fract_z
Si Si1 0.103201 0.562839 0.562991
Si Si2 0.092466 0.564264 0.883486
Si Si3 0.121387 0.565512 0.652882
Si Si4 0.514643 0.435273 0.777404
Si Si5 0.292910 0.566610 0.029214
Si Si6 0.521450 0.065050 0.369501
Si Si7 0.736645 0.434770 0.111017
Si Si8 0.328012 0.064724 0.101605
O O1 0.106552 0.750000 0.559937
O O2 0.144851 0.517400 0.582627
O O3 0.273382 0.510406 0.400593
O O4 0.885067 0.514311 0.718469
O O5 0.077401 0.750000 0.894416
O O6 0.318780 0.523107 0.715110
O O7 0.000000 0.500000 0.000000
O O8 0.956345 0.492601 0.949668
O O9 0.100351 0.750000 0.670399
O O10 0.314330 0.514304 0.530728
O O11 0.921569 0.489789 0.821084
O O12 0.514807 0.250000 0.781526
O O13 0.368161 0.484594 0.850076
O O14 0.444045 0.510261 0.877007
O O15 0.293810 0.750000 0.032434
O O16 0.337867 0.492539 0.043026
O O17 0.496638 0.250000 0.389359
O O18 0.618603 0.026617 0.246942
O O19 0.733652 0.250000 0.108243
O O20 0.333844 0.250000 0.097475
O O21 0.500000 0.000000 0.000000
#
# Coordination Sequence:
#
# PCOD9157252 Si02
#       8
#     4   4   4   4   4   4   4   4
#     4   8  17  32  54  82 109 137 177 221 262 310
#     4   9  17  28  42  66 100 138 179 225 275 326
#     4  10  18  32  53  78 104 139 182 226 273 325
#     4  11  20  35  56  80 109 145 181 225 273 321
#     4  11  23  38  55  81 113 146 179 222 268 318
#     4   9  17  28  45  72 104 136 177 228 275 321
#     4  10  19  30  46  73 106 141 179 223 274 328
#     4  10  20  39  63  89 114 144 180 217 261 315
#
# _framework density 17.861908
#
# number of rings (size 3 to 8) (size 9 to 14) (size 15 to 20)
#    0.000    2.250    1.250    4.500    0.000    2.500 
#    0.000    2.500    0.000    0.750    0.000    0.000 
#    0.000    0.000    0.000    0.000    0.000    0.000 
#
# Total GULP energy -178492.666043 kJ/mol
# GULP energy per Si atom -5577.895814 kJ/mol
# Density = 1.782125 g / cm^3
# Si number density = 17.861908 Si / 1000 Ang^3
#
#
#
# Elastic Constant Matrix: (Units=GPa)
#
#
# Indices 1 2 3 4 5 6 
#
# 1 61.5787 23.5266 62.6274 0.0000 -18.3388 0.0000
# 2 23.5266 61.6321 35.6725 0.0000 -6.7137 0.0000
# 3 62.6274 35.6725 138.4805 0.0000 -15.7236 0.0000
# 4 0.0000 0.0000 0.0000 25.1956 0.0000 -5.8262
# 5 -18.3388 -6.7137 -15.7236 0.0000 33.7447 0.0000
# 6 0.0000 0.0000 0.0000 -5.8262 0.0000 27.7167
#
#
#
# Elastic Compliance Matrix: (Units=1/GPa)
#
#
# Indices 1 2 3 4 5 6 
#
# 1 0.035072 -0.004337 -0.013386 0.000000 0.011960 0.000000
# 2 -0.004337 0.019686 -0.003096 0.000000 0.000117 0.000000
# 3 -0.013386 -0.003096 0.013913 0.000000 -0.001408 0.000000
# 4 0.000000 0.000000 0.000000 0.041717 0.000000 0.008769
# 5 0.011960 0.000117 -0.001408 0.000000 0.035501 0.000000
# 6 0.000000 0.000000 0.000000 0.008769 0.000000 0.037923
#
#
# Mechanical properties :
#
#
# Convention : Reuss Voigt Hill
#
# Bulk Modulus (GPa) = 36.99381 56.14936 46.57159
# Shear Modulus (GPa) = 21.32541 26.65572 23.99057
#
# Velocity S-wave (km/s) = 3.45904 3.86725 3.66883
# Velocity P-wave (km/s) = 6.05882 7.17247 6.63904
#
# Compressibility (1/GPa) = 0.02703155
#
# Stress axis : x y z
#
# Youngs Moduli (GPa) = 28.51241 50.79800 71.87644
#
# Poissons Ratio (x) = 0.22033 0.96215
# Poissons Ratio (y) = 0.12367 0.22255
# Poissons Ratio (z) = 0.38167 0.15728
#
# Static dielectric constant tensor:
#      x y z
#    x 1.573660 0.000000 -0.015110 
#    y 0.000000 1.597580 0.000000 
#    z -0.015110 0.000000 1.626280 
# 
# From -- ./inp_files/72071.got.cif
#   From: 2010.05.17/outbox.cif.g08.bks.cpg/sg11_37_cif.got.tgz:72071.got - 2010.06.03 12:22:45.
