data_PCOD9157532
_publ_section_title
;
Structure prediction by ZEFSAII (Michael W. Deem and Ramdas Pophale) SiO2 
 PCOD9157532
Probable space group: P 21/M
;
_chemical_formula_sum "Si O2"
_cell_formula_units_Z 32
_cell_length_a 6.857845
_cell_length_b 22.679897
_cell_length_c 13.208547
_cell_angle_alpha 90.000000
_cell_angle_beta 40.813080
_cell_angle_gamma 90.000000
_cell_volume 1342.738518
_symmetry_space_group_name_H-M "P 21/M"
_symmetry_group_IT_number 11
_symmetry_cell_setting 'monoclinic'
loop_
_space_group_symop_operation_xyz
x,y,z
-x,1/2+y,-z
-x,-y,-z
x,1/2-y,z
loop_
_atom_site_type_symbol
_atom_site_label
_atom_site_fract_x
_atom_site_fract_y
_atom_site_fract_z
Si Si1 0.492386 0.601305 0.414064
Si Si2 0.951971 0.686712 0.148419
Si Si3 0.461837 0.682130 0.607211
Si Si4 0.347019 0.184066 0.953281
Si Si5 0.036438 0.963657 0.224691
Si Si6 0.888146 0.368912 0.635261
Si Si7 0.362241 0.413881 0.111995
Si Si8 0.521153 0.684784 0.802295
O O1 0.795613 0.639791 0.278563
O O2 0.364388 0.632279 0.565562
O O3 0.281431 0.614196 0.401940
O O4 0.678396 0.539897 0.340519
O O5 0.866203 0.750000 0.223453
O O6 0.810442 0.679564 0.093393
O O7 0.297845 0.686521 0.986572
O O8 0.426589 0.750000 0.585124
O O9 0.335811 0.680269 0.770847
O O10 0.803887 0.665336 0.500891
O O11 0.295856 0.250000 0.013895
O O12 0.687956 0.173694 0.784096
O O13 0.274855 0.130781 0.056199
O O14 0.072111 0.928903 0.316731
O O15 0.148614 0.030030 0.194837
O O16 0.294156 0.936982 0.045972
O O17 0.325592 0.376638 0.230050
O O18 0.671283 0.750000 0.740153
#
# Coordination Sequence:
#
# PCOD9157532 Si02
#       8
#     4   4   4   4   4   4   4   4
#     4  10  18  36  58  79 106 144 183 225 270 313
#     4   9  17  31  52  79 105 134 177 220 267 324
#     4  10  21  35  54  81 112 142 177 220 267 328
#     4   9  17  30  52  81 107 134 177 227 269 323
#     4   9  19  34  55  84 108 136 188 233 265 315
#     4   9  19  35  55  81 108 142 185 226 266 316
#     4  10  18  34  52  79 112 142 175 225 281 321
#     4  10  20  35  53  78 112 145 172 212 278 335
#
# _framework density 23.831893000000001
#
# number of rings (size 3 to 8) (size 9 to 14) (size 15 to 20)
#    0.000    2.500    1.250    1.125    0.000    1.500 
#    4.500    5.000    0.000    1.500    0.000    0.000 
#    0.000    0.000    0.000    0.000    0.000    0.000 
#
# Total GULP energy -178452.088640 kJ/mol
# GULP energy per Si atom -5576.627770 kJ/mol
# Density = 2.377765 g / cm^3
# Si number density = 23.831893 Si / 1000 Ang^3
#
#
#
# Elastic Constant Matrix: (Units=GPa)
#
#
# Indices 1 2 3 4 5 6 
#
# 1 95.2215 18.4789 5.0586 0.0000 13.1016 0.0000
# 2 18.4789 119.4684 12.0607 0.0000 11.9413 0.0000
# 3 5.0586 12.0607 75.6031 0.0000 7.2039 0.0000
# 4 0.0000 0.0000 0.0000 22.0030 0.0000 4.5369
# 5 13.1016 11.9413 7.2039 0.0000 35.4138 0.0000
# 6 0.0000 0.0000 0.0000 4.5369 0.0000 19.1112
#
#
#
# Elastic Compliance Matrix: (Units=1/GPa)
#
#
# Indices 1 2 3 4 5 6 
#
# 1 0.011281 -0.001358 -0.000188 0.000000 -0.003677 0.000000
# 2 -0.001358 0.008921 -0.001115 0.000000 -0.002279 0.000000
# 3 -0.000188 -0.001115 0.013639 0.000000 -0.002329 0.000000
# 4 0.000000 0.000000 0.000000 0.047788 0.000000 -0.011345
# 5 -0.003677 -0.002279 -0.002329 0.000000 0.030840 0.000000
# 6 0.000000 0.000000 0.000000 -0.011345 0.000000 0.055018
#
#
# Mechanical properties :
#
#
# Convention : Reuss Voigt Hill
#
# Bulk Modulus (GPa) = 35.06424 40.16546 37.61485
# Shear Modulus (GPa) = 27.42482 32.28527 29.85505
#
# Velocity S-wave (km/s) = 3.39597 3.68463 3.54324
# Velocity P-wave (km/s) = 5.48834 5.91542 5.70588
#
# Compressibility (1/GPa) = 0.02851909
#
# Stress axis : x y z
#
# Youngs Moduli (GPa) = 88.64143 112.09680 73.31735
#
# Poissons Ratio (x) = 0.15228 0.01376
# Poissons Ratio (y) = 0.12041 0.08176
# Poissons Ratio (z) = 0.01664 0.12500
#
# Static dielectric constant tensor:
#      x y z
#    x 1.962190 0.000000 -0.076580 
#    y 0.000000 2.072710 0.000000 
#    z -0.076580 0.000000 2.033210 
# 
# From -- ./inp_files/48239.got.cif
#   From: 2010.05.17/outbox.cif.g08.bks.cpg/sg11_25_cif.got.tgz:48239.got - 2010.06.03 12:22:45.
