data_PCOD9157023
_publ_section_title
;
Structure prediction by ZEFSAII (Michael W. Deem and Ramdas Pophale) SiO2 
 PCOD9157023
Probable space group: P 21/M
;
_chemical_formula_sum "Si O2"
_cell_formula_units_Z 32
_cell_length_a 25.594203
_cell_length_b 11.361222
_cell_length_c 13.765532
_cell_angle_alpha 90.000000
_cell_angle_beta 28.107693
_cell_angle_gamma 90.000000
_cell_volume 1885.822052
_symmetry_space_group_name_H-M "P 21/M"
_symmetry_group_IT_number 11
_symmetry_cell_setting 'monoclinic'
loop_
_space_group_symop_operation_xyz
x,y,z
-x,1/2+y,-z
-x,-y,-z
x,1/2-y,z
loop_
_atom_site_type_symbol
_atom_site_label
_atom_site_fract_x
_atom_site_fract_y
_atom_site_fract_z
Si Si1 0.354831 0.116165 0.910972
Si Si2 0.844561 0.503324 0.652205
Si Si3 0.893245 0.882468 0.058561
Si Si4 0.072843 0.620056 0.298951
Si Si5 0.762260 0.955279 0.088521
Si Si6 0.209459 0.612244 0.672928
Si Si7 0.603262 0.112860 0.475754
Si Si8 0.855379 0.115559 0.430707
O O1 0.363577 0.250000 0.932045
O O2 0.273163 0.045198 0.114728
O O3 0.296653 0.114593 0.900907
O O4 0.479085 0.067297 0.696565
O O5 0.888844 0.402304 0.653122
O O6 0.839032 0.465492 0.550157
O O7 0.941379 0.600205 0.506575
O O8 0.882288 0.750000 0.121767
O O9 0.814602 0.886013 0.092638
O O10 0.862439 0.001065 0.169306
O O11 0.019347 0.894668 0.815442
O O12 0.103487 0.750000 0.216636
O O13 0.137445 0.526987 0.126398
O O14 0.671356 0.042881 0.283117
O O15 0.166988 0.750000 0.756248
O O16 0.322833 0.606486 0.547888
O O17 0.220034 0.594971 0.540305
O O18 0.594568 0.250000 0.461549
O O19 0.839448 0.250000 0.489231
#
# Coordination Sequence:
#
# PCOD9157023 Si02
#       8
#     4   4   4   4   4   4   4   4
#     4  10  20  33  49  71 103 138 174 212 256 308
#     4  10  20  33  47  72 100 135 171 208 252 308
#     4  10  19  32  51  78 109 136 167 210 266 317
#     4  10  19  31  48  72 103 134 166 209 258 306
#     4  10  18  31  51  76 102 133 169 207 258 312
#     4   9  19  35  55  76 102 136 177 218 260 305
#     4   9  18  33  52  74  99 133 173 218 262 304
#     4  10  19  34  53  74 101 135 173 210 255 312
#
# _framework density 16.968727999999999
#
# number of rings (size 3 to 8) (size 9 to 14) (size 15 to 20)
#    0.000    2.250    1.250    2.250    0.000    0.500 
#    0.000    1.875    0.000   10.500    0.000    0.000 
#    0.000    0.000    0.000    0.000    0.000    0.000 
#
# Total GULP energy -178245.157683 kJ/mol
# GULP energy per Si atom -5570.161178 kJ/mol
# Density = 1.693011 g / cm^3
# Si number density = 16.968728 Si / 1000 Ang^3
#
#
#
# Elastic Constant Matrix: (Units=GPa)
#
#
# Indices 1 2 3 4 5 6 
#
# 1 55.1109 19.5944 19.2251 0.0000 14.3349 0.0000
# 2 19.5944 67.0856 18.9902 0.0000 8.0402 0.0000
# 3 19.2251 18.9902 71.0070 0.0000 -5.6280 0.0000
# 4 0.0000 0.0000 0.0000 6.0618 0.0000 -10.5579
# 5 14.3349 8.0402 -5.6280 0.0000 23.1249 0.0000
# 6 0.0000 0.0000 0.0000 -10.5579 0.0000 2.3920
#
#
#
# Elastic Compliance Matrix: (Units=1/GPa)
#
#
# Indices 1 2 3 4 5 6 
#
# 1 0.026474 -0.003551 -0.007567 0.000000 -0.017018 0.000000
# 2 -0.003551 0.017721 -0.004172 0.000000 -0.004975 0.000000
# 3 -0.007567 -0.004172 0.018083 0.000000 0.010542 0.000000
# 4 0.000000 0.000000 0.000000 -0.024668 0.000000 -0.108879
# 5 -0.017018 -0.004975 0.010542 0.000000 0.058088 0.000000
# 6 0.000000 0.000000 0.000000 -0.108879 0.000000 -0.062512
#
#
# Mechanical properties :
#
#
# Convention : Reuss Voigt Hill
#
# Bulk Modulus (GPa) = 31.54790 34.31365 32.93077
# Shear Modulus (GPa) = 67.26519 15.34201 41.30360
#
# Velocity S-wave (km/s) = 6.30291 3.01014 4.93901
# Velocity P-wave (km/s) = 8.46175 5.68743 7.20930
#
# Compressibility (1/GPa) = 0.03169783
#
# Stress axis : x y z
#
# Youngs Moduli (GPa) = 37.77296 56.43081 55.29970
#
# Poissons Ratio (x) = 0.20038 0.41845
# Poissons Ratio (y) = 0.13413 0.23072
# Poissons Ratio (z) = 0.28583 0.23544
#
# Static dielectric constant tensor:
#      x y z
#    x 1.577360 0.000000 -0.008550 
#    y 0.000000 1.603120 0.000000 
#    z -0.008550 0.000000 1.550120 
# 
# From -- ./inp_files/35091.got.cif
#   From: 2010.05.17/outbox.cif.g08.bks.cpg/sg11_18_cif.got.tgz:35091.got - 2010.06.03 12:22:45.
