data_PCOD9157075
_publ_section_title
;
Structure prediction by ZEFSAII (Michael W. Deem and Ramdas Pophale) SiO2 
 PCOD9157075
Probable space group: P 21/M
;
_chemical_formula_sum "Si O2"
_cell_formula_units_Z 32
_cell_length_a 15.083634
_cell_length_b 14.654154
_cell_length_c 17.797382
_cell_angle_alpha 90.000000
_cell_angle_beta 24.894972
_cell_angle_gamma 90.000000
_cell_volume 1655.997909
_symmetry_space_group_name_H-M "P 21/M"
_symmetry_group_IT_number 11
_symmetry_cell_setting 'monoclinic'
loop_
_space_group_symop_operation_xyz
x,y,z
-x,1/2+y,-z
-x,-y,-z
x,1/2-y,z
loop_
_atom_site_type_symbol
_atom_site_label
_atom_site_fract_x
_atom_site_fract_y
_atom_site_fract_z
Si Si1 0.112787 0.036280 0.706487
Si Si2 0.216547 0.404775 0.794152
Si Si3 0.313362 0.848147 0.589492
Si Si4 0.671686 0.859853 0.844078
Si Si5 0.082788 0.356114 0.494354
Si Si6 0.398337 0.149144 0.379323
Si Si7 0.767162 0.043682 0.849549
Si Si8 0.219796 0.884591 0.829469
O O1 0.141094 0.081826 0.766000
O O2 0.295522 0.076428 0.513443
O O3 0.899218 0.053158 0.824915
O O4 0.164237 0.929974 0.678705
O O5 0.446779 0.362859 0.620988
O O6 0.229374 0.505872 0.819116
O O7 0.022421 0.355803 0.982962
O O8 0.235303 0.750000 0.624278
O O9 0.321851 0.851790 0.673617
O O10 0.662762 0.750000 0.868393
O O11 0.852466 0.872622 0.641339
O O12 0.720608 0.936145 0.870243
O O13 0.445372 0.896173 0.987670
O O14 0.015187 0.250000 0.553207
O O15 0.302110 0.366135 0.371763
O O16 0.913387 0.418078 0.668300
O O17 0.323782 0.250000 0.460314
O O18 0.646127 0.145863 0.202219
#
# Coordination Sequence:
#
# PCOD9157075 Si02
#       8
#     4   4   4   4   4   4   4   4
#     4  10  20  37  54  80 108 140 180 220 268 317
#     4  10  20  34  54  74 103 143 181 222 266 309
#     4  11  21  36  53  75 111 146 183 224 265 314
#     4  10  21  38  58  83 111 140 179 221 269 329
#     4   9  19  34  55  82 112 141 175 222 269 318
#     4  10  18  31  52  78 107 136 175 225 266 309
#     4  10  21  36  59  83 109 144 178 220 273 326
#     4  10  19  33  52  74 102 141 183 223 263 312
#
# _framework density 19.323695000000001
#
# number of rings (size 3 to 8) (size 9 to 14) (size 15 to 20)
#    0.000    2.000    2.500    1.875    1.750    2.000 
#    0.000    0.000    0.000    0.000    0.000    5.250 
#    0.000    0.000    0.000    0.000    0.000    0.000 
#
# Total GULP energy -178344.566834 kJ/mol
# GULP energy per Si atom -5573.267714 kJ/mol
# Density = 1.927971 g / cm^3
# Si number density = 19.323695 Si / 1000 Ang^3
#
#
#
# Elastic Constant Matrix: (Units=GPa)
#
#
# Indices 1 2 3 4 5 6 
#
# 1 32.8646 2.6653 -11.5734 0.0000 -8.1450 0.0000
# 2 2.6653 88.3810 -3.1186 0.0000 8.3801 0.0000
# 3 -11.5734 -3.1186 56.6561 0.0000 -5.0034 0.0000
# 4 0.0000 0.0000 0.0000 7.1012 0.0000 4.0729
# 5 -8.1450 8.3801 -5.0034 0.0000 21.1374 0.0000
# 6 0.0000 0.0000 0.0000 4.0729 0.0000 24.4913
#
#
#
# Elastic Compliance Matrix: (Units=1/GPa)
#
#
# Indices 1 2 3 4 5 6 
#
# 1 0.038360 -0.002534 0.009285 0.000000 0.017984 0.000000
# 2 -0.002534 0.011927 -0.000373 0.000000 -0.005793 0.000000
# 3 0.009285 -0.000373 0.020279 0.000000 0.008526 0.000000
# 4 0.000000 0.000000 0.000000 0.155669 0.000000 -0.025888
# 5 0.017984 -0.005793 0.008526 0.000000 0.058555 0.000000
# 6 0.000000 0.000000 0.000000 -0.025888 0.000000 0.045136
#
#
# Mechanical properties :
#
#
# Convention : Reuss Voigt Hill
#
# Bulk Modulus (GPa) = 12.00166 17.09424 14.54795
# Shear Modulus (GPa) = 14.49504 23.20786 18.85145
#
# Velocity S-wave (km/s) = 2.74180 3.46931 3.12679
# Velocity P-wave (km/s) = 4.03083 4.99136 4.53659
#
# Compressibility (1/GPa) = 0.08332183
#
# Stress axis : x y z
#
# Youngs Moduli (GPa) = 26.06868 83.84161 49.31114
#
# Poissons Ratio (x) = 0.21249 -0.45784
# Poissons Ratio (y) = 0.06607 0.01838
# Poissons Ratio (z) = -0.24204 0.03126
#
# Static dielectric constant tensor:
#      x y z
#    x 1.666960 0.000000 0.000040 
#    y 0.000000 1.700470 0.000000 
#    z 0.000040 0.000000 1.693690 
# 
# From -- ./inp_files/66278.got.cif
#   From: 2010.05.17/outbox.cif.g08.bks.cpg/sg11_34_cif.got.tgz:66278.got - 2010.06.03 12:22:45.
