data_PCOD9157289
_publ_section_title
;
Structure prediction by ZEFSAII (Michael W. Deem and Ramdas Pophale) SiO2 
 PCOD9157289
Probable space group: P 21/M
;
_chemical_formula_sum "Si O2"
_cell_formula_units_Z 28
_cell_length_a 11.850415
_cell_length_b 29.623704
_cell_length_c 7.439770
_cell_angle_alpha 90.000000
_cell_angle_beta 153.571450
_cell_angle_gamma 90.000000
_cell_volume 1162.443685
_symmetry_space_group_name_H-M "P 21/M"
_symmetry_group_IT_number 11
_symmetry_cell_setting 'monoclinic'
loop_
_space_group_symop_operation_xyz
x,y,z
-x,1/2+y,-z
-x,-y,-z
x,1/2-y,z
loop_
_atom_site_type_symbol
_atom_site_label
_atom_site_fract_x
_atom_site_fract_y
_atom_site_fract_z
Si Si1 0.955414 0.126903 0.822895
Si Si2 0.608372 0.200493 0.500649
Si Si3 0.577947 0.053796 0.295113
Si Si4 0.267244 0.973306 0.888912
Si Si5 0.629922 0.698076 0.483486
Si Si6 0.041576 0.107591 0.524882
Si Si7 0.192046 0.299521 0.637835
O O1 0.982058 0.119193 0.647926
O O2 0.751352 0.163480 0.593146
O O3 0.829706 0.080411 0.718277
O O4 0.206806 0.152757 0.247124
O O5 0.710733 0.250000 0.604799
O O6 0.592608 0.194402 0.690551
O O7 0.323342 0.199714 0.018706
O O8 0.645410 0.040019 0.187124
O O9 0.324032 0.085134 0.925190
O O10 0.483050 0.008380 0.260874
O O11 0.178532 0.926768 0.853680
O O12 0.000000 0.000000 0.500000
O O13 0.729469 0.750000 0.663142
O O14 0.599642 0.698765 0.225678
O O15 0.050040 0.153318 0.424967
O O16 0.068769 0.250000 0.444470
#
# Coordination Sequence:
#
# PCOD9157289 Si02
#       7
#     4   4   4   4   4   4   4
#     4  11  18  31  55  78 105 141 183 228 276 326
#     4  10  20  36  53  73 105 143 183 227 269 320
#     4   9  16  29  49  81 110 140 182 224 276 332
#     4   8  16  28  49  80 112 141 180 227 272 332
#     4  10  21  36  51  74 108 145 183 226 273 325
#     4  10  18  32  54  79 109 144 181 225 276 327
#     4  10  20  36  54  75 110 146 180 224 272 323
#
# _framework density 24.087188999999999
#
# number of rings (size 3 to 8) (size 9 to 14) (size 15 to 20)
#    0.000    2.286    2.857    0.429    0.000    0.571 
#    2.571    0.000    0.000    0.857    0.000   41.000 
#    0.000    0.000    0.000    0.000    0.000    0.000 
#
# Total GULP energy -155924.121396 kJ/mol
# GULP energy per Si atom -5568.718621 kJ/mol
# Density = 2.403237 g / cm^3
# Si number density = 24.087189 Si / 1000 Ang^3
#
#
#
# Elastic Constant Matrix: (Units=GPa)
#
#
# Indices 1 2 3 4 5 6 
#
# 1 136.1058 59.6576 21.8556 0.0000 17.0856 0.0000
# 2 59.6576 104.4808 12.0475 0.0000 18.8210 0.0000
# 3 21.8556 12.0475 31.5266 0.0000 13.2798 0.0000
# 4 0.0000 0.0000 0.0000 9.5387 0.0000 19.6867
# 5 17.0856 18.8210 13.2798 0.0000 26.4955 0.0000
# 6 0.0000 0.0000 0.0000 19.6867 0.0000 41.1046
#
#
#
# Elastic Compliance Matrix: (Units=1/GPa)
#
#
# Indices 1 2 3 4 5 6 
#
# 1 0.010575 -0.005370 -0.005087 0.000000 -0.000455 0.000000
# 2 -0.005370 0.013735 0.001426 0.000000 -0.007009 0.000000
# 3 -0.005087 0.001426 0.042777 0.000000 -0.019173 0.000000
# 4 0.000000 0.000000 0.000000 9.100376 0.000000 -4.358551
# 5 -0.000455 -0.007009 -0.019173 0.000000 0.052624 0.000000
# 6 0.000000 0.000000 0.000000 -4.358551 0.000000 2.111821
#
#
# Mechanical properties :
#
#
# Convention : Reuss Voigt Hill
#
# Bulk Modulus (GPa) = 20.39753 51.02605 35.71179
# Shear Modulus (GPa) = 0.43990 27.33124 13.88557
#
# Velocity S-wave (km/s) = 0.42781 3.37216 2.40359
# Velocity P-wave (km/s) = 2.95476 6.03256 4.74986
#
# Compressibility (1/GPa) = 0.04902554
#
# Stress axis : x y z
#
# Youngs Moduli (GPa) = 94.56416 72.80538 23.37695
#
# Poissons Ratio (x) = 0.39093 0.11893
# Poissons Ratio (y) = 0.50777 -0.03334
# Poissons Ratio (z) = 0.48108 -0.10382
#
# Static dielectric constant tensor:
#      x y z
#    x 1.871650 0.000000 0.045160 
#    y 0.000000 2.015400 0.000000 
#    z 0.045160 0.000000 1.959350 
# 
# From -- ./inp_files/19845.got.cif
#   From: 2010.05.17/outbox.cif.g08.bks.cpg/sg11_10_cif.got.tgz:19845.got - 2010.06.03 12:22:45.
