data_PCOD9157469
_publ_section_title
;
Structure prediction by ZEFSAII (Michael W. Deem and Ramdas Pophale) SiO2 
 PCOD9157469
Probable space group: P 21/M
;
_chemical_formula_sum "Si O2"
_cell_formula_units_Z 20
_cell_length_a 9.784006
_cell_length_b 13.569802
_cell_length_c 6.857204
_cell_angle_alpha 90.000000
_cell_angle_beta 68.956153
_cell_angle_gamma 90.000000
_cell_volume 849.691559
_symmetry_space_group_name_H-M "P 21/M"
_symmetry_group_IT_number 11
_symmetry_cell_setting 'monoclinic'
loop_
_space_group_symop_operation_xyz
x,y,z
-x,1/2+y,-z
-x,-y,-z
x,1/2-y,z
loop_
_atom_site_type_symbol
_atom_site_label
_atom_site_fract_x
_atom_site_fract_y
_atom_site_fract_z
Si Si1 0.052757 0.364886 0.329374
Si Si2 0.270307 0.134983 0.541160
Si Si3 0.800520 0.976322 0.061695
Si Si4 0.512304 0.866200 0.273493
Si Si5 0.792932 0.132429 0.754699
O O1 0.027189 0.250000 0.301540
O O2 0.209625 0.376047 0.357643
O O3 0.070606 0.421267 0.119670
O O4 0.930588 0.395148 0.548537
O O5 0.231511 0.250000 0.615438
O O6 0.439825 0.123807 0.521604
O O7 0.189784 0.055016 0.718257
O O8 0.794436 0.082218 0.965271
O O9 0.641468 0.925346 0.102133
O O10 0.524211 0.750000 0.220751
O O11 0.352582 0.897757 0.290504
O O12 0.794704 0.250000 0.774664
#
# Coordination Sequence:
#
# PCOD9157469 Si02
#       5
#     4   4   4   4   4
#     4  10  19  33  54  78 101 131 169 209 251 298
#     4   8  17  32  54  77 100 129 168 208 247 298
#     4  10  18  33  57  75  97 137 176 198 245 308
#     4   8  16  33  54  74 100 134 164 205 255 296
#     4  10  20  32  51  76 106 135 164 211 259 287
#
# _framework density 23.537953999999999
#
# number of rings (size 3 to 8) (size 9 to 14) (size 15 to 20)
#    1.200    1.600    0.000    2.400    0.000    0.800 
#    0.000    1.000    4.400    1.200    0.000    0.000 
#    0.000    0.000    0.000    0.000    0.000    0.000 
#
# Total GULP energy -111502.315126 kJ/mol
# GULP energy per Si atom -5575.115756 kJ/mol
# Density = 2.348438 g / cm^3
# Si number density = 23.537954 Si / 1000 Ang^3
#
#
#
# Elastic Constant Matrix: (Units=GPa)
#
#
# Indices 1 2 3 4 5 6 
#
# 1 85.9109 19.2441 5.8548 0.0000 -7.1795 0.0000
# 2 19.2441 60.1842 9.8792 0.0000 -8.9240 0.0000
# 3 5.8548 9.8792 36.6951 0.0000 0.8982 0.0000
# 4 0.0000 0.0000 0.0000 28.2327 0.0000 -5.0228
# 5 -7.1795 -8.9240 0.8982 0.0000 26.4495 0.0000
# 6 0.0000 0.0000 0.0000 -5.0228 0.0000 25.6772
#
#
#
# Elastic Compliance Matrix: (Units=1/GPa)
#
#
# Indices 1 2 3 4 5 6 
#
# 1 0.012701 -0.003535 -0.001131 0.000000 0.002293 0.000000
# 2 -0.003535 0.019385 -0.004795 0.000000 0.005744 0.000000
# 3 -0.001131 -0.004795 0.028794 0.000000 -0.002903 0.000000
# 4 0.000000 0.000000 0.000000 0.036697 0.000000 0.007178
# 5 0.002293 0.005744 -0.002903 0.000000 0.040467 0.000000
# 6 0.000000 0.000000 0.000000 0.007178 0.000000 0.040349
#
#
# Mechanical properties :
#
#
# Convention : Reuss Voigt Hill
#
# Bulk Modulus (GPa) = 23.83419 28.08294 25.95856
# Shear Modulus (GPa) = 23.66290 25.92601 24.79446
#
# Velocity S-wave (km/s) = 3.17410 3.32242 3.24911
# Velocity P-wave (km/s) = 4.85603 5.16476 5.01277
#
# Compressibility (1/GPa) = 0.04195654
#
# Stress axis : x y z
#
# Youngs Moduli (GPa) = 78.73649 51.58646 34.72934
#
# Poissons Ratio (x) = 0.18238 0.03927
# Poissons Ratio (y) = 0.27837 0.16654
# Poissons Ratio (z) = 0.08903 0.24738
#
# Static dielectric constant tensor:
#      x y z
#    x 1.935090 0.000000 0.014030 
#    y 0.000000 1.925990 0.000000 
#    z 0.014030 0.000000 1.826750 
# 
# From -- ./inp_files/12151.got.cif
#   From: 2010.05.17/outbox.cif.g08.bks.cpg/sg11_7_cif.got.tgz:12151.got - 2010.06.03 12:22:45.
