data_PCOD9157040
_publ_section_title
;
Structure prediction by ZEFSAII (Michael W. Deem and Ramdas Pophale) SiO2 
 PCOD9157040
Probable space group: P 21/M
;
_chemical_formula_sum "Si O2"
_cell_formula_units_Z 32
_cell_length_a 15.327113
_cell_length_b 7.557911
_cell_length_c 21.612685
_cell_angle_alpha 90.000000
_cell_angle_beta 151.935136
_cell_angle_gamma 90.000000
_cell_volume 1177.886829
_symmetry_space_group_name_H-M "P 21/M"
_symmetry_group_IT_number 11
_symmetry_cell_setting 'monoclinic'
loop_
_space_group_symop_operation_xyz
x,y,z
-x,1/2+y,-z
-x,-y,-z
x,1/2-y,z
loop_
_atom_site_type_symbol
_atom_site_label
_atom_site_fract_x
_atom_site_fract_y
_atom_site_fract_z
Si Si1 0.882459 0.031635 0.246320
Si Si2 0.208403 0.547647 0.680063
Si Si3 0.263732 0.960584 0.134932
Si Si4 0.677034 0.460725 0.376559
Si Si5 0.950407 0.953664 0.114267
Si Si6 0.661070 0.466818 0.677649
Si Si7 0.261643 0.453091 0.443428
Si Si8 0.601045 0.452110 0.974447
O O1 0.885034 0.250000 0.248087
O O2 0.892881 0.968241 0.323500
O O3 0.692472 0.977294 0.094810
O O4 0.055970 0.968181 0.314021
O O5 0.148814 0.750000 0.636875
O O6 0.209417 0.469971 0.611784
O O7 0.424307 0.550360 0.837045
O O8 0.239987 0.750000 0.121108
O O9 0.288498 0.023370 0.220783
O O10 0.460652 0.005651 0.226929
O O11 0.103053 0.039101 0.992165
O O12 0.703822 0.250000 0.399353
O O13 0.707941 0.547269 0.462480
O O14 0.944476 0.750000 0.128801
O O15 0.162208 0.020906 0.252619
O O16 0.781585 0.048380 0.042684
O O17 0.655396 0.250000 0.673382
O O18 0.451256 0.533532 0.534859
O O19 0.253474 0.250000 0.418770
O O20 0.541599 0.250000 0.944862
#
# Coordination Sequence:
#
# PCOD9157040 Si02
#       8
#     4   4   4   4   4   4   4   4
#     4   9  20  38  59  79 102 141 185 227 268 313
#     4  10  20  36  57  81 110 140 173 218 277 326
#     4  10  18  31  51  77 108 141 180 215 259 318
#     4  10  19  31  51  81 115 143 171 213 268 321
#     4  11  20  32  50  76 109 141 175 218 271 318
#     4   8  17  31  51  77 104 140 178 213 259 319
#     4   9  18  37  59  77 105 143 184 221 260 314
#     4  11  22  36  55  80 108 139 183 227 267 316
#
# _framework density 27.167297000000001
#
# number of rings (size 3 to 8) (size 9 to 14) (size 15 to 20)
#    0.000    2.250    1.250    3.000    0.000    1.000 
#    0.000    8.750    0.000    0.000    0.000    0.000 
#    0.000    0.000    0.000    0.000    0.000    0.000 
#
# Total GULP energy -179128.147948 kJ/mol
# GULP energy per Si atom -5597.754623 kJ/mol
# Density = 2.710546 g / cm^3
# Si number density = 27.167297 Si / 1000 Ang^3
#
#
#
# Elastic Constant Matrix: (Units=GPa)
#
#
# Indices 1 2 3 4 5 6 
#
# 1 148.8960 14.3798 21.8539 0.0000 19.5559 0.0000
# 2 14.3798 114.0480 21.0675 0.0000 -4.1491 0.0000
# 3 21.8539 21.0675 147.2870 0.0000 16.9360 0.0000
# 4 0.0000 0.0000 0.0000 19.6838 0.0000 -2.4634
# 5 19.5559 -4.1491 16.9360 0.0000 57.2540 0.0000
# 6 0.0000 0.0000 0.0000 -2.4634 0.0000 24.0117
#
#
#
# Elastic Compliance Matrix: (Units=1/GPa)
#
#
# Indices 1 2 3 4 5 6 
#
# 1 0.007204 -0.000868 -0.000678 0.000000 -0.002323 0.000000
# 2 -0.000868 0.009174 -0.001340 0.000000 0.001358 0.000000
# 3 -0.000678 -0.001340 0.007315 0.000000 -0.002029 0.000000
# 4 0.000000 0.000000 0.000000 0.051464 0.000000 0.005280
# 5 -0.002323 0.001358 -0.002029 0.000000 0.018958 0.000000
# 6 0.000000 0.000000 0.000000 0.005280 0.000000 0.042188
#
#
# Mechanical properties :
#
#
# Convention : Reuss Voigt Hill
#
# Bulk Modulus (GPa) = 55.79161 58.31480 57.05321
# Shear Modulus (GPa) = 33.77264 43.71856 38.74560
#
# Velocity S-wave (km/s) = 3.52964 4.01588 3.78058
# Velocity P-wave (km/s) = 6.09853 6.55856 6.33272
#
# Compressibility (1/GPa) = 0.01792384
#
# Stress axis : x y z
#
# Youngs Moduli (GPa) = 138.80228 108.99779 136.70548
#
# Poissons Ratio (x) = 0.09458 0.09265
# Poissons Ratio (y) = 0.12044 0.18314
# Poissons Ratio (z) = 0.09407 0.14602
#
# Static dielectric constant tensor:
#      x y z
#    x 2.200140 0.000000 -0.009010 
#    y 0.000000 1.965070 0.000000 
#    z -0.009010 0.000000 2.159860 
# 
# From -- ./inp_files/69167.got.cif
#   From: 2010.05.17/outbox.cif.g08.bks.cpg/sg11_35_cif.got.tgz:69167.got - 2010.06.03 12:22:45.
