data_PCOD9157027
_publ_section_title
;
Structure prediction by ZEFSAII (Michael W. Deem and Ramdas Pophale) SiO2 
 PCOD9157027
Probable space group: P 21/M
;
_chemical_formula_sum "Si O2"
_cell_formula_units_Z 32
_cell_length_a 12.857019
_cell_length_b 7.313219
_cell_length_c 27.071888
_cell_angle_alpha 90.000000
_cell_angle_beta 29.944150
_cell_angle_gamma 90.000000
_cell_volume 1270.583902
_symmetry_space_group_name_H-M "P 21/M"
_symmetry_group_IT_number 11
_symmetry_cell_setting 'monoclinic'
loop_
_space_group_symop_operation_xyz
x,y,z
-x,1/2+y,-z
-x,-y,-z
x,1/2-y,z
loop_
_atom_site_type_symbol
_atom_site_label
_atom_site_fract_x
_atom_site_fract_y
_atom_site_fract_z
Si Si1 0.128466 0.474206 0.559164
Si Si2 0.349549 0.474126 0.913317
Si Si3 0.311695 0.528996 0.306178
Si Si4 0.737532 0.533579 0.391147
Si Si5 0.071636 0.544714 0.874921
Si Si6 0.603149 0.033787 0.904422
Si Si7 0.992905 0.469877 0.800222
Si Si8 0.517710 0.540090 0.659420
O O1 0.132578 0.250000 0.556384
O O2 0.142065 0.535125 0.610199
O O3 0.333069 0.536824 0.444704
O O4 0.909225 0.529615 0.625499
O O5 0.340305 0.250000 0.917877
O O6 0.490007 0.527278 0.808879
O O7 0.476554 0.537692 0.909883
O O8 0.108547 0.536301 0.016061
O O9 0.311831 0.750000 0.306406
O O10 0.342386 0.463512 0.348966
O O11 0.500000 0.500000 0.500000
O O12 0.780404 0.750000 0.371957
O O13 0.791620 0.472480 0.313547
O O14 0.116381 0.750000 0.874597
O O15 0.959452 0.552773 0.867367
O O16 0.294681 0.457442 0.768829
O O17 0.617042 0.250000 0.889974
O O18 0.834897 0.971545 0.822026
O O19 0.500000 0.000000 0.000000
O O20 0.975773 0.250000 0.814457
O O21 0.470474 0.750000 0.665506
#
# Coordination Sequence:
#
# PCOD9157027 Si02
#       8
#     4   4   4   4   4   4   4   4
#     4   9  18  35  57  77 101 137 176 212 258 318
#     4   9  18  33  53  77 104 137 176 210 249 312
#     4  10  20  36  58  78  98 133 179 220 261 309
#     4  10  20  35  54  79 110 143 177 213 256 311
#     4  10  20  35  54  75 105 144 177 208 258 324
#     4  10  18  31  51  76 105 137 172 211 252 300
#     4  10  20  32  51  80 110 137 174 222 261 297
#     4  10  21  36  54  77 103 132 171 220 271 315
#
# _framework density 25.185269999999999
#
# number of rings (size 3 to 8) (size 9 to 14) (size 15 to 20)
#    0.000    2.250    1.250    1.875    0.000    5.500 
#    0.000    2.500    0.000    1.500    0.000    0.000 
#    0.000    0.000    0.000    0.000    0.000    0.000 
#
# Total GULP energy -178754.030056 kJ/mol
# GULP energy per Si atom -5586.063439 kJ/mol
# Density = 2.512795 g / cm^3
# Si number density = 25.185270 Si / 1000 Ang^3
#
#
#
# Elastic Constant Matrix: (Units=GPa)
#
#
# Indices 1 2 3 4 5 6 
#
# 1 73.4444 1.1732 3.8752 0.0000 1.4910 0.0000
# 2 1.1732 104.9286 1.1679 0.0000 -4.6987 0.0000
# 3 3.8752 1.1679 128.1009 0.0000 -5.8806 0.0000
# 4 0.0000 0.0000 0.0000 -6.2015 0.0000 5.0749
# 5 1.4910 -4.6987 -5.8806 0.0000 39.4133 0.0000
# 6 0.0000 0.0000 0.0000 5.0749 0.0000 14.8243
#
#
#
# Elastic Compliance Matrix: (Units=1/GPa)
#
#
# Indices 1 2 3 4 5 6 
#
# 1 0.013654 -0.000175 -0.000439 0.000000 -0.000603 0.000000
# 2 -0.000175 0.009584 -0.000030 0.000000 0.001145 0.000000
# 3 -0.000439 -0.000030 0.007874 0.000000 0.001188 0.000000
# 4 0.000000 0.000000 0.000000 -0.125963 0.000000 0.043122
# 5 -0.000603 0.001145 0.001188 0.000000 0.025709 0.000000
# 6 0.000000 0.000000 0.000000 0.043122 0.000000 0.052695
#
#
# Mechanical properties :
#
#
# Convention : Reuss Voigt Hill
#
# Bulk Modulus (GPa) = 33.52854 35.43405 34.48129
# Shear Modulus (GPa) = -958.18061 29.62438 -464.27812
#
# Velocity S-wave (km/s) = -19.52636 3.43338 -13.59210
# Velocity P-wave (km/s) = 22.24927 5.46053 15.25144
#
# Compressibility (1/GPa) = 0.02982534
#
# Stress axis : x y z
#
# Youngs Moduli (GPa) = 73.23889 104.34233 126.99326
#
# Poissons Ratio (x) = 0.01824 0.05577
# Poissons Ratio (y) = 0.01280 0.00375
# Poissons Ratio (z) = 0.03216 0.00308
#
# Static dielectric constant tensor:
#      x y z
#    x 1.955360 0.000000 -0.080160 
#    y 0.000000 1.978610 0.000000 
#    z -0.080160 0.000000 2.058370 
# 
# From -- ./inp_files/68594.got.cif
#   From: 2010.05.17/outbox.cif.g08.bks.cpg/sg11_35_cif.got.tgz:68594.got - 2010.06.03 12:22:45.
