data_PCOD9157877
_publ_section_title
;
Structure prediction by ZEFSAII (Michael W. Deem and Ramdas Pophale) SiO2 
 PCOD9157877
Probable space group: P 21/M
;
_chemical_formula_sum "Si O2"
_cell_formula_units_Z 32
_cell_length_a 14.823498
_cell_length_b 7.771547
_cell_length_c 16.213661
_cell_angle_alpha 90.000000
_cell_angle_beta 88.248437
_cell_angle_gamma 90.000000
_cell_volume 1866.965519
_symmetry_space_group_name_H-M "P 21/M"
_symmetry_group_IT_number 11
_symmetry_cell_setting 'monoclinic'
loop_
_space_group_symop_operation_xyz
x,y,z
-x,1/2+y,-z
-x,-y,-z
x,1/2-y,z
loop_
_atom_site_type_symbol
_atom_site_label
_atom_site_fract_x
_atom_site_fract_y
_atom_site_fract_z
Si Si1 0.408344 0.955515 0.685461
Si Si2 0.605044 0.955547 0.990914
Si Si3 0.720085 0.454179 0.828978
Si Si4 0.618989 0.456074 0.671867
Si Si5 0.707774 0.542934 0.151760
Si Si6 0.099907 0.959412 0.091085
Si Si7 0.899690 0.545227 0.101283
Si Si8 0.393839 0.956741 0.507103
O O1 0.412220 0.750000 0.680671
O O2 0.367244 0.020135 0.599056
O O3 0.512175 0.015474 0.690158
O O4 0.349191 0.003587 0.765571
O O5 0.613764 0.750000 0.988688
O O6 0.657119 0.021251 0.070811
O O7 0.500000 0.000000 0.000000
O O8 0.650869 0.023288 0.906537
O O9 0.731895 0.250000 0.816296
O O10 0.677141 0.526476 0.746266
O O11 0.817187 0.522554 0.855779
O O12 0.631319 0.250000 0.669673
O O13 0.643403 0.523232 0.579398
O O14 0.711862 0.750000 0.144458
O O15 0.810758 0.476711 0.149119
O O16 0.100023 0.750000 0.091495
O O17 0.999834 0.021356 0.119205
O O18 0.114383 0.014898 0.996020
O O19 0.903022 0.750000 0.115223
O O20 0.382477 0.750000 0.506695
O O21 0.500000 0.000000 0.500000
#
# Coordination Sequence:
#
# PCOD9157877 Si02
#       8
#     4   4   4   4   4   4   4   4
#     4  10  19  29  44  66  88 111 147 186 215 246
#     4  11  22  33  43  58  86 122 153 178 207 249
#     4  10  19  30  45  67  89 113 144 177 214 258
#     4   9  17  30  46  63  89 119 143 170 214 265
#     4  10  20  32  44  60  85 118 149 174 212 261
#     4   9  17  29  47  67  86 107 140 185 221 252
#     4   9  17  31  47  63  84 112 144 179 220 260
#     4   8  15  28  44  62  84 111 141 177 216 254
#
# _framework density 17.140112999999999
#
# number of rings (size 3 to 8) (size 9 to 14) (size 15 to 20)
#    0.000    2.500    1.250    1.500    0.000    5.500 
#    0.000    0.000    0.000    0.000    0.000    0.875 
#    0.000    0.000    0.000    0.000    0.000    0.000 
#
# Total GULP energy -178309.806475 kJ/mol
# GULP energy per Si atom -5572.181452 kJ/mol
# Density = 1.710110 g / cm^3
# Si number density = 17.140113 Si / 1000 Ang^3
#
#
#
# Elastic Constant Matrix: (Units=GPa)
#
#
# Indices 1 2 3 4 5 6 
#
# 1 107.4644 -3.4164 56.2888 0.0000 22.7418 0.0000
# 2 -3.4164 19.6620 -8.4091 0.0000 2.6174 0.0000
# 3 56.2888 -8.4091 119.6269 0.0000 25.1786 0.0000
# 4 0.0000 0.0000 0.0000 1.2321 0.0000 6.1230
# 5 22.7418 2.6174 25.1786 0.0000 14.5261 0.0000
# 6 0.0000 0.0000 0.0000 6.1230 0.0000 6.7818
#
#
#
# Elastic Compliance Matrix: (Units=1/GPa)
#
#
# Indices 1 2 3 4 5 6 
#
# 1 0.014959 0.004087 -0.002625 0.000000 -0.019606 0.000000
# 2 0.004087 0.059993 0.009314 0.000000 -0.033352 0.000000
# 3 -0.002625 0.009314 0.015330 0.000000 -0.024141 0.000000
# 4 0.000000 0.000000 0.000000 -0.232772 0.000000 0.210158
# 5 -0.019606 -0.033352 -0.024141 0.000000 0.147391 0.000000
# 6 0.000000 0.000000 0.000000 0.210158 0.000000 -0.042288
#
#
# Mechanical properties :
#
#
# Convention : Reuss Voigt Hill
#
# Bulk Modulus (GPa) = 8.94187 37.29778 23.11983
# Shear Modulus (GPa) = -230.83514 17.99401 -106.42057
#
# Velocity S-wave (km/s) = -11.61756 3.24361 -7.88818
# Velocity P-wave (km/s) = 13.21850 5.98630 8.33346
#
# Compressibility (1/GPa) = 0.11183342
#
# Stress axis : x y z
#
# Youngs Moduli (GPa) = 66.84758 16.66873 65.23016
#
# Poissons Ratio (x) = -0.06812 0.17123
# Poissons Ratio (y) = -0.27318 -0.60755
# Poissons Ratio (z) = 0.17548 -0.15525
#
# Static dielectric constant tensor:
#      x y z
#    x 1.583870 0.000000 0.020860 
#    y 0.000000 1.626070 0.000000 
#    z 0.020860 0.000000 1.607990 
# 
# From -- ./inp_files/51264.got.cif
#   From: 2010.05.17/outbox.cif.g08.bks.cpg/sg11_26_cif.got.tgz:51264.got - 2010.06.03 12:22:45.
