data_PCOD9157883
_publ_section_title
;
Structure prediction by ZEFSAII (Michael W. Deem and Ramdas Pophale) SiO2 
 PCOD9157883
Probable space group: P 21/M
;
_chemical_formula_sum "Si O2"
_cell_formula_units_Z 32
_cell_length_a 19.995023
_cell_length_b 7.371966
_cell_length_c 26.948123
_cell_angle_alpha 90.000000
_cell_angle_beta 159.202371
_cell_angle_gamma 90.000000
_cell_volume 1410.410803
_symmetry_space_group_name_H-M "P 21/M"
_symmetry_group_IT_number 11
_symmetry_cell_setting 'monoclinic'
loop_
_space_group_symop_operation_xyz
x,y,z
-x,1/2+y,-z
-x,-y,-z
x,1/2-y,z
loop_
_atom_site_type_symbol
_atom_site_label
_atom_site_fract_x
_atom_site_fract_y
_atom_site_fract_z
Si Si1 0.126924 0.970627 0.015284
Si Si2 0.805073 0.465301 0.216049
Si Si3 0.877996 0.469225 0.704216
Si Si4 0.298295 0.961101 0.034797
Si Si5 0.488252 0.968350 0.070827
Si Si6 0.287363 0.956783 0.310429
Si Si7 0.596314 0.473071 0.710801
Si Si8 0.203594 0.043604 0.465679
O O1 0.113787 0.750000 0.004848
O O2 0.216925 0.025645 0.129788
O O3 0.267979 0.032025 0.069107
O O4 0.923016 0.043405 0.859284
O O5 0.822663 0.250000 0.219440
O O6 0.689648 0.490505 0.186511
O O7 0.016546 0.539600 0.359984
O O8 0.669877 0.536166 0.078098
O O9 0.871069 0.250000 0.697915
O O10 0.743095 0.534247 0.655736
O O11 0.834676 0.543938 0.620114
O O12 0.090410 0.524058 0.866186
O O13 0.346924 0.750000 0.074700
O O14 0.441008 0.037637 0.092927
O O15 0.471409 0.750000 0.060330
O O16 0.348825 0.750000 0.360095
O O17 0.405849 0.039314 0.347540
O O18 0.593209 0.250000 0.706938
O O19 0.412371 0.535556 0.612956
O O20 0.219345 0.250000 0.495295
#
# Coordination Sequence:
#
# PCOD9157883 Si02
#       8
#     4   4   4   4   4   4   4   4
#     4   9  17  30  51  74  91 116 157 196 227 266
#     4   9  17  28  43  65  90 118 150 183 222 271
#     4  10  19  29  44  68  96 123 152 187 230 276
#     4   9  16  29  48  70  95 119 149 189 229 271
#     4   9  16  27  44  67  92 116 145 183 227 271
#     4   9  18  32  48  69  96 121 149 193 239 271
#     4   9  18  32  50  69  90 123 161 191 225 269
#     4  10  19  33  49  64  92 128 157 188 224 270
#
# _framework density 22.688424000000001
#
# number of rings (size 3 to 8) (size 9 to 14) (size 15 to 20)
#    0.000    2.750    1.250    0.750    0.000    2.000 
#    0.000    1.250    0.000    0.750    0.000    0.000 
#    0.000    0.000    0.000    0.000    0.000    0.000 
#
# Total GULP energy -178593.960555 kJ/mol
# GULP energy per Si atom -5581.061267 kJ/mol
# Density = 2.263678 g / cm^3
# Si number density = 22.688424 Si / 1000 Ang^3
#
#
#
# Elastic Constant Matrix: (Units=GPa)
#
#
# Indices 1 2 3 4 5 6 
#
# 1 100.2034 1.8925 28.4252 0.0000 27.8973 0.0000
# 2 1.8925 86.8348 -6.5333 0.0000 7.1801 0.0000
# 3 28.4252 -6.5333 76.9359 0.0000 20.1928 0.0000
# 4 0.0000 0.0000 0.0000 -0.9603 0.0000 90.6964
# 5 27.8973 7.1801 20.1928 0.0000 45.5239 0.0000
# 6 0.0000 0.0000 0.0000 90.6964 0.0000 -986.6651
#
#
#
# Elastic Compliance Matrix: (Units=1/GPa)
#
#
# Indices 1 2 3 4 5 6 
#
# 1 0.012608 0.000032 -0.002972 0.000000 -0.006413 0.000000
# 2 0.000032 0.011861 0.001688 0.000000 -0.002639 0.000000
# 3 -0.002972 0.001688 0.015654 0.000000 -0.005388 0.000000
# 4 0.000000 0.000000 0.000000 0.135562 0.000000 0.012461
# 5 -0.006413 -0.002639 -0.005388 0.000000 0.028702 0.000000
# 6 0.000000 0.000000 0.000000 0.012461 0.000000 0.000132
#
#
# Mechanical properties :
#
#
# Convention : Reuss Voigt Hill
#
# Bulk Modulus (GPa) = 26.58376 34.61587 30.59981
# Shear Modulus (GPa) = 22.77265 -172.40766 -74.81751
#
# Velocity S-wave (km/s) = 3.17158 -8.72664 -5.74871
# Velocity P-wave (km/s) = 5.01540 9.28702 5.52696
#
# Compressibility (1/GPa) = 0.03761695
#
# Stress axis : x y z
#
# Youngs Moduli (GPa) = 79.31739 84.31249 63.88336
#
# Poissons Ratio (x) = -0.00268 0.18988
# Poissons Ratio (y) = -0.00252 -0.10784
# Poissons Ratio (z) = 0.23575 -0.14232
#
# Static dielectric constant tensor:
#      x y z
#    x 1.858620 0.000000 0.042240 
#    y 0.000000 1.847770 0.000000 
#    z 0.042240 0.000000 1.836830 
# 
# From -- ./inp_files/42491.got.cif
#   From: 2010.05.17/outbox.cif.g08.bks.cpg/sg11_22_cif.got.tgz:42491.got - 2010.06.03 12:22:45.
