data_PCOD9157898
_publ_section_title
;
Structure prediction by ZEFSAII (Michael W. Deem and Ramdas Pophale) SiO2 
 PCOD9157898
Probable space group: P 21/M
;
_chemical_formula_sum "Si O2"
_cell_formula_units_Z 28
_cell_length_a 32.722488
_cell_length_b 8.373585
_cell_length_c 9.955830
_cell_angle_alpha 90.000000
_cell_angle_beta 145.773774
_cell_angle_gamma 90.000000
_cell_volume 1534.363755
_symmetry_space_group_name_H-M "P 21/M"
_symmetry_group_IT_number 11
_symmetry_cell_setting 'monoclinic'
loop_
_space_group_symop_operation_xyz
x,y,z
-x,1/2+y,-z
-x,-y,-z
x,1/2-y,z
loop_
_atom_site_type_symbol
_atom_site_label
_atom_site_fract_x
_atom_site_fract_y
_atom_site_fract_z
Si Si1 0.817194 0.060120 0.854087
Si Si2 0.104329 0.059373 0.386134
Si Si3 0.418031 0.059524 0.778252
Si Si4 0.050982 0.556112 0.949989
Si Si5 0.264563 0.939280 0.861570
Si Si6 0.300148 0.060576 0.670578
Si Si7 0.701467 0.443250 0.750968
O O1 0.823193 0.250000 0.889069
O O2 0.897125 0.000952 0.030288
O O3 0.771979 0.996382 0.858494
O O4 0.765422 0.026479 0.585410
O O5 0.114829 0.250000 0.421915
O O6 0.083055 0.013401 0.175781
O O7 0.178499 0.974341 0.627038
O O8 0.034018 0.013377 0.283975
O O9 0.418292 0.250000 0.771487
O O10 0.373758 0.013396 0.793001
O O11 0.369458 0.994297 0.523868
O O12 0.500000 0.000000 0.000000
O O13 0.054806 0.750000 0.969511
O O14 0.276055 0.750000 0.882217
O O15 0.298063 0.019346 0.820851
O O16 0.296211 0.997829 0.089278
O O17 0.289385 0.250000 0.623891
O O18 0.704268 0.250000 0.758970
#
# Coordination Sequence:
#
# PCOD9157898 Si02
#       7
#     4   4   4   4   4   4   4
#     4   9  16  31  53  74  98 133 177 222 263 309
#     4  10  19  29  45  71 104 137 174 225 269 307
#     4  10  21  38  61  86 110 134 166 207 253 308
#     4   9  17  29  47  72  99 133 178 223 270 313
#     4  11  21  34  51  75 107 143 179 214 259 313
#     4  10  20  33  53  81 106 133 172 215 254 301
#     4   9  20  36  55  78 106 139 175 215 259 307
#
# _framework density 18.248605999999999
#
# number of rings (size 3 to 8) (size 9 to 14) (size 15 to 20)
#    0.000    2.286    1.429    1.714    0.000    3.429 
#    0.000    1.429    0.000    0.000    0.000    0.000 
#    0.000    0.000    0.000    0.000    0.000    0.000 
#
# Total GULP energy -156158.684719 kJ/mol
# GULP energy per Si atom -5577.095883 kJ/mol
# Density = 1.820707 g / cm^3
# Si number density = 18.248606 Si / 1000 Ang^3
#
#
#
# Elastic Constant Matrix: (Units=GPa)
#
#
# Indices 1 2 3 4 5 6 
#
# 1 95.4390 -3.3422 45.8371 0.0000 3.8401 0.0000
# 2 -3.3422 5.2123 -5.4362 0.0000 1.5159 0.0000
# 3 45.8371 -5.4362 59.7978 0.0000 -0.3188 0.0000
# 4 0.0000 0.0000 0.0000 18.5888 0.0000 3.4154
# 5 3.8401 1.5159 -0.3188 0.0000 32.4589 0.0000
# 6 0.0000 0.0000 0.0000 3.4154 0.0000 22.9163
#
#
#
# Elastic Compliance Matrix: (Units=1/GPa)
#
#
# Indices 1 2 3 4 5 6 
#
# 1 0.016750 -0.002297 -0.013059 0.000000 -0.002003 0.000000
# 2 -0.002297 0.215372 0.021290 0.000000 -0.009577 0.000000
# 3 -0.013059 0.021290 0.028673 0.000000 0.000832 0.000000
# 4 0.000000 0.000000 0.000000 0.055310 0.000000 -0.008243
# 5 -0.002003 -0.009577 0.000832 0.000000 0.031501 0.000000
# 6 0.000000 0.000000 0.000000 -0.008243 0.000000 0.044866
#
#
# Mechanical properties :
#
#
# Convention : Reuss Voigt Hill
#
# Bulk Modulus (GPa) = 3.66756 26.06294 14.86525
# Shear Modulus (GPa) = 10.60463 23.01882 16.81173
#
# Velocity S-wave (km/s) = 2.41326 3.55547 3.03852
# Velocity P-wave (km/s) = 3.12718 5.58286 4.52480
#
# Compressibility (1/GPa) = 0.27266101
#
# Stress axis : x y z
#
# Youngs Moduli (GPa) = 59.70168 4.64313 34.87591
#
# Poissons Ratio (x) = 0.01067 0.45544
# Poissons Ratio (y) = 0.13716 -0.74249
# Poissons Ratio (z) = 0.77964 -0.09885
#
# Static dielectric constant tensor:
#      x y z
#    x 1.668390 0.000000 0.008540 
#    y 0.000000 1.626410 0.000000 
#    z 0.008540 0.000000 1.592070 
# 
# From -- ./inp_files/28138.got.cif
#   From: 2010.05.17/outbox.cif.g08.bks.cpg/sg11_15_cif.got.tgz:28138.got - 2010.06.03 12:22:45.
