data_PCOD9157412
_publ_section_title
;
Structure prediction by ZEFSAII (Michael W. Deem and Ramdas Pophale) SiO2 
 PCOD9157412
Probable space group: P 21/M
;
_chemical_formula_sum "Si O2"
_cell_formula_units_Z 28
_cell_length_a 31.251796
_cell_length_b 7.592620
_cell_length_c 10.691083
_cell_angle_alpha 90.000000
_cell_angle_beta 146.681036
_cell_angle_gamma 90.000000
_cell_volume 1393.469581
_symmetry_space_group_name_H-M "P 21/M"
_symmetry_group_IT_number 11
_symmetry_cell_setting 'monoclinic'
loop_
_space_group_symop_operation_xyz
x,y,z
-x,1/2+y,-z
-x,-y,-z
x,1/2-y,z
loop_
_atom_site_type_symbol
_atom_site_label
_atom_site_fract_x
_atom_site_fract_y
_atom_site_fract_z
Si Si1 0.680882 0.543619 0.711129
Si Si2 0.078767 0.959563 0.330016
Si Si3 0.739400 0.533284 0.587440
Si Si4 0.906763 0.953683 0.919693
Si Si5 0.763756 0.962113 0.161233
Si Si6 0.343833 0.034566 0.870378
Si Si7 0.508762 0.040327 0.374378
O O1 0.701177 0.750000 0.755313
O O2 0.703201 0.472344 0.629744
O O3 0.589733 0.530362 0.519492
O O4 0.728535 0.468742 0.945515
O O5 0.071983 0.750000 0.293411
O O6 0.992818 0.028937 0.155586
O O7 0.146691 0.993896 0.594112
O O8 0.102284 0.038579 0.253034
O O9 0.739700 0.750000 0.585076
O O10 0.690012 0.478185 0.345519
O O11 0.828588 0.471466 0.788764
O O12 0.909580 0.750000 0.966095
O O13 0.756682 0.750000 0.142933
O O14 0.712247 0.024011 0.153388
O O15 0.343798 0.250000 0.871570
O O16 0.431556 0.976017 0.114519
O O17 0.511592 0.250000 0.367838
O O18 0.500000 0.000000 0.500000
#
# Coordination Sequence:
#
# PCOD9157412 Si02
#       7
#     4   4   4   4   4   4   4
#     4  10  21  36  55  78 102 135 178 215 255 312
#     4  10  19  29  49  82 108 130 174 222 259 302
#     4   9  17  33  56  76  99 137 178 210 249 313
#     4   9  17  32  53  76 105 141 173 211 261 308
#     4  10  18  33  53  74 102 136 175 212 255 310
#     4   9  17  31  54  77  99 133 174 211 249 305
#     4  11  21  35  55  80 108 136 172 216 262 306
#
# _framework density 20.093727000000001
#
# number of rings (size 3 to 8) (size 9 to 14) (size 15 to 20)
#    0.000    2.286    2.857    0.857    0.000    1.714 
#    0.000    1.429    0.000    0.000    0.000    0.000 
#    0.000    0.000    0.000    0.000    0.000    0.000 
#
# Total GULP energy -156277.708083 kJ/mol
# GULP energy per Si atom -5581.346717 kJ/mol
# Density = 2.004799 g / cm^3
# Si number density = 20.093727 Si / 1000 Ang^3
#
#
#
# Elastic Constant Matrix: (Units=GPa)
#
#
# Indices 1 2 3 4 5 6 
#
# 1 168.5398 -5.7763 107.6961 0.0000 -2.2948 0.0000
# 2 -5.7763 40.6219 -3.0038 0.0000 -7.1763 0.0000
# 3 107.6961 -3.0038 185.5733 0.0000 5.6966 0.0000
# 4 0.0000 0.0000 0.0000 13.6376 0.0000 7.0316
# 5 -2.2948 -7.1763 5.6966 0.0000 29.9452 0.0000
# 6 0.0000 0.0000 0.0000 7.0316 0.0000 5.2723
#
#
#
# Elastic Compliance Matrix: (Units=1/GPa)
#
#
# Indices 1 2 3 4 5 6 
#
# 1 0.009593 0.001324 -0.005611 0.000000 0.002120 0.000000
# 2 0.001324 0.025898 -0.000546 0.000000 0.006412 0.000000
# 3 -0.005611 -0.000546 0.008704 0.000000 -0.002217 0.000000
# 4 0.000000 0.000000 0.000000 0.234767 0.000000 -0.313110
# 5 0.002120 0.006412 -0.002217 0.000000 0.035515 0.000000
# 6 0.000000 0.000000 0.000000 -0.313110 0.000000 0.607267
#
#
# Mechanical properties :
#
#
# Convention : Reuss Voigt Hill
#
# Bulk Modulus (GPa) = 28.96127 65.84079 47.40103
# Shear Modulus (GPa) = 5.30268 29.49229 17.39749
#
# Velocity S-wave (km/s) = 1.62625 3.83526 2.94567
# Velocity P-wave (km/s) = 4.23918 7.24226 5.93384
#
# Compressibility (1/GPa) = 0.03452887
#
# Stress axis : x y z
#
# Youngs Moduli (GPa) = 104.24504 38.61330 114.88874
#
# Poissons Ratio (x) = -0.05111 0.64461
# Poissons Ratio (y) = -0.13798 0.06271
# Poissons Ratio (z) = 0.58489 0.02107
#
# Static dielectric constant tensor:
#      x y z
#    x 1.671760 0.000000 0.013230 
#    y 0.000000 1.759760 0.000000 
#    z 0.013230 0.000000 1.704030 
# 
# From -- ./inp_files/28585.got.cif
#   From: 2010.05.17/outbox.cif.g08.bks.cpg/sg11_15_cif.got.tgz:28585.got - 2010.06.03 12:22:45.
