data_PCOD9157316
_publ_section_title
;
Structure prediction by ZEFSAII (Michael W. Deem and Ramdas Pophale) SiO2 
 PCOD9157316
Probable space group: P 21/M
;
_chemical_formula_sum "Si O2"
_cell_formula_units_Z 32
_cell_length_a 14.278376
_cell_length_b 21.488707
_cell_length_c 5.251018
_cell_angle_alpha 90.000000
_cell_angle_beta 95.880255
_cell_angle_gamma 90.000000
_cell_volume 1602.659985
_symmetry_space_group_name_H-M "P 21/M"
_symmetry_group_IT_number 11
_symmetry_cell_setting 'monoclinic'
loop_
_space_group_symop_operation_xyz
x,y,z
-x,1/2+y,-z
-x,-y,-z
x,1/2-y,z
loop_
_atom_site_type_symbol
_atom_site_label
_atom_site_fract_x
_atom_site_fract_y
_atom_site_fract_z
Si Si1 0.360031 0.034874 0.960815
Si Si2 0.839229 0.566712 0.078971
Si Si3 0.970423 0.377369 0.820920
Si Si4 0.541408 0.428297 0.285916
Si Si5 0.676261 0.322000 0.091745
Si Si6 0.854261 0.488935 0.576406
Si Si7 0.886230 0.179712 0.300075
Si Si8 0.682708 0.080696 0.711267
O O1 0.434684 0.068666 0.164769
O O2 0.315112 0.973854 0.080772
O O3 0.270476 0.077742 0.878823
O O4 0.418661 0.998238 0.761872
O O5 0.868585 0.515460 0.299712
O O6 0.916769 0.620246 0.128430
O O7 0.843527 0.542483 0.788115
O O8 0.933609 0.444166 0.711050
O O9 0.932111 0.333299 0.586273
O O10 0.926280 0.363676 0.085528
O O11 0.576162 0.417652 0.580910
O O12 0.597414 0.370828 0.166883
O O13 0.646211 0.250000 0.069671
O O14 0.705491 0.352273 0.829864
O O15 0.772837 0.325121 0.277362
O O16 0.760060 0.446102 0.540102
O O17 0.907943 0.250000 0.224998
#
# Coordination Sequence:
#
# PCOD9157316 Si02
#       8
#     4   4   4   4   4   4   4   4
#     4   9  20  32  53  83 114 143 186 224 281 341
#     4  11  22  36  54  87 117 154 186 229 275 348
#     4  12  22  37  59  82 116 153 187 232 286 333
#     4  10  18  35  55  80 110 151 180 228 284 338
#     4  10  22  36  54  81 109 144 190 236 280 334
#     4  11  20  34  54  84 122 150 185 221 285 343
#     4  11  24  40  59  84 110 147 196 240 285 339
#     4  10  18  32  55  77 117 147 182 226 283 344
#
# _framework density 19.966805999999998
#
# number of rings (size 3 to 8) (size 9 to 14) (size 15 to 20)
#    0.000    1.500    2.500    3.750    1.750    0.500 
#    0.000    0.000    0.000    1.500    0.000    0.000 
#    0.000    0.000    0.000    0.000    0.000    0.000 
#
# Total GULP energy -178328.046108 kJ/mol
# GULP energy per Si atom -5572.751441 kJ/mol
# Density = 1.992136 g / cm^3
# Si number density = 19.966806 Si / 1000 Ang^3
#
#
#
# Elastic Constant Matrix: (Units=GPa)
#
#
# Indices 1 2 3 4 5 6 
#
# 1 87.3537 27.8852 7.5497 0.0000 26.1582 0.0000
# 2 27.8852 57.2037 18.1029 0.0000 8.1387 0.0000
# 3 7.5497 18.1029 73.7948 0.0000 12.1626 0.0000
# 4 0.0000 0.0000 0.0000 18.6946 0.0000 3.4732
# 5 26.1582 8.1387 12.1626 0.0000 33.7493 0.0000
# 6 0.0000 0.0000 0.0000 3.4732 0.0000 15.9422
#
#
#
# Elastic Compliance Matrix: (Units=1/GPa)
#
#
# Indices 1 2 3 4 5 6 
#
# 1 0.017326 -0.007336 0.002072 0.000000 -0.012406 0.000000
# 2 -0.007336 0.022365 -0.005086 0.000000 0.002126 0.000000
# 3 0.002072 -0.005086 0.015574 0.000000 -0.005992 0.000000
# 4 0.000000 0.000000 0.000000 0.055748 0.000000 -0.012145
# 5 -0.012406 0.002126 -0.005992 0.000000 0.040893 0.000000
# 6 0.000000 0.000000 0.000000 -0.012145 0.000000 0.065373
#
#
# Mechanical properties :
#
#
# Convention : Reuss Voigt Hill
#
# Bulk Modulus (GPa) = 28.93221 36.15864 32.54542
# Shear Modulus (GPa) = 20.04003 24.66484 22.35244
#
# Velocity S-wave (km/s) = 3.17151 3.51849 3.34949
# Velocity P-wave (km/s) = 5.28516 5.88685 5.59410
#
# Compressibility (1/GPa) = 0.03456356
#
# Stress axis : x y z
#
# Youngs Moduli (GPa) = 57.71803 44.71311 64.20781
#
# Poissons Ratio (x) = 0.32803 -0.13303
# Poissons Ratio (y) = 0.42344 0.32657
# Poissons Ratio (z) = -0.11959 0.22742
#
# Static dielectric constant tensor:
#      x y z
#    x 1.821660 0.000000 -0.021430 
#    y 0.000000 1.697370 0.000000 
#    z -0.021430 0.000000 1.794270 
# 
# From -- ./inp_files/7070.got.cif
#   From: 2010.05.17/outbox.cif.g08.bks.cpg/sg11_4_cif.got.tgz:7070.got - 2010.06.03 12:22:45.
