data_PCOD9157628
_publ_section_title
;
Structure prediction by ZEFSAII (Michael W. Deem and Ramdas Pophale) SiO2 
 PCOD9157628
Probable space group: P 21/M
;
_chemical_formula_sum "Si O2"
_cell_formula_units_Z 30
_cell_length_a 22.544137
_cell_length_b 16.301871
_cell_length_c 9.480725
_cell_angle_alpha 90.000000
_cell_angle_beta 23.956748
_cell_angle_gamma 90.000000
_cell_volume 1414.779691
_symmetry_space_group_name_H-M "P 21/M"
_symmetry_group_IT_number 11
_symmetry_cell_setting 'monoclinic'
loop_
_space_group_symop_operation_xyz
x,y,z
-x,1/2+y,-z
-x,-y,-z
x,1/2-y,z
loop_
_atom_site_type_symbol
_atom_site_label
_atom_site_fract_x
_atom_site_fract_y
_atom_site_fract_z
Si Si1 0.775372 0.841309 0.375763
Si Si2 0.989838 0.159170 0.882945
Si Si3 0.841740 0.403959 0.812682
Si Si4 0.655168 0.250000 0.323253
Si Si5 0.780833 0.480275 0.248995
Si Si6 0.649186 0.970541 0.103324
Si Si7 0.858780 0.843475 0.754909
Si Si8 0.513533 0.607939 0.132271
O O1 0.784575 0.750000 0.289936
O O2 0.894550 0.842470 0.242778
O O3 0.800499 0.923844 0.233099
O O4 0.615727 0.853218 0.791859
O O5 0.913282 0.250000 0.048903
O O6 0.073594 0.155958 0.551264
O O7 0.882606 0.081738 0.117839
O O8 0.011373 0.381808 0.435212
O O9 0.751564 0.321547 0.033620
O O10 0.816744 0.456608 0.009716
O O11 0.771587 0.458819 0.843371
O O12 0.564550 0.178397 0.606421
O O13 0.615029 0.452015 0.639264
O O14 0.500000 0.000000 0.500000
O O15 0.615583 0.941418 0.019579
O O16 0.712994 0.895670 0.056672
O O17 0.830013 0.750000 0.855736
#
# Coordination Sequence:
#
# PCOD9157628 Si02
#       8
#     4   4   4   2   4   4   4   4
#     4  11  21  37  58  84 115 150 194 240 284 345
#     4   9  19  34  59  90 110 140 197 248 289 331
#     4  10  21  38  59  86 114 149 195 236 295 336
#     4  10  18  34  60  82 114 144 192 244 276 334
#     4  10  21  35  58  85 118 150 188 239 293 343
#     4  12  22  35  56  87 122 147 181 237 289 351
#     4  10  20  35  60  87 110 141 196 243 282 332
#     4  11  22  36  58  86 114 151 195 233 288 335
#
# _framework density 21.204715
#
# number of rings (size 3 to 8) (size 9 to 14) (size 15 to 20)
#    0.000    1.600    5.333    1.200    6.533    0.000 
#    0.000    0.667    4.400    0.000    0.000    0.000 
#    0.000    0.000    0.000    0.000    0.000    0.000 
#
# Total GULP energy -167146.003894 kJ/mol
# GULP energy per Si atom -5571.533463 kJ/mol
# Density = 2.115645 g / cm^3
# Si number density = 21.204715 Si / 1000 Ang^3
#
#
#
# Elastic Constant Matrix: (Units=GPa)
#
#
# Indices 1 2 3 4 5 6 
#
# 1 41.3283 47.6927 21.7451 0.0000 -11.2673 0.0000
# 2 47.6927 208.9494 58.9841 0.0000 -15.0082 0.0000
# 3 21.7451 58.9841 82.4002 0.0000 -19.4329 0.0000
# 4 0.0000 0.0000 0.0000 34.1833 0.0000 4.7829
# 5 -11.2673 -15.0082 -19.4329 0.0000 23.5956 0.0000
# 6 0.0000 0.0000 0.0000 4.7829 0.0000 13.2556
#
#
#
# Elastic Compliance Matrix: (Units=1/GPa)
#
#
# Indices 1 2 3 4 5 6 
#
# 1 0.036297 -0.006920 -0.001956 0.000000 0.011321 0.000000
# 2 -0.006920 0.007319 -0.003841 0.000000 -0.001812 0.000000
# 3 -0.001956 -0.003841 0.018125 0.000000 0.011551 0.000000
# 4 0.000000 0.000000 0.000000 0.030809 0.000000 -0.011117
# 5 0.011321 -0.001812 0.011551 0.000000 0.056147 0.000000
# 6 0.000000 0.000000 0.000000 -0.011117 0.000000 0.079451
#
#
# Mechanical properties :
#
#
# Convention : Reuss Voigt Hill
#
# Bulk Modulus (GPa) = 27.54061 65.50241 46.52151
# Shear Modulus (GPa) = 18.81933 27.82397 23.32165
#
# Velocity S-wave (km/s) = 2.98234 3.62630 3.31997
# Velocity P-wave (km/s) = 4.98751 6.96355 6.05666
#
# Compressibility (1/GPa) = 0.03631002
#
# Stress axis : x y z
#
# Youngs Moduli (GPa) = 27.55045 136.62602 55.17178
#
# Poissons Ratio (x) = 0.94540 0.10790
# Poissons Ratio (y) = 0.19064 0.21189
# Poissons Ratio (z) = 0.05388 0.52471
#
# Static dielectric constant tensor:
#      x y z
#    x 1.808310 0.000000 0.002340 
#    y 0.000000 1.787290 0.000000 
#    z 0.002340 0.000000 1.773370 
# 
# From -- ./inp_files/44847.got.cif
#   From: 2010.05.17/outbox.cif.g08.bks.cpg/sg11_23_cif.got.tgz:44847.got - 2010.06.03 12:22:45.
