data_PCOD9157190
_publ_section_title
;
Structure prediction by ZEFSAII (Michael W. Deem and Ramdas Pophale) SiO2 
 PCOD9157190
Probable space group: P 21/M
;
_chemical_formula_sum "Si O2"
_cell_formula_units_Z 28
_cell_length_a 11.916116
_cell_length_b 11.284304
_cell_length_c 9.837258
_cell_angle_alpha 90.000000
_cell_angle_beta 100.384293
_cell_angle_gamma 90.000000
_cell_volume 1301.101924
_symmetry_space_group_name_H-M "P 21/M"
_symmetry_group_IT_number 11
_symmetry_cell_setting 'monoclinic'
loop_
_space_group_symop_operation_xyz
x,y,z
-x,1/2+y,-z
-x,-y,-z
x,1/2-y,z
loop_
_atom_site_type_symbol
_atom_site_label
_atom_site_fract_x
_atom_site_fract_y
_atom_site_fract_z
Si Si1 0.097338 0.380900 0.724163
Si Si2 0.402662 0.380900 0.275837
Si Si3 0.617867 0.378238 0.126084
Si Si4 0.882133 0.378238 0.873917
Si Si5 0.250000 0.058346 1.000000
Si Si6 0.675132 0.119167 0.619899
Si Si7 0.824869 0.380833 0.380101
O O1 0.094344 0.250000 0.657128
O O2 0.108446 0.496821 0.632274
O O3 0.982676 0.394085 0.788143
O O4 0.202036 0.378554 0.855742
O O5 0.405656 0.250000 0.342872
O O6 0.517324 0.394086 0.211858
O O7 0.297965 0.378554 0.144258
O O8 0.391553 0.496821 0.367726
O O9 0.599755 0.250000 0.054640
O O10 0.734650 0.375218 0.237209
O O11 0.642337 0.478849 0.023036
O O12 0.900245 0.250000 0.945360
O O13 0.857663 0.478849 0.976964
O O14 0.765350 0.375218 0.762791
O O15 0.616812 0.250000 0.603111
O O16 0.750001 0.109191 0.500000
O O17 0.883189 0.250000 0.396888
#
# Coordination Sequence:
#
# PCOD9157190 Si02
#       7
#     4   4   4   4   4   4   4
#     4  10  20  33  50  75 103 129 161 204 249 288
#     4  10  20  33  50  75 103 129 161 204 249 288
#     4   9  18  32  51  74 100 131 165 201 243 291
#     4   9  18  32  51  74 100 131 165 201 243 291
#     4  10  18  32  50  72 101 134 165 198 239 292
#     4   9  19  36  54  72  97 130 167 203 241 292
#     4   9  19  36  54  72  97 130 167 203 241 292
#
# _framework density 21.520219999999998
#
# number of rings (size 3 to 8) (size 9 to 14) (size 15 to 20)
#    0.000    2.571    0.000    1.714    0.000    2.857 
#    0.000    7.143    0.000    0.000    0.000    0.000 
#    0.000    0.000    0.000    0.000    0.000    0.000 
#
# Total GULP energy -156017.773777 kJ/mol
# GULP energy per Si atom -5572.063349 kJ/mol
# Density = 2.147124 g / cm^3
# Si number density = 21.520220 Si / 1000 Ang^3
#
#
#
# Elastic Constant Matrix: (Units=GPa)
#
#
# Indices 1 2 3 4 5 6 
#
# 1 60.0262 50.5207 -7.0581 0.0000 -8.7623 0.0000
# 2 50.5207 229.6920 41.0891 0.0000 -34.5512 0.0000
# 3 -7.0581 41.0891 44.1370 0.0000 2.1455 0.0000
# 4 0.0000 0.0000 0.0000 -220.6706 0.0000 76.9622
# 5 -8.7623 -34.5512 2.1455 0.0000 31.0630 0.0000
# 6 0.0000 0.0000 0.0000 76.9622 0.0000 -44.7817
#
#
#
# Elastic Compliance Matrix: (Units=1/GPa)
#
#
# Indices 1 2 3 4 5 6 
#
# 1 0.024030 -0.007641 0.011077 0.000000 -0.002485 0.000000
# 2 -0.007641 0.009173 -0.010187 0.000000 0.008751 0.000000
# 3 0.011077 -0.010187 0.034426 0.000000 -0.010584 0.000000
# 4 0.000000 0.000000 0.000000 -0.011312 0.000000 -0.019441
# 5 -0.002485 0.008751 -0.010584 0.000000 0.041957 0.000000
# 6 0.000000 0.000000 0.000000 -0.019441 0.000000 -0.055742
#
#
# Mechanical properties :
#
#
# Convention : Reuss Voigt Hill
#
# Bulk Modulus (GPa) = 18.47512 55.88428 37.17970
# Shear Modulus (GPa) = 67.49869 -30.25762 18.62054
#
# Velocity S-wave (km/s) = 5.60654 -3.75375 2.94472
# Velocity P-wave (km/s) = 7.10737 2.69020 5.37364
#
# Compressibility (1/GPa) = 0.05412686
#
# Stress axis : x y z
#
# Youngs Moduli (GPa) = 41.61505 109.01666 29.04795
#
# Poissons Ratio (x) = 0.83296 -0.32175
# Poissons Ratio (y) = 0.31797 0.29590
# Poissons Ratio (z) = -0.46095 1.11052
#
# Static dielectric constant tensor:
#      x y z
#    x 1.765930 0.000000 0.031960 
#    y 0.000000 1.872320 0.000000 
#    z 0.031960 0.000000 1.767590 
# 
# From -- ./inp_files/34349.got.cif
#   From: 2010.05.17/outbox.cif.g08.bks.cpg/sg11_18_cif.got.tgz:34349.got - 2010.06.03 12:22:45.
