data_PCOD9157708
_publ_section_title
;
Structure prediction by ZEFSAII (Michael W. Deem and Ramdas Pophale) SiO2 
 PCOD9157708
Probable space group: P 21/M
;
_chemical_formula_sum "Si O2"
_cell_formula_units_Z 28
_cell_length_a 15.980568
_cell_length_b 16.811088
_cell_length_c 9.378288
_cell_angle_alpha 90.000000
_cell_angle_beta 140.135346
_cell_angle_gamma 90.000000
_cell_volume 1614.929363
_symmetry_space_group_name_H-M "P 21/M"
_symmetry_group_IT_number 11
_symmetry_cell_setting 'monoclinic'
loop_
_space_group_symop_operation_xyz
x,y,z
-x,1/2+y,-z
-x,-y,-z
x,1/2-y,z
loop_
_atom_site_type_symbol
_atom_site_label
_atom_site_fract_x
_atom_site_fract_y
_atom_site_fract_z
Si Si1 0.139835 0.490015 0.257783
Si Si2 0.416380 0.959124 0.194700
Si Si3 0.617281 0.096957 0.382322
Si Si4 0.469477 0.334418 0.440705
Si Si5 0.222970 0.417590 0.090538
Si Si6 0.711863 0.344668 0.206615
Si Si7 0.957813 0.453378 0.586167
O O1 0.241912 0.562943 0.385218
O O2 0.203837 0.425286 0.236610
O O3 0.109178 0.485820 0.386417
O O4 0.000000 0.500000 0.000000
O O5 0.496001 0.908325 0.414027
O O6 0.514000 0.023276 0.250139
O O7 0.301649 0.007064 0.126407
O O8 0.356019 0.896629 0.005442
O O9 0.563017 0.157171 0.427871
O O10 0.634419 0.136375 0.251419
O O11 0.488085 0.250000 0.538200
O O12 0.321331 0.345417 0.194905
O O13 0.084441 0.417051 0.830690
O O14 0.716727 0.250000 0.186355
O O15 0.854491 0.384451 0.414853
O O16 0.000000 0.500000 0.500000
#
# Coordination Sequence:
#
# PCOD9157708 Si02
#       7
#     4   4   4   4   4   4   4
#     4   9  17  31  56  80 101 134 179 231 256 313
#     4  11  19  35  58  79 111 145 186 226 270 337
#     4  10  19  36  55  81 107 145 188 220 269 341
#     4  11  21  33  55  83 115 146 177 231 282 319
#     4  10  18  36  55  81 105 141 192 219 264 331
#     4  11  23  36  54  84 114 141 180 237 284 322
#     4  10  20  35  58  80 105 145 186 223 271 331
#
# _framework density 17.33822
#
# number of rings (size 3 to 8) (size 9 to 14) (size 15 to 20)
#    0.000    1.714    4.286    2.143    0.000    0.571 
#    0.000    0.000    0.000    0.857    0.000    0.000 
#    0.000    0.000    0.000    0.000    0.000    0.000 
#
# Total GULP energy -155901.394733 kJ/mol
# GULP energy per Si atom -5567.906955 kJ/mol
# Density = 1.729876 g / cm^3
# Si number density = 17.338220 Si / 1000 Ang^3
#
#
#
# Elastic Constant Matrix: (Units=GPa)
#
#
# Indices 1 2 3 4 5 6 
#
# 1 107.4587 29.1270 26.2752 0.0000 1.3157 0.0000
# 2 29.1270 95.5246 32.9233 0.0000 -0.4232 0.0000
# 3 26.2752 32.9233 87.0617 0.0000 7.6155 0.0000
# 4 0.0000 0.0000 0.0000 13.3691 0.0000 -4.0226
# 5 1.3157 -0.4232 7.6155 0.0000 29.1523 0.0000
# 6 0.0000 0.0000 0.0000 -4.0226 0.0000 8.6200
#
#
#
# Elastic Compliance Matrix: (Units=1/GPa)
#
#
# Indices 1 2 3 4 5 6 
#
# 1 0.010516 -0.002426 -0.002263 0.000000 0.000081 0.000000
# 2 -0.002426 0.012653 -0.004174 0.000000 0.001383 0.000000
# 3 -0.002263 -0.004174 0.014065 0.000000 -0.003633 0.000000
# 4 0.000000 0.000000 0.000000 0.087018 0.000000 0.040608
# 5 0.000081 0.001383 -0.003633 0.000000 0.035268 0.000000
# 6 0.000000 0.000000 0.000000 0.040608 0.000000 0.134959
#
#
# Mechanical properties :
#
#
# Convention : Reuss Voigt Hill
#
# Bulk Modulus (GPa) = 51.26129 51.85513 51.55821
# Shear Modulus (GPa) = 15.68834 23.67624 19.68229
#
# Velocity S-wave (km/s) = 3.01132 3.69935 3.37292
# Velocity P-wave (km/s) = 6.45913 6.94405 6.70598
#
# Compressibility (1/GPa) = 0.01950790
#
# Stress axis : x y z
#
# Youngs Moduli (GPa) = 95.09399 79.03353 71.09702
#
# Poissons Ratio (x) = 0.19174 0.16092
# Poissons Ratio (y) = 0.23070 0.29674
# Poissons Ratio (z) = 0.21524 0.32986
#
# Static dielectric constant tensor:
#      x y z
#    x 1.616550 0.000000 0.002650 
#    y 0.000000 1.575720 0.000000 
#    z 0.002650 0.000000 1.598600 
# 
# From -- ./inp_files/17955.got.cif
#   From: 2010.05.17/outbox.cif.g08.bks.cpg/sg11_9_cif.got.tgz:17955.got - 2010.06.03 12:22:45.
