data_PCOD9157952
_publ_section_title
;
Structure prediction by ZEFSAII (Michael W. Deem and Ramdas Pophale) SiO2 
 PCOD9157952
Probable space group: P 21/M
;
_chemical_formula_sum "Si O2"
_cell_formula_units_Z 32
_cell_length_a 26.778079
_cell_length_b 7.561858
_cell_length_c 13.663541
_cell_angle_alpha 90.000000
_cell_angle_beta 147.261450
_cell_angle_gamma 90.000000
_cell_volume 1496.280488
_symmetry_space_group_name_H-M "P 21/M"
_symmetry_group_IT_number 11
_symmetry_cell_setting 'monoclinic'
loop_
_space_group_symop_operation_xyz
x,y,z
-x,1/2+y,-z
-x,-y,-z
x,1/2-y,z
loop_
_atom_site_type_symbol
_atom_site_label
_atom_site_fract_x
_atom_site_fract_y
_atom_site_fract_z
Si Si1 0.230558 0.537531 0.883850
Si Si2 0.599866 0.455362 0.942384
Si Si3 0.893992 0.042597 0.913428
Si Si4 0.875567 0.960226 0.091997
Si Si5 0.053943 0.538544 0.487826
Si Si6 0.560175 0.961687 0.196221
Si Si7 0.901523 0.546586 0.715821
Si Si8 0.279458 0.466257 0.668650
O O1 0.233370 0.750000 0.876375
O O2 0.333153 0.468119 0.030598
O O3 0.189701 0.505280 0.924112
O O4 0.155897 0.467664 0.680719
O O5 0.582383 0.250000 0.889534
O O6 0.666302 0.464596 0.147727
O O7 0.501792 0.533198 0.816325
O O8 0.901876 0.250000 0.905193
O O9 0.997038 0.965996 0.104778
O O10 0.842425 0.020901 0.931046
O O11 0.859710 0.957397 0.756925
O O12 0.882097 0.750000 0.100198
O O13 0.979928 0.031100 0.286898
O O14 0.061135 0.750000 0.486598
O O15 0.000000 0.500000 0.500000
O O16 0.565138 0.750000 0.216618
O O17 0.661244 0.022164 0.329572
O O18 0.500000 0.000000 0.000000
O O19 0.914316 0.750000 0.708657
O O20 0.825508 0.469887 0.517481
O O21 0.280130 0.250000 0.674077
#
# Coordination Sequence:
#
# PCOD9157952 Si02
#       8
#     4   4   4   4   4   4   4   4
#     4   9  17  29  42  61  89 119 151 182 212 254
#     4   9  17  27  43  67  95 123 150 180 214 256
#     4  10  20  33  48  65  87 115 147 187 229 264
#     4  10  19  30  45  63  85 116 150 184 222 262
#     4   8  15  26  38  54  78 109 143 176 207 241
#     4   8  14  26  42  63  90 119 147 176 214 259
#     4   9  19  34  48  66  88 114 149 186 223 265
#     4   9  17  29  46  66  91 120 149 181 219 263
#
# _framework density 21.386364
#
# number of rings (size 3 to 8) (size 9 to 14) (size 15 to 20)
#    0.000    3.000    0.000    0.750    1.750    2.000 
#    0.000    0.000    0.000    0.000    0.000    0.875 
#    0.000    0.000    0.000    0.000    0.000    0.000 
#
# Total GULP energy -178256.217336 kJ/mol
# GULP energy per Si atom -5570.506792 kJ/mol
# Density = 2.133769 g / cm^3
# Si number density = 21.386364 Si / 1000 Ang^3
#
#
#
# Elastic Constant Matrix: (Units=GPa)
#
#
# Indices 1 2 3 4 5 6 
#
# 1 106.5255 2.8859 0.2703 0.0000 3.3834 0.0000
# 2 2.8859 68.9024 -3.8577 0.0000 6.1676 0.0000
# 3 0.2703 -3.8577 22.0598 0.0000 3.5402 0.0000
# 4 0.0000 0.0000 0.0000 5.3978 0.0000 -2.8825
# 5 3.3834 6.1676 3.5402 0.0000 33.4537 0.0000
# 6 0.0000 0.0000 0.0000 -2.8825 0.0000 17.5008
#
#
#
# Elastic Compliance Matrix: (Units=1/GPa)
#
#
# Indices 1 2 3 4 5 6 
#
# 1 0.009424 -0.000316 -0.000028 0.000000 -0.000892 0.000000
# 2 -0.000316 0.014975 0.003113 0.000000 -0.003058 0.000000
# 3 -0.000028 0.003113 0.046762 0.000000 -0.005520 0.000000
# 4 0.000000 0.000000 0.000000 0.203125 0.000000 0.033455
# 5 -0.000892 -0.003058 -0.005520 0.000000 0.031130 0.000000
# 6 0.000000 0.000000 0.000000 0.033455 0.000000 0.062650
#
#
# Mechanical properties :
#
#
# Convention : Reuss Voigt Hill
#
# Bulk Modulus (GPa) = 13.03788 21.78716 17.41252
# Shear Modulus (GPa) = 12.88346 24.48309 18.68327
#
# Velocity S-wave (km/s) = 2.45708 3.38716 2.95889
# Velocity P-wave (km/s) = 3.76287 5.05041 4.45342
#
# Compressibility (1/GPa) = 0.07669959
#
# Stress axis : x y z
#
# Youngs Moduli (GPa) = 106.10766 66.77970 21.38486
#
# Poissons Ratio (x) = 0.02113 0.00059
# Poissons Ratio (y) = 0.03358 -0.06658
# Poissons Ratio (z) = 0.00294 -0.20791
#
# Static dielectric constant tensor:
#      x y z
#    x 1.832580 0.000000 0.044170 
#    y 0.000000 1.773900 0.000000 
#    z 0.044170 0.000000 1.783610 
# 
# From -- ./inp_files/56206.got.cif
#   From: 2010.05.17/outbox.cif.g08.bks.cpg/sg11_29_cif.got.tgz:56206.got - 2010.06.03 12:22:45.
