data_PCOD9157348
_publ_section_title
;
Structure prediction by ZEFSAII (Michael W. Deem and Ramdas Pophale) SiO2 
 PCOD9157348
Probable space group: P 21/M
;
_chemical_formula_sum "Si O2"
_cell_formula_units_Z 32
_cell_length_a 17.208313
_cell_length_b 8.337597
_cell_length_c 11.138529
_cell_angle_alpha 90.000000
_cell_angle_beta 85.700802
_cell_angle_gamma 90.000000
_cell_volume 1593.614558
_symmetry_space_group_name_H-M "P 21/M"
_symmetry_group_IT_number 11
_symmetry_cell_setting 'monoclinic'
loop_
_space_group_symop_operation_xyz
x,y,z
-x,1/2+y,-z
-x,-y,-z
x,1/2-y,z
loop_
_atom_site_type_symbol
_atom_site_label
_atom_site_fract_x
_atom_site_fract_y
_atom_site_fract_z
Si Si1 0.982808 0.062683 0.808685
Si Si2 0.837420 0.444271 0.961950
Si Si3 0.583555 0.941555 0.125688
Si Si4 0.887064 0.566674 0.601366
Si Si5 0.742668 0.439440 0.731700
Si Si6 0.120712 0.561887 0.652798
Si Si7 0.412631 0.059243 0.151994
Si Si8 0.257165 0.555765 0.795424
O O1 0.000028 0.250000 0.826083
O O2 0.924580 0.999301 0.918967
O O3 0.931203 0.043689 0.692684
O O4 0.061133 0.968362 0.769227
O O5 0.842410 0.250000 0.967983
O O6 0.782388 0.482410 0.855089
O O7 0.794035 0.502642 0.084963
O O8 0.576336 0.750000 0.124057
O O9 0.501012 0.014406 0.173960
O O10 0.656197 0.991720 0.198448
O O11 0.598619 0.997053 0.985694
O O12 0.906202 0.750000 0.628814
O O13 0.795165 0.532599 0.629921
O O14 0.906972 0.529440 0.462076
O O15 0.751893 0.250000 0.710602
O O16 0.652587 0.482610 0.756055
O O17 0.121755 0.750000 0.624827
O O18 0.206582 0.510574 0.685441
O O19 0.402785 0.250000 0.155240
O O20 0.259715 0.750000 0.799513
#
# Coordination Sequence:
#
# PCOD9157348 Si02
#       8
#     4   4   4   4   4   4   4   4
#     4  10  20  36  57  80 106 136 176 226 276 320
#     4   8  16  31  52  77 105 138 172 211 265 317
#     4  10  20  32  50  79 112 145 180 219 260 310
#     4  11  22  37  57  79 106 137 179 228 272 318
#     4  10  18  32  56  82 111 139 173 221 270 318
#     4  11  23  37  54  77 105 142 185 223 268 321
#     4  10  19  31  51  81 113 144 179 216 261 314
#     4  10  20  36  55  75 107 147 182 218 263 322
#
# _framework density 20.080138000000002
#
# number of rings (size 3 to 8) (size 9 to 14) (size 15 to 20)
#    0.000    2.000    1.250    4.125    0.000    2.500 
#    0.000    0.625    0.000    0.750    0.000    0.000 
#    0.000    0.000    0.000    0.000    0.000    0.000 
#
# Total GULP energy -178716.717050 kJ/mol
# GULP energy per Si atom -5584.897408 kJ/mol
# Density = 2.003443 g / cm^3
# Si number density = 20.080138 Si / 1000 Ang^3
#
#
#
# Elastic Constant Matrix: (Units=GPa)
#
#
# Indices 1 2 3 4 5 6 
#
# 1 106.5996 -4.6894 3.8690 0.0000 -0.6874 0.0000
# 2 -4.6894 30.0797 -0.3396 0.0000 0.2859 0.0000
# 3 3.8690 -0.3396 18.7879 0.0000 -1.9890 0.0000
# 4 0.0000 0.0000 0.0000 14.9297 0.0000 -5.1582
# 5 -0.6874 0.2859 -1.9890 0.0000 25.4403 0.0000
# 6 0.0000 0.0000 0.0000 -5.1582 0.0000 30.6249
#
#
#
# Elastic Compliance Matrix: (Units=1/GPa)
#
#
# Indices 1 2 3 4 5 6 
#
# 1 0.009516 0.001461 -0.001924 0.000000 0.000090 0.000000
# 2 0.001461 0.033479 0.000271 0.000000 -0.000316 0.000000
# 3 -0.001924 0.000271 0.054068 0.000000 0.004172 0.000000
# 4 0.000000 0.000000 0.000000 0.071119 0.000000 0.011979
# 5 0.000090 -0.000316 0.004172 0.000000 0.039640 0.000000
# 6 0.000000 0.000000 0.000000 0.011979 0.000000 0.034671
#
#
# Mechanical properties :
#
#
# Convention : Reuss Voigt Hill
#
# Bulk Modulus (GPa) = 10.34349 17.01636 13.67993
# Shear Modulus (GPa) = 18.17502 24.64080 21.40791
#
# Velocity S-wave (km/s) = 3.01179 3.50683 3.26870
# Velocity P-wave (km/s) = 4.15413 4.98897 4.59057
#
# Compressibility (1/GPa) = 0.09667914
#
# Stress axis : x y z
#
# Youngs Moduli (GPa) = 105.09107 29.86961 18.49510
#
# Poissons Ratio (x) = -0.04364 0.03558
# Poissons Ratio (y) = -0.15353 -0.00501
# Poissons Ratio (z) = 0.20215 -0.00809
#
# Static dielectric constant tensor:
#      x y z
#    x 1.730850 0.000000 -0.006830 
#    y 0.000000 1.677430 0.000000 
#    z -0.006830 0.000000 1.715760 
# 
# From -- ./inp_files/38269.got.cif
#   From: 2010.05.17/outbox.cif.g08.bks.cpg/sg11_20_cif.got.tgz:38269.got - 2010.06.03 12:22:45.
