data_PCOD9157468
_publ_section_title
;
Structure prediction by ZEFSAII (Michael W. Deem and Ramdas Pophale) SiO2 
 PCOD9157468
Probable space group: P 21/M
;
_chemical_formula_sum "Si O2"
_cell_formula_units_Z 32
_cell_length_a 12.353793
_cell_length_b 20.645394
_cell_length_c 9.484135
_cell_angle_alpha 90.000000
_cell_angle_beta 47.571301
_cell_angle_gamma 90.000000
_cell_volume 1785.446010
_symmetry_space_group_name_H-M "P 21/M"
_symmetry_group_IT_number 11
_symmetry_cell_setting 'monoclinic'
loop_
_space_group_symop_operation_xyz
x,y,z
-x,1/2+y,-z
-x,-y,-z
x,1/2-y,z
loop_
_atom_site_type_symbol
_atom_site_label
_atom_site_fract_x
_atom_site_fract_y
_atom_site_fract_z
Si Si1 0.607856 0.322859 0.917983
Si Si2 0.105398 0.898265 0.348876
Si Si3 0.210585 0.394739 0.470468
Si Si4 0.133940 0.964345 0.628769
Si Si5 0.819587 0.502601 0.961609
Si Si6 0.624327 0.056217 0.377627
Si Si7 0.520454 0.675850 0.652181
Si Si8 0.408224 0.436846 0.033188
O O1 0.575681 0.250000 0.900962
O O2 0.776227 0.341790 0.753443
O O3 0.561259 0.328525 0.123793
O O4 0.516785 0.377267 0.916355
O O5 0.105855 0.936971 0.496342
O O6 0.945593 0.871981 0.449811
O O7 0.152065 0.949617 0.186873
O O8 0.177989 0.459876 0.586186
O O9 0.311079 0.344340 0.465250
O O10 0.304544 0.418276 0.254363
O O11 0.276680 0.931608 0.571382
O O12 0.975928 0.962173 0.845436
O O13 0.694051 0.548686 0.009009
O O14 0.746849 0.468520 0.158766
O O15 0.549021 0.121214 0.386141
O O16 0.500000 0.000000 0.500000
O O17 0.508584 0.750000 0.613342
O O18 0.500000 0.500000 0.000000
#
# Coordination Sequence:
#
# PCOD9157468 Si02
#       8
#     4   4   4   4   4   4   4   4
#     4  10  21  34  56  87 116 150 196 243 294 351
#     4  11  19  35  60  87 122 148 190 241 302 351
#     4  10  18  33  56  89 112 143 193 241 289 348
#     4  11  21  35  57  90 121 150 186 245 298 351
#     4  11  20  36  57  87 117 151 190 245 295 343
#     4  12  24  37  58  90 118 155 204 243 290 350
#     4  10  21  40  59  81 116 161 200 242 293 352
#     4  11  17  31  58  83 112 148 189 239 296 335
#
# _framework density 17.922692000000001
#
# number of rings (size 3 to 8) (size 9 to 14) (size 15 to 20)
#    0.000    1.250    6.250    1.875    1.750    0.500 
#    0.000    0.625    0.000    0.750    0.000    0.000 
#    0.000    0.000    0.000    0.000    0.000    0.000 
#
# Total GULP energy -178574.724978 kJ/mol
# GULP energy per Si atom -5580.460156 kJ/mol
# Density = 1.788190 g / cm^3
# Si number density = 17.922692 Si / 1000 Ang^3
#
#
#
# Elastic Constant Matrix: (Units=GPa)
#
#
# Indices 1 2 3 4 5 6 
#
# 1 108.7114 38.3296 30.0349 0.0000 -26.5414 0.0000
# 2 38.3296 100.2889 19.0000 0.0000 -14.7085 0.0000
# 3 30.0349 19.0000 64.7405 0.0000 -19.9205 0.0000
# 4 0.0000 0.0000 0.0000 15.5789 0.0000 1.6694
# 5 -26.5414 -14.7085 -19.9205 0.0000 30.7696 0.0000
# 6 0.0000 0.0000 0.0000 1.6694 0.0000 24.7794
#
#
#
# Elastic Compliance Matrix: (Units=1/GPa)
#
#
# Indices 1 2 3 4 5 6 
#
# 1 0.013037 -0.003318 -0.002625 0.000000 0.007960 0.000000
# 2 -0.003318 0.011770 -0.001329 0.000000 0.001904 0.000000
# 3 -0.002625 -0.001329 0.020182 0.000000 0.010166 0.000000
# 4 0.000000 0.000000 0.000000 0.064656 0.000000 -0.004356
# 5 0.007960 0.001904 0.010166 0.000000 0.046858 0.000000
# 6 0.000000 0.000000 0.000000 -0.004356 0.000000 0.040650
#
#
# Mechanical properties :
#
#
# Convention : Reuss Voigt Hill
#
# Bulk Modulus (GPa) = 32.84599 49.82996 41.33797
# Shear Modulus (GPa) = 22.53807 26.65067 24.59437
#
# Velocity S-wave (km/s) = 3.54999 3.86032 3.70840
# Velocity P-wave (km/s) = 5.93039 6.90887 6.43825
#
# Compressibility (1/GPa) = 0.03044512
#
# Stress axis : x y z
#
# Youngs Moduli (GPa) = 76.70330 84.95936 49.54792
#
# Poissons Ratio (x) = 0.28189 0.13008
# Poissons Ratio (y) = 0.25450 0.06586
# Poissons Ratio (z) = 0.20137 0.11293
#
# Static dielectric constant tensor:
#      x y z
#    x 1.666680 0.000000 0.011620 
#    y 0.000000 1.613190 0.000000 
#    z 0.011620 0.000000 1.644580 
# 
# From -- ./inp_files/19147.got.cif
#   From: 2010.05.17/outbox.cif.g08.bks.cpg/sg11_10_cif.got.tgz:19147.got - 2010.06.03 12:22:45.
