data_PCOD9157634
_publ_section_title
;
Structure prediction by ZEFSAII (Michael W. Deem and Ramdas Pophale) SiO2 
 PCOD9157634
Probable space group: P 21/M
;
_chemical_formula_sum "Si O2"
_cell_formula_units_Z 32
_cell_length_a 17.352611
_cell_length_b 17.056250
_cell_length_c 11.603435
_cell_angle_alpha 90.000000
_cell_angle_beta 30.245960
_cell_angle_gamma 90.000000
_cell_volume 1729.888748
_symmetry_space_group_name_H-M "P 21/M"
_symmetry_group_IT_number 11
_symmetry_cell_setting 'monoclinic'
loop_
_space_group_symop_operation_xyz
x,y,z
-x,1/2+y,-z
-x,-y,-z
x,1/2-y,z
loop_
_atom_site_type_symbol
_atom_site_label
_atom_site_fract_x
_atom_site_fract_y
_atom_site_fract_z
Si Si1 0.359210 0.440701 0.701314
Si Si2 0.823065 0.062553 0.195265
Si Si3 0.555378 0.061939 0.064464
Si Si4 0.624869 0.660973 0.896352
Si Si5 0.141723 0.028580 0.394921
Si Si6 0.392212 0.342027 0.436454
Si Si7 0.520322 0.096713 0.710070
Si Si8 0.893862 0.936012 0.292301
O O1 0.500000 0.500000 0.500000
O O2 0.220278 0.495042 0.841877
O O3 0.373935 0.371433 0.590466
O O4 0.377604 0.412647 0.807201
O O5 0.670959 0.106162 0.436813
O O6 0.876005 0.014980 0.239679
O O7 0.959297 0.106692 0.954990
O O8 0.461943 0.106119 0.084888
O O9 0.547378 0.122184 0.181423
O O10 0.473454 0.984697 0.224688
O O11 0.719025 0.033025 0.807272
O O12 0.651584 0.750000 0.821685
O O13 0.777753 0.613116 0.734458
O O14 0.515809 0.660971 0.148918
O O15 0.096251 0.039398 0.587648
O O16 0.000000 0.000000 0.500000
O O17 0.388335 0.250000 0.431732
O O18 0.253203 0.382229 0.545113
#
# Coordination Sequence:
#
# PCOD9157634 Si02
#       8
#     4   4   4   4   4   4   4   4
#     4   9  17  32  55  85 114 143 189 242 289 355
#     4   9  17  31  56  82 111 147 190 240 284 346
#     4  11  20  38  63  86 114 158 209 250 288 366
#     4  11  23  39  62  87 122 164 206 257 306 358
#     4  11  24  37  61  91 119 157 203 252 305 365
#     4  11  21  35  57  86 116 154 201 249 298 353
#     4  10  18  34  60  87 113 147 200 246 294 362
#     4  10  19  33  53  84 116 148 193 240 295 347
#
# _framework density 18.4983
#
# number of rings (size 3 to 8) (size 9 to 14) (size 15 to 20)
#    0.000    1.750    5.000    2.625    3.500    0.500 
#    0.000    1.875    0.000    3.750    0.000    0.000 
#    0.000    0.000    0.000    0.000    0.000    0.000 
#
# Total GULP energy -178145.480592 kJ/mol
# GULP energy per Si atom -5567.046269 kJ/mol
# Density = 1.845620 g / cm^3
# Si number density = 18.498300 Si / 1000 Ang^3
#
#
#
# Elastic Constant Matrix: (Units=GPa)
#
#
# Indices 1 2 3 4 5 6 
#
# 1 95.7344 41.8486 33.3808 0.0000 5.5160 0.0000
# 2 41.8486 100.3288 30.6814 0.0000 -1.7561 0.0000
# 3 33.3808 30.6814 116.3209 0.0000 5.7123 0.0000
# 4 0.0000 0.0000 0.0000 16.8945 0.0000 2.4839
# 5 5.5160 -1.7561 5.7123 0.0000 30.4826 0.0000
# 6 0.0000 0.0000 0.0000 2.4839 0.0000 10.5962
#
#
#
# Elastic Compliance Matrix: (Units=1/GPa)
#
#
# Indices 1 2 3 4 5 6 
#
# 1 0.013611 -0.004957 -0.002486 0.000000 -0.002283 0.000000
# 2 -0.004957 0.012689 -0.002023 0.000000 0.002007 0.000000
# 3 -0.002486 -0.002023 0.009919 0.000000 -0.001525 0.000000
# 4 0.000000 0.000000 0.000000 0.061304 0.000000 -0.014371
# 5 -0.002283 0.002007 -0.001525 0.000000 0.033620 0.000000
# 6 0.000000 0.000000 0.000000 -0.014371 0.000000 0.097743
#
#
# Mechanical properties :
#
#
# Convention : Reuss Voigt Hill
#
# Bulk Modulus (GPa) = 57.85016 58.24505 58.04761
# Shear Modulus (GPa) = 19.71771 25.35953 22.53862
#
# Velocity S-wave (km/s) = 3.26838 3.70660 3.49437
# Velocity P-wave (km/s) = 6.75161 7.06212 6.90861
#
# Compressibility (1/GPa) = 0.01728604
#
# Stress axis : x y z
#
# Youngs Moduli (GPa) = 73.47082 78.81114 100.81763
#
# Poissons Ratio (x) = 0.39066 0.25067
# Poissons Ratio (y) = 0.36419 0.20394
# Poissons Ratio (z) = 0.18268 0.15943
#
# Static dielectric constant tensor:
#      x y z
#    x 1.698220 0.000000 0.001410 
#    y 0.000000 1.630600 0.000000 
#    z 0.001410 0.000000 1.749230 
# 
# From -- ./inp_files/41818.got.cif
#   From: 2010.05.17/outbox.cif.g08.bks.cpg/sg11_21_cif.got.tgz:41818.got - 2010.06.03 12:22:45.
