data_PCOD9157194
_publ_section_title
;
Structure prediction by ZEFSAII (Michael W. Deem and Ramdas Pophale) SiO2 
 PCOD9157194
Probable space group: P 21/M
;
_chemical_formula_sum "Si O2"
_cell_formula_units_Z 28
_cell_length_a 12.349501
_cell_length_b 26.957118
_cell_length_c 5.033058
_cell_angle_alpha 90.000000
_cell_angle_beta 100.182226
_cell_angle_gamma 90.000000
_cell_volume 1649.151091
_symmetry_space_group_name_H-M "P 21/M"
_symmetry_group_IT_number 11
_symmetry_cell_setting 'monoclinic'
loop_
_space_group_symop_operation_xyz
x,y,z
-x,1/2+y,-z
-x,-y,-z
x,1/2-y,z
loop_
_atom_site_type_symbol
_atom_site_label
_atom_site_fract_x
_atom_site_fract_y
_atom_site_fract_z
Si Si1 0.423097 0.991006 0.216500
Si Si2 0.866367 0.055120 0.539597
Si Si3 0.799790 0.547941 0.763406
Si Si4 0.175179 0.693586 0.832611
Si Si5 0.739795 0.092692 0.976994
Si Si6 0.980029 0.193499 0.735353
Si Si7 0.103996 0.096412 0.666794
O O1 0.320285 0.028539 0.204062
O O2 0.500000 0.000000 0.500000
O O3 0.368896 0.936329 0.163004
O O4 0.500000 0.000000 0.000000
O O5 0.790930 0.062076 0.247472
O O6 0.988521 0.072080 0.524551
O O7 0.857188 0.000308 0.656328
O O8 0.809150 0.588238 0.532020
O O9 0.858901 0.568239 0.050868
O O10 0.217918 0.750000 0.875122
O O11 0.260927 0.649693 0.930090
O O12 0.118201 0.687320 0.522218
O O13 0.075694 0.688128 0.000854
O O14 0.821244 0.088609 0.761324
O O15 0.020518 0.250000 0.725146
O O16 0.072457 0.152775 0.720675
#
# Coordination Sequence:
#
# PCOD9157194 Si02
#       7
#     4   4   4   4   4   4   4
#     4  11  23  40  55  72 101 133 180 229 269 311
#     4  11  20  32  49  76 116 138 170 198 255 311
#     4  11  23  33  51  78 100 140 179 213 256 319
#     4  10  18  32  50  76 107 139 173 206 248 313
#     4  11  19  34  54  78 102 143 173 210 266 317
#     4  10  20  32  50  74 109 149 175 199 245 305
#     4  12  19  33  51  76 113 140 172 205 250 308
#
# _framework density 16.978432999999999
#
# number of rings (size 3 to 8) (size 9 to 14) (size 15 to 20)
#    0.000    1.143    2.857    6.857    0.000    0.000 
#    0.000    0.000    0.000    0.000    0.000    6.000 
#    0.000    0.000    0.000    0.000    0.000    0.000 
#
# Total GULP energy -156286.732608 kJ/mol
# GULP energy per Si atom -5581.669022 kJ/mol
# Density = 1.693979 g / cm^3
# Si number density = 16.978433 Si / 1000 Ang^3
#
#
#
# Elastic Constant Matrix: (Units=GPa)
#
#
# Indices 1 2 3 4 5 6 
#
# 1 55.6044 44.2780 7.4960 0.0000 -5.0365 0.0000
# 2 44.2780 113.4011 12.6604 0.0000 10.1553 0.0000
# 3 7.4960 12.6604 83.7972 0.0000 2.2703 0.0000
# 4 0.0000 0.0000 0.0000 24.1951 0.0000 -0.5059
# 5 -5.0365 10.1553 2.2703 0.0000 31.9642 0.0000
# 6 0.0000 0.0000 0.0000 -0.5059 0.0000 19.3085
#
#
#
# Elastic Compliance Matrix: (Units=1/GPa)
#
#
# Indices 1 2 3 4 5 6 
#
# 1 0.028085 -0.011589 -0.000983 0.000000 0.008177 0.000000
# 2 -0.011589 0.014001 -0.000910 0.000000 -0.006209 0.000000
# 3 -0.000983 -0.000910 0.012179 0.000000 -0.000731 0.000000
# 4 0.000000 0.000000 0.000000 0.041353 0.000000 0.001083
# 5 0.008177 -0.006209 -0.000731 0.000000 0.034598 0.000000
# 6 0.000000 0.000000 0.000000 0.001083 0.000000 0.051819
#
#
# Mechanical properties :
#
#
# Convention : Reuss Voigt Hill
#
# Bulk Modulus (GPa) = 36.62878 42.40794 39.51836
# Shear Modulus (GPa) = 22.92529 27.65145 25.28837
#
# Velocity S-wave (km/s) = 3.67857 4.04000 3.86351
# Velocity P-wave (km/s) = 6.29786 6.84060 6.57484
#
# Compressibility (1/GPa) = 0.02730094
#
# Stress axis : x y z
#
# Youngs Moduli (GPa) = 35.60574 71.42464 82.10955
#
# Poissons Ratio (x) = 0.82771 0.08072
# Poissons Ratio (y) = 0.41262 0.07475
# Poissons Ratio (z) = 0.03500 0.06503
#
# Static dielectric constant tensor:
#      x y z
#    x 1.550610 0.000000 -0.004820 
#    y 0.000000 1.631230 0.000000 
#    z -0.004820 0.000000 1.583150 
# 
# From -- ./inp_files/5537.got.cif
#   From: 2010.05.17/outbox.cif.g08.bks.cpg/sg11_3_cif.got.tgz:5537.got - 2010.06.03 12:22:45.
