data_PCOD9157763
_publ_section_title
;
Structure prediction by ZEFSAII (Michael W. Deem and Ramdas Pophale) SiO2 
 PCOD9157763
Probable space group: P 21/M
;
_chemical_formula_sum "Si O2"
_cell_formula_units_Z 28
_cell_length_a 8.855324
_cell_length_b 17.645463
_cell_length_c 12.394658
_cell_angle_alpha 90.000000
_cell_angle_beta 138.467904
_cell_angle_gamma 90.000000
_cell_volume 1284.137299
_symmetry_space_group_name_H-M "P 21/M"
_symmetry_group_IT_number 11
_symmetry_cell_setting 'monoclinic'
loop_
_space_group_symop_operation_xyz
x,y,z
-x,1/2+y,-z
-x,-y,-z
x,1/2-y,z
loop_
_atom_site_type_symbol
_atom_site_label
_atom_site_fract_x
_atom_site_fract_y
_atom_site_fract_z
Si Si1 0.824338 0.034415 0.066462
Si Si2 0.339227 0.331213 0.038493
Si Si3 0.349236 0.525815 0.793951
Si Si4 0.664551 0.007655 0.446058
Si Si5 0.430002 0.334947 0.554150
Si Si6 0.748013 0.880277 0.767311
Si Si7 0.900321 0.101845 0.763624
O O1 0.807085 0.016941 0.185977
O O2 0.991050 0.101996 0.125202
O O3 0.957960 0.960828 0.092267
O O4 0.557824 0.034901 0.893417
O O5 0.441595 0.250000 0.071173
O O6 0.516263 0.396986 0.110273
O O7 0.277719 0.338527 0.132735
O O8 0.108722 0.343038 0.846892
O O9 0.238379 0.530199 0.618305
O O10 0.675155 0.916545 0.464352
O O11 0.405221 0.041931 0.307768
O O12 0.779870 0.055150 0.603484
O O13 0.372414 0.250000 0.565880
O O14 0.364654 0.335687 0.392382
O O15 0.699685 0.351179 0.711498
#
# Coordination Sequence:
#
# PCOD9157763 Si02
#       7
#     4   4   4   4   4   4   4
#     4  10  18  37  56  88 105 146 199 233 270 323
#     4  10  21  36  56  86 113 148 188 240 291 332
#     4   9  22  34  60  82 115 149 192 232 275 344
#     4  10  19  36  55  87 108 148 188 238 280 334
#     4  11  20  33  52  83 119 147 177 239 299 334
#     4  10  19  35  59  80 113 143 193 234 274 340
#     4  10  19  34  57  81 113 141 194 235 272 337
#
# _framework density 21.804523
#
# number of rings (size 3 to 8) (size 9 to 14) (size 15 to 20)
#    0.000    2.000    2.857    1.714    2.000    2.286 
#    0.000    2.143    0.000    8.571    0.000    0.000 
#    0.000    0.000    0.000    0.000    0.000    0.000 
#
# Total GULP energy -155997.467726 kJ/mol
# GULP energy per Si atom -5571.338133 kJ/mol
# Density = 2.175489 g / cm^3
# Si number density = 21.804523 Si / 1000 Ang^3
#
#
#
# Elastic Constant Matrix: (Units=GPa)
#
#
# Indices 1 2 3 4 5 6 
#
# 1 58.6199 11.0233 23.2713 0.0000 1.8427 0.0000
# 2 11.0233 116.6074 19.6173 0.0000 2.9521 0.0000
# 3 23.2713 19.6173 53.9400 0.0000 5.9922 0.0000
# 4 0.0000 0.0000 0.0000 12.9518 0.0000 1.2560
# 5 1.8427 2.9521 5.9922 0.0000 39.1485 0.0000
# 6 0.0000 0.0000 0.0000 1.2560 0.0000 11.1156
#
#
#
# Elastic Compliance Matrix: (Units=1/GPa)
#
#
# Indices 1 2 3 4 5 6 
#
# 1 0.020616 -0.000485 -0.008763 0.000000 0.000408 0.000000
# 2 -0.000485 0.009147 -0.003096 0.000000 -0.000193 0.000000
# 3 -0.008763 -0.003096 0.023779 0.000000 -0.002994 0.000000
# 4 0.000000 0.000000 0.000000 0.078065 0.000000 -0.008821
# 5 0.000408 -0.000193 -0.002994 0.000000 0.025997 0.000000
# 6 0.000000 0.000000 0.000000 -0.008821 0.000000 0.090960
#
#
# Mechanical properties :
#
#
# Convention : Reuss Voigt Hill
#
# Bulk Modulus (GPa) = 34.65809 37.44345 36.05077
# Shear Modulus (GPa) = 17.67588 24.32688 21.00138
#
# Velocity S-wave (km/s) = 2.85028 3.34380 3.10686
# Velocity P-wave (km/s) = 5.17316 5.66724 5.42583
#
# Compressibility (1/GPa) = 0.02885329
#
# Stress axis : x y z
#
# Youngs Moduli (GPa) = 48.50510 109.32087 42.05479
#
# Poissons Ratio (x) = 0.05301 0.36854
# Poissons Ratio (y) = 0.02352 0.13021
# Poissons Ratio (z) = 0.42507 0.33847
#
# Static dielectric constant tensor:
#      x y z
#    x 1.811690 0.000000 -0.001800 
#    y 0.000000 1.842290 0.000000 
#    z -0.001800 0.000000 1.898110 
# 
# From -- ./inp_files/48019.got.cif
#   From: 2010.05.17/outbox.cif.g08.bks.cpg/sg11_25_cif.got.tgz:48019.got - 2010.06.03 12:22:45.
