data_PCOD9157660
_publ_section_title
;
Structure prediction by ZEFSAII (Michael W. Deem and Ramdas Pophale) SiO2 
 PCOD9157660
Probable space group: P 21/M
;
_chemical_formula_sum "Si O2"
_cell_formula_units_Z 30
_cell_length_a 22.354743
_cell_length_b 9.093301
_cell_length_c 11.823638
_cell_angle_alpha 90.000000
_cell_angle_beta 30.468542
_cell_angle_gamma 90.000000
_cell_volume 1218.726318
_symmetry_space_group_name_H-M "P 21/M"
_symmetry_group_IT_number 11
_symmetry_cell_setting 'monoclinic'
loop_
_space_group_symop_operation_xyz
x,y,z
-x,1/2+y,-z
-x,-y,-z
x,1/2-y,z
loop_
_atom_site_type_symbol
_atom_site_label
_atom_site_fract_x
_atom_site_fract_y
_atom_site_fract_z
Si Si1 0.531649 0.986444 0.288252
Si Si2 0.794788 0.074716 0.187008
Si Si3 0.786117 0.915930 0.967059
Si Si4 0.277080 0.427656 0.479955
Si Si5 0.040792 0.925122 0.766660
Si Si6 0.547929 0.250000 0.435817
Si Si7 0.118680 0.081324 0.426850
Si Si8 0.390714 0.419345 0.072115
O O1 0.654645 0.909229 0.128803
O O2 0.436539 0.875066 0.490905
O O3 0.526196 0.127220 0.373570
O O4 0.545730 0.007364 0.131728
O O5 0.795909 0.250000 0.201565
O O6 0.783096 0.029656 0.074044
O O7 0.713380 0.984944 0.408034
O O8 0.926099 0.008727 0.998114
O O9 0.814505 0.750000 0.961346
O O10 0.867337 0.957113 0.727883
O O11 0.267842 0.250000 0.491844
O O12 0.157996 0.505523 0.629507
O O13 0.376610 0.470857 0.224769
O O14 0.035355 0.750000 0.792306
O O15 0.050839 0.967668 0.616857
O O16 0.073057 0.250000 0.511998
O O17 0.253002 0.084592 0.255849
O O18 0.434239 0.250000 0.998160
#
# Coordination Sequence:
#
# PCOD9157660 Si02
#       8
#     4   4   4   4   4   2   4   4
#     4  10  18  35  54  90 117 141 165 207 257 320
#     4  12  25  37  51  75 104 142 187 229 272 314
#     4  10  20  37  56  75 111 148 178 214 262 327
#     4  10  20  37  57  76 101 142 188 230 269 306
#     4  11  21  35  54  77 106 137 181 235 275 312
#     4  10  20  30  58  88 120 138 166 202 260 318
#     4   8  16  32  53  75 101 142 180 217 268 313
#     4   8  14  30  54  77 107 139 171 213 261 308
#
# _framework density 24.615863000000001
#
# number of rings (size 3 to 8) (size 9 to 14) (size 15 to 20)
#    0.000    2.133    1.333    4.800    0.933    1.067 
#   10.800    0.000    0.000    0.000    0.000    5.600 
#    0.000    0.000    0.000    0.000    0.000    0.000 
#
# Total GULP energy -167289.362627 kJ/mol
# GULP energy per Si atom -5576.312088 kJ/mol
# Density = 2.455984 g / cm^3
# Si number density = 24.615863 Si / 1000 Ang^3
#
#
#
# Elastic Constant Matrix: (Units=GPa)
#
#
# Indices 1 2 3 4 5 6 
#
# 1 98.8100 23.1177 31.1982 0.0000 34.2321 0.0000
# 2 23.1177 161.4141 74.5585 0.0000 19.5791 0.0000
# 3 31.1982 74.5585 160.2100 0.0000 35.3435 0.0000
# 4 0.0000 0.0000 0.0000 14.3457 0.0000 6.3849
# 5 34.2321 19.5791 35.3435 0.0000 51.7285 0.0000
# 6 0.0000 0.0000 0.0000 6.3849 0.0000 23.1407
#
#
#
# Elastic Compliance Matrix: (Units=1/GPa)
#
#
# Indices 1 2 3 4 5 6 
#
# 1 0.013270 -0.000698 -0.000448 0.000000 -0.008211 0.000000
# 2 -0.000698 0.007942 -0.003531 0.000000 -0.000132 0.000000
# 3 -0.000448 -0.003531 0.008963 0.000000 -0.004491 0.000000
# 4 0.000000 0.000000 0.000000 0.079466 0.000000 -0.021926
# 5 -0.008211 -0.000132 -0.004491 0.000000 0.027884 0.000000
# 6 0.000000 0.000000 0.000000 -0.021926 0.000000 0.049264
#
#
# Mechanical properties :
#
#
# Convention : Reuss Voigt Hill
#
# Bulk Modulus (GPa) = 48.02662 75.35364 61.69013
# Shear Modulus (GPa) = 24.62046 37.28029 30.95038
#
# Velocity S-wave (km/s) = 3.16600 3.89586 3.54974
# Velocity P-wave (km/s) = 5.73738 7.13549 6.47429
#
# Compressibility (1/GPa) = 0.02082179
#
# Stress axis : x y z
#
# Youngs Moduli (GPa) = 75.35856 125.90892 111.56764
#
# Poissons Ratio (x) = 0.08783 0.04998
# Poissons Ratio (y) = 0.05257 0.39397
# Poissons Ratio (z) = 0.03376 0.44462
#
# Static dielectric constant tensor:
#      x y z
#    x 2.087320 0.000000 -0.082320 
#    y 0.000000 1.828300 0.000000 
#    z -0.082320 0.000000 2.025170 
# 
# From -- ./inp_files/45046.got.cif
#   From: 2010.05.17/outbox.cif.g08.bks.cpg/sg11_23_cif.got.tgz:45046.got - 2010.06.03 12:22:45.
