data_PCOD9157769
_publ_section_title
;
Structure prediction by ZEFSAII (Michael W. Deem and Ramdas Pophale) SiO2 
 PCOD9157769
Probable space group: P 21/M
;
_chemical_formula_sum "Si O2"
_cell_formula_units_Z 20
_cell_length_a 14.288797
_cell_length_b 13.302241
_cell_length_c 9.845213
_cell_angle_alpha 90.000000
_cell_angle_beta 28.270911
_cell_angle_gamma 90.000000
_cell_volume 886.329091
_symmetry_space_group_name_H-M "P 21/M"
_symmetry_group_IT_number 11
_symmetry_cell_setting 'monoclinic'
loop_
_space_group_symop_operation_xyz
x,y,z
-x,1/2+y,-z
-x,-y,-z
x,1/2-y,z
loop_
_atom_site_type_symbol
_atom_site_label
_atom_site_fract_x
_atom_site_fract_y
_atom_site_fract_z
Si Si1 0.097276 0.413833 0.694664
Si Si2 0.127125 0.636707 0.751387
Si Si3 0.502000 0.615313 0.956960
Si Si4 0.569094 0.642525 0.183565
Si Si5 0.173561 0.947398 0.190997
O O1 0.931162 0.389431 0.796731
O O2 0.110613 0.536824 0.680272
O O3 0.304436 0.369007 0.381082
O O4 0.030498 0.377895 0.927336
O O5 0.107517 0.750000 0.717946
O O6 0.350555 0.630090 0.525189
O O7 0.500000 0.500000 0.000000
O O8 0.525350 0.655680 0.078379
O O9 0.306909 0.624416 0.115378
O O10 0.656949 0.750000 0.118845
O O11 0.695284 0.540955 0.034294
O O12 0.000000 0.000000 0.500000
#
# Coordination Sequence:
#
# PCOD9157769 Si02
#       5
#     4   4   4   4   4
#     4  11  21  38  64  85 116 160 192 244 298 346
#     4  10  22  40  58  85 122 157 196 243 296 350
#     4  10  18  37  59  86 112 147 193 233 293 348
#     4  10  20  37  60  85 118 154 196 246 288 348
#     4  11  19  35  62  88 111 147 197 238 290 351
#
# _framework density 22.564983000000002
#
# number of rings (size 3 to 8) (size 9 to 14) (size 15 to 20)
#    0.000    1.600    8.000    0.000    0.000    2.400 
#    0.000    2.000    0.000    0.000    0.000    0.000 
#    0.000    0.000    0.000    0.000    0.000    0.000 
#
# Total GULP energy -111494.354304 kJ/mol
# GULP energy per Si atom -5574.717715 kJ/mol
# Density = 2.251362 g / cm^3
# Si number density = 22.564983 Si / 1000 Ang^3
#
#
#
# Elastic Constant Matrix: (Units=GPa)
#
#
# Indices 1 2 3 4 5 6 
#
# 1 62.1122 -15.5411 8.7703 0.0000 -22.1185 0.0000
# 2 -15.5411 94.1693 -2.5039 0.0000 -5.7830 0.0000
# 3 8.7703 -2.5039 137.4537 0.0000 -0.1496 0.0000
# 4 0.0000 0.0000 0.0000-1645.1519 0.0000 -304.3169
# 5 -22.1185 -5.7830 -0.1496 0.0000 34.7177 0.0000
# 6 0.0000 0.0000 0.0000 -304.3169 0.0000 -55.2147
#
#
#
# Elastic Compliance Matrix: (Units=1/GPa)
#
#
# Indices 1 2 3 4 5 6 
#
# 1 0.022951 0.004697 -0.001362 0.000000 0.015399 0.000000
# 2 0.004697 0.011696 -0.000081 0.000000 0.004940 0.000000
# 3 -0.001362 -0.000081 0.007360 0.000000 -0.000850 0.000000
# 4 0.000000 0.000000 0.000000 0.031157 0.000000 -0.171723
# 5 0.015399 0.004940 -0.000850 0.000000 0.039433 0.000000
# 6 0.000000 0.000000 0.000000 -0.171723 0.000000 0.928341
#
#
# Mechanical properties :
#
#
# Convention : Reuss Voigt Hill
#
# Bulk Modulus (GPa) = 20.61268 30.57619 25.59444
# Shear Modulus (GPa) = 4.75918 -312.92912 -154.08497
#
# Velocity S-wave (km/s) = 1.45385 -11.78898 -8.27244
# Velocity P-wave (km/s) = 3.46018 13.10447 8.93740
#
# Compressibility (1/GPa) = 0.04851382
#
# Stress axis : x y z
#
# Youngs Moduli (GPa) = 43.57104 85.50236 135.87545
#
# Poissons Ratio (x) = -0.40161 0.18507
# Poissons Ratio (y) = -0.20466 0.01104
# Poissons Ratio (z) = 0.05935 0.00695
#
# Static dielectric constant tensor:
#      x y z
#    x 1.886890 0.000000 -0.028270 
#    y 0.000000 1.892310 0.000000 
#    z -0.028270 0.000000 1.840720 
# 
# From -- ./inp_files/12251.got.cif
#   From: 2010.05.17/outbox.cif.g08.bks.cpg/sg11_7_cif.got.tgz:12251.got - 2010.06.03 12:22:45.
