data_PCOD9157116
_publ_section_title
;
Structure prediction by ZEFSAII (Michael W. Deem and Ramdas Pophale) SiO2 
 PCOD9157116
Probable space group: P 21/M
;
_chemical_formula_sum "Si O2"
_cell_formula_units_Z 28
_cell_length_a 12.883106
_cell_length_b 17.510476
_cell_length_c 7.618690
_cell_angle_alpha 90.000000
_cell_angle_beta 39.675686
_cell_angle_gamma 90.000000
_cell_volume 1097.285852
_symmetry_space_group_name_H-M "P 21/M"
_symmetry_group_IT_number 11
_symmetry_cell_setting 'monoclinic'
loop_
_space_group_symop_operation_xyz
x,y,z
-x,1/2+y,-z
-x,-y,-z
x,1/2-y,z
loop_
_atom_site_type_symbol
_atom_site_label
_atom_site_fract_x
_atom_site_fract_y
_atom_site_fract_z
Si Si1 0.091226 0.662185 0.715967
Si Si2 0.313975 0.022972 0.611793
Si Si3 0.346968 0.473965 0.958309
Si Si4 0.967743 0.834383 0.277813
Si Si5 0.401516 0.167347 0.360074
Si Si6 0.471677 0.660573 0.162941
Si Si7 0.916031 0.000803 0.400609
O O1 0.061872 0.750000 0.687853
O O2 0.286762 0.649311 0.466977
O O3 0.017897 0.588375 0.706361
O O4 0.031974 0.661542 0.993930
O O5 0.296360 0.995574 0.831880
O O6 0.368935 0.110549 0.559165
O O7 0.158877 0.012122 0.695264
O O8 0.461161 0.994366 0.298000
O O9 0.379235 0.384102 0.943616
O O10 0.225878 0.500490 0.267301
O O11 0.021679 0.750000 0.278948
O O12 0.771975 0.830246 0.513088
O O13 0.001438 0.917379 0.321122
O O14 0.449718 0.250000 0.361438
O O15 0.525440 0.140912 0.049210
O O16 0.504574 0.750000 0.131836
#
# Coordination Sequence:
#
# PCOD9157116 Si02
#       7
#     4   4   4   4   4   4   4
#     4  10  20  32  53  82 109 143 184 220 271 330
#     4  10  20  31  51  81 110 138 174 223 273 318
#     4  11  20  32  52  82 108 140 177 224 271 323
#     4   9  18  32  53  83 109 138 183 224 267 329
#     4   9  17  32  53  77 105 137 177 223 265 315
#     4  10  18  31  53  80 107 141 182 222 268 324
#     4  11  19  35  59  77 108 146 181 225 273 317
#
# _framework density 25.517507999999999
#
# number of rings (size 3 to 8) (size 9 to 14) (size 15 to 20)
#    0.000    2.000    4.286    1.714    0.000    0.571 
#    0.000    0.000    0.000    9.429    0.000    8.000 
#    0.000    0.000    0.000    0.000    0.000    0.000 
#
# Total GULP energy -156058.098944 kJ/mol
# GULP energy per Si atom -5573.503534 kJ/mol
# Density = 2.545943 g / cm^3
# Si number density = 25.517508 Si / 1000 Ang^3
#
#
#
# Elastic Constant Matrix: (Units=GPa)
#
#
# Indices 1 2 3 4 5 6 
#
# 1 34.9817 19.0607 16.4442 0.0000 10.5313 0.0000
# 2 19.0607 186.7860 50.6499 0.0000 -3.0014 0.0000
# 3 16.4442 50.6499 162.0839 0.0000 -10.0075 0.0000
# 4 0.0000 0.0000 0.0000 38.7863 0.0000 -7.9667
# 5 10.5313 -3.0014 -10.0075 0.0000 24.6178 0.0000
# 6 0.0000 0.0000 0.0000 -7.9667 0.0000 4.2374
#
#
#
# Elastic Compliance Matrix: (Units=1/GPa)
#
#
# Indices 1 2 3 4 5 6 
#
# 1 0.037546 -0.003044 -0.003972 0.000000 -0.018048 0.000000
# 2 -0.003044 0.006096 -0.001508 0.000000 0.001433 0.000000
# 3 -0.003972 -0.001508 0.007321 0.000000 0.004492 0.000000
# 4 0.000000 0.000000 0.000000 0.042002 0.000000 0.078968
# 5 -0.018048 0.001433 0.004492 0.000000 0.050342 0.000000
# 6 0.000000 0.000000 0.000000 0.078968 0.000000 0.384458
#
#
# Mechanical properties :
#
#
# Convention : Reuss Voigt Hill
#
# Bulk Modulus (GPa) = 29.48573 61.79569 45.64071
# Shear Modulus (GPa) = 8.99089 33.37477 21.18283
#
# Velocity S-wave (km/s) = 1.87911 3.62044 2.88432
# Velocity P-wave (km/s) = 4.03587 6.46114 5.38677
#
# Compressibility (1/GPa) = 0.03391471
#
# Stress axis : x y z
#
# Youngs Moduli (GPa) = 26.63421 164.03575 136.59117
#
# Poissons Ratio (x) = 0.49937 0.54257
# Poissons Ratio (y) = 0.08108 0.20594
# Poissons Ratio (z) = 0.10580 0.24732
#
# Static dielectric constant tensor:
#      x y z
#    x 2.029270 0.000000 -0.020750 
#    y 0.000000 2.215480 0.000000 
#    z -0.020750 0.000000 2.025840 
# 
# From -- ./inp_files/27003.got.cif
#   From: 2010.05.17/outbox.cif.g08.bks.cpg/sg11_14_cif.got.tgz:27003.got - 2010.06.03 12:22:45.
