data_PCOD9157226
_publ_section_title
;
Structure prediction by ZEFSAII (Michael W. Deem and Ramdas Pophale) SiO2 
 PCOD9157226
Probable space group: P 21/M
;
_chemical_formula_sum "Si O2"
_cell_formula_units_Z 28
_cell_length_a 22.043437
_cell_length_b 8.838644
_cell_length_c 15.496825
_cell_angle_alpha 90.000000
_cell_angle_beta 155.794338
_cell_angle_gamma 90.000000
_cell_volume 1237.956789
_symmetry_space_group_name_H-M "P 21/M"
_symmetry_group_IT_number 11
_symmetry_cell_setting 'monoclinic'
loop_
_space_group_symop_operation_xyz
x,y,z
-x,1/2+y,-z
-x,-y,-z
x,1/2-y,z
loop_
_atom_site_type_symbol
_atom_site_label
_atom_site_fract_x
_atom_site_fract_y
_atom_site_fract_z
Si Si1 0.437656 0.569063 0.006785
Si Si2 0.281370 0.933005 0.559375
Si Si3 0.193926 0.571796 0.812622
Si Si4 0.756045 0.071713 0.679264
Si Si5 0.564123 0.427014 0.720567
Si Si6 0.034505 0.926386 0.364008
Si Si7 0.792921 0.925436 0.898294
O O1 0.431782 0.750000 0.992429
O O2 0.563180 0.517660 0.236968
O O3 0.500000 0.500000 0.000000
O O4 0.278184 0.516469 0.835866
O O5 0.302254 0.750000 0.592073
O O6 0.202705 0.963454 0.366178
O O7 0.185705 0.984571 0.517684
O O8 0.166813 0.750000 0.768310
O O9 0.046637 0.497554 0.659363
O O10 0.318926 0.551477 0.049509
O O11 0.775276 0.250000 0.718130
O O12 0.582279 0.026706 0.460289
O O13 0.834633 0.980013 0.857144
O O14 0.523621 0.250000 0.665686
O O15 0.657095 0.474796 0.757040
O O16 0.056975 0.750000 0.412133
O O17 0.921254 0.938970 0.136041
O O18 0.748862 0.750000 0.838692
#
# Coordination Sequence:
#
# PCOD9157226 Si02
#       7
#     4   4   4   4   4   4   4
#     4  11  23  41  65  94 120 145 183 231 286 346
#     4  10  22  40  60  85 117 152 191 238 288 340
#     4   9  19  36  59  86 115 147 187 234 282 337
#     4  11  21  32  50  77 112 151 193 238 286 333
#     4  10  18  32  52  76 109 146 191 240 286 333
#     4   9  20  38  59  83 115 155 197 236 281 337
#     4  10  20  33  50  76 111 152 196 239 283 331
#
# _framework density 22.617913000000001
#
# number of rings (size 3 to 8) (size 9 to 14) (size 15 to 20)
#    0.000    2.000    1.429    2.143    0.000    4.000 
#    0.000    0.714    0.000    0.000    0.000    0.000 
#    0.000    0.000    0.000    0.000    0.000    0.000 
#
# Total GULP energy -156512.127220 kJ/mol
# GULP energy per Si atom -5589.718829 kJ/mol
# Density = 2.256643 g / cm^3
# Si number density = 22.617913 Si / 1000 Ang^3
#
#
#
# Elastic Constant Matrix: (Units=GPa)
#
#
# Indices 1 2 3 4 5 6 
#
# 1 181.4328 40.7419 33.0465 0.0000 13.2947 0.0000
# 2 40.7419 29.6771 3.8255 0.0000 2.9683 0.0000
# 3 33.0465 3.8255 59.3173 0.0000 6.5972 0.0000
# 4 0.0000 0.0000 0.0000 15.1349 0.0000 -1.6719
# 5 13.2947 2.9683 6.5972 0.0000 46.7500 0.0000
# 6 0.0000 0.0000 0.0000 -1.6719 0.0000 31.8928
#
#
#
# Elastic Compliance Matrix: (Units=1/GPa)
#
#
# Indices 1 2 3 4 5 6 
#
# 1 0.008968 -0.011659 -0.004107 0.000000 -0.001230 0.000000
# 2 -0.011659 0.049299 0.003348 0.000000 -0.000287 0.000000
# 3 -0.004107 0.003348 0.019125 0.000000 -0.001743 0.000000
# 4 0.000000 0.000000 0.000000 0.066457 0.000000 0.003484
# 5 -0.001230 -0.000287 -0.001743 0.000000 0.022004 0.000000
# 6 0.000000 0.000000 0.000000 0.003484 0.000000 0.031538
#
#
# Mechanical properties :
#
#
# Convention : Reuss Voigt Hill
#
# Bulk Modulus (GPa) = 19.02774 47.29500 33.16137
# Shear Modulus (GPa) = 20.85527 31.60978 26.23252
#
# Velocity S-wave (km/s) = 3.03985 3.74244 3.40930
# Velocity P-wave (km/s) = 4.55542 6.29526 5.49464
#
# Compressibility (1/GPa) = 0.05255484
#
# Stress axis : x y z
#
# Youngs Moduli (GPa) = 111.50569 20.28423 52.28814
#
# Poissons Ratio (x) = 0.23650 0.21477
# Poissons Ratio (y) = 1.30008 -0.17506
# Poissons Ratio (z) = 0.45801 -0.06791
#
# Static dielectric constant tensor:
#      x y z
#    x 1.879630 0.000000 -0.049120 
#    y 0.000000 1.754160 0.000000 
#    z -0.049120 0.000000 1.906580 
# 
# From -- ./inp_files/37637.got.cif
#   From: 2010.05.17/outbox.cif.g08.bks.cpg/sg11_19_cif.got.tgz:37637.got - 2010.06.03 12:22:45.
