data_PCOD9157645
_publ_section_title
;
Structure prediction by ZEFSAII (Michael W. Deem and Ramdas Pophale) SiO2 
 PCOD9157645
Probable space group: P 21/M
;
_chemical_formula_sum "Si O2"
_cell_formula_units_Z 32
_cell_length_a 24.647626
_cell_length_b 15.928172
_cell_length_c 8.558984
_cell_angle_alpha 90.000000
_cell_angle_beta 29.756777
_cell_angle_gamma 90.000000
_cell_volume 1667.724525
_symmetry_space_group_name_H-M "P 21/M"
_symmetry_group_IT_number 11
_symmetry_cell_setting 'monoclinic'
loop_
_space_group_symop_operation_xyz
x,y,z
-x,1/2+y,-z
-x,-y,-z
x,1/2-y,z
loop_
_atom_site_type_symbol
_atom_site_label
_atom_site_fract_x
_atom_site_fract_y
_atom_site_fract_z
Si Si1 0.877495 0.000819 0.869209
Si Si2 0.738621 0.155488 0.717218
Si Si3 0.492771 0.600053 0.204789
Si Si4 0.507231 0.100052 0.168634
Si Si5 0.261382 0.844513 0.910330
Si Si6 0.266811 0.343172 0.773512
Si Si7 0.122503 0.500819 0.756698
Si Si8 0.266812 0.343172 0.392450
O O1 0.810213 0.918931 0.980577
O O2 0.000000 0.000000 0.500000
O O3 0.813126 0.083979 0.978924
O O4 0.879808 0.997711 0.050477
O O5 0.767038 0.250000 0.594087
O O6 0.813123 0.083975 0.455445
O O7 0.612942 0.137060 0.987497
O O8 0.751361 0.151194 0.871591
O O9 0.500001 0.500000 0.212353
O O10 0.387058 0.637057 0.552214
O O11 0.480168 0.613507 0.049580
O O12 0.607748 0.639868 0.967739
O O13 0.392256 0.139869 0.506474
O O14 0.232963 0.750000 0.929291
O O15 0.232033 0.250000 0.909918
O O16 0.266189 0.344977 0.584536
O O17 0.189781 0.418926 0.531670
O O18 0.000000 0.500000 0.000000
O O19 0.232030 0.250000 0.429946
#
# Coordination Sequence:
#
# PCOD9157645 Si02
#       8
#     4   4   4   4   4   4   4   4
#     4  11  23  41  62  86 116 154 202 249 299 354
#     4  11  24  40  59  87 122 160 200 245 298 351
#     4  10  18  34  61  91 118 150 193 238 293 360
#     4  10  18  34  61  91 118 150 193 238 293 360
#     4  11  24  40  59  87 122 160 200 245 298 351
#     4   9  18  34  58  86 116 150 187 232 290 356
#     4  11  23  41  62  86 116 154 202 249 299 354
#     4   9  18  34  58  86 116 150 187 232 290 356
#
# _framework density 19.187822000000001
#
# number of rings (size 3 to 8) (size 9 to 14) (size 15 to 20)
#    0.000    1.750    2.500    2.250    0.000    4.500 
#    0.000    2.500    0.000    3.750    0.000    0.000 
#    0.000    0.000    0.000    0.000    0.000    0.000 
#
# Total GULP energy -178789.930961 kJ/mol
# GULP energy per Si atom -5587.185343 kJ/mol
# Density = 1.914415 g / cm^3
# Si number density = 19.187822 Si / 1000 Ang^3
#
#
#
# Elastic Constant Matrix: (Units=GPa)
#
#
# Indices 1 2 3 4 5 6 
#
# 1 53.3923 49.9228 25.4133 0.0000 -26.1134 0.0000
# 2 49.9228 177.8938 85.5407 0.0000 -22.8850 0.0000
# 3 25.4133 85.5407 132.6803 0.0000 -24.8231 0.0000
# 4 0.0000 0.0000 0.0000 3.2887 0.0000 9.3740
# 5 -26.1134 -22.8850 -24.8231 0.0000 33.4877 0.0000
# 6 0.0000 0.0000 0.0000 9.3740 0.0000 17.8869
#
#
#
# Elastic Compliance Matrix: (Units=1/GPa)
#
#
# Indices 1 2 3 4 5 6 
#
# 1 0.038420 -0.009024 0.003379 0.000000 0.026298 0.000000
# 2 -0.009024 0.010377 -0.005749 0.000000 -0.004206 0.000000
# 3 0.003379 -0.005749 0.012021 0.000000 0.007617 0.000000
# 4 0.000000 0.000000 0.000000 -0.615764 0.000000 0.322705
# 5 0.026298 -0.004206 0.007617 0.000000 0.053140 0.000000
# 6 0.000000 0.000000 0.000000 0.322705 0.000000 -0.113214
#
#
# Mechanical properties :
#
#
# Convention : Reuss Voigt Hill
#
# Bulk Modulus (GPa) = 26.29440 76.19112 51.24276
# Shear Modulus (GPa) = -8.62729 24.47194 7.92233
#
# Velocity S-wave (km/s) = -2.12273 3.57513 2.03416
# Velocity P-wave (km/s) = 2.77947 7.53899 5.68163
#
# Compressibility (1/GPa) = 0.03803091
#
# Stress axis : x y z
#
# Youngs Moduli (GPa) = 26.02802 96.36917 83.18751
#
# Poissons Ratio (x) = 0.86959 -0.28107
# Poissons Ratio (y) = 0.23487 0.47822
# Poissons Ratio (z) = -0.08794 0.55399
#
# Static dielectric constant tensor:
#      x y z
#    x 1.656040 0.000000 0.013170 
#    y 0.000000 1.676460 0.000000 
#    z 0.013170 0.000000 1.635530 
# 
# From -- ./inp_files/27787.got.cif
#   From: 2010.05.17/outbox.cif.g08.bks.cpg/sg11_14_cif.got.tgz:27787.got - 2010.06.03 12:22:45.
