data_PCOD9157552
_publ_section_title
;
Structure prediction by ZEFSAII (Michael W. Deem and Ramdas Pophale) SiO2 
 PCOD9157552
Probable space group: P 21/M
;
_chemical_formula_sum "Si O2"
_cell_formula_units_Z 24
_cell_length_a 13.130537
_cell_length_b 14.186610
_cell_length_c 22.976747
_cell_angle_alpha 90.000000
_cell_angle_beta 160.722312
_cell_angle_gamma 90.000000
_cell_volume 1413.047619
_symmetry_space_group_name_H-M "P 21/M"
_symmetry_group_IT_number 11
_symmetry_cell_setting 'monoclinic'
loop_
_space_group_symop_operation_xyz
x,y,z
-x,1/2+y,-z
-x,-y,-z
x,1/2-y,z
loop_
_atom_site_type_symbol
_atom_site_label
_atom_site_fract_x
_atom_site_fract_y
_atom_site_fract_z
Si Si1 0.336222 0.009053 0.506548
Si Si2 0.204327 0.857079 0.966904
Si Si3 0.601939 0.859138 0.564790
Si Si4 0.758789 0.139987 0.377989
Si Si5 0.209875 0.482566 0.701800
Si Si6 0.198178 0.066335 0.148605
O O1 0.379918 0.921247 0.485939
O O2 0.594043 0.996213 0.695400
O O3 0.010020 0.006416 0.362748
O O4 0.392882 0.099436 0.497065
O O5 0.323169 0.750000 0.027455
O O6 0.942988 0.870041 0.776731
O O7 0.025274 0.872361 0.931309
O O8 0.473650 0.933369 0.108931
O O9 0.518362 0.750000 0.521841
O O10 0.817679 0.250000 0.398751
O O11 0.440867 0.126578 0.242186
O O12 0.024997 0.092383 0.561347
O O13 0.739225 0.075563 0.309831
O O14 0.000000 0.000000 0.000000
#
# Coordination Sequence:
#
# PCOD9157552 Si02
#       6
#     4   4   4   4   4   4
#     4   9  20  35  55  77 104 137 172 219 265 309
#     4  10  19  32  54  78 102 137 181 219 255 310
#     4   9  19  37  57  75 100 138 180 218 261 312
#     4  10  20  34  51  75 111 147 174 212 265 318
#     4  10  20  33  52  79 108 138 176 218 263 319
#     4  10  18  34  55  75 108 140 176 213 260 316
#
# _framework density 16.984566999999998
#
# number of rings (size 3 to 8) (size 9 to 14) (size 15 to 20)
#    0.000    2.333    1.667    1.000    0.000    6.000 
#    0.000    1.667    0.000    0.000    0.000    0.000 
#    0.000    0.000    0.000    0.000    0.000    0.000 
#
# Total GULP energy -133855.307984 kJ/mol
# GULP energy per Si atom -5577.304499 kJ/mol
# Density = 1.694591 g / cm^3
# Si number density = 16.984567 Si / 1000 Ang^3
#
#
#
# Elastic Constant Matrix: (Units=GPa)
#
#
# Indices 1 2 3 4 5 6 
#
# 1 94.8408 20.6728 25.1003 0.0000 2.0837 0.0000
# 2 20.6728 73.5966 11.1903 0.0000 -11.7324 0.0000
# 3 25.1003 11.1903 20.6040 0.0000 6.1319 0.0000
# 4 0.0000 0.0000 0.0000 21.0888 0.0000 -0.6736
# 5 2.0837 -11.7324 6.1319 0.0000 17.4962 0.0000
# 6 0.0000 0.0000 0.0000 -0.6736 0.0000 13.4720
#
#
#
# Elastic Compliance Matrix: (Units=1/GPa)
#
#
# Indices 1 2 3 4 5 6 
#
# 1 0.016040 -0.000563 -0.020713 0.000000 0.004971 0.000000
# 2 -0.000563 0.018873 -0.014905 0.000000 0.017946 0.000000
# 3 -0.020713 -0.014905 0.093897 0.000000 -0.040436 0.000000
# 4 0.000000 0.000000 0.000000 0.047494 0.000000 0.002375
# 5 0.004971 0.017946 -0.040436 0.000000 0.082769 0.000000
# 6 0.000000 0.000000 0.000000 0.002375 0.000000 0.074347
#
#
# Mechanical properties :
#
#
# Convention : Reuss Voigt Hill
#
# Bulk Modulus (GPa) = 17.71592 33.66313 25.68952
# Shear Modulus (GPa) = 11.77584 19.21661 15.49622
#
# Velocity S-wave (km/s) = 2.63596 3.36730 3.02382
# Velocity P-wave (km/s) = 4.44046 5.91449 5.22967
#
# Compressibility (1/GPa) = 0.05644642
#
# Stress axis : x y z
#
# Youngs Moduli (GPa) = 62.34608 52.98559 10.64997
#
# Poissons Ratio (x) = 0.02985 0.22060
# Poissons Ratio (y) = 0.03513 0.15874
# Poissons Ratio (z) = 1.29139 0.78974
#
# Static dielectric constant tensor:
#      x y z
#    x 1.563810 0.000000 0.000450 
#    y 0.000000 1.556450 0.000000 
#    z 0.000450 0.000000 1.566420 
# 
# From -- ./inp_files/17194.got.cif
#   From: 2010.05.17/outbox.cif.g08.bks.cpg/sg11_9_cif.got.tgz:17194.got - 2010.06.03 12:22:45.
