data_PCOD9157784
_publ_section_title
;
Structure prediction by ZEFSAII (Michael W. Deem and Ramdas Pophale) SiO2 
 PCOD9157784
Probable space group: P 21/M
;
_chemical_formula_sum "Si O2"
_cell_formula_units_Z 26
_cell_length_a 10.436517
_cell_length_b 13.847840
_cell_length_c 8.107853
_cell_angle_alpha 90.000000
_cell_angle_beta 119.384825
_cell_angle_gamma 90.000000
_cell_volume 1021.017139
_symmetry_space_group_name_H-M "P 21/M"
_symmetry_group_IT_number 11
_symmetry_cell_setting 'monoclinic'
loop_
_space_group_symop_operation_xyz
x,y,z
-x,1/2+y,-z
-x,-y,-z
x,1/2-y,z
loop_
_atom_site_type_symbol
_atom_site_label
_atom_site_fract_x
_atom_site_fract_y
_atom_site_fract_z
Si Si1 0.771602 0.920246 0.096247
Si Si2 0.146233 0.606677 0.057631
Si Si3 0.126741 0.140663 0.340161
Si Si4 0.643823 0.421611 0.239458
Si Si5 0.358608 0.750000 0.006004
Si Si6 0.079248 0.577205 0.390669
Si Si7 0.589888 0.855249 0.692133
O O1 0.914596 0.881859 0.279856
O O2 0.667836 0.978438 0.157748
O O3 0.688948 0.851726 0.919954
O O4 0.834363 0.001727 0.010769
O O5 0.142250 0.602451 0.250330
O O6 0.280996 0.667623 0.074928
O O7 0.993829 0.644650 0.883278
O O8 0.123584 0.250000 0.411617
O O9 0.292444 0.124118 0.377081
O O10 0.081798 0.040743 0.402345
O O11 0.589890 0.335994 0.088611
O O12 0.806950 0.388051 0.400422
O O13 0.538254 0.427831 0.332138
O O14 0.523665 0.750000 0.614611
#
# Coordination Sequence:
#
# PCOD9157784 Si02
#       7
#     4   4   4   4   2   4   4
#     4  10  20  40  63  89 117 164 208 247 298 375
#     4  10  18  37  66  88 115 154 221 247 294 366
#     4  10  19  36  63  91 119 162 208 259 299 360
#     4  11  24  39  61  89 135 157 197 257 324 360
#     4  10  22  40  56  90 118 170 196 254 304 366
#     4  11  21  39  65  99 118 155 212 266 304 357
#     4  11  21  39  61  87 127 169 207 242 302 383
#
# _framework density 25.464804000000001
#
# number of rings (size 3 to 8) (size 9 to 14) (size 15 to 20)
#    0.000    1.538    4.615    1.846    0.000    1.231 
#    1.385    0.769    0.000    0.000    0.000    0.000 
#    0.000    0.000    0.000    0.000    0.000    0.000 
#
# Total GULP energy -144822.639581 kJ/mol
# GULP energy per Si atom -5570.101522 kJ/mol
# Density = 2.540685 g / cm^3
# Si number density = 25.464804 Si / 1000 Ang^3
#
#
#
# Elastic Constant Matrix: (Units=GPa)
#
#
# Indices 1 2 3 4 5 6 
#
# 1 95.1482 19.3749 1.9976 0.0000 6.0453 0.0000
# 2 19.3749 85.9546 -6.5258 0.0000 3.3449 0.0000
# 3 1.9976 -6.5258 29.3971 0.0000 -2.8945 0.0000
# 4 0.0000 0.0000 0.0000 12.7579 0.0000 -14.7133
# 5 6.0453 3.3449 -2.8945 0.0000 23.7121 0.0000
# 6 0.0000 0.0000 0.0000 -14.7133 0.0000 16.1297
#
#
#
# Elastic Compliance Matrix: (Units=1/GPa)
#
#
# Indices 1 2 3 4 5 6 
#
# 1 0.011234 -0.002548 -0.001595 0.000000 -0.002699 0.000000
# 2 -0.002548 0.012455 0.002864 0.000000 -0.000758 0.000000
# 3 -0.001595 0.002864 0.035184 0.000000 0.004298 0.000000
# 4 0.000000 0.000000 0.000000 -1.507486 0.000000 -1.375112
# 5 -0.002699 -0.000758 0.004298 0.000000 0.043492 0.000000
# 6 0.000000 0.000000 0.000000 -1.375112 0.000000 -1.192364
#
#
# Mechanical properties :
#
#
# Convention : Reuss Voigt Hill
#
# Bulk Modulus (GPa) = 17.75750 26.68812 22.22281
# Shear Modulus (GPa) = -1.94088 23.56347 10.81130
#
# Velocity S-wave (km/s) = -0.87398 3.04523 2.06272
# Velocity P-wave (km/s) = 2.44337 4.78202 3.79722
#
# Compressibility (1/GPa) = 0.05631424
#
# Stress axis : x y z
#
# Youngs Moduli (GPa) = 89.01710 80.28687 28.42184
#
# Poissons Ratio (x) = 0.20459 0.04533
# Poissons Ratio (y) = 0.22684 -0.08139
# Poissons Ratio (z) = 0.14197 -0.22990
#
# Static dielectric constant tensor:
#      x y z
#    x 2.102030 0.000000 0.006960 
#    y 0.000000 2.062830 0.000000 
#    z 0.006960 0.000000 2.041100 
# 
# From -- ./inp_files/17867.got.cif
#   From: 2010.05.17/outbox.cif.g08.bks.cpg/sg11_9_cif.got.tgz:17867.got - 2010.06.03 12:22:45.
