data_PCOD9157943
_publ_section_title
;
Structure prediction by ZEFSAII (Michael W. Deem and Ramdas Pophale) SiO2 
 PCOD9157943
Probable space group: P 21/M
;
_chemical_formula_sum "Si O2"
_cell_formula_units_Z 32
_cell_length_a 20.389342
_cell_length_b 7.669931
_cell_length_c 12.279301
_cell_angle_alpha 90.000000
_cell_angle_beta 120.355509
_cell_angle_gamma 90.000000
_cell_volume 1657.036133
_symmetry_space_group_name_H-M "P 21/M"
_symmetry_group_IT_number 11
_symmetry_cell_setting 'monoclinic'
loop_
_space_group_symop_operation_xyz
x,y,z
-x,1/2+y,-z
-x,-y,-z
x,1/2-y,z
loop_
_atom_site_type_symbol
_atom_site_label
_atom_site_fract_x
_atom_site_fract_y
_atom_site_fract_z
Si Si1 0.240875 0.042347 0.344811
Si Si2 0.959453 0.040299 0.080315
Si Si3 0.667450 0.547620 0.385246
Si Si4 0.269323 0.459620 0.893433
Si Si5 0.211599 0.956639 0.078288
Si Si6 0.416602 0.039968 0.887923
Si Si7 0.174515 0.452181 0.620937
Si Si8 0.909865 0.535798 0.655079
O O1 0.240253 0.250000 0.362671
O O2 0.307838 0.969925 0.478183
O O3 0.159323 0.980436 0.322933
O O4 0.246818 0.013438 0.222175
O O5 0.956183 0.250000 0.087223
O O6 0.012047 0.977528 0.224105
O O7 0.873934 0.969804 0.005925
O O8 0.000000 0.000000 0.000000
O O9 0.646018 0.750000 0.385601
O O10 0.604897 0.471628 0.250933
O O11 0.746481 0.546505 0.382220
O O12 0.268272 0.250000 0.879877
O O13 0.349614 0.522399 0.912343
O O14 0.200292 0.528538 0.758621
O O15 0.257825 0.499604 0.009240
O O16 0.204831 0.750000 0.079184
O O17 0.409996 0.250000 0.877403
O O18 0.500000 0.000000 0.000000
O O19 0.153294 0.250000 0.621177
O O20 0.112013 0.525787 0.484969
O O21 0.909787 0.750000 0.652388
#
# Coordination Sequence:
#
# PCOD9157943 Si02
#       8
#     4   4   4   4   4   4   4   4
#     4   9  15  27  49  69  87 121 165 198 228 274
#     4  10  19  30  44  65  93 124 159 200 242 282
#     4   7  12  24  45  73  96 114 149 196 229 265
#     4   9  18  33  51  69  92 125 163 192 219 277
#     4  11  22  31  42  66 101 131 155 195 245 281
#     4   9  17  31  53  80 103 121 148 188 233 279
#     4   7  11  23  45  68  85 109 154 202 230 258
#     4   8  13  24  45  68  86 111 154 203 241 272
#
# _framework density 19.311589999999999
#
# number of rings (size 3 to 8) (size 9 to 14) (size 15 to 20)
#    0.000    3.250    1.250    3.375    0.000    1.000 
#    0.000    1.250    0.000    6.000    0.000    0.000 
#    0.000    0.000    0.000    0.000    0.000    0.000 
#
# Total GULP energy -178184.005137 kJ/mol
# GULP energy per Si atom -5568.250161 kJ/mol
# Density = 1.926764 g / cm^3
# Si number density = 19.311590 Si / 1000 Ang^3
#
#
#
# Elastic Constant Matrix: (Units=GPa)
#
#
# Indices 1 2 3 4 5 6 
#
# 1 51.7360 -1.4884 67.6652 0.0000 1.6220 0.0000
# 2 -1.4884 31.7414 7.5266 0.0000 3.8547 0.0000
# 3 67.6652 7.5266 212.3773 0.0000 7.1625 0.0000
# 4 0.0000 0.0000 0.0000 2.8448 0.0000 6.3808
# 5 1.6220 3.8547 7.1625 0.0000 28.1742 0.0000
# 6 0.0000 0.0000 0.0000 6.3808 0.0000 4.6862
#
#
#
# Elastic Compliance Matrix: (Units=1/GPa)
#
#
# Indices 1 2 3 4 5 6 
#
# 1 0.033675 0.004128 -0.010884 0.000000 0.000264 0.000000
# 2 0.004128 0.032753 -0.002337 0.000000 -0.004125 0.000000
# 3 -0.010884 -0.002337 0.008298 0.000000 -0.001163 0.000000
# 4 0.000000 0.000000 0.000000 -0.171134 0.000000 0.233019
# 5 0.000264 -0.004125 -0.001163 0.000000 0.036338 0.000000
# 6 0.000000 0.000000 0.000000 0.233019 0.000000 -0.103889
#
#
# Mechanical properties :
#
#
# Convention : Reuss Voigt Hill
#
# Bulk Modulus (GPa) = 17.68657 49.25128 33.46892
# Shear Modulus (GPa) = -39.39316 21.95111 -8.72102
#
# Velocity S-wave (km/s) = -4.52139 3.37513 -2.12738
# Velocity P-wave (km/s) = 4.25193 6.38338 3.36664
#
# Compressibility (1/GPa) = 0.05654007
#
# Stress axis : x y z
#
# Youngs Moduli (GPa) = 29.69573 30.53142 120.50416
#
# Poissons Ratio (x) = -0.12603 1.31160
# Poissons Ratio (y) = -0.12258 0.28160
# Poissons Ratio (z) = 0.32322 0.07135
#
# Static dielectric constant tensor:
#      x y z
#    x 1.652140 0.000000 -0.012570 
#    y 0.000000 1.730050 0.000000 
#    z -0.012570 0.000000 1.785200 
# 
# From -- ./inp_files/42517.got.cif
#   From: 2010.05.17/outbox.cif.g08.bks.cpg/sg11_22_cif.got.tgz:42517.got - 2010.06.03 12:22:45.
