data_PCOD9157022
_publ_section_title
;
Structure prediction by ZEFSAII (Michael W. Deem and Ramdas Pophale) SiO2 
 PCOD9157022
Probable space group: P 21/M
;
_chemical_formula_sum "Si O2"
_cell_formula_units_Z 24
_cell_length_a 16.556213
_cell_length_b 16.143403
_cell_length_c 9.418423
_cell_angle_alpha 90.000000
_cell_angle_beta 28.546773
_cell_angle_gamma 90.000000
_cell_volume 1202.955385
_symmetry_space_group_name_H-M "P 21/M"
_symmetry_group_IT_number 11
_symmetry_cell_setting 'monoclinic'
loop_
_space_group_symop_operation_xyz
x,y,z
-x,1/2+y,-z
-x,-y,-z
x,1/2-y,z
loop_
_atom_site_type_symbol
_atom_site_label
_atom_site_fract_x
_atom_site_fract_y
_atom_site_fract_z
Si Si1 0.274400 0.120667 0.130900
Si Si2 0.526992 0.596645 0.923360
Si Si3 0.780612 0.076102 0.784735
Si Si4 0.075374 0.844040 0.171679
Si Si5 0.136220 0.350484 0.753927
Si Si6 0.095402 0.154114 0.144336
O O1 0.433301 0.140160 0.986614
O O2 0.260667 0.148349 0.989570
O O3 0.107232 0.156516 0.466227
O O4 0.252267 0.021511 0.166254
O O5 0.696694 0.609649 0.570673
O O6 0.500000 0.500000 0.000000
O O7 0.367991 0.621516 0.073030
O O8 0.804038 0.105088 0.910672
O O9 0.953566 0.097276 0.435744
O O10 0.137393 0.750000 0.066035
O O11 0.025069 0.876070 0.093234
O O12 0.149406 0.250000 0.720203
O O13 0.121521 0.370375 0.941814
O O14 0.037996 0.250000 0.236654
#
# Coordination Sequence:
#
# PCOD9157022 Si02
#       6
#     4   4   4   4   4   4
#     4   9  17  32  50  71  99 133 166 195 240 301
#     4   9  19  35  51  72 101 133 170 203 242 296
#     4  10  18  31  51  75  98 126 167 209 242 284
#     4   9  16  29  48  70  94 127 165 201 239 291
#     4   9  19  34  52  72 101 134 163 199 252 302
#     4  10  19  33  52  76 100 127 165 209 248 292
#
# _framework density 19.950865
#
# number of rings (size 3 to 8) (size 9 to 14) (size 15 to 20)
#    0.000    2.667    0.000    4.000    0.000    2.000 
#    0.000   18.333    0.000    4.000    0.000    0.000 
#    0.000    0.000    0.000    0.000    0.000    0.000 
#
# Total GULP energy -133731.941296 kJ/mol
# GULP energy per Si atom -5572.164221 kJ/mol
# Density = 1.990546 g / cm^3
# Si number density = 19.950865 Si / 1000 Ang^3
#
#
#
# Elastic Constant Matrix: (Units=GPa)
#
#
# Indices 1 2 3 4 5 6 
#
# 1 216.2874 20.8307 38.4624 0.0000 11.1247 0.0000
# 2 20.8307 45.6875 9.1866 0.0000 3.0877 0.0000
# 3 38.4624 9.1866 21.0481 0.0000 9.2831 0.0000
# 4 0.0000 0.0000 0.0000 9.4401 0.0000 4.2331
# 5 11.1247 3.0877 9.2831 0.0000 36.9674 0.0000
# 6 0.0000 0.0000 0.0000 4.2331 0.0000 28.1501
#
#
#
# Elastic Compliance Matrix: (Units=1/GPa)
#
#
# Indices 1 2 3 4 5 6 
#
# 1 0.006915 -0.000643 -0.012890 0.000000 0.001209 0.000000
# 2 -0.000643 0.024070 -0.009591 0.000000 0.000592 0.000000
# 3 -0.012890 -0.009591 0.082301 0.000000 -0.015987 0.000000
# 4 0.000000 0.000000 0.000000 0.113591 0.000000 -0.017081
# 5 0.001209 0.000592 -0.015987 0.000000 0.030652 0.000000
# 6 0.000000 0.000000 0.000000 -0.017081 0.000000 0.038093
#
#
# Mechanical properties :
#
#
# Convention : Reuss Voigt Hill
#
# Bulk Modulus (GPa) = 14.91684 46.66470 30.79077
# Shear Modulus (GPa) = 13.72814 29.21440 21.47127
#
# Velocity S-wave (km/s) = 2.62601 3.83079 3.28412
# Velocity P-wave (km/s) = 4.08504 6.55799 5.46328
#
# Compressibility (1/GPa) = 0.06703831
#
# Stress axis : x y z
#
# Youngs Moduli (GPa) = 144.60590 41.54627 12.15050
#
# Poissons Ratio (x) = 0.02671 0.15661
# Poissons Ratio (y) = 0.09297 0.11654
# Poissons Ratio (z) = 1.86391 0.39848
#
# Static dielectric constant tensor:
#      x y z
#    x 1.810300 0.000000 -0.005850 
#    y 0.000000 1.742860 0.000000 
#    z -0.005850 0.000000 1.666150 
# 
# From -- ./inp_files/22001.got.cif
#   From: 2010.05.17/outbox.cif.g08.bks.cpg/sg11_12_cif.got.tgz:22001.got - 2010.06.03 12:22:45.
