data_PCOD9157775
_publ_section_title
;
Structure prediction by ZEFSAII (Michael W. Deem and Ramdas Pophale) SiO2 
 PCOD9157775
Probable space group: P 21/M
;
_chemical_formula_sum "Si O2"
_cell_formula_units_Z 26
_cell_length_a 9.811614
_cell_length_b 20.423992
_cell_length_c 8.396208
_cell_angle_alpha 90.000000
_cell_angle_beta 48.492238
_cell_angle_gamma 90.000000
_cell_volume 1259.993653
_symmetry_space_group_name_H-M "P 21/M"
_symmetry_group_IT_number 11
_symmetry_cell_setting 'monoclinic'
loop_
_space_group_symop_operation_xyz
x,y,z
-x,1/2+y,-z
-x,-y,-z
x,1/2-y,z
loop_
_atom_site_type_symbol
_atom_site_label
_atom_site_fract_x
_atom_site_fract_y
_atom_site_fract_z
Si Si1 0.140340 0.485438 0.144264
Si Si2 0.175752 0.750000 0.315165
Si Si3 0.972656 0.750000 0.811871
Si Si4 0.603876 0.750000 0.950397
Si Si5 0.567825 0.049722 0.316151
Si Si6 0.388396 0.106209 0.164428
Si Si7 0.850356 0.384905 0.298309
Si Si8 0.204239 0.891936 0.279633
O O1 0.235872 0.431447 0.183489
O O2 0.092674 0.548441 0.289840
O O3 0.977912 0.448530 0.181900
O O4 0.289135 0.511643 0.905721
O O5 0.053722 0.750000 0.568183
O O6 0.146187 0.820650 0.257249
O O7 0.395833 0.750000 0.174817
O O8 0.047204 0.817805 0.823295
O O9 0.755182 0.750000 0.970624
O O10 0.637366 0.684015 0.824821
O O11 0.412023 0.077640 0.322030
O O12 0.674940 0.106808 0.324795
O O13 0.500000 0.000000 0.500000
O O14 0.585326 0.094788 0.928233
O O15 0.806237 0.386464 0.521586
#
# Coordination Sequence:
#
# PCOD9157775 Si02
#       8
#     4   2   2   2   4   4   4   4
#     4  11  20  35  59  85 113 150 198 237 290 350
#     4   8  18  32  54  86 114 148 188 248 300 342
#     4  10  20  37  59  88 121 147 206 240 299 363
#     4  10  18  37  61  86 113 153 200 254 287 351
#     4  11  23  38  55  84 123 153 194 247 301 355
#     4  10  20  36  60  84 110 153 198 239 289 353
#     4  11  21  36  58  86 116 155 184 248 303 350
#     4   9  18  33  55  84 109 146 196 235 287 354
#
# _framework density 20.635024999999999
#
# number of rings (size 3 to 8) (size 9 to 14) (size 15 to 20)
#    0.000    1.846    1.538    4.615    0.000    0.615 
#    0.000    0.769    0.000    1.846    0.000    0.000 
#    0.000    0.000    0.000    0.000    0.000    0.000 
#
# Total GULP energy -145172.113901 kJ/mol
# GULP energy per Si atom -5583.542842 kJ/mol
# Density = 2.058806 g / cm^3
# Si number density = 20.635025 Si / 1000 Ang^3
#
#
#
# Elastic Constant Matrix: (Units=GPa)
#
#
# Indices 1 2 3 4 5 6 
#
# 1 67.4606 20.4432 1.9524 0.0000 6.1009 0.0000
# 2 20.4432 113.7605 16.3656 0.0000 -0.5607 0.0000
# 3 1.9524 16.3656 47.5177 0.0000 10.3101 0.0000
# 4 0.0000 0.0000 0.0000 17.2170 0.0000 -0.3800
# 5 6.1009 -0.5607 10.3101 0.0000 21.2870 0.0000
# 6 0.0000 0.0000 0.0000 -0.3800 0.0000 28.3152
#
#
#
# Elastic Compliance Matrix: (Units=1/GPa)
#
#
# Indices 1 2 3 4 5 6 
#
# 1 0.016240 -0.003180 0.001627 0.000000 -0.005526 0.000000
# 2 -0.003180 0.009948 -0.003967 0.000000 0.003095 0.000000
# 3 0.001627 -0.003967 0.025106 0.000000 -0.012731 0.000000
# 4 0.000000 0.000000 0.000000 0.058099 0.000000 0.000780
# 5 -0.005526 0.003095 -0.012731 0.000000 0.054808 0.000000
# 6 0.000000 0.000000 0.000000 0.000780 0.000000 0.035327
#
#
# Mechanical properties :
#
#
# Convention : Reuss Voigt Hill
#
# Bulk Modulus (GPa) = 24.84196 34.02901 29.43549
# Shear Modulus (GPa) = 22.32279 26.02899 24.17589
#
# Velocity S-wave (km/s) = 3.29263 3.55547 3.42657
# Velocity P-wave (km/s) = 5.14976 5.77770 5.47275
#
# Compressibility (1/GPa) = 0.04025447
#
# Stress axis : x y z
#
# Youngs Moduli (GPa) = 61.57760 100.52561 39.83042
#
# Poissons Ratio (x) = 0.31963 -0.06480
# Poissons Ratio (y) = 0.19579 0.15800
# Poissons Ratio (z) = -0.10018 0.39878
#
# Static dielectric constant tensor:
#      x y z
#    x 1.715340 0.000000 -0.009020 
#    y 0.000000 1.823390 0.000000 
#    z -0.009020 0.000000 1.749780 
# 
# From -- ./inp_files/14521.got.cif
#   From: 2010.05.17/outbox.cif.g08.bks.cpg/sg11_8_cif.got.tgz:14521.got - 2010.06.03 12:22:45.
