data_PCOD9157598
_publ_section_title
;
Structure prediction by ZEFSAII (Michael W. Deem and Ramdas Pophale) SiO2 
 PCOD9157598
Probable space group: P 21/M
;
_chemical_formula_sum "Si O2"
_cell_formula_units_Z 28
_cell_length_a 20.099031
_cell_length_b 8.110930
_cell_length_c 18.262151
_cell_angle_alpha 90.000000
_cell_angle_beta 150.512531
_cell_angle_gamma 90.000000
_cell_volume 1465.441888
_symmetry_space_group_name_H-M "P 21/M"
_symmetry_group_IT_number 11
_symmetry_cell_setting 'monoclinic'
loop_
_space_group_symop_operation_xyz
x,y,z
-x,1/2+y,-z
-x,-y,-z
x,1/2-y,z
loop_
_atom_site_type_symbol
_atom_site_label
_atom_site_fract_x
_atom_site_fract_y
_atom_site_fract_z
Si Si1 0.518712 0.450034 0.101365
Si Si2 0.484772 0.937687 0.674812
Si Si3 0.255331 0.938554 0.579075
Si Si4 0.705698 0.950501 0.997241
Si Si5 0.376178 0.434295 0.427273
Si Si6 0.995921 0.450002 0.756700
Si Si7 0.076849 0.448492 0.147610
O O1 0.522556 0.250000 0.110507
O O2 0.661451 0.512454 0.272657
O O3 0.390230 0.506341 0.027675
O O4 0.500000 0.500000 0.000000
O O5 0.498996 0.750000 0.659135
O O6 0.373963 0.930103 0.632446
O O7 0.624199 0.991577 0.845094
O O8 0.428170 0.055880 0.559591
O O9 0.217008 0.750000 0.562655
O O10 0.126224 0.011708 0.412878
O O11 0.707577 0.750000 0.002692
O O12 0.859701 0.006142 0.137241
O O13 0.500000 0.500000 0.500000
O O14 0.352742 0.250000 0.378981
O O15 0.229858 0.517774 0.285886
O O16 0.991618 0.250000 0.750768
O O17 0.978106 0.496080 0.825275
O O18 0.078273 0.250000 0.152114
O O19 0.000000 0.500000 0.000000
#
# Coordination Sequence:
#
# PCOD9157598 Si02
#       7
#     4   4   4   4   4   4   4
#     4   9  17  33  53  78 108 140 175 214 259 314
#     4   9  16  32  53  74  99 131 171 220 263 310
#     4   8  15  29  53  76  99 135 175 210 258 317
#     4   8  17  31  53  80 106 134 173 215 261 317
#     4  11  24  38  53  75 104 138 178 224 271 321
#     4  10  18  34  58  80 103 139 181 224 269 321
#     4  11  25  41  55  77 110 146 183 227 276 326
#
# _framework density 19.106864000000002
#
# number of rings (size 3 to 8) (size 9 to 14) (size 15 to 20)
#    0.000    2.571    1.429    2.571    2.000    1.714 
#    0.000    5.000    0.000    0.000    0.000    0.000 
#    0.000    0.000    0.000    0.000    0.000    0.000 
#
# Total GULP energy -155895.314294 kJ/mol
# GULP energy per Si atom -5567.689796 kJ/mol
# Density = 1.906338 g / cm^3
# Si number density = 19.106864 Si / 1000 Ang^3
#
#
#
# Elastic Constant Matrix: (Units=GPa)
#
#
# Indices 1 2 3 4 5 6 
#
# 1 90.2369 6.7380 84.7684 0.0000 1.5736 0.0000
# 2 6.7380 15.7288 9.2056 0.0000 3.6475 0.0000
# 3 84.7684 9.2056 189.5796 0.0000 5.6693 0.0000
# 4 0.0000 0.0000 0.0000 16.9075 0.0000 -7.8171
# 5 1.5736 3.6475 5.6693 0.0000 30.8108 0.0000
# 6 0.0000 0.0000 0.0000 -7.8171 0.0000 21.5700
#
#
#
# Elastic Compliance Matrix: (Units=1/GPa)
#
#
# Indices 1 2 3 4 5 6 
#
# 1 0.019303 -0.003531 -0.008490 0.000000 0.000994 0.000000
# 2 -0.003531 0.067712 -0.001483 0.000000 -0.007563 0.000000
# 3 -0.008490 -0.001483 0.009175 0.000000 -0.001079 0.000000
# 4 0.000000 0.000000 0.000000 0.071050 0.000000 0.025749
# 5 0.000994 -0.007563 -0.001079 0.000000 0.033499 0.000000
# 6 0.000000 0.000000 0.000000 0.025749 0.000000 0.055692
#
#
# Mechanical properties :
#
#
# Convention : Reuss Voigt Hill
#
# Bulk Modulus (GPa) = 14.45435 55.21880 34.83658
# Shear Modulus (GPa) = 16.31318 26.84655 21.57986
#
# Velocity S-wave (km/s) = 2.92513 3.75250 3.36435
# Velocity P-wave (km/s) = 4.35775 6.90925 5.77614
#
# Compressibility (1/GPa) = 0.06918333
#
# Stress axis : x y z
#
# Youngs Moduli (GPa) = 51.80455 14.76843 108.99063
#
# Poissons Ratio (x) = 0.05215 0.92528
# Poissons Ratio (y) = 0.18293 0.16162
# Poissons Ratio (z) = 0.43980 0.02190
#
# Static dielectric constant tensor:
#      x y z
#    x 1.304040 0.000000 0.092050 
#    y 0.000000 1.574240 0.000000 
#    z 0.092050 0.000000 1.693680 
# 
# From -- ./inp_files/61301.got.cif
#   From: 2010.05.17/outbox.cif.g08.bks.cpg/sg11_31_cif.got.tgz:61301.got - 2010.06.03 12:22:45.
