data_PCOD9157273
_publ_section_title
;
Structure prediction by ZEFSAII (Michael W. Deem and Ramdas Pophale) SiO2 
 PCOD9157273
Probable space group: P 21/M
;
_chemical_formula_sum "Si O2"
_cell_formula_units_Z 26
_cell_length_a 11.885854
_cell_length_b 15.097934
_cell_length_c 9.189983
_cell_angle_alpha 90.000000
_cell_angle_beta 40.628533
_cell_angle_gamma 90.000000
_cell_volume 1073.853822
_symmetry_space_group_name_H-M "P 21/M"
_symmetry_group_IT_number 11
_symmetry_cell_setting 'monoclinic'
loop_
_space_group_symop_operation_xyz
x,y,z
-x,1/2+y,-z
-x,-y,-z
x,1/2-y,z
loop_
_atom_site_type_symbol
_atom_site_label
_atom_site_fract_x
_atom_site_fract_y
_atom_site_fract_z
Si Si1 0.138779 0.106706 0.866183
Si Si2 0.714871 0.577958 0.885261
Si Si3 0.362326 0.485134 0.343164
Si Si4 0.448131 0.848594 0.665481
Si Si5 0.209602 0.653153 0.619755
Si Si6 0.874788 0.442738 0.915711
Si Si7 0.725783 0.750000 0.078791
O O1 0.973040 0.148335 0.118894
O O2 0.056704 0.098941 0.786066
O O3 0.281566 0.173324 0.783624
O O4 0.166995 0.010260 0.908295
O O5 0.698053 0.576975 0.728949
O O6 0.537008 0.535293 0.120730
O O7 0.859328 0.506752 0.793682
O O8 0.737654 0.671064 0.942812
O O9 0.415697 0.425697 0.429642
O O10 0.234764 0.566278 0.500554
O O11 0.503171 0.750000 0.652864
O O12 0.360191 0.849352 0.592702
O O13 0.279441 0.872534 0.932058
O O14 0.221699 0.750000 0.533854
#
# Coordination Sequence:
#
# PCOD9157273 Si02
#       7
#     4   4   4   4   4   4   2
#     4   9  16  31  55  77 102 133 176 218 264 305
#     4   9  20  34  51  79 105 139 180 213 271 317
#     4  10  20  35  51  79 111 143 173 223 268 315
#     4   9  18  32  54  80 104 141 180 218 268 316
#     4  10  19  32  54  80 104 141 180 217 270 322
#     4   8  16  31  51  78 104 129 175 219 255 310
#     4  10  18  32  54  76 100 138 180 218 254 324
#
# _framework density 24.211862
#
# number of rings (size 3 to 8) (size 9 to 14) (size 15 to 20)
#    0.000    2.769    0.769    0.462    3.231    0.000 
#    0.000    3.846    0.000    0.923    0.000    0.000 
#    0.000    0.000    0.000    0.000    0.000    0.000 
#
# Total GULP energy -144825.321578 kJ/mol
# GULP energy per Si atom -5570.204676 kJ/mol
# Density = 2.415675 g / cm^3
# Si number density = 24.211862 Si / 1000 Ang^3
#
#
#
# Elastic Constant Matrix: (Units=GPa)
#
#
# Indices 1 2 3 4 5 6 
#
# 1 79.7638 24.0104 14.5693 0.0000 0.8207 0.0000
# 2 24.0104 169.2655 30.6027 0.0000 16.4759 0.0000
# 3 14.5693 30.6027 42.4858 0.0000 6.2961 0.0000
# 4 0.0000 0.0000 0.0000 42.5592 0.0000 -1.0036
# 5 0.8207 16.4759 6.2961 0.0000 45.7673 0.0000
# 6 0.0000 0.0000 0.0000 -1.0036 0.0000 24.1667
#
#
#
# Elastic Compliance Matrix: (Units=1/GPa)
#
#
# Indices 1 2 3 4 5 6 
#
# 1 0.013626 -0.001312 -0.003839 0.000000 0.000756 0.000000
# 2 -0.001312 0.007069 -0.004357 0.000000 -0.001922 0.000000
# 3 -0.003839 -0.004357 0.028327 0.000000 -0.002260 0.000000
# 4 0.000000 0.000000 0.000000 0.023520 0.000000 0.000977
# 5 0.000756 -0.001922 -0.002260 0.000000 0.022839 0.000000
# 6 0.000000 0.000000 0.000000 0.000977 0.000000 0.041420
#
#
# Mechanical properties :
#
#
# Convention : Reuss Voigt Hill
#
# Bulk Modulus (GPa) = 33.32844 47.76443 40.54644
# Shear Modulus (GPa) = 30.15352 37.32080 33.73716
#
# Velocity S-wave (km/s) = 3.53285 3.93036 3.73690
# Velocity P-wave (km/s) = 5.51694 6.35354 5.94996
#
# Compressibility (1/GPa) = 0.03000440
#
# Stress axis : x y z
#
# Youngs Moduli (GPa) = 73.39169 141.46674 35.30198
#
# Poissons Ratio (x) = 0.18564 0.13554
# Poissons Ratio (y) = 0.09631 0.15381
# Poissons Ratio (z) = 0.28178 0.61635
#
# Static dielectric constant tensor:
#      x y z
#    x 2.038590 0.000000 -0.137500 
#    y 0.000000 2.593800 0.000000 
#    z -0.137500 0.000000 2.110770 
# 
# From -- ./inp_files/17392.got.cif
#   From: 2010.05.17/outbox.cif.g08.bks.cpg/sg11_9_cif.got.tgz:17392.got - 2010.06.03 12:22:45.
