data_PCOD9157200
_publ_section_title
;
Structure prediction by ZEFSAII (Michael W. Deem and Ramdas Pophale) SiO2 
 PCOD9157200
Probable space group: P 21/M
;
_chemical_formula_sum "Si O2"
_cell_formula_units_Z 32
_cell_length_a 21.001338
_cell_length_b 13.300412
_cell_length_c 14.078239
_cell_angle_alpha 90.000000
_cell_angle_beta 158.929421
_cell_angle_gamma 90.000000
_cell_volume 1413.776191
_symmetry_space_group_name_H-M "P 21/M"
_symmetry_group_IT_number 11
_symmetry_cell_setting 'monoclinic'
loop_
_space_group_symop_operation_xyz
x,y,z
-x,1/2+y,-z
-x,-y,-z
x,1/2-y,z
loop_
_atom_site_type_symbol
_atom_site_label
_atom_site_fract_x
_atom_site_fract_y
_atom_site_fract_z
Si Si1 0.218086 0.137934 0.765585
Si Si2 0.914022 0.364971 0.499536
Si Si3 0.454908 0.534962 0.043143
Si Si4 0.000179 0.429725 0.291755
Si Si5 0.540935 0.133437 0.456239
Si Si6 0.384874 0.575817 0.224184
Si Si7 0.299817 0.367557 0.473343
Si Si8 0.074470 0.870652 0.029264
O O1 0.282768 0.250000 0.872430
O O2 0.052301 0.119344 0.605047
O O3 0.147323 0.125741 0.559161
O O4 0.373832 0.057635 0.990024
O O5 0.933348 0.250000 0.558864
O O6 0.962012 0.451990 0.641160
O O7 0.709214 0.386422 0.186587
O O8 0.630410 0.574989 0.337108
O O9 0.500000 0.500000 0.000000
O O10 0.973004 0.404156 0.144159
O O11 0.813754 0.399403 0.081257
O O12 0.495225 0.250000 0.372187
O O13 0.585191 0.121113 0.629560
O O14 0.399035 0.045883 0.243460
O O15 0.726315 0.099742 0.664733
O O16 0.542249 0.617570 0.380474
O O17 0.287041 0.250000 0.479321
O O18 0.104746 0.398162 0.164323
O O19 0.089794 0.750000 0.049744
#
# Coordination Sequence:
#
# PCOD9157200 Si02
#       8
#     4   4   4   4   4   4   4   4
#     4  10  20  34  52  73 102 139 176 216 260 309
#     4  10  20  33  49  70 100 138 176 214 259 309
#     4  11  22  35  52  77 110 143 177 218 264 309
#     4  10  18  32  51  73 100 131 171 212 256 308
#     4   9  19  37  56  77 107 138 167 211 272 326
#     4  10  20  33  56  84 105 131 174 222 264 314
#     4  11  21  34  54  80 106 136 179 223 258 301
#     4   9  19  34  53  75 100 134 171 208 258 316
#
# _framework density 22.634416999999999
#
# number of rings (size 3 to 8) (size 9 to 14) (size 15 to 20)
#    0.000    2.000    0.000    5.625    0.000    5.500 
#    0.000    0.625    0.000    0.750    0.000    0.000 
#    0.000    0.000    0.000    0.000    0.000    0.000 
#
# Total GULP energy -178747.807996 kJ/mol
# GULP energy per Si atom -5585.869000 kJ/mol
# Density = 2.258290 g / cm^3
# Si number density = 22.634417 Si / 1000 Ang^3
#
#
#
# Elastic Constant Matrix: (Units=GPa)
#
#
# Indices 1 2 3 4 5 6 
#
# 1 34.2725 -2.4891 -3.7970 0.0000 12.1846 0.0000
# 2 -2.4891 91.0157 0.7902 0.0000 10.0229 0.0000
# 3 -3.7970 0.7902 77.8702 0.0000 15.5262 0.0000
# 4 0.0000 0.0000 0.0000 9.3507 0.0000 7.8047
# 5 12.1846 10.0229 15.5262 0.0000 31.2505 0.0000
# 6 0.0000 0.0000 0.0000 7.8047 0.0000 11.7537
#
#
#
# Elastic Compliance Matrix: (Units=1/GPa)
#
#
# Indices 1 2 3 4 5 6 
#
# 1 0.036257 0.002893 0.005264 0.000000 -0.017679 0.000000
# 2 0.002893 0.011653 0.001102 0.000000 -0.005413 0.000000
# 3 0.005264 0.001102 0.015059 0.000000 -0.009887 0.000000
# 4 0.000000 0.000000 0.000000 0.239918 0.000000 -0.159312
# 5 -0.017679 -0.005413 -0.009887 0.000000 0.045541 0.000000
# 6 0.000000 0.000000 0.000000 -0.159312 0.000000 0.190867
#
#
# Mechanical properties :
#
#
# Convention : Reuss Voigt Hill
#
# Bulk Modulus (GPa) = 12.27224 21.35184 16.81204
# Shear Modulus (GPa) = 9.12510 24.38124 16.75317
#
# Velocity S-wave (km/s) = 2.01004 3.28560 2.72355
# Velocity P-wave (km/s) = 3.28949 4.88337 4.16342
#
# Compressibility (1/GPa) = 0.08148474
#
# Stress axis : x y z
#
# Youngs Moduli (GPa) = 27.58120 85.81684 66.40654
#
# Poissons Ratio (x) = -0.24825 -0.34953
# Poissons Ratio (y) = -0.07979 -0.07318
# Poissons Ratio (z) = -0.14518 -0.09457
#
# Static dielectric constant tensor:
#      x y z
#    x 1.878860 0.000000 0.024710 
#    y 0.000000 1.835200 0.000000 
#    z 0.024710 0.000000 1.847470 
# 
# From -- ./inp_files/26853.got.cif
#   From: 2010.05.17/outbox.cif.g08.bks.cpg/sg11_14_cif.got.tgz:26853.got - 2010.06.03 12:22:45.
