data_PCOD9157505
_publ_section_title
;
Structure prediction by ZEFSAII (Michael W. Deem and Ramdas Pophale) SiO2 
 PCOD9157505
Probable space group: P 21/M
;
_chemical_formula_sum "Si O2"
_cell_formula_units_Z 28
_cell_length_a 9.177842
_cell_length_b 16.922237
_cell_length_c 20.588314
_cell_angle_alpha 90.000000
_cell_angle_beta 149.119506
_cell_angle_gamma 90.000000
_cell_volume 1641.146418
_symmetry_space_group_name_H-M "P 21/M"
_symmetry_group_IT_number 11
_symmetry_cell_setting 'monoclinic'
loop_
_space_group_symop_operation_xyz
x,y,z
-x,1/2+y,-z
-x,-y,-z
x,1/2-y,z
loop_
_atom_site_type_symbol
_atom_site_label
_atom_site_fract_x
_atom_site_fract_y
_atom_site_fract_z
Si Si1 0.668999 0.058174 0.258397
Si Si2 0.975908 0.657991 0.529661
Si Si3 0.011125 0.845187 0.285791
Si Si4 0.486041 0.959264 0.064986
Si Si5 0.590244 0.066647 0.664873
Si Si6 0.890348 0.969673 0.888814
Si Si7 0.149396 0.931654 0.470431
O O1 0.393828 0.074908 0.197362
O O2 0.875559 0.132417 0.345905
O O3 0.575339 0.026373 0.152308
O O4 0.868064 0.987375 0.362177
O O5 0.977773 0.750000 0.521577
O O6 0.659029 0.624214 0.407487
O O7 0.140206 0.616019 0.533584
O O8 0.003630 0.750000 0.277477
O O9 0.220424 0.887153 0.314517
O O10 0.119237 0.873515 0.397953
O O11 0.706180 0.887221 0.157080
O O12 0.165100 0.932425 0.959425
O O13 0.500000 0.000000 0.000000
O O14 0.780877 0.036972 0.797670
O O15 0.421902 0.989748 0.572169
O O16 0.000000 0.000000 0.000000
#
# Coordination Sequence:
#
# PCOD9157505 Si02
#       7
#     4   4   4   4   4   4   4
#     4   9  18  35  55  79 108 136 186 229 264 328
#     4  11  20  33  55  85 115 142 174 232 290 323
#     4  11  23  37  53  83 116 142 183 241 281 315
#     4  10  20  35  59  78 102 150 193 218 263 330
#     4  11  19  36  59  82 109 144 190 224 270 342
#     4  10  18  33  59  81 101 136 192 229 255 314
#     4  10  19  35  58  82 106 147 185 223 273 343
#
# _framework density 17.061243999999999
#
# number of rings (size 3 to 8) (size 9 to 14) (size 15 to 20)
#    0.000    1.714    4.286    2.143    0.000    0.000 
#    0.000    1.429    0.000    0.000    0.000    0.000 
#    0.000    0.000    0.000    0.000    0.000    0.000 
#
# Total GULP energy -155938.819473 kJ/mol
# GULP energy per Si atom -5569.243553 kJ/mol
# Density = 1.702241 g / cm^3
# Si number density = 17.061244 Si / 1000 Ang^3
#
#
#
# Elastic Constant Matrix: (Units=GPa)
#
#
# Indices 1 2 3 4 5 6 
#
# 1 101.1154 51.1564 53.9146 0.0000 8.0600 0.0000
# 2 51.1564 106.4963 50.6521 0.0000 3.7026 0.0000
# 3 53.9146 50.6521 114.0197 0.0000 1.3092 0.0000
# 4 0.0000 0.0000 0.0000 11.8990 0.0000 1.8016
# 5 8.0600 3.7026 1.3092 0.0000 34.6396 0.0000
# 6 0.0000 0.0000 0.0000 1.8016 0.0000 15.5080
#
#
#
# Elastic Compliance Matrix: (Units=1/GPa)
#
#
# Indices 1 2 3 4 5 6 
#
# 1 0.015241 -0.004831 -0.005028 0.000000 -0.002840 0.000000
# 2 -0.004831 0.013477 -0.003701 0.000000 -0.000177 0.000000
# 3 -0.005028 -0.003701 0.012779 0.000000 0.001083 0.000000
# 4 0.000000 0.000000 0.000000 0.085546 0.000000 -0.009938
# 5 -0.002840 -0.000177 0.001083 0.000000 0.029507 0.000000
# 6 0.000000 0.000000 0.000000 -0.009938 0.000000 0.065638
#
#
# Mechanical properties :
#
#
# Convention : Reuss Voigt Hill
#
# Bulk Modulus (GPa) = 69.55007 70.34194 69.94601
# Shear Modulus (GPa) = 19.67728 23.46986 21.57357
#
# Velocity S-wave (km/s) = 3.39976 3.71296 3.55981
# Velocity P-wave (km/s) = 7.50097 7.72658 7.61461
#
# Compressibility (1/GPa) = 0.01437813
#
# Stress axis : x y z
#
# Youngs Moduli (GPa) = 65.61185 74.20145 78.25045
#
# Poissons Ratio (x) = 0.35847 0.39345
# Poissons Ratio (y) = 0.31697 0.28957
# Poissons Ratio (z) = 0.32990 0.27459
#
# Static dielectric constant tensor:
#      x y z
#    x 1.601770 0.000000 0.009390 
#    y 0.000000 1.549970 0.000000 
#    z 0.009390 0.000000 1.606090 
# 
# From -- ./inp_files/22093.got.cif
#   From: 2010.05.17/outbox.cif.g08.bks.cpg/sg11_12_cif.got.tgz:22093.got - 2010.06.03 12:22:45.
