data_PCOD9157965
_publ_section_title
;
Structure prediction by ZEFSAII (Michael W. Deem and Ramdas Pophale) SiO2 
 PCOD9157965
Probable space group: P 21/M
;
_chemical_formula_sum "Si O2"
_cell_formula_units_Z 32
_cell_length_a 28.747256
_cell_length_b 7.570700
_cell_length_c 16.069597
_cell_angle_alpha 90.000000
_cell_angle_beta 152.070587
_cell_angle_gamma 90.000000
_cell_volume 1638.094484
_symmetry_space_group_name_H-M "P 21/M"
_symmetry_group_IT_number 11
_symmetry_cell_setting 'monoclinic'
loop_
_space_group_symop_operation_xyz
x,y,z
-x,1/2+y,-z
-x,-y,-z
x,1/2-y,z
loop_
_atom_site_type_symbol
_atom_site_label
_atom_site_fract_x
_atom_site_fract_y
_atom_site_fract_z
Si Si1 0.357601 0.045656 0.960347
Si Si2 0.088346 0.032939 0.953837
Si Si3 0.043012 0.038827 0.697110
Si Si4 0.428565 0.955808 0.725278
Si Si5 0.152865 0.036884 0.705328
Si Si6 0.310131 0.535587 0.697134
Si Si7 0.882758 0.036608 0.709572
Si Si8 0.760599 0.546194 0.676885
O O1 0.363077 0.250000 0.996685
O O2 0.262039 0.967550 0.856002
O O3 0.333311 0.037967 0.823872
O O4 0.467771 0.965826 0.142352
O O5 0.088919 0.250000 0.955401
O O6 0.075806 0.973186 0.839143
O O7 0.990761 0.978359 0.851207
O O8 0.186915 0.973246 0.157784
O O9 0.055470 0.250000 0.718435
O O10 0.106939 0.970595 0.719833
O O11 0.927964 0.004953 0.493519
O O12 0.448897 0.750000 0.774587
O O13 0.386189 0.028309 0.745597
O O14 0.338777 0.963345 0.517767
O O15 0.157459 0.250000 0.716884
O O16 0.314984 0.750000 0.709166
O O17 0.200592 0.489102 0.490585
O O18 0.882432 0.250000 0.715672
O O19 0.843344 0.965456 0.734802
O O20 0.736213 0.750000 0.652836
#
# Coordination Sequence:
#
# PCOD9157965 Si02
#       8
#     4   4   4   4   4   4   4   4
#     4  10  19  30  46  67  90 116 148 186 223 260
#     4   9  17  29  47  68  89 118 153 182 214 263
#     4   9  17  32  51  68  92 122 144 171 218 270
#     4   9  19  34  46  59  87 124 154 181 220 265
#     4   9  18  31  48  72  95 114 143 181 219 262
#     4   9  17  28  44  66  90 119 151 178 212 264
#     4   9  17  30  45  64  93 123 148 175 216 269
#     4  10  19  30  45  66  89 115 153 193 220 249
#
# _framework density 19.534893
#
# number of rings (size 3 to 8) (size 9 to 14) (size 15 to 20)
#    0.000    2.750    0.000    2.625    0.000    4.000 
#    0.000    2.500    0.000    0.750    0.000    0.000 
#    0.000    0.000    0.000    0.000    0.000    0.125 
#
# Total GULP energy -178529.440722 kJ/mol
# GULP energy per Si atom -5579.045023 kJ/mol
# Density = 1.949043 g / cm^3
# Si number density = 19.534893 Si / 1000 Ang^3
#
#
#
# Elastic Constant Matrix: (Units=GPa)
#
#
# Indices 1 2 3 4 5 6 
#
# 1 63.7616 -5.2465 54.3860 0.0000 14.0412 0.0000
# 2 -5.2465 41.3459 -8.6232 0.0000 3.0621 0.0000
# 3 54.3860 -8.6232 86.9909 0.0000 7.9298 0.0000
# 4 0.0000 0.0000 0.0000 13.7205 0.0000 -1.1630
# 5 14.0412 3.0621 7.9298 0.0000 34.8099 0.0000
# 6 0.0000 0.0000 0.0000 -1.1630 0.0000 9.6049
#
#
#
# Elastic Compliance Matrix: (Units=1/GPa)
#
#
# Indices 1 2 3 4 5 6 
#
# 1 0.036603 0.000805 -0.021907 0.000000 -0.009845 0.000000
# 2 0.000805 0.024982 0.002250 0.000000 -0.003035 0.000000
# 3 -0.021907 0.002250 0.025149 0.000000 0.002910 0.000000
# 4 0.000000 0.000000 0.000000 0.073640 0.000000 0.008916
# 5 -0.009845 -0.003035 0.002910 0.000000 0.032303 0.000000
# 6 0.000000 0.000000 0.000000 0.008916 0.000000 0.105193
#
#
# Mechanical properties :
#
#
# Convention : Reuss Voigt Hill
#
# Bulk Modulus (GPa) = 20.39542 30.34790 25.37166
# Shear Modulus (GPa) = 14.20786 21.73253 17.97020
#
# Velocity S-wave (km/s) = 2.69979 3.33903 3.03628
# Velocity P-wave (km/s) = 4.49240 5.51674 5.03071
#
# Compressibility (1/GPa) = 0.04903061
#
# Stress axis : x y z
#
# Youngs Moduli (GPa) = 27.31991 40.02833 39.76254
#
# Poissons Ratio (x) = -0.03222 0.87107
# Poissons Ratio (y) = -0.02199 -0.08946
# Poissons Ratio (z) = 0.59850 -0.09006
#
# Static dielectric constant tensor:
#      x y z
#    x 1.683990 0.000000 0.019440 
#    y 0.000000 1.736680 0.000000 
#    z 0.019440 0.000000 1.690370 
# 
# From -- ./inp_files/51668.got.cif
#   From: 2010.05.17/outbox.cif.g08.bks.cpg/sg11_26_cif.got.tgz:51668.got - 2010.06.03 12:22:45.
