data_PCOD9157088
_publ_section_title
;
Structure prediction by ZEFSAII (Michael W. Deem and Ramdas Pophale) SiO2 
 PCOD9157088
Probable space group: P 21/M
;
_chemical_formula_sum "Si O2"
_cell_formula_units_Z 28
_cell_length_a 25.755432
_cell_length_b 8.983494
_cell_length_c 19.487534
_cell_angle_alpha 90.000000
_cell_angle_beta 160.453058
_cell_angle_gamma 90.000000
_cell_volume 1508.584862
_symmetry_space_group_name_H-M "P 21/M"
_symmetry_group_IT_number 11
_symmetry_cell_setting 'monoclinic'
loop_
_space_group_symop_operation_xyz
x,y,z
-x,1/2+y,-z
-x,-y,-z
x,1/2-y,z
loop_
_atom_site_type_symbol
_atom_site_label
_atom_site_fract_x
_atom_site_fract_y
_atom_site_fract_z
Si Si1 0.015965 0.428884 0.188376
Si Si2 0.039998 0.925208 0.364198
Si Si3 0.866725 0.925164 0.288471
Si Si4 0.148484 0.571863 0.148161
Si Si5 0.635113 0.923447 0.211763
Si Si6 0.316688 0.571289 0.487994
Si Si7 0.543405 0.423034 0.869840
O O1 0.035879 0.250000 0.215651
O O2 0.995764 0.492462 0.239015
O O3 0.169901 0.501476 0.346138
O O4 0.873268 0.466213 0.958908
O O5 0.060969 0.750000 0.376659
O O6 0.916305 0.943049 0.270786
O O7 0.202387 0.993060 0.592742
O O8 0.858352 0.750000 0.293751
O O9 0.000000 0.000000 0.500000
O O10 0.701059 0.001562 0.091792
O O11 0.133777 0.750000 0.133907
O O12 0.291339 0.532110 0.375884
O O13 0.000000 0.500000 0.000000
O O14 0.650619 0.750000 0.212205
O O15 0.581198 0.931697 0.223787
O O16 0.500000 0.000000 0.000000
O O17 0.314159 0.750000 0.492464
O O18 0.470016 0.505704 0.713359
O O19 0.571397 0.250000 0.889601
#
# Coordination Sequence:
#
# PCOD9157088 Si02
#       7
#     4   4   4   4   4   4   4
#     4  10  18  31  52  81 115 148 185 228 275 328
#     4  11  23  38  57  82 112 145 186 231 278 335
#     4  11  25  43  61  82 109 146 190 233 281 338
#     4   8  16  28  46  76 112 147 182 222 270 325
#     4  11  23  37  56  82 111 141 179 228 281 334
#     4  10  18  31  53  81 114 150 185 226 276 327
#     4  11  23  38  57  83 113 146 187 232 277 332
#
# _framework density 18.56044
#
# number of rings (size 3 to 8) (size 9 to 14) (size 15 to 20)
#    0.000    1.714    1.429    3.429    0.000    8.571 
#    0.000    0.000    0.000    0.857    0.000    0.000 
#    0.000    0.000    0.000    0.000    0.000    0.000 
#
# Total GULP energy -156298.043019 kJ/mol
# GULP energy per Si atom -5582.072965 kJ/mol
# Density = 1.851820 g / cm^3
# Si number density = 18.560440 Si / 1000 Ang^3
#
#
#
# Elastic Constant Matrix: (Units=GPa)
#
#
# Indices 1 2 3 4 5 6 
#
# 1 38.7470 22.8497 4.4071 0.0000 -18.9880 0.0000
# 2 22.8497 82.2564 18.5376 0.0000 -6.1135 0.0000
# 3 4.4071 18.5376 57.6803 0.0000 -19.9477 0.0000
# 4 0.0000 0.0000 0.0000 30.0994 0.0000 -5.2952
# 5 -18.9880 -6.1135 -19.9477 0.0000 39.6821 0.0000
# 6 0.0000 0.0000 0.0000 -5.2952 0.0000 26.6482
#
#
#
# Elastic Compliance Matrix: (Units=1/GPa)
#
#
# Indices 1 2 3 4 5 6 
#
# 1 0.043484 -0.012306 0.008682 0.000000 0.023276 0.000000
# 2 -0.012306 0.016589 -0.006711 0.000000 -0.006706 0.000000
# 3 0.008682 -0.006711 0.024099 0.000000 0.015235 0.000000
# 4 0.000000 0.000000 0.000000 0.034427 0.000000 0.006841
# 5 0.023276 -0.006706 0.015235 0.000000 0.042963 0.000000
# 6 0.000000 0.000000 0.000000 0.006841 0.000000 0.038885
#
#
# Mechanical properties :
#
#
# Convention : Reuss Voigt Hill
#
# Bulk Modulus (GPa) = 15.74712 30.03030 22.88871
# Shear Modulus (GPa) = 20.63688 28.14522 24.39105
#
# Velocity S-wave (km/s) = 3.33810 3.89833 3.62904
# Velocity P-wave (km/s) = 4.83320 6.03966 5.46980
#
# Compressibility (1/GPa) = 0.06350369
#
# Stress axis : x y z
#
# Youngs Moduli (GPa) = 22.99680 60.27915 41.49558
#
# Poissons Ratio (x) = 0.74180 -0.36027
# Poissons Ratio (y) = 0.28300 0.27846
# Poissons Ratio (z) = -0.19966 0.40450
#
# Static dielectric constant tensor:
#      x y z
#    x 1.657200 0.000000 -0.041590 
#    y 0.000000 1.613840 0.000000 
#    z -0.041590 0.000000 1.633080 
# 
# From -- ./inp_files/66903.got.cif
#   From: 2010.05.17/outbox.cif.g08.bks.cpg/sg11_34_cif.got.tgz:66903.got - 2010.06.03 12:22:45.
