data_PCOD9157731
_publ_section_title
;
Structure prediction by ZEFSAII (Michael W. Deem and Ramdas Pophale) SiO2 
 PCOD9157731
Probable space group: P 21/M
;
_chemical_formula_sum "Si O2"
_cell_formula_units_Z 20
_cell_length_a 14.264564
_cell_length_b 11.336733
_cell_length_c 11.580081
_cell_angle_alpha 90.000000
_cell_angle_beta 30.338996
_cell_angle_gamma 90.000000
_cell_volume 945.906924
_symmetry_space_group_name_H-M "P 21/M"
_symmetry_group_IT_number 11
_symmetry_cell_setting 'monoclinic'
loop_
_space_group_symop_operation_xyz
x,y,z
-x,1/2+y,-z
-x,-y,-z
x,1/2-y,z
loop_
_atom_site_type_symbol
_atom_site_label
_atom_site_fract_x
_atom_site_fract_y
_atom_site_fract_z
Si Si1 0.749947 0.250000 0.228866
Si Si2 0.681740 0.007616 0.389546
Si Si3 0.664474 0.750000 0.397362
Si Si4 0.568506 0.484507 0.777537
Si Si5 0.343192 0.250000 0.332512
Si Si6 0.896916 0.250000 0.812501
Si Si7 0.203894 0.543527 0.251502
O O1 0.797719 0.123261 0.232833
O O2 0.522875 0.250000 0.478536
O O3 0.823429 0.250000 0.020435
O O4 0.500000 0.000000 0.500000
O O5 0.766678 0.875968 0.281166
O O6 0.623012 0.023931 0.585919
O O7 0.587290 0.750000 0.609913
O O8 0.592534 0.624539 0.783797
O O9 0.703175 0.420006 0.724816
O O10 0.354776 0.455942 0.032399
O O11 0.120134 0.250000 0.573576
O O12 0.824828 0.140154 0.816153
O O13 0.000000 0.500000 0.500000
#
# Coordination Sequence:
#
# PCOD9157731 Si02
#       7
#     2   4   2   4   2   2   4
#     4  10  20  35  61  87 121 165 212 268 317 381
#     4   9  17  34  60  89 121 166 209 255 317 384
#     4   8  16  32  55  80 113 160 204 243 311 379
#     4  10  21  38  62  90 128 166 209 256 329 385
#     4  10  18  36  60  86 118 164 204 253 318 390
#     4  12  22  37  60  89 122 161 216 266 318 388
#     4  11  22  38  61  92 122 162 209 266 313 384
#
# _framework density 21.143730000000001
#
# number of rings (size 3 to 8) (size 9 to 14) (size 15 to 20)
#    0.000    2.000    2.000    4.200    0.000    0.800 
#    0.000    6.000    4.400    2.400    0.000    0.000 
#    0.000    0.000    0.000    0.000    0.000    0.000 
#
# Total GULP energy -111381.541686 kJ/mol
# GULP energy per Si atom -5569.077084 kJ/mol
# Density = 2.109561 g / cm^3
# Si number density = 21.143730 Si / 1000 Ang^3
#
#
#
# Elastic Constant Matrix: (Units=GPa)
#
#
# Indices 1 2 3 4 5 6 
#
# 1 104.7570 17.0035 64.4551 0.0000 23.4266 0.0000
# 2 17.0035 130.2215 46.0174 0.0000 28.0822 0.0000
# 3 64.4551 46.0174 134.2578 0.0000 -2.8334 0.0000
# 4 0.0000 0.0000 0.0000 16.8652 0.0000 12.1372
# 5 23.4266 28.0822 -2.8334 0.0000 43.5541 0.0000
# 6 0.0000 0.0000 0.0000 12.1372 0.0000 24.1426
#
#
#
# Elastic Compliance Matrix: (Units=1/GPa)
#
#
# Indices 1 2 3 4 5 6 
#
# 1 0.018262 0.004159 -0.010471 0.000000 -0.013186 0.000000
# 2 0.004159 0.011469 -0.006140 0.000000 -0.010031 0.000000
# 3 -0.010471 -0.006140 0.014803 0.000000 0.010554 0.000000
# 4 0.000000 0.000000 0.000000 0.092907 0.000000 -0.046707
# 5 -0.013186 -0.010031 0.010554 0.000000 0.037207 0.000000
# 6 0.000000 0.000000 0.000000 -0.046707 0.000000 0.064902
#
#
# Mechanical properties :
#
#
# Convention : Reuss Voigt Hill
#
# Bulk Modulus (GPa) = 50.94081 69.35426 60.14754
# Shear Modulus (GPa) = 18.45046 33.02975 25.74010
#
# Velocity S-wave (km/s) = 2.95722 3.95670 3.49289
# Velocity P-wave (km/s) = 5.98374 7.33120 6.69147
#
# Compressibility (1/GPa) = 0.01963062
#
# Stress axis : x y z
#
# Youngs Moduli (GPa) = 54.75754 87.19192 67.55591
#
# Poissons Ratio (x) = -0.36265 0.70740
# Poissons Ratio (y) = -0.22775 0.41476
# Poissons Ratio (z) = 0.57338 0.53532
#
# Static dielectric constant tensor:
#      x y z
#    x 1.775030 0.000000 -0.042480 
#    y 0.000000 1.833420 0.000000 
#    z -0.042480 0.000000 1.774250 
# 
# From -- ./inp_files/34165.got.cif
#   From: 2010.05.17/outbox.cif.g08.bks.cpg/sg11_18_cif.got.tgz:34165.got - 2010.06.03 12:22:45.
