data_PCOD9157602
_publ_section_title
;
Structure prediction by ZEFSAII (Michael W. Deem and Ramdas Pophale) SiO2 
 PCOD9157602
Probable space group: P 21/M
;
_chemical_formula_sum "Si O2"
_cell_formula_units_Z 28
_cell_length_a 13.876329
_cell_length_b 14.515590
_cell_length_c 20.501527
_cell_angle_alpha 90.000000
_cell_angle_beta 160.841926
_cell_angle_gamma 90.000000
_cell_volume 1355.194608
_symmetry_space_group_name_H-M "P 21/M"
_symmetry_group_IT_number 11
_symmetry_cell_setting 'monoclinic'
loop_
_space_group_symop_operation_xyz
x,y,z
-x,1/2+y,-z
-x,-y,-z
x,1/2-y,z
loop_
_atom_site_type_symbol
_atom_site_label
_atom_site_fract_x
_atom_site_fract_y
_atom_site_fract_z
Si Si1 0.632342 0.024527 0.398902
Si Si2 0.654932 0.009736 0.266026
Si Si3 0.832968 0.478999 0.733199
Si Si4 0.335412 0.854547 0.256757
Si Si5 0.314845 0.423950 0.842189
Si Si6 0.284934 0.147961 0.954277
Si Si7 0.851129 0.856150 0.833692
O O1 0.522983 0.016120 0.254034
O O2 0.424502 0.094003 0.306495
O O3 0.968500 0.054765 0.615265
O O4 0.600135 0.922997 0.408775
O O5 0.577514 0.929260 0.164098
O O6 0.561839 0.103262 0.169112
O O7 0.000000 0.000000 0.500000
O O8 0.500000 0.500000 0.500000
O O9 0.825116 0.404237 0.786112
O O10 0.935931 0.576791 0.828260
O O11 0.030483 0.428176 0.805674
O O12 0.419779 0.750000 0.325321
O O13 0.112551 0.855140 0.053439
O O14 0.336839 0.345226 0.910080
O O15 0.500000 0.500000 0.000000
O O16 0.212910 0.250000 0.933435
O O17 0.784545 0.750000 0.773095
#
# Coordination Sequence:
#
# PCOD9157602 Si02
#       7
#     4   4   4   4   4   4   4
#     4  10  18  34  58  81 108 148 186 226 285 341
#     4   9  19  37  59  81 108 144 187 244 298 334
#     4  11  22  35  55  84 120 154 186 230 282 335
#     4  10  20  35  54  80 112 145 182 226 275 340
#     4   9  20  37  54  75 109 145 182 235 285 324
#     4  11  21  36  60  87 114 153 198 237 281 341
#     4  10  21  36  57  86 118 149 188 232 280 341
#
# _framework density 20.661238999999998
#
# number of rings (size 3 to 8) (size 9 to 14) (size 15 to 20)
#    0.000    2.000    0.000    5.571    0.000    4.571 
#    0.000    9.286    0.000   10.286    0.000    0.000 
#    0.000    0.000    0.000    0.000    0.000    0.000 
#
# Total GULP energy -155966.953244 kJ/mol
# GULP energy per Si atom -5570.248330 kJ/mol
# Density = 2.061421 g / cm^3
# Si number density = 20.661239 Si / 1000 Ang^3
#
#
#
# Elastic Constant Matrix: (Units=GPa)
#
#
# Indices 1 2 3 4 5 6 
#
# 1 92.1583 42.7918 6.5456 0.0000 -19.2330 0.0000
# 2 42.7918 165.3081 23.7550 0.0000 0.0157 0.0000
# 3 6.5456 23.7550 80.3584 0.0000 1.0040 0.0000
# 4 0.0000 0.0000 0.0000 1.4581 0.0000 -2.0300
# 5 -19.2330 0.0157 1.0040 0.0000 34.4300 0.0000
# 6 0.0000 0.0000 0.0000 -2.0300 0.0000 19.3428
#
#
#
# Elastic Compliance Matrix: (Units=1/GPa)
#
#
# Indices 1 2 3 4 5 6 
#
# 1 0.014221 -0.003656 -0.000177 0.000000 0.007951 0.000000
# 2 -0.003656 0.007258 -0.001823 0.000000 -0.001993 0.000000
# 3 -0.000177 -0.001823 0.013003 0.000000 -0.000477 0.000000
# 4 0.000000 0.000000 0.000000 0.803178 0.000000 0.084292
# 5 0.007951 -0.001993 -0.000477 0.000000 0.033501 0.000000
# 6 0.000000 0.000000 0.000000 0.084292 0.000000 0.060545
#
#
# Mechanical properties :
#
#
# Convention : Reuss Voigt Hill
#
# Bulk Modulus (GPa) = 43.15959 53.77884 48.46921
# Shear Modulus (GPa) = 5.25906 28.69500 16.97703
#
# Velocity S-wave (km/s) = 1.59715 3.73075 2.86961
# Velocity P-wave (km/s) = 4.93312 6.68157 5.87278
#
# Compressibility (1/GPa) = 0.02316982
#
# Stress axis : x y z
#
# Youngs Moduli (GPa) = 70.32088 137.77971 76.90258
#
# Poissons Ratio (x) = 0.50379 0.01359
# Poissons Ratio (y) = 0.25713 0.14018
# Poissons Ratio (z) = 0.01243 0.25115
#
# Static dielectric constant tensor:
#      x y z
#    x 1.804250 0.000000 -0.011790 
#    y 0.000000 1.705830 0.000000 
#    z -0.011790 0.000000 1.752250 
# 
# From -- ./inp_files/65662.got.cif
#   From: 2010.05.17/outbox.cif.g08.bks.cpg/sg11_33_cif.got.tgz:65662.got - 2010.06.03 12:22:45.
