data_PCOD9157685
_publ_section_title
;
Structure prediction by ZEFSAII (Michael W. Deem and Ramdas Pophale) SiO2 
 PCOD9157685
Probable space group: P 21/M
;
_chemical_formula_sum "Si O2"
_cell_formula_units_Z 28
_cell_length_a 8.264508
_cell_length_b 15.346288
_cell_length_c 11.872835
_cell_angle_alpha 90.000000
_cell_angle_beta 104.670189
_cell_angle_gamma 90.000000
_cell_volume 1456.735513
_symmetry_space_group_name_H-M "P 21/M"
_symmetry_group_IT_number 11
_symmetry_cell_setting 'monoclinic'
loop_
_space_group_symop_operation_xyz
x,y,z
-x,1/2+y,-z
-x,-y,-z
x,1/2-y,z
loop_
_atom_site_type_symbol
_atom_site_label
_atom_site_fract_x
_atom_site_fract_y
_atom_site_fract_z
Si Si1 0.650618 0.601052 0.603737
Si Si2 0.405726 0.346618 0.160499
Si Si3 0.522371 0.408991 0.655362
Si Si4 0.887923 0.153834 0.746370
Si Si5 0.112913 0.077267 0.970358
Si Si6 0.673986 0.495107 0.192107
Si Si7 0.005788 0.019059 0.369734
O O1 0.599219 0.653901 0.704589
O O2 0.584480 0.503872 0.622975
O O3 0.573291 0.629174 0.470395
O O4 0.849383 0.588471 0.629026
O O5 0.446599 0.250000 0.125263
O O6 0.536579 0.420987 0.146594
O O7 0.223765 0.375704 0.083822
O O8 0.688006 0.357511 0.720350
O O9 0.405795 0.430492 0.741434
O O10 0.925481 0.250000 0.707290
O O11 0.948529 0.072937 0.681303
O O12 0.987427 0.139902 0.880198
O O13 0.244330 0.036226 0.904299
O O14 0.000000 0.000000 0.000000
O O15 0.826699 0.454028 0.290212
O O16 0.000000 0.000000 0.500000
#
# Coordination Sequence:
#
# PCOD9157685 Si02
#       7
#     4   4   4   4   4   4   4
#     4   9  18  34  57  83 115 155 192 227 286 360
#     4  11  23  38  58  88 124 154 190 250 304 342
#     4   9  17  34  58  84 112 150 195 235 285 355
#     4  10  22  37  57  86 117 152 196 254 301 334
#     4  11  22  42  64  85 112 158 210 241 289 364
#     4  10  20  37  62  87 113 154 207 240 286 356
#     4  10  18  35  60  84 114 158 198 234 283 360
#
# _framework density 19.221059
#
# number of rings (size 3 to 8) (size 9 to 14) (size 15 to 20)
#    0.000    2.000    1.429    4.286    2.000    0.571 
#    0.000    9.286    0.000    0.000    0.000    0.000 
#    0.000    0.000    0.000    0.000    0.000    0.000 
#
# Total GULP energy -156191.865114 kJ/mol
# GULP energy per Si atom -5578.280897 kJ/mol
# Density = 1.917731 g / cm^3
# Si number density = 19.221059 Si / 1000 Ang^3
#
#
#
# Elastic Constant Matrix: (Units=GPa)
#
#
# Indices 1 2 3 4 5 6 
#
# 1 88.9700 16.5667 40.2234 0.0000 14.1638 0.0000
# 2 16.5667 60.3536 27.4138 0.0000 13.2119 0.0000
# 3 40.2234 27.4138 92.1629 0.0000 16.0226 0.0000
# 4 0.0000 0.0000 0.0000 6.8584 0.0000 -5.7637
# 5 14.1638 13.2119 16.0226 0.0000 40.6721 0.0000
# 6 0.0000 0.0000 0.0000 -5.7637 0.0000 -0.2372
#
#
#
# Elastic Compliance Matrix: (Units=1/GPa)
#
#
# Indices 1 2 3 4 5 6 
#
# 1 0.014311 -0.000854 -0.005554 0.000000 -0.002518 0.000000
# 2 -0.000854 0.019925 -0.004810 0.000000 -0.004280 0.000000
# 3 -0.005554 -0.004810 0.015133 0.000000 -0.002465 0.000000
# 4 0.000000 0.000000 0.000000 0.006807 0.000000 -0.165401
# 5 -0.002518 -0.004280 -0.002465 0.000000 0.027825 0.000000
# 6 0.000000 0.000000 0.000000 -0.165401 0.000000 -0.196817
#
#
# Mechanical properties :
#
#
# Convention : Reuss Voigt Hill
#
# Bulk Modulus (GPa) = 37.12840 45.54381 41.33611
# Shear Modulus (GPa) = -61.42342 19.94418 -20.73962
#
# Velocity S-wave (km/s) = -5.65912 3.22471 -3.28838
# Velocity P-wave (km/s) = 4.83140 6.13279 2.67102
#
# Compressibility (1/GPa) = 0.02693356
#
# Stress axis : x y z
#
# Youngs Moduli (GPa) = 69.87842 50.18781 66.07860
#
# Poissons Ratio (x) = 0.04287 0.36699
# Poissons Ratio (y) = 0.05970 0.31782
# Poissons Ratio (z) = 0.38809 0.24139
#
# Static dielectric constant tensor:
#      x y z
#    x 1.675890 0.000000 0.012360 
#    y 0.000000 1.661640 0.000000 
#    z 0.012360 0.000000 1.696560 
# 
# From -- ./inp_files/31726.got.cif
#   From: 2010.05.17/outbox.cif.g08.bks.cpg/sg11_16_cif.got.tgz:31726.got - 2010.06.03 12:22:45.
