data_PCOD9157241
_publ_section_title
;
Structure prediction by ZEFSAII (Michael W. Deem and Ramdas Pophale) SiO2 
 PCOD9157241
Probable space group: P 21/M
;
_chemical_formula_sum "Si O2"
_cell_formula_units_Z 24
_cell_length_a 25.135663
_cell_length_b 8.657530
_cell_length_c 9.427818
_cell_angle_alpha 90.000000
_cell_angle_beta 138.440498
_cell_angle_gamma 90.000000
_cell_volume 1361.035213
_symmetry_space_group_name_H-M "P 21/M"
_symmetry_group_IT_number 11
_symmetry_cell_setting 'monoclinic'
loop_
_space_group_symop_operation_xyz
x,y,z
-x,1/2+y,-z
-x,-y,-z
x,1/2-y,z
loop_
_atom_site_type_symbol
_atom_site_label
_atom_site_fract_x
_atom_site_fract_y
_atom_site_fract_z
Si Si1 0.075966 0.065292 0.565479
Si Si2 0.340051 0.566478 0.353655
Si Si3 0.422591 0.435060 0.261360
Si Si4 0.828850 0.564268 0.978201
Si Si5 0.006500 0.434555 0.856060
Si Si6 0.507277 0.564946 0.172599
O O1 0.071032 0.250000 0.549323
O O2 0.150139 0.025366 0.815563
O O3 0.064406 0.997522 0.386454
O O4 0.000000 0.000000 0.500000
O O5 0.351204 0.750000 0.372794
O O6 0.351334 0.497881 0.217243
O O7 0.409506 0.493080 0.590315
O O8 0.251842 0.519725 0.228619
O O9 0.500000 0.500000 0.500000
O O10 0.422901 0.250000 0.261098
O O11 0.435876 0.499820 0.130378
O O12 0.818503 0.750000 0.947947
O O13 0.907454 0.522259 0.042721
O O14 0.002875 0.250000 0.849558
O O15 0.000000 0.500000 0.000000
O O16 0.505635 0.750000 0.170656
O O17 0.500000 0.500000 0.000000
#
# Coordination Sequence:
#
# PCOD9157241 Si02
#       6
#     4   4   4   4   4   4
#     4   9  17  31  52  75 101 132 171 211 253 305
#     4  11  21  34  54  80 106 137 177 220 262 308
#     4  10  18  32  53  76 102 134 171 210 252 303
#     4   9  19  35  53  76 104 137 174 218 267 313
#     4  10  20  34  54  78 107 140 177 216 262 316
#     4  11  21  36  56  79 108 140 175 215 260 315
#
# _framework density 17.633635999999999
#
# number of rings (size 3 to 8) (size 9 to 14) (size 15 to 20)
#    0.000    2.000    0.000    8.500    0.000    4.000 
#    0.000    1.667    0.000    6.000    0.000    0.000 
#    0.000    0.000    0.000    0.000    0.000    0.000 
#
# Total GULP energy -133820.337563 kJ/mol
# GULP energy per Si atom -5575.847398 kJ/mol
# Density = 1.759350 g / cm^3
# Si number density = 17.633636 Si / 1000 Ang^3
#
#
#
# Elastic Constant Matrix: (Units=GPa)
#
#
# Indices 1 2 3 4 5 6 
#
# 1 89.8397 45.7411 51.5143 0.0000 -20.5674 0.0000
# 2 45.7411 128.0688 42.2935 0.0000 -7.5431 0.0000
# 3 51.5143 42.2935 87.5898 0.0000 -16.0752 0.0000
# 4 0.0000 0.0000 0.0000 28.5825 0.0000 -4.8109
# 5 -20.5674 -7.5431 -16.0752 0.0000 36.9179 0.0000
# 6 0.0000 0.0000 0.0000 -4.8109 0.0000 29.9461
#
#
#
# Elastic Compliance Matrix: (Units=1/GPa)
#
#
# Indices 1 2 3 4 5 6 
#
# 1 0.019292 -0.003753 -0.008372 0.000000 0.006336 0.000000
# 2 -0.003753 0.010020 -0.002868 0.000000 -0.001292 0.000000
# 3 -0.008372 -0.002868 0.018218 0.000000 0.002683 0.000000
# 4 0.000000 0.000000 0.000000 0.035959 0.000000 0.005777
# 5 0.006336 -0.001292 0.002683 0.000000 0.031521 0.000000
# 6 0.000000 0.000000 0.000000 0.005777 0.000000 0.034321
#
#
# Mechanical properties :
#
#
# Convention : Reuss Voigt Hill
#
# Bulk Modulus (GPa) = 56.99678 64.95513 60.97596
# Shear Modulus (GPa) = 27.00303 30.15258 28.57781
#
# Velocity S-wave (km/s) = 3.91747 4.13964 4.03009
# Velocity P-wave (km/s) = 7.27015 7.73076 7.50399
#
# Compressibility (1/GPa) = 0.01754485
#
# Stress axis : x y z
#
# Youngs Moduli (GPa) = 51.83383 99.80343 54.89158
#
# Poissons Ratio (x) = 0.37453 0.45953
# Poissons Ratio (y) = 0.19451 0.15744
# Poissons Ratio (z) = 0.43393 0.28626
#
# Static dielectric constant tensor:
#      x y z
#    x 1.646510 0.000000 0.016790 
#    y 0.000000 1.586490 0.000000 
#    z 0.016790 0.000000 1.636260 
# 
# From -- ./inp_files/25934.got.cif
#   From: 2010.05.17/outbox.cif.g08.bks.cpg/sg11_13_cif.got.tgz:25934.got - 2010.06.03 12:22:45.
