data_PCOD9157302
_publ_section_title
;
Structure prediction by ZEFSAII (Michael W. Deem and Ramdas Pophale) SiO2 
 PCOD9157302
Probable space group: P 21/M
;
_chemical_formula_sum "Si O2"
_cell_formula_units_Z 28
_cell_length_a 12.242434
_cell_length_b 8.279065
_cell_length_c 20.370411
_cell_angle_alpha 90.000000
_cell_angle_beta 139.095184
_cell_angle_gamma 90.000000
_cell_volume 1351.949307
_symmetry_space_group_name_H-M "P 21/M"
_symmetry_group_IT_number 11
_symmetry_cell_setting 'monoclinic'
loop_
_space_group_symop_operation_xyz
x,y,z
-x,1/2+y,-z
-x,-y,-z
x,1/2-y,z
loop_
_atom_site_type_symbol
_atom_site_label
_atom_site_fract_x
_atom_site_fract_y
_atom_site_fract_z
Si Si1 0.501098 0.058037 0.297126
Si Si2 0.939624 0.945268 0.148865
Si Si3 0.293250 0.552375 0.729500
Si Si4 0.601431 0.941756 0.483097
Si Si5 0.859444 0.056333 0.885331
Si Si6 0.022591 0.444807 0.333161
Si Si7 0.433808 0.055243 0.040419
O O1 0.513072 0.250000 0.307940
O O2 0.649162 0.999519 0.316424
O O3 0.514554 0.985954 0.375473
O O4 0.322515 0.015423 0.184625
O O5 0.940100 0.750000 0.152230
O O6 0.078492 0.994774 0.159196
O O7 0.969429 0.010130 0.235201
O O8 0.757691 0.998412 0.040268
O O9 0.291721 0.750000 0.728732
O O10 0.116591 0.497097 0.678292
O O11 0.438376 0.499614 0.845837
O O12 0.611215 0.750000 0.492047
O O13 0.791005 0.007278 0.569466
O O14 0.500000 0.000000 0.500000
O O15 0.849443 0.250000 0.882354
O O16 0.000000 0.000000 0.000000
O O17 0.024726 0.250000 0.338339
O O18 0.434083 0.250000 0.042439
O O19 0.500000 0.000000 0.000000
#
# Coordination Sequence:
#
# PCOD9157302 Si02
#       7
#     4   4   4   4   4   4   4
#     4  11  23  41  64  88 120 161 197 241 304 361
#     4  10  21  35  55  85 119 153 192 243 298 351
#     4   9  19  37  59  84 119 158 195 239 298 359
#     4  11  24  42  64  90 118 152 201 253 303 359
#     4  11  23  40  61  87 121 159 201 247 295 353
#     4  10  21  38  61  86 113 152 200 246 293 355
#     4  10  18  32  54  81 115 153 190 230 282 344
#
# _framework density 20.710836
#
# number of rings (size 3 to 8) (size 9 to 14) (size 15 to 20)
#    0.000    1.714    1.429    3.000    0.000    7.429 
#    0.000    4.286    0.000    0.000    0.000    0.000 
#    0.000    0.000    0.000    0.000    0.000    0.000 
#
# Total GULP energy -156482.455352 kJ/mol
# GULP energy per Si atom -5588.659120 kJ/mol
# Density = 2.066370 g / cm^3
# Si number density = 20.710836 Si / 1000 Ang^3
#
#
#
# Elastic Constant Matrix: (Units=GPa)
#
#
# Indices 1 2 3 4 5 6 
#
# 1 156.4666 13.8123 45.5354 0.0000 3.7130 0.0000
# 2 13.8123 15.5894 3.8835 0.0000 2.5405 0.0000
# 3 45.5354 3.8835 99.1099 0.0000 9.5180 0.0000
# 4 0.0000 0.0000 0.0000 28.4858 0.0000 -2.8361
# 5 3.7130 2.5405 9.5180 0.0000 38.6679 0.0000
# 6 0.0000 0.0000 0.0000 -2.8361 0.0000 24.4643
#
#
#
# Elastic Compliance Matrix: (Units=1/GPa)
#
#
# Indices 1 2 3 4 5 6 
#
# 1 0.007935 -0.006252 -0.003448 0.000000 0.000498 0.000000
# 2 -0.006252 0.070231 0.000518 0.000000 -0.004141 0.000000
# 3 -0.003448 0.000518 0.011907 0.000000 -0.002634 0.000000
# 4 0.000000 0.000000 0.000000 0.035515 0.000000 0.004117
# 5 0.000498 -0.004141 -0.002634 0.000000 0.026734 0.000000
# 6 0.000000 0.000000 0.000000 0.004117 0.000000 0.041353
#
#
# Mechanical properties :
#
#
# Convention : Reuss Voigt Hill
#
# Bulk Modulus (GPa) = 13.94537 44.18090 29.06313
# Shear Modulus (GPa) = 21.19158 32.18591 26.68875
#
# Velocity S-wave (km/s) = 3.20224 3.94644 3.59365
# Velocity P-wave (km/s) = 4.51890 6.49187 5.59307
#
# Compressibility (1/GPa) = 0.07170840
#
# Stress axis : x y z
#
# Youngs Moduli (GPa) = 126.02659 14.23863 83.98575
#
# Poissons Ratio (x) = 0.08902 0.28962
# Poissons Ratio (y) = 0.78796 -0.04354
# Poissons Ratio (z) = 0.43459 -0.00738
#
# Static dielectric constant tensor:
#      x y z
#    x 1.739060 0.000000 0.025710 
#    y 0.000000 1.724900 0.000000 
#    z 0.025710 0.000000 1.724220 
# 
# From -- ./inp_files/64477.got.cif
#   From: 2010.05.17/outbox.cif.g08.bks.cpg/sg11_33_cif.got.tgz:64477.got - 2010.06.03 12:22:45.
