data_PCOD9157757
_publ_section_title
;
Structure prediction by ZEFSAII (Michael W. Deem and Ramdas Pophale) SiO2 
 PCOD9157757
Probable space group: P 21/M
;
_chemical_formula_sum "Si O2"
_cell_formula_units_Z 28
_cell_length_a 9.566578
_cell_length_b 26.465292
_cell_length_c 8.425289
_cell_angle_alpha 90.000000
_cell_angle_beta 34.747777
_cell_angle_gamma 90.000000
_cell_volume 1215.811403
_symmetry_space_group_name_H-M "P 21/M"
_symmetry_group_IT_number 11
_symmetry_cell_setting 'monoclinic'
loop_
_space_group_symop_operation_xyz
x,y,z
-x,1/2+y,-z
-x,-y,-z
x,1/2-y,z
loop_
_atom_site_type_symbol
_atom_site_label
_atom_site_fract_x
_atom_site_fract_y
_atom_site_fract_z
Si Si1 0.971480 0.414321 0.965131
Si Si2 0.134209 0.095213 0.339849
Si Si3 0.876610 0.305644 0.561083
Si Si4 0.449059 0.054124 0.321575
Si Si5 0.047827 0.305409 0.028768
Si Si6 0.226558 0.948252 0.539857
Si Si7 0.461940 0.148289 0.792993
O O1 0.726590 0.428816 0.094491
O O2 0.946160 0.449265 0.145518
O O3 0.235328 0.424728 0.638917
O O4 0.958496 0.354596 0.018964
O O5 0.345435 0.072946 0.250188
O O6 0.009217 0.146987 0.519964
O O7 0.926662 0.055780 0.480093
O O8 0.252944 0.114403 0.066493
O O9 0.923070 0.250000 0.583239
O O10 0.590553 0.319521 0.811584
O O11 0.950811 0.304335 0.303036
O O12 0.415548 0.993845 0.362240
O O13 0.997207 0.250000 0.007786
O O14 0.339528 0.315360 0.779997
O O15 0.355278 0.894049 0.438601
#
# Coordination Sequence:
#
# PCOD9157757 Si02
#       7
#     4   4   4   4   4   4   4
#     4  12  25  45  64  99 135 170 223 270 324 397
#     4  10  23  41  64  94 132 168 223 273 319 401
#     4   9  18  35  65  95 121 162 222 278 323 374
#     4  12  29  42  66  96 142 179 210 270 340 385
#     4  10  20  38  65  96 124 168 218 275 326 382
#     4  11  23  43  68  94 126 181 228 269 316 387
#     4  10  18  36  68  95 128 155 231 278 312 376
#
# _framework density 23.029888
#
# number of rings (size 3 to 8) (size 9 to 14) (size 15 to 20)
#    0.000    1.429    4.286    2.571    6.000    1.143 
#    0.000    1.429    0.000    0.000    0.000    0.000 
#    0.000    0.000    0.000    0.000    0.000    0.000 
#
# Total GULP energy -156270.608307 kJ/mol
# GULP energy per Si atom -5581.093154 kJ/mol
# Density = 2.297747 g / cm^3
# Si number density = 23.029888 Si / 1000 Ang^3
#
#
#
# Elastic Constant Matrix: (Units=GPa)
#
#
# Indices 1 2 3 4 5 6 
#
# 1 79.9436 21.5123 -5.0170 0.0000 -23.4961 0.0000
# 2 21.5123 128.6095 1.3276 0.0000 -3.7879 0.0000
# 3 -5.0170 1.3276 26.1585 0.0000 -13.5712 0.0000
# 4 0.0000 0.0000 0.0000 38.1463 0.0000 37.2130
# 5 -23.4961 -3.7879 -13.5712 0.0000 26.2985 0.0000
# 6 0.0000 0.0000 0.0000 37.2130 0.0000 112.3369
#
#
#
# Elastic Compliance Matrix: (Units=1/GPa)
#
#
# Indices 1 2 3 4 5 6 
#
# 1 0.024271 -0.003330 0.021612 0.000000 0.032358 0.000000
# 2 -0.003330 0.008267 -0.002709 0.000000 -0.003182 0.000000
# 3 0.021612 -0.002709 0.071457 0.000000 0.055793 0.000000
# 4 0.000000 0.000000 0.000000 0.038731 0.000000 -0.012830
# 5 0.032358 -0.003182 0.055793 0.000000 0.095268 0.000000
# 6 0.000000 0.000000 0.000000 -0.012830 0.000000 0.013152
#
#
# Mechanical properties :
#
#
# Convention : Reuss Voigt Hill
#
# Bulk Modulus (GPa) = 7.39975 30.03970 18.71972
# Shear Modulus (GPa) = 18.86449 49.81558 34.34003
#
# Velocity S-wave (km/s) = 2.86515 4.65594 3.86568
# Velocity P-wave (km/s) = 3.76371 6.47888 5.29818
#
# Compressibility (1/GPa) = 0.13513978
#
# Stress axis : x y z
#
# Youngs Moduli (GPa) = 41.20077 120.96737 13.99444
#
# Poissons Ratio (x) = 0.40281 -0.30244
# Poissons Ratio (y) = 0.13719 0.03791
# Poissons Ratio (z) = -0.89041 0.32773
#
# Static dielectric constant tensor:
#      x y z
#    x 1.907670 0.000000 -0.019820 
#    y 0.000000 1.865170 0.000000 
#    z -0.019820 0.000000 2.002500 
# 
# From -- ./inp_files/15253.got.cif
#   From: 2010.05.17/outbox.cif.g08.bks.cpg/sg11_8_cif.got.tgz:15253.got - 2010.06.03 12:22:45.
