data_PCOD9157077
_publ_section_title
;
Structure prediction by ZEFSAII (Michael W. Deem and Ramdas Pophale) SiO2 
 PCOD9157077
Probable space group: P 21/M
;
_chemical_formula_sum "Si O2"
_cell_formula_units_Z 32
_cell_length_a 12.650827
_cell_length_b 8.958237
_cell_length_c 20.122964
_cell_angle_alpha 90.000000
_cell_angle_beta 64.488149
_cell_angle_gamma 90.000000
_cell_volume 2058.158448
_symmetry_space_group_name_H-M "P 21/M"
_symmetry_group_IT_number 11
_symmetry_cell_setting 'monoclinic'
loop_
_space_group_symop_operation_xyz
x,y,z
-x,1/2+y,-z
-x,-y,-z
x,1/2-y,z
loop_
_atom_site_type_symbol
_atom_site_label
_atom_site_fract_x
_atom_site_fract_y
_atom_site_fract_z
Si Si1 0.832975 0.575015 0.493837
Si Si2 0.997459 0.070741 0.338410
Si Si3 0.699726 0.425266 0.188527
Si Si4 0.526892 0.072035 0.698462
Si Si5 0.555898 0.575477 0.549024
Si Si6 0.077834 0.427540 0.921742
Si Si7 0.202473 0.571635 0.354935
Si Si8 0.087138 0.574250 0.785150
O O1 0.862987 0.750000 0.493343
O O2 0.697103 0.564407 0.508861
O O3 0.841258 0.492900 0.562435
O O4 0.913146 0.499023 0.416946
O O5 0.996881 0.250000 0.343794
O O6 0.952048 0.029274 0.277263
O O7 0.125473 0.006068 0.319410
O O8 0.690707 0.250000 0.176221
O O9 0.574569 0.500052 0.229885
O O10 0.789695 0.506078 0.113957
O O11 0.773261 0.440668 0.238157
O O12 0.513402 0.250000 0.699950
O O13 0.659018 0.037966 0.686779
O O14 0.517076 0.005539 0.627054
O O15 0.500000 0.500000 0.500000
O O16 0.524407 0.750000 0.560736
O O17 0.078916 0.250000 0.926350
O O18 0.033574 0.480583 0.860640
O O19 0.000000 0.500000 0.000000
O O20 0.187175 0.750000 0.357974
O O21 0.059559 0.750000 0.801850
#
# Coordination Sequence:
#
# PCOD9157077 Si02
#       8
#     4   4   4   4   4   4   4   4
#     4  10  21  35  49  67  91 125 169 211 256 303
#     4  11  21  34  52  71  97 129 165 210 255 298
#     4   9  18  33  51  74 103 131 161 196 239 288
#     4  10  20  34  50  69  94 126 164 205 247 292
#     4  10  21  33  46  65  91 124 161 203 251 302
#     4  10  18  31  52  78 109 138 164 195 235 289
#     4  10  21  36  51  69  94 127 170 215 255 296
#     4   8  19  34  48  74 104 132 163 197 244 292
#
# _framework density 15.547881
#
# number of rings (size 3 to 8) (size 9 to 14) (size 15 to 20)
#    0.750    1.500    0.000    3.375    1.750    4.000 
#    0.000    0.000    0.000    0.000    0.000    0.875 
#    0.000    0.000    0.000    0.000    0.000    0.000 
#
# Total GULP energy -178326.379621 kJ/mol
# GULP energy per Si atom -5572.699363 kJ/mol
# Density = 1.551249 g / cm^3
# Si number density = 15.547881 Si / 1000 Ang^3
#
#
#
# Elastic Constant Matrix: (Units=GPa)
#
#
# Indices 1 2 3 4 5 6 
#
# 1 48.9316 41.1438 43.0435 0.0000 -5.3438 0.0000
# 2 41.1438 97.5545 55.6387 0.0000 -11.4820 0.0000
# 3 43.0435 55.6387 95.7629 0.0000 -21.5678 0.0000
# 4 0.0000 0.0000 0.0000 27.5454 0.0000 -2.6351
# 5 -5.3438 -11.4820 -21.5678 0.0000 18.2027 0.0000
# 6 0.0000 0.0000 0.0000 -2.6351 0.0000 26.8172
#
#
#
# Elastic Compliance Matrix: (Units=1/GPa)
#
#
# Indices 1 2 3 4 5 6 
#
# 1 0.041089 -0.009961 -0.015522 0.000000 -0.012612 0.000000
# 2 -0.009961 0.017765 -0.005427 0.000000 0.001851 0.000000
# 3 -0.015522 -0.005427 0.025609 0.000000 0.022363 0.000000
# 4 0.000000 0.000000 0.000000 0.036648 0.000000 0.003601
# 5 -0.012612 0.001851 0.022363 0.000000 0.078899 0.000000
# 6 0.000000 0.000000 0.000000 0.003601 0.000000 0.037643
#
#
# Mechanical properties :
#
#
# Convention : Reuss Voigt Hill
#
# Bulk Modulus (GPa) = 44.16421 57.98900 51.07660
# Shear Modulus (GPa) = 16.28546 21.34127 18.81337
#
# Velocity S-wave (km/s) = 3.23993 3.70890 3.48232
# Velocity P-wave (km/s) = 6.51637 7.46454 7.00651
#
# Compressibility (1/GPa) = 0.02264277
#
# Stress axis : x y z
#
# Youngs Moduli (GPa) = 24.33731 56.29007 39.04862
#
# Poissons Ratio (x) = 0.56072 0.60610
# Poissons Ratio (y) = 0.24243 0.21193
# Poissons Ratio (z) = 0.37776 0.30551
#
# Static dielectric constant tensor:
#      x y z
#    x 1.529090 0.000000 -0.011820 
#    y 0.000000 1.516690 0.000000 
#    z -0.011820 0.000000 1.489880 
# 
# From -- ./inp_files/64187.got.cif
#   From: 2010.05.17/outbox.cif.g08.bks.cpg/sg11_33_cif.got.tgz:64187.got - 2010.06.03 12:22:45.
