data_PCOD9157605
_publ_section_title
;
Structure prediction by ZEFSAII (Michael W. Deem and Ramdas Pophale) SiO2 
 PCOD9157605
Probable space group: P 21/M
;
_chemical_formula_sum "Si O2"
_cell_formula_units_Z 32
_cell_length_a 21.202123
_cell_length_b 14.358519
_cell_length_c 14.961514
_cell_angle_alpha 90.000000
_cell_angle_beta 20.235419
_cell_angle_gamma 90.000000
_cell_volume 1575.389120
_symmetry_space_group_name_H-M "P 21/M"
_symmetry_group_IT_number 11
_symmetry_cell_setting 'monoclinic'
loop_
_space_group_symop_operation_xyz
x,y,z
-x,1/2+y,-z
-x,-y,-z
x,1/2-y,z
loop_
_atom_site_type_symbol
_atom_site_label
_atom_site_fract_x
_atom_site_fract_y
_atom_site_fract_z
Si Si1 0.786019 0.013221 0.297086
Si Si2 0.147698 0.475244 0.596061
Si Si3 0.468792 0.940394 0.631061
Si Si4 0.191309 0.646817 0.887053
Si Si5 0.265121 0.527177 0.078266
Si Si6 0.489401 0.140418 0.109425
Si Si7 0.157660 0.852093 0.466822
Si Si8 0.936058 0.642230 0.575268
O O1 0.739744 0.102686 0.298195
O O2 0.757628 0.016076 0.440097
O O3 0.666523 0.929989 0.413196
O O4 0.000000 0.000000 0.000000
O O5 0.297802 0.410288 0.349506
O O6 0.090519 0.562504 0.613541
O O7 0.973084 0.416227 0.857786
O O8 0.350178 0.856587 0.750066
O O9 0.500000 0.000000 0.500000
O O10 0.350423 0.988114 0.867222
O O11 0.124184 0.750000 0.961335
O O12 0.222453 0.431615 0.188875
O O13 0.076661 0.587365 0.323330
O O14 0.404590 0.590579 0.949840
O O15 0.464501 0.250000 0.161582
O O16 0.629665 0.133117 0.840317
O O17 0.134661 0.750000 0.539156
O O18 0.050611 0.851382 0.515454
O O19 0.891612 0.750000 0.608389
#
# Coordination Sequence:
#
# PCOD9157605 Si02
#       8
#     4   4   4   4   4   4   4   4
#     4   9  20  38  59  82 113 154 193 247 295 347
#     4  11  19  36  60  85 115 159 196 245 294 355
#     4  10  20  38  58  82 118 155 199 244 301 358
#     4  10  22  37  57  86 119 154 195 246 296 349
#     4  10  18  34  58  84 116 161 200 246 304 359
#     4  10  20  34  55  84 118 151 196 248 299 353
#     4   9  19  34  54  83 115 154 196 243 299 354
#     4   9  19  35  56  84 120 158 202 249 299 360
#
# _framework density 20.312442000000001
#
# number of rings (size 3 to 8) (size 9 to 14) (size 15 to 20)
#    0.000    2.250    1.250    2.625    0.000    1.500 
#    0.000    3.750    0.000   14.250    0.000    0.000 
#    0.000    0.000    0.000    0.000    0.000    0.000 
#
# Total GULP energy -178350.271561 kJ/mol
# GULP energy per Si atom -5573.445986 kJ/mol
# Density = 2.026621 g / cm^3
# Si number density = 20.312442 Si / 1000 Ang^3
#
#
#
# Elastic Constant Matrix: (Units=GPa)
#
#
# Indices 1 2 3 4 5 6 
#
# 1 47.0136 20.6692 12.3080 0.0000 -2.7235 0.0000
# 2 20.6692 139.1647 42.3670 0.0000 12.9878 0.0000
# 3 12.3080 42.3670 53.1040 0.0000 -1.1958 0.0000
# 4 0.0000 0.0000 0.0000 14.4209 0.0000 0.9315
# 5 -2.7235 12.9878 -1.1958 0.0000 25.9462 0.0000
# 6 0.0000 0.0000 0.0000 0.9315 0.0000 18.2526
#
#
#
# Elastic Compliance Matrix: (Units=1/GPa)
#
#
# Indices 1 2 3 4 5 6 
#
# 1 0.023575 -0.002931 -0.003040 0.000000 0.003801 0.000000
# 2 -0.002931 0.010583 -0.007898 0.000000 -0.005969 0.000000
# 3 -0.003040 -0.007898 0.025946 0.000000 0.004830 0.000000
# 4 0.000000 0.000000 0.000000 0.069573 0.000000 -0.003551
# 5 0.003801 -0.005969 0.004830 0.000000 0.042151 0.000000
# 6 0.000000 0.000000 0.000000 -0.003551 0.000000 0.054968
#
#
# Mechanical properties :
#
#
# Convention : Reuss Voigt Hill
#
# Bulk Modulus (GPa) = 30.89747 43.33009 37.11378
# Shear Modulus (GPa) = 18.84508 22.65315 20.74912
#
# Velocity S-wave (km/s) = 3.04922 3.34314 3.19956
# Velocity P-wave (km/s) = 5.25748 6.02330 5.65338
#
# Compressibility (1/GPa) = 0.03236511
#
# Stress axis : x y z
#
# Youngs Moduli (GPa) = 42.41774 94.49557 38.54227
#
# Poissons Ratio (x) = 0.27693 0.11718
# Poissons Ratio (y) = 0.12431 0.30441
# Poissons Ratio (z) = 0.12896 0.74633
#
# Static dielectric constant tensor:
#      x y z
#    x 1.768450 0.000000 -0.017170 
#    y 0.000000 1.738920 0.000000 
#    z -0.017170 0.000000 1.756630 
# 
# From -- ./inp_files/31865.got.cif
#   From: 2010.05.17/outbox.cif.g08.bks.cpg/sg11_16_cif.got.tgz:31865.got - 2010.06.03 12:22:45.
