data_PCOD9157110
_publ_section_title
;
Structure prediction by ZEFSAII (Michael W. Deem and Ramdas Pophale) SiO2 
 PCOD9157110
Probable space group: P 21/M
;
_chemical_formula_sum "Si O2"
_cell_formula_units_Z 32
_cell_length_a 17.993407
_cell_length_b 8.586299
_cell_length_c 12.090844
_cell_angle_alpha 90.000000
_cell_angle_beta 109.773241
_cell_angle_gamma 90.000000
_cell_volume 1757.857194
_symmetry_space_group_name_H-M "P 21/M"
_symmetry_group_IT_number 11
_symmetry_cell_setting 'monoclinic'
loop_
_space_group_symop_operation_xyz
x,y,z
-x,1/2+y,-z
-x,-y,-z
x,1/2-y,z
loop_
_atom_site_type_symbol
_atom_site_label
_atom_site_fract_x
_atom_site_fract_y
_atom_site_fract_z
Si Si1 0.184336 0.562829 0.536071
Si Si2 0.651691 0.060385 0.767717
Si Si3 0.469100 0.063603 0.686356
Si Si4 0.663898 0.437929 0.526118
Si Si5 0.423865 0.563408 0.897103
Si Si6 0.025128 0.435865 0.392063
Si Si7 0.271189 0.938413 0.966320
Si Si8 0.865740 0.935020 0.249099
O O1 0.182380 0.750000 0.543349
O O2 0.266585 0.513464 0.522291
O O3 0.170201 0.495937 0.651887
O O4 0.112138 0.506194 0.422208
O O5 0.651322 0.250000 0.770728
O O6 0.560319 0.010875 0.735134
O O7 0.679723 0.012606 0.660130
O O8 0.704225 0.010292 0.898046
O O9 0.468868 0.250000 0.685006
O O10 0.419500 0.001053 0.558387
O O11 0.426731 0.003384 0.775610
O O12 0.660731 0.250000 0.522543
O O13 0.427858 0.750000 0.895009
O O14 0.344728 0.520962 0.923346
O O15 0.500000 0.500000 0.000000
O O16 0.028615 0.250000 0.395731
O O17 0.953244 0.492825 0.280021
O O18 0.000000 0.500000 0.500000
O O19 0.263259 0.750000 0.960944
O O20 0.192940 0.012887 0.876936
O O21 0.872372 0.750000 0.259100
#
# Coordination Sequence:
#
# PCOD9157110 Si02
#       8
#     4   4   4   4   4   4   4   4
#     4  10  19  33  53  79 109 138 170 210 259 311
#     4   9  19  37  55  72 100 140 183 221 265 311
#     4  11  21  35  54  77 105 138 177 224 269 313
#     4  10  21  36  55  77 102 138 180 222 263 310
#     4  11  21  34  53  76 104 137 173 215 264 315
#     4  10  18  31  53  79 108 139 167 203 255 312
#     4  10  20  36  54  73 103 141 176 215 262 314
#     4  11  21  33  52  81 111 137 169 210 255 311
#
# _framework density 18.203980999999999
#
# number of rings (size 3 to 8) (size 9 to 14) (size 15 to 20)
#    0.000    1.750    1.250    6.000    0.000    5.000 
#    0.000    1.250    0.000    0.750    0.000    0.000 
#    0.000    0.000    0.000    0.000    0.000    0.000 
#
# Total GULP energy -178676.344770 kJ/mol
# GULP energy per Si atom -5583.635774 kJ/mol
# Density = 1.816255 g / cm^3
# Si number density = 18.203981 Si / 1000 Ang^3
#
#
#
# Elastic Constant Matrix: (Units=GPa)
#
#
# Indices 1 2 3 4 5 6 
#
# 1 47.0862 15.2396 44.9981 0.0000 20.2916 0.0000
# 2 15.2396 44.6773 16.1164 0.0000 5.8875 0.0000
# 3 44.9981 16.1164 123.7389 0.0000 17.7749 0.0000
# 4 0.0000 0.0000 0.0000 28.4255 0.0000 9.4937
# 5 20.2916 5.8875 17.7749 0.0000 34.2507 0.0000
# 6 0.0000 0.0000 0.0000 9.4937 0.0000 18.8303
#
#
#
# Elastic Compliance Matrix: (Units=1/GPa)
#
#
# Indices 1 2 3 4 5 6 
#
# 1 0.043029 -0.007979 -0.012041 0.000000 -0.017872 0.000000
# 2 -0.007979 0.025190 -0.000472 0.000000 0.000642 0.000000
# 3 -0.012041 -0.000472 0.012411 0.000000 0.000774 0.000000
# 4 0.000000 0.000000 0.000000 0.042303 0.000000 -0.021328
# 5 -0.017872 0.000642 0.000774 0.000000 0.039273 0.000000
# 6 0.000000 0.000000 0.000000 -0.021328 0.000000 0.063859
#
#
# Mechanical properties :
#
#
# Convention : Reuss Voigt Hill
#
# Bulk Modulus (GPa) = 25.22286 40.91228 33.06757
# Shear Modulus (GPa) = 17.84042 25.57784 21.70913
#
# Velocity S-wave (km/s) = 3.13394 3.75249 3.45708
# Velocity P-wave (km/s) = 5.19434 6.42636 5.84291
#
# Compressibility (1/GPa) = 0.03964658
#
# Stress axis : x y z
#
# Youngs Moduli (GPa) = 23.24010 39.69855 80.57635
#
# Poissons Ratio (x) = 0.31674 0.97024
# Poissons Ratio (y) = 0.18543 0.03800
# Poissons Ratio (z) = 0.27984 0.01872
#
# Static dielectric constant tensor:
#      x y z
#    x 1.620490 0.000000 0.022680 
#    y 0.000000 1.615310 0.000000 
#    z 0.022680 0.000000 1.627280 
# 
# From -- ./inp_files/42502.got.cif
#   From: 2010.05.17/outbox.cif.g08.bks.cpg/sg11_22_cif.got.tgz:42502.got - 2010.06.03 12:22:45.
