data_PCOD9157221
_publ_section_title
;
Structure prediction by ZEFSAII (Michael W. Deem and Ramdas Pophale) SiO2 
 PCOD9157221
Probable space group: P 21/M
;
_chemical_formula_sum "Si O2"
_cell_formula_units_Z 28
_cell_length_a 15.490097
_cell_length_b 16.224339
_cell_length_c 8.026172
_cell_angle_alpha 90.000000
_cell_angle_beta 33.505644
_cell_angle_gamma 90.000000
_cell_volume 1113.483374
_symmetry_space_group_name_H-M "P 21/M"
_symmetry_group_IT_number 11
_symmetry_cell_setting 'monoclinic'
loop_
_space_group_symop_operation_xyz
x,y,z
-x,1/2+y,-z
-x,-y,-z
x,1/2-y,z
loop_
_atom_site_type_symbol
_atom_site_label
_atom_site_fract_x
_atom_site_fract_y
_atom_site_fract_z
Si Si1 0.779545 0.004291 0.792083
Si Si2 0.241225 0.341431 0.711282
Si Si3 0.300256 0.522590 0.703174
Si Si4 0.146633 0.162474 0.248136
Si Si5 0.075595 0.658909 0.961382
Si Si6 0.731850 0.338464 0.691186
Si Si7 0.545225 0.608537 0.078635
O O1 0.694018 0.010098 0.108321
O O2 0.651153 0.970751 0.865280
O O3 0.810170 0.094635 0.681754
O O4 0.901622 0.928849 0.611256
O O5 0.319351 0.250000 0.570410
O O6 0.163117 0.340035 0.022052
O O7 0.108071 0.344787 0.783876
O O8 0.318177 0.431989 0.592098
O O9 0.138763 0.573809 0.936783
O O10 0.424690 0.582370 0.417081
O O11 0.071100 0.250000 0.413912
O O12 0.321560 0.163522 0.048259
O O13 0.111020 0.750000 0.980800
O O14 0.163540 0.662033 0.642537
O O15 0.733907 0.250000 0.770313
O O16 0.556037 0.355794 0.908060
#
# Coordination Sequence:
#
# PCOD9157221 Si02
#       7
#     4   4   4   4   4   4   4
#     4   9  19  30  49  75 100 125 158 206 244 284
#     4   9  17  31  50  74  98 128 165 203 240 290
#     4  10  18  32  52  75 101 127 159 205 248 286
#     4   8  16  29  49  70  96 128 162 197 240 288
#     4   9  19  33  52  72  96 131 170 199 238 292
#     4  10  19  33  49  71  97 130 166 202 242 287
#     4   9  18  31  51  69 100 127 162 193 242 293
#
# _framework density 25.146312000000002
#
# number of rings (size 3 to 8) (size 9 to 14) (size 15 to 20)
#    0.857    2.000    0.000    1.714    0.000    1.143 
#    0.000    3.571    0.000    3.429    0.000    6.000 
#    0.000    0.000    0.000    0.000    0.000    0.000 
#
# Total GULP energy -156071.634165 kJ/mol
# GULP energy per Si atom -5573.986934 kJ/mol
# Density = 2.508908 g / cm^3
# Si number density = 25.146312 Si / 1000 Ang^3
#
#
#
# Elastic Constant Matrix: (Units=GPa)
#
#
# Indices 1 2 3 4 5 6 
#
# 1 110.2621 60.3517 13.5592 0.0000 -19.7316 0.0000
# 2 60.3517 213.2518 19.1349 0.0000 12.0903 0.0000
# 3 13.5592 19.1349 41.6514 0.0000 15.7033 0.0000
# 4 0.0000 0.0000 0.0000 7.2847 0.0000 -7.8156
# 5 -19.7316 12.0903 15.7033 0.0000 20.0686 0.0000
# 6 0.0000 0.0000 0.0000 -7.8156 0.0000 -21.7140
#
#
#
# Elastic Compliance Matrix: (Units=1/GPa)
#
#
# Indices 1 2 3 4 5 6 
#
# 1 0.023339 -0.007215 -0.020672 0.000000 0.043469 0.000000
# 2 -0.007215 0.007162 0.004765 0.000000 -0.015137 0.000000
# 3 -0.020672 0.004765 0.052900 0.000000 -0.064589 0.000000
# 4 0.000000 0.000000 0.000000 0.099031 0.000000 -0.035645
# 5 0.043469 -0.015137 -0.064589 0.000000 0.152227 0.000000
# 6 0.000000 0.000000 0.000000 -0.035645 0.000000 -0.033223
#
#
# Mechanical properties :
#
#
# Convention : Reuss Voigt Hill
#
# Bulk Modulus (GPa) = 26.91151 61.25076 44.08113
# Shear Modulus (GPa) = 13.88639 19.26917 16.57778
#
# Velocity S-wave (km/s) = 2.35249 2.77118 2.57038
# Velocity P-wave (km/s) = 4.25490 5.88642 5.13586
#
# Compressibility (1/GPa) = 0.03715883
#
# Stress axis : x y z
#
# Youngs Moduli (GPa) = 42.84637 139.63173 18.90343
#
# Poissons Ratio (x) = 1.00741 0.39077
# Poissons Ratio (y) = 0.30913 -0.09008
# Poissons Ratio (z) = 0.88572 -0.66541
#
# Static dielectric constant tensor:
#      x y z
#    x 1.963410 0.000000 -0.052480 
#    y 0.000000 2.076300 0.000000 
#    z -0.052480 0.000000 1.990840 
# 
# From -- ./inp_files/24907.got.cif
#   From: 2010.05.17/outbox.cif.g08.bks.cpg/sg11_13_cif.got.tgz:24907.got - 2010.06.03 12:22:45.
