data_PCOD9157799
_publ_section_title
;
Structure prediction by ZEFSAII (Michael W. Deem and Ramdas Pophale) SiO2 
 PCOD9157799
Probable space group: P 21/M
;
_chemical_formula_sum "Si O2"
_cell_formula_units_Z 26
_cell_length_a 7.692384
_cell_length_b 19.648329
_cell_length_c 9.046001
_cell_angle_alpha 90.000000
_cell_angle_beta 51.848252
_cell_angle_gamma 90.000000
_cell_volume 1075.162822
_symmetry_space_group_name_H-M "P 21/M"
_symmetry_group_IT_number 11
_symmetry_cell_setting 'monoclinic'
loop_
_space_group_symop_operation_xyz
x,y,z
-x,1/2+y,-z
-x,-y,-z
x,1/2-y,z
loop_
_atom_site_type_symbol
_atom_site_label
_atom_site_fract_x
_atom_site_fract_y
_atom_site_fract_z
Si Si1 0.542603 0.897566 0.725646
Si Si2 0.583211 0.099126 0.555382
Si Si3 0.873780 0.394290 0.842444
Si Si4 0.441981 0.750000 0.772776
Si Si5 0.474540 0.250000 0.595236
Si Si6 0.169738 0.062916 0.927514
Si Si7 0.046725 0.750000 0.214778
Si Si8 0.074543 0.044622 0.300181
O O1 0.473402 0.906032 0.590520
O O2 0.347713 0.909134 0.947392
O O3 0.582837 0.817075 0.724929
O O4 0.755978 0.938009 0.661011
O O5 0.535217 0.176914 0.632685
O O6 0.413176 0.052247 0.736423
O O7 0.831433 0.074687 0.445688
O O8 0.887651 0.323121 0.747619
O O9 0.059051 0.384185 0.873243
O O10 0.923534 0.463610 0.730664
O O11 0.383526 0.750000 0.631009
O O12 0.218178 0.750000 0.985232
O O13 0.214687 0.250000 0.684974
O O14 0.169673 0.078759 0.099247
O O15 0.000000 0.000000 0.000000
#
# Coordination Sequence:
#
# PCOD9157799 Si02
#       8
#     4   4   4   2   2   4   2   4
#     4  10  21  43  68  96 135 179 228 275 347 403
#     4  11  23  43  69  98 133 186 223 276 349 398
#     4  10  20  41  67  94 132 181 225 277 340 403
#     4   8  20  37  63  94 127 177 221 282 333 403
#     4  10  20  37  66  98 126 176 236 269 327 420
#     4  10  22  42  65  95 135 170 216 280 330 396
#     4  10  18  38  65  90 127 177 231 269 336 403
#     4  11  24  43  65 105 142 169 224 293 332 411
#
# _framework density 24.182382
#
# number of rings (size 3 to 8) (size 9 to 14) (size 15 to 20)
#    0.000    1.846    3.077    0.462    0.000    3.077 
#    2.769    4.615    0.000    0.000    0.000    0.000 
#    0.000    0.000    0.000    0.000    0.000    0.000 
#
# Total GULP energy -145390.995844 kJ/mol
# GULP energy per Si atom -5591.961379 kJ/mol
# Density = 2.412734 g / cm^3
# Si number density = 24.182382 Si / 1000 Ang^3
#
#
#
# Elastic Constant Matrix: (Units=GPa)
#
#
# Indices 1 2 3 4 5 6 
#
# 1 125.5118 44.2580 50.4983 0.0000 -22.2546 0.0000
# 2 44.2580 168.7961 60.0608 0.0000 -21.6327 0.0000
# 3 50.4983 60.0608 167.9520 0.0000 -37.6659 0.0000
# 4 0.0000 0.0000 0.0000 34.5014 0.0000 -2.0597
# 5 -22.2546 -21.6327 -37.6659 0.0000 21.5509 0.0000
# 6 0.0000 0.0000 0.0000 -2.0597 0.0000 8.6086
#
#
#
# Elastic Compliance Matrix: (Units=1/GPa)
#
#
# Indices 1 2 3 4 5 6 
#
# 1 0.010145 -0.001383 -0.000851 0.000000 0.007600 0.000000
# 2 -0.001383 0.007219 -0.001416 0.000000 0.003344 0.000000
# 3 -0.000851 -0.001416 0.010198 0.000000 0.015522 0.000000
# 4 0.000000 0.000000 0.000000 0.029404 0.000000 0.007035
# 5 0.007600 0.003344 0.015522 0.000000 0.084736 0.000000
# 6 0.000000 0.000000 0.000000 0.007035 0.000000 0.117846
#
#
# Mechanical properties :
#
#
# Convention : Reuss Voigt Hill
#
# Bulk Modulus (GPa) = 49.35491 85.76600 67.56046
# Shear Modulus (GPa) = 18.27468 33.42840 25.85154
#
# Velocity S-wave (km/s) = 2.75199 3.72202 3.27314
# Velocity P-wave (km/s) = 5.52736 7.34946 6.50255
#
# Compressibility (1/GPa) = 0.02026141
#
# Stress axis : x y z
#
# Youngs Moduli (GPa) = 98.56878 138.51768 98.06286
#
# Poissons Ratio (x) = 0.19159 0.08348
# Poissons Ratio (y) = 0.13633 0.13885
# Poissons Ratio (z) = 0.08391 0.19613
#
# Static dielectric constant tensor:
#      x y z
#    x 1.915080 0.000000 0.025410 
#    y 0.000000 2.056060 0.000000 
#    z 0.025410 0.000000 1.963850 
# 
# From -- ./inp_files/50760.got.cif
#   From: 2010.05.17/outbox.cif.g08.bks.cpg/sg11_26_cif.got.tgz:50760.got - 2010.06.03 12:22:45.
