data_PCOD9157044
_publ_section_title
;
Structure prediction by ZEFSAII (Michael W. Deem and Ramdas Pophale) SiO2 
 PCOD9157044
Probable space group: P 21/M
;
_chemical_formula_sum "Si O2"
_cell_formula_units_Z 32
_cell_length_a 8.020635
_cell_length_b 16.022425
_cell_length_c 13.379956
_cell_angle_alpha 90.000000
_cell_angle_beta 104.769485
_cell_angle_gamma 90.000000
_cell_volume 1662.646337
_symmetry_space_group_name_H-M "P 21/M"
_symmetry_group_IT_number 11
_symmetry_cell_setting 'monoclinic'
loop_
_space_group_symop_operation_xyz
x,y,z
-x,1/2+y,-z
-x,-y,-z
x,1/2-y,z
loop_
_atom_site_type_symbol
_atom_site_label
_atom_site_fract_x
_atom_site_fract_y
_atom_site_fract_z
Si Si1 0.243455 0.513355 0.148848
Si Si2 0.480848 0.151878 0.817630
Si Si3 0.741257 0.934463 0.379789
Si Si4 0.620468 0.580481 0.000569
Si Si5 0.950128 0.029947 0.244913
Si Si6 0.505680 0.414878 0.337878
Si Si7 0.334382 0.841988 0.826550
Si Si8 0.192436 0.348284 0.408015
O O1 0.340497 0.600429 0.142293
O O2 0.231113 0.455647 0.048175
O O3 0.379824 0.465015 0.242191
O O4 0.067506 0.517251 0.182822
O O5 0.507399 0.250000 0.826868
O O6 0.391503 0.124167 0.700924
O O7 0.354423 0.120939 0.887742
O O8 0.823783 0.885460 0.483653
O O9 0.875177 0.970198 0.319157
O O10 0.634501 0.015629 0.401380
O O11 0.504649 0.644689 0.918836
O O12 0.500000 0.500000 0.000000
O O13 0.794483 0.081788 0.171537
O O14 0.065650 0.100522 0.316627
O O15 0.612259 0.354172 0.281217
O O16 0.385860 0.368467 0.398383
O O17 0.261720 0.750000 0.832736
O O18 0.159833 0.250000 0.399657
#
# Coordination Sequence:
#
# PCOD9157044 Si02
#       8
#     4   4   4   4   4   4   4   4
#     4   8  17  33  54  75  99 133 169 203 252 309
#     4  10  19  35  55  77 101 131 174 220 250 286
#     4  10  20  35  53  73 102 142 175 203 249 311
#     4   9  17  33  55  75  97 131 170 206 251 303
#     4  10  20  35  52  74 106 140 167 201 256 319
#     4   8  17  32  52  73  97 130 171 212 255 301
#     4  10  18  31  51  78 104 129 165 215 261 300
#     4  11  20  32  51  77 103 132 171 218 256 293
#
# _framework density 19.246426
#
# number of rings (size 3 to 8) (size 9 to 14) (size 15 to 20)
#    0.000    2.500    0.000    4.500    0.000    0.000 
#    0.000    8.750    0.000    0.000    0.000    0.000 
#    0.000    0.000    0.000    0.000    0.000    0.000 
#
# Total GULP energy -178491.580953 kJ/mol
# GULP energy per Si atom -5577.861905 kJ/mol
# Density = 1.920262 g / cm^3
# Si number density = 19.246426 Si / 1000 Ang^3
#
#
#
# Elastic Constant Matrix: (Units=GPa)
#
#
# Indices 1 2 3 4 5 6 
#
# 1 73.2926 20.3515 6.9348 0.0000 -19.1163 0.0000
# 2 20.3515 108.7948 24.7507 0.0000 -9.9722 0.0000
# 3 6.9348 24.7507 53.5699 0.0000 -0.1418 0.0000
# 4 0.0000 0.0000 0.0000 22.0351 0.0000 3.6104
# 5 -19.1163 -9.9722 -0.1418 0.0000 23.9457 0.0000
# 6 0.0000 0.0000 0.0000 3.6104 0.0000 15.5477
#
#
#
# Elastic Compliance Matrix: (Units=1/GPa)
#
#
# Indices 1 2 3 4 5 6 
#
# 1 0.017779 -0.001763 -0.001452 0.000000 0.013451 0.000000
# 2 -0.001763 0.010897 -0.004798 0.000000 0.003103 0.000000
# 3 -0.001452 -0.004798 0.021064 0.000000 -0.003032 0.000000
# 4 0.000000 0.000000 0.000000 0.047177 0.000000 -0.010955
# 5 0.013451 0.003103 -0.003032 0.000000 0.053773 0.000000
# 6 0.000000 0.000000 0.000000 -0.010955 0.000000 0.066862
#
#
# Mechanical properties :
#
#
# Convention : Reuss Voigt Hill
#
# Bulk Modulus (GPa) = 29.66034 37.74793 33.70413
# Shear Modulus (GPa) = 20.42347 24.54707 22.48527
#
# Velocity S-wave (km/s) = 3.26107 3.57516 3.42172
# Velocity P-wave (km/s) = 5.44277 6.05788 5.75854
#
# Compressibility (1/GPa) = 0.03371506
#
# Stress axis : x y z
#
# Youngs Moduli (GPa) = 56.24632 91.76508 47.47416
#
# Poissons Ratio (x) = 0.16175 0.06891
# Poissons Ratio (y) = 0.09914 0.22780
# Poissons Ratio (z) = 0.08164 0.44033
#
# Static dielectric constant tensor:
#      x y z
#    x 1.698640 0.000000 0.005630 
#    y 0.000000 1.649950 0.000000 
#    z 0.005630 0.000000 1.700330 
# 
# From -- ./inp_files/47461.got.cif
#   From: 2010.05.17/outbox.cif.g08.bks.cpg/sg11_24_cif.got.tgz:47461.got - 2010.06.03 12:22:45.
