data_PCOD9157166
_publ_section_title
;
Structure prediction by ZEFSAII (Michael W. Deem and Ramdas Pophale) SiO2 
 PCOD9157166
Probable space group: P 21/M
;
_chemical_formula_sum "Si O2"
_cell_formula_units_Z 32
_cell_length_a 15.346614
_cell_length_b 14.126070
_cell_length_c 8.925365
_cell_angle_alpha 90.000000
_cell_angle_beta 138.993944
_cell_angle_gamma 90.000000
_cell_volume 1269.567004
_symmetry_space_group_name_H-M "P 21/M"
_symmetry_group_IT_number 11
_symmetry_cell_setting 'monoclinic'
loop_
_space_group_symop_operation_xyz
x,y,z
-x,1/2+y,-z
-x,-y,-z
x,1/2-y,z
loop_
_atom_site_type_symbol
_atom_site_label
_atom_site_fract_x
_atom_site_fract_y
_atom_site_fract_z
Si Si1 0.073033 0.641049 0.218082
Si Si2 0.641397 0.589354 0.739374
Si Si3 0.563500 0.381590 0.727895
Si Si4 0.098339 0.046954 0.784449
Si Si5 0.462875 0.641192 0.958203
Si Si6 0.843653 0.145520 0.976425
Si Si7 0.802181 0.636494 0.677019
Si Si8 0.730400 0.966401 0.283159
O O1 0.086471 0.750000 0.271463
O O2 0.943745 0.623728 0.942381
O O3 0.035107 0.593717 0.325260
O O4 0.182704 0.620890 0.233355
O O5 0.586603 0.494849 0.743537
O O6 0.516286 0.649263 0.524904
O O7 0.697996 0.579464 0.643635
O O8 0.777943 0.614668 0.998587
O O9 0.710090 0.344298 0.895900
O O10 0.516069 0.357843 0.832980
O O11 0.152674 0.029653 0.688814
O O12 0.096986 0.946747 0.868502
O O13 0.440622 0.750000 0.881115
O O14 0.339977 0.568191 0.773760
O O15 0.599060 0.596949 0.067813
O O16 0.911756 0.250000 0.070732
O O17 0.773891 0.750000 0.639354
O O18 0.791596 0.589141 0.502877
#
# Coordination Sequence:
#
# PCOD9157166 Si02
#       8
#     4   4   4   4   4   4   4   4
#     4   9  20  37  59  84 111 147 194 246 288 336
#     4   9  18  33  54  84 112 142 186 232 285 338
#     4  10  18  31  57  83 111 146 183 231 280 341
#     4  10  20  36  58  86 114 146 189 245 289 325
#     4  11  22  36  55  84 122 160 189 228 291 354
#     4  10  19  34  57  86 113 148 193 232 289 352
#     4  10  20  36  58  82 115 156 193 238 290 340
#     4  11  22  35  58  87 115 156 198 236 283 345
#
# _framework density 25.205442999999999
#
# number of rings (size 3 to 8) (size 9 to 14) (size 15 to 20)
#    0.000    2.000    3.750    1.125    0.000    1.500 
#    0.000    0.625    0.000   13.500    0.000    3.500 
#    0.000    0.000    0.000    0.000    0.000    0.000 
#
# Total GULP energy -178361.182066 kJ/mol
# GULP energy per Si atom -5573.786940 kJ/mol
# Density = 2.514807 g / cm^3
# Si number density = 25.205443 Si / 1000 Ang^3
#
#
#
# Elastic Constant Matrix: (Units=GPa)
#
#
# Indices 1 2 3 4 5 6 
#
# 1 148.2132 51.2305 5.3023 0.0000 -40.5642 0.0000
# 2 51.2305 153.1805 12.4931 0.0000 -14.8578 0.0000
# 3 5.3023 12.4931 59.4337 0.0000 -15.8870 0.0000
# 4 0.0000 0.0000 0.0000 3.3594 0.0000 12.6455
# 5 -40.5642 -14.8578 -15.8870 0.0000 39.2077 0.0000
# 6 0.0000 0.0000 0.0000 12.6455 0.0000 -19.7480
#
#
#
# Elastic Compliance Matrix: (Units=1/GPa)
#
#
# Indices 1 2 3 4 5 6 
#
# 1 0.010586 -0.002685 0.002552 0.000000 0.010969 0.000000
# 2 -0.002685 0.007495 -0.001479 0.000000 -0.000537 0.000000
# 3 0.002552 -0.001479 0.019586 0.000000 0.010016 0.000000
# 4 0.000000 0.000000 0.000000 0.087284 0.000000 0.055892
# 5 0.010969 -0.000537 0.010016 0.000000 0.040708 0.000000
# 6 0.000000 0.000000 0.000000 0.055892 0.000000 -0.014848
#
#
# Mechanical properties :
#
#
# Convention : Reuss Voigt Hill
#
# Bulk Modulus (GPa) = 29.03409 55.43102 42.23256
# Shear Modulus (GPa) = 30.20874 24.01726 27.11300
#
# Velocity S-wave (km/s) = 3.46569 3.09019 3.28331
# Velocity P-wave (km/s) = 5.24964 5.89676 5.58258
#
# Compressibility (1/GPa) = 0.03444227
#
# Stress axis : x y z
#
# Youngs Moduli (GPa) = 94.46757 133.42819 51.05677
#
# Poissons Ratio (x) = 0.35819 -0.13029
# Poissons Ratio (y) = 0.25360 0.07553
# Poissons Ratio (z) = -0.24107 0.19739
#
# Static dielectric constant tensor:
#      x y z
#    x 2.079820 0.000000 0.090110 
#    y 0.000000 -3.536910 0.000000 
#    z 0.090110 0.000000 2.164840 
# 
# From -- ./inp_files/22202.got.cif
#   From: 2010.05.17/outbox.cif.g08.bks.cpg/sg11_12_cif.got.tgz:22202.got - 2010.06.03 12:22:45.
