data_PCOD9157755
_publ_section_title
;
Structure prediction by ZEFSAII (Michael W. Deem and Ramdas Pophale) SiO2 
 PCOD9157755
Probable space group: P 21/M
;
_chemical_formula_sum "Si O2"
_cell_formula_units_Z 28
_cell_length_a 7.632279
_cell_length_b 15.196303
_cell_length_c 10.969448
_cell_angle_alpha 90.000000
_cell_angle_beta 77.265233
_cell_angle_gamma 90.000000
_cell_volume 1240.966722
_symmetry_space_group_name_H-M "P 21/M"
_symmetry_group_IT_number 11
_symmetry_cell_setting 'monoclinic'
loop_
_space_group_symop_operation_xyz
x,y,z
-x,1/2+y,-z
-x,-y,-z
x,1/2-y,z
loop_
_atom_site_type_symbol
_atom_site_label
_atom_site_fract_x
_atom_site_fract_y
_atom_site_fract_z
Si Si1 0.206336 0.490367 0.937547
Si Si2 0.059823 0.908780 0.429637
Si Si3 0.550831 0.397939 0.509105
Si Si4 0.138555 0.154236 0.329741
Si Si5 0.598749 0.648746 0.227710
Si Si6 0.247133 0.651938 0.753310
Si Si7 0.274482 0.978861 0.201407
O O1 0.237407 0.398868 0.863324
O O2 0.264899 0.571610 0.843438
O O3 0.290171 0.497366 0.058446
O O4 0.000000 0.500000 0.000000
O O5 0.257372 0.887295 0.451550
O O6 0.097173 0.926879 0.281448
O O7 0.918701 0.846616 0.518839
O O8 0.000000 0.000000 0.500000
O O9 0.500000 0.500000 0.500000
O O10 0.406715 0.358367 0.624566
O O11 0.596867 0.356256 0.372293
O O12 0.213268 0.250000 0.286002
O O13 0.948782 0.143005 0.284077
O O14 0.261006 0.071399 0.275885
O O15 0.575387 0.750000 0.196687
O O16 0.438891 0.584356 0.207994
O O17 0.252114 0.750000 0.806895
#
# Coordination Sequence:
#
# PCOD9157755 Si02
#       7
#     4   4   4   4   4   4   4
#     4  12  24  41  65  90 128 171 213 260 314 376
#     4   8  17  31  55  86 118 156 199 248 306 363
#     4  10  18  36  66  90 118 158 207 265 314 367
#     4   9  17  34  62  93 121 159 209 256 308 367
#     4  11  25  43  65  93 127 169 213 261 322 381
#     4  10  20  36  61  93 123 161 209 258 312 372
#     4  10  21  39  62  91 126 170 208 257 316 378
#
# _framework density 22.563056
#
# number of rings (size 3 to 8) (size 9 to 14) (size 15 to 20)
#    0.000    2.000    2.857    0.857    0.000    5.143 
#    0.000    0.714    0.000    6.000    0.000    0.000 
#    0.000    0.000    0.000    0.000    0.000    0.000 
#
# Total GULP energy -156220.904012 kJ/mol
# GULP energy per Si atom -5579.318000 kJ/mol
# Density = 2.251170 g / cm^3
# Si number density = 22.563056 Si / 1000 Ang^3
#
#
#
# Elastic Constant Matrix: (Units=GPa)
#
#
# Indices 1 2 3 4 5 6 
#
# 1 56.6651 29.5030 34.4276 0.0000 -5.5916 0.0000
# 2 29.5030 184.4400 48.7139 0.0000 -11.4967 0.0000
# 3 34.4276 48.7139 133.4340 0.0000 -19.8085 0.0000
# 4 0.0000 0.0000 0.0000 12.4026 0.0000 -2.0329
# 5 -5.5916 -11.4967 -19.8085 0.0000 24.9607 0.0000
# 6 0.0000 0.0000 0.0000 -2.0329 0.0000 25.4417
#
#
#
# Elastic Compliance Matrix: (Units=1/GPa)
#
#
# Indices 1 2 3 4 5 6 
#
# 1 0.021710 -0.002205 -0.004790 0.000000 0.000047 0.000000
# 2 -0.002205 0.006254 -0.001542 0.000000 0.001163 0.000000
# 3 -0.004790 -0.001542 0.010234 0.000000 0.006338 0.000000
# 4 0.000000 0.000000 0.000000 0.081699 0.000000 0.006528
# 5 0.000047 0.001163 0.006338 0.000000 0.045639 0.000000
# 6 0.000000 0.000000 0.000000 0.006528 0.000000 0.039827
#
#
# Mechanical properties :
#
#
# Convention : Reuss Voigt Hill
#
# Bulk Modulus (GPa) = 47.33500 66.64757 56.99129
# Shear Modulus (GPa) = 21.78861 30.02062 25.90462
#
# Velocity S-wave (km/s) = 3.11090 3.65159 3.39204
# Velocity P-wave (km/s) = 5.82479 6.88341 6.37611
#
# Compressibility (1/GPa) = 0.02112602
#
# Stress axis : x y z
#
# Youngs Moduli (GPa) = 46.06149 159.89245 97.71424
#
# Poissons Ratio (x) = 0.35253 0.46801
# Poissons Ratio (y) = 0.10156 0.15065
# Poissons Ratio (z) = 0.22061 0.24651
#
# Static dielectric constant tensor:
#      x y z
#    x 1.909330 0.000000 -0.026230 
#    y 0.000000 1.824830 0.000000 
#    z -0.026230 0.000000 1.820260 
# 
# From -- ./inp_files/31646.got.cif
#   From: 2010.05.17/outbox.cif.g08.bks.cpg/sg11_16_cif.got.tgz:31646.got - 2010.06.03 12:22:45.
