data_PCOD9157746
_publ_section_title
;
Structure prediction by ZEFSAII (Michael W. Deem and Ramdas Pophale) SiO2 
 PCOD9157746
Probable space group: P 21/M
;
_chemical_formula_sum "Si O2"
_cell_formula_units_Z 30
_cell_length_a 7.830420
_cell_length_b 14.956895
_cell_length_c 11.137261
_cell_angle_alpha 90.000000
_cell_angle_beta 67.855476
_cell_angle_gamma 90.000000
_cell_volume 1208.165838
_symmetry_space_group_name_H-M "P 21/M"
_symmetry_group_IT_number 11
_symmetry_cell_setting 'monoclinic'
loop_
_space_group_symop_operation_xyz
x,y,z
-x,1/2+y,-z
-x,-y,-z
x,1/2-y,z
loop_
_atom_site_type_symbol
_atom_site_label
_atom_site_fract_x
_atom_site_fract_y
_atom_site_fract_z
Si Si1 0.744039 0.750000 0.348794
Si Si2 0.484509 0.377516 0.435672
Si Si3 0.325604 0.567182 0.390879
Si Si4 0.106487 0.004742 0.259837
Si Si5 0.326856 0.108359 0.839526
Si Si6 0.814089 0.349444 0.947374
Si Si7 0.624787 0.650340 0.901206
Si Si8 0.201755 0.910186 0.804215
O O1 0.689736 0.825649 0.466649
O O2 0.758110 0.671777 0.239817
O O3 0.410700 0.475152 0.419375
O O4 0.627906 0.369335 0.510141
O O5 0.619231 0.356383 0.289109
O O6 0.132671 0.545536 0.379524
O O7 0.455050 0.605821 0.250777
O O8 0.278355 0.072914 0.200417
O O9 0.929235 0.063386 0.272592
O O10 0.122492 0.928406 0.154865
O O11 0.260370 0.006942 0.840771
O O12 0.306096 0.139757 0.980284
O O13 0.847000 0.250000 0.888638
O O14 0.595021 0.359646 0.028731
O O15 0.895126 0.360705 0.059785
O O16 0.668220 0.750000 0.844889
#
# Coordination Sequence:
#
# PCOD9157746 Si02
#       8
#     2   4   4   4   4   4   4   4
#     4  10  20  36  68  92 118 152 218 272 308 358
#     4   9  20  38  62  92 115 159 209 266 308 361
#     4   9  19  38  65  84 116 156 216 253 304 368
#     4  12  23  41  62  92 130 174 203 255 321 391
#     4  10  18  36  62  90 115 157 206 260 303 364
#     4  11  24  39  63  93 127 164 216 265 310 369
#     4  11  21  36  62  94 123 160 213 258 304 364
#     4  11  24  40  59  88 130 171 204 242 329 384
#
# _framework density 24.831029000000001
#
# number of rings (size 3 to 8) (size 9 to 14) (size 15 to 20)
#    0.000    1.600    3.333    3.200    0.933    1.067 
#    2.400    0.000    0.000    3.200    0.000    0.000 
#    0.000    0.000    0.000    0.000    0.000    0.000 
#
# Total GULP energy -167130.685152 kJ/mol
# GULP energy per Si atom -5571.022838 kJ/mol
# Density = 2.477451 g / cm^3
# Si number density = 24.831029 Si / 1000 Ang^3
#
#
#
# Elastic Constant Matrix: (Units=GPa)
#
#
# Indices 1 2 3 4 5 6 
#
# 1 75.0563 -12.3880 -4.1943 0.0000 5.4256 0.0000
# 2 -12.3880 105.3867 -5.0375 0.0000 -10.4134 0.0000
# 3 -4.1943 -5.0375 41.6015 0.0000 21.1541 0.0000
# 4 0.0000 0.0000 0.0000 22.9095 0.0000 -1.5005
# 5 5.4256 -10.4134 21.1541 0.0000 24.6151 0.0000
# 6 0.0000 0.0000 0.0000 -1.5005 0.0000 16.7472
#
#
#
# Elastic Compliance Matrix: (Units=1/GPa)
#
#
# Indices 1 2 3 4 5 6 
#
# 1 0.014332 0.001230 0.005214 0.000000 -0.007120 0.000000
# 2 0.001230 0.010073 -0.001217 0.000000 0.005036 0.000000
# 3 0.005214 -0.001217 0.044870 0.000000 -0.040226 0.000000
# 4 0.000000 0.000000 0.000000 0.043908 0.000000 0.003934
# 5 -0.007120 0.005036 -0.040226 0.000000 0.078895 0.000000
# 6 0.000000 0.000000 0.000000 0.003934 0.000000 0.060064
#
#
# Mechanical properties :
#
#
# Convention : Reuss Voigt Hill
#
# Bulk Modulus (GPa) = 12.54207 19.86722 16.20464
# Shear Modulus (GPa) = 18.63835 29.09864 23.86850
#
# Velocity S-wave (km/s) = 2.74269 3.42697 3.10375
# Velocity P-wave (km/s) = 3.88481 4.86592 4.40278
#
# Compressibility (1/GPa) = 0.07973168
#
# Stress axis : x y z
#
# Youngs Moduli (GPa) = 69.77155 99.27590 22.28639
#
# Poissons Ratio (x) = -0.12216 -0.11621
# Poissons Ratio (y) = -0.08585 0.02712
# Poissons Ratio (z) = -0.36382 0.12082
#
# Static dielectric constant tensor:
#      x y z
#    x 2.084310 0.000000 0.001830 
#    y 0.000000 1.899120 0.000000 
#    z 0.001830 0.000000 1.955890 
# 
# From -- ./inp_files/31848.got.cif
#   From: 2010.05.17/outbox.cif.g08.bks.cpg/sg11_16_cif.got.tgz:31848.got - 2010.06.03 12:22:45.
