data_PCOD9157904
_publ_section_title
;
Structure prediction by ZEFSAII (Michael W. Deem and Ramdas Pophale) SiO2 
 PCOD9157904
Probable space group: P 21/M
;
_chemical_formula_sum "Si O2"
_cell_formula_units_Z 32
_cell_length_a 24.813054
_cell_length_b 7.500242
_cell_length_c 12.895221
_cell_angle_alpha 90.000000
_cell_angle_beta 133.407759
_cell_angle_gamma 90.000000
_cell_volume 1743.447672
_symmetry_space_group_name_H-M "P 21/M"
_symmetry_group_IT_number 11
_symmetry_cell_setting 'monoclinic'
loop_
_space_group_symop_operation_xyz
x,y,z
-x,1/2+y,-z
-x,-y,-z
x,1/2-y,z
loop_
_atom_site_type_symbol
_atom_site_label
_atom_site_fract_x
_atom_site_fract_y
_atom_site_fract_z
Si Si1 0.662098 0.034505 0.830432
Si Si2 0.500982 0.463475 0.624619
Si Si3 0.082040 0.536355 0.565290
Si Si4 0.081764 0.039118 0.956280
Si Si5 0.819685 0.465840 0.115940
Si Si6 0.077415 0.964080 0.324873
Si Si7 0.340165 0.038050 0.418397
Si Si8 0.182176 0.463665 0.276999
O O1 0.661318 0.250000 0.834278
O O2 0.582040 0.969992 0.766318
O O3 0.668222 0.986930 0.716785
O O4 0.735778 0.971183 0.985790
O O5 0.500000 0.500000 0.500000
O O6 0.500740 0.250000 0.639536
O O7 0.421402 0.533942 0.558058
O O8 0.091231 0.750000 0.573270
O O9 0.141271 0.468753 0.727559
O O10 0.087893 0.467741 0.455680
O O11 0.000000 0.500000 0.500000
O O12 0.073048 0.250000 0.963960
O O13 0.999465 0.965975 0.826671
O O14 0.130126 0.016040 0.916446
O O15 0.127519 0.965369 0.114396
O O16 0.818240 0.250000 0.116987
O O17 0.069435 0.750000 0.322012
O O18 0.144995 0.001981 0.337939
O O19 0.342729 0.250000 0.441034
O O20 0.265664 0.966190 0.372512
O O21 0.186597 0.250000 0.268160
#
# Coordination Sequence:
#
# PCOD9157904 Si02
#       8
#     4   4   4   4   4   4   4   4
#     4   9  16  26  41  65  93 117 144 177 215 263
#     4   8  14  24  39  60  88 118 144 172 210 258
#     4  10  20  34  50  67  87 114 150 190 228 265
#     4  10  19  32  47  65  90 119 149 181 221 267
#     4  10  19  29  46  70  92 117 148 183 222 265
#     4  10  21  34  47  63  86 117 153 189 224 262
#     4   9  16  27  43  63  89 120 148 176 214 261
#     4  10  20  31  45  66  91 118 151 185 218 262
#
# _framework density 18.354436
#
# number of rings (size 3 to 8) (size 9 to 14) (size 15 to 20)
#    0.000    2.500    2.500    0.375    0.000    2.000 
#    0.000    0.000    0.000    0.000    0.000    0.875 
#    0.000    0.000    0.000    0.000    0.000    0.000 
#
# Total GULP energy -178417.212817 kJ/mol
# GULP energy per Si atom -5575.537901 kJ/mol
# Density = 1.831266 g / cm^3
# Si number density = 18.354436 Si / 1000 Ang^3
#
#
#
# Elastic Constant Matrix: (Units=GPa)
#
#
# Indices 1 2 3 4 5 6 
#
# 1 154.8436 -6.8201 95.8339 0.0000 21.0454 0.0000
# 2 -6.8201 44.1753 -10.3732 0.0000 1.0408 0.0000
# 3 95.8339 -10.3732 87.1343 0.0000 26.9922 0.0000
# 4 0.0000 0.0000 0.0000 -0.5799 0.0000 -5.9549
# 5 21.0454 1.0408 26.9922 0.0000 36.3794 0.0000
# 6 0.0000 0.0000 0.0000 -5.9549 0.0000 14.4076
#
#
#
# Elastic Compliance Matrix: (Units=1/GPa)
#
#
# Indices 1 2 3 4 5 6 
#
# 1 0.021761 -0.003036 -0.026518 0.000000 0.007173 0.000000
# 2 -0.003036 0.024067 0.007627 0.000000 -0.004591 0.000000
# 3 -0.026518 0.007627 0.047867 0.000000 -0.020393 0.000000
# 4 0.000000 0.000000 0.000000 -0.328823 0.000000 -0.135907
# 5 0.007173 -0.004591 -0.020393 0.000000 0.038601 0.000000
# 6 0.000000 0.000000 0.000000 -0.135907 0.000000 0.013235
#
#
# Mechanical properties :
#
#
# Convention : Reuss Voigt Hill
#
# Bulk Modulus (GPa) = 20.06357 49.27047 34.66702
# Shear Modulus (GPa) = -40.70906 23.87560 -8.41673
#
# Velocity S-wave (km/s) = -4.71461 3.61058 -2.14374
# Velocity P-wave (km/s) = 4.32225 6.65462 3.57786
#
# Compressibility (1/GPa) = 0.04984159
#
# Stress axis : x y z
#
# Youngs Moduli (GPa) = 45.95276 41.55001 20.89116
#
# Poissons Ratio (x) = 0.12615 0.55398
# Poissons Ratio (y) = 0.13952 -0.15933
# Poissons Ratio (z) = 1.21856 -0.31689
#
# Static dielectric constant tensor:
#      x y z
#    x 1.627480 0.000000 0.049700 
#    y 0.000000 1.260630 0.000000 
#    z 0.049700 0.000000 1.646800 
# 
# From -- ./inp_files/40646.got.cif
#   From: 2010.05.17/outbox.cif.g08.bks.cpg/sg11_21_cif.got.tgz:40646.got - 2010.06.03 12:22:45.
