data_PCOD9157816
_publ_section_title
;
Structure prediction by ZEFSAII (Michael W. Deem and Ramdas Pophale) SiO2 
 PCOD9157816
Probable space group: P 21/M
;
_chemical_formula_sum "Si O2"
_cell_formula_units_Z 28
_cell_length_a 13.955339
_cell_length_b 8.569892
_cell_length_c 15.008676
_cell_angle_alpha 90.000000
_cell_angle_beta 101.876886
_cell_angle_gamma 90.000000
_cell_volume 1756.547198
_symmetry_space_group_name_H-M "P 21/M"
_symmetry_group_IT_number 11
_symmetry_cell_setting 'monoclinic'
loop_
_space_group_symop_operation_xyz
x,y,z
-x,1/2+y,-z
-x,-y,-z
x,1/2-y,z
loop_
_atom_site_type_symbol
_atom_site_label
_atom_site_fract_x
_atom_site_fract_y
_atom_site_fract_z
Si Si1 0.229062 0.435047 0.062572
Si Si2 0.392126 0.563056 0.963057
Si Si3 0.918058 0.433485 0.102099
Si Si4 0.084247 0.563295 0.396907
Si Si5 0.128399 0.438525 0.217381
Si Si6 0.130935 0.939109 0.602763
Si Si7 0.253830 0.934026 0.785115
O O1 0.245098 0.250000 0.063777
O O2 0.209718 0.485012 0.160505
O O3 0.317779 0.516017 0.027774
O O4 0.130344 0.473713 0.988185
O O5 0.394474 0.750000 0.958903
O O6 0.343044 0.501549 0.861289
O O7 0.500000 0.500000 0.000000
O O8 0.924718 0.250000 0.079026
O O9 0.840549 0.445080 0.168176
O O10 0.023005 0.487955 0.156856
O O11 0.078573 0.750000 0.394192
O O12 0.136209 0.504098 0.317876
O O13 0.135086 0.515226 0.499830
O O14 0.973850 0.496499 0.380624
O O15 0.126683 0.250000 0.221767
O O16 0.129945 0.750000 0.607129
O O17 0.217874 0.998049 0.683402
O O18 0.274443 0.750000 0.775889
#
# Coordination Sequence:
#
# PCOD9157816 Si02
#       7
#     4   4   4   4   4   4   4
#     4  10  20  31  46  68  91 120 156 193 230 275
#     4  10  20  35  53  72  93 118 148 188 236 284
#     4   9  16  28  44  62  89 128 160 187 224 268
#     4  10  19  26  41  67  92 123 163 200 226 255
#     4  10  19  31  44  60  92 133 161 185 228 275
#     4   9  16  30  45  61  91 127 159 191 230 274
#     4   8  14  27  48  66  87 122 155 181 224 280
#
# _framework density 15.940362
#
# number of rings (size 3 to 8) (size 9 to 14) (size 15 to 20)
#    0.000    2.571    1.429    2.571    0.000    2.286 
#    0.000    0.714    0.000    0.000    0.000    1.000 
#    0.000    0.000    0.000    0.000    0.000    0.000 
#
# Total GULP energy -156003.300858 kJ/mol
# GULP energy per Si atom -5571.546459 kJ/mol
# Density = 1.590408 g / cm^3
# Si number density = 15.940362 Si / 1000 Ang^3
#
#
#
# Elastic Constant Matrix: (Units=GPa)
#
#
# Indices 1 2 3 4 5 6 
#
# 1 67.6678 17.1437 60.5206 0.0000 13.6265 0.0000
# 2 17.1437 19.0953 25.3395 0.0000 0.2851 0.0000
# 3 60.5206 25.3395 150.1575 0.0000 3.2684 0.0000
# 4 0.0000 0.0000 0.0000 22.4728 0.0000 -1.5954
# 5 13.6265 0.2851 3.2684 0.0000 20.1637 0.0000
# 6 0.0000 0.0000 0.0000 -1.5954 0.0000 18.1750
#
#
#
# Elastic Compliance Matrix: (Units=1/GPa)
#
#
# Indices 1 2 3 4 5 6 
#
# 1 0.030924 -0.014807 -0.009548 0.000000 -0.019141 0.000000
# 2 -0.014807 0.074586 -0.006838 0.000000 0.010060 0.000000
# 3 -0.009548 -0.006838 0.011560 0.000000 0.004676 0.000000
# 4 0.000000 0.000000 0.000000 0.044777 0.000000 0.003930
# 5 -0.019141 0.010060 0.004676 0.000000 0.061629 0.000000
# 6 0.000000 0.000000 0.000000 0.003930 0.000000 0.055366
#
#
# Mechanical properties :
#
#
# Convention : Reuss Voigt Hill
#
# Bulk Modulus (GPa) = 18.28684 49.21424 33.75054
# Shear Modulus (GPa) = 13.90992 21.09009 17.50000
#
# Velocity S-wave (km/s) = 2.95722 3.64134 3.31696
# Velocity P-wave (km/s) = 4.81219 6.97281 5.99071
#
# Compressibility (1/GPa) = 0.05468415
#
# Stress axis : x y z
#
# Youngs Moduli (GPa) = 32.33757 13.40739 86.50317
#
# Poissons Ratio (x) = 0.19852 0.82597
# Poissons Ratio (y) = 0.47881 0.59149
# Poissons Ratio (z) = 0.30877 0.09168
#
# Static dielectric constant tensor:
#      x y z
#    x 1.507940 0.000000 0.004630 
#    y 0.000000 1.543710 0.000000 
#    z 0.004630 0.000000 1.576950 
# 
# From -- ./inp_files/50980.got.cif
#   From: 2010.05.17/outbox.cif.g08.bks.cpg/sg11_26_cif.got.tgz:50980.got - 2010.06.03 12:22:45.
