data_PCOD9157203
_publ_section_title
;
Structure prediction by ZEFSAII (Michael W. Deem and Ramdas Pophale) SiO2 
 PCOD9157203
Probable space group: P 21/M
;
_chemical_formula_sum "Si O2"
_cell_formula_units_Z 32
_cell_length_a 19.694028
_cell_length_b 8.679611
_cell_length_c 15.421664
_cell_angle_alpha 90.000000
_cell_angle_beta 50.379683
_cell_angle_gamma 90.000000
_cell_volume 2030.573483
_symmetry_space_group_name_H-M "P 21/M"
_symmetry_group_IT_number 11
_symmetry_cell_setting 'monoclinic'
loop_
_space_group_symop_operation_xyz
x,y,z
-x,1/2+y,-z
-x,-y,-z
x,1/2-y,z
loop_
_atom_site_type_symbol
_atom_site_label
_atom_site_fract_x
_atom_site_fract_y
_atom_site_fract_z
Si Si1 0.936718 0.435075 0.673434
Si Si2 0.760429 0.564047 0.485404
Si Si3 0.119731 0.565855 0.766897
Si Si4 0.128662 0.064739 0.444669
Si Si5 0.928252 0.064409 0.878954
Si Si6 0.413503 0.435034 0.468741
Si Si7 0.387537 0.933367 0.680977
Si Si8 0.795287 0.933241 0.126441
O O1 0.934647 0.250000 0.672851
O O2 0.873304 0.497970 0.650157
O O3 0.917474 0.483714 0.787199
O O4 0.036238 0.483018 0.565584
O O5 0.770889 0.750000 0.470599
O O6 0.823249 0.490330 0.361667
O O7 0.793661 0.517318 0.553483
O O8 0.659958 0.526648 0.542592
O O9 0.118311 0.750000 0.771729
O O10 0.164089 0.500455 0.817702
O O11 0.021128 0.501255 0.837149
O O12 0.128498 0.250000 0.438845
O O13 0.931632 0.250000 0.879827
O O14 0.850367 0.002902 0.002415
O O15 0.410104 0.250000 0.486915
O O16 0.514604 0.473385 0.364445
O O17 0.388825 0.517720 0.578749
O O18 0.374909 0.750000 0.697551
O O19 0.306835 0.017951 0.792152
O O20 0.803579 0.750000 0.120834
#
# Coordination Sequence:
#
# PCOD9157203 Si02
#       8
#     4   4   4   4   4   4   4   4
#     4   9  18  32  49  71  97 129 163 201 247 290
#     4  10  18  32  51  74 102 136 167 200 247 293
#     4  12  23  34  49  73 101 134 171 207 241 288
#     4   9  17  30  49  72  99 130 163 199 243 293
#     4  11  22  38  54  70  97 133 171 210 247 292
#     4   9  18  31  51  73 100 132 164 205 250 296
#     4  10  19  32  49  74  99 128 169 207 248 294
#     4  12  24  37  51  70  98 135 172 208 249 293
#
# _framework density 15.759093999999999
#
# number of rings (size 3 to 8) (size 9 to 14) (size 15 to 20)
#    0.000    1.750    2.500    3.375    0.000    2.000 
#    0.000    0.000    0.000    0.000    0.000    0.875 
#    0.000    0.000    0.000    0.000    0.000    0.000 
#
# Total GULP energy -178611.412919 kJ/mol
# GULP energy per Si atom -5581.606654 kJ/mol
# Density = 1.572323 g / cm^3
# Si number density = 15.759094 Si / 1000 Ang^3
#
#
#
# Elastic Constant Matrix: (Units=GPa)
#
#
# Indices 1 2 3 4 5 6 
#
# 1 112.6789 34.5306 46.3163 0.0000 -10.3813 0.0000
# 2 34.5306 51.3681 29.0322 0.0000 -4.7420 0.0000
# 3 46.3163 29.0322 74.0183 0.0000 -9.8018 0.0000
# 4 0.0000 0.0000 0.0000 24.1384 0.0000 1.6284
# 5 -10.3813 -4.7420 -9.8018 0.0000 18.6745 0.0000
# 6 0.0000 0.0000 0.0000 1.6284 0.0000 22.7597
#
#
#
# Elastic Compliance Matrix: (Units=1/GPa)
#
#
# Indices 1 2 3 4 5 6 
#
# 1 0.013135 -0.005310 -0.005747 0.000000 0.002937 0.000000
# 2 -0.005310 0.027188 -0.007327 0.000000 0.000106 0.000000
# 3 -0.005747 -0.007327 0.020754 0.000000 0.005837 0.000000
# 4 0.000000 0.000000 0.000000 0.041629 0.000000 -0.002978
# 5 0.002937 0.000106 0.005837 0.000000 0.058272 0.000000
# 6 0.000000 0.000000 0.000000 -0.002978 0.000000 0.044150
#
#
# Mechanical properties :
#
#
# Convention : Reuss Voigt Hill
#
# Bulk Modulus (GPa) = 41.14034 50.86929 46.00481
# Shear Modulus (GPa) = 20.00002 21.66027 20.83015
#
# Velocity S-wave (km/s) = 3.56632 3.71140 3.63958
# Velocity P-wave (km/s) = 6.56663 7.12147 6.84967
#
# Compressibility (1/GPa) = 0.02430704
#
# Stress axis : x y z
#
# Youngs Moduli (GPa) = 76.13159 36.78119 48.18462
#
# Poissons Ratio (x) = 0.19532 0.27694
# Poissons Ratio (y) = 0.40428 0.35305
# Poissons Ratio (z) = 0.43757 0.26950
#
# Static dielectric constant tensor:
#      x y z
#    x 1.536150 0.000000 -0.009020 
#    y 0.000000 1.530300 0.000000 
#    z -0.009020 0.000000 1.500110 
# 
# From -- ./inp_files/51253.got.cif
#   From: 2010.05.17/outbox.cif.g08.bks.cpg/sg11_26_cif.got.tgz:51253.got - 2010.06.03 12:22:45.
