data_PCOD9157123
_publ_section_title
;
Structure prediction by ZEFSAII (Michael W. Deem and Ramdas Pophale) SiO2 
 PCOD9157123
Probable space group: P 21/M
;
_chemical_formula_sum "Si O2"
_cell_formula_units_Z 20
_cell_length_a 9.248700
_cell_length_b 8.598578
_cell_length_c 19.246642
_cell_angle_alpha 90.000000
_cell_angle_beta 44.149518
_cell_angle_gamma 90.000000
_cell_volume 1066.115124
_symmetry_space_group_name_H-M "P 21/M"
_symmetry_group_IT_number 11
_symmetry_cell_setting 'monoclinic'
loop_
_space_group_symop_operation_xyz
x,y,z
-x,1/2+y,-z
-x,-y,-z
x,1/2-y,z
loop_
_atom_site_type_symbol
_atom_site_label
_atom_site_fract_x
_atom_site_fract_y
_atom_site_fract_z
Si Si1 0.651396 0.935828 0.290032
Si Si2 0.662346 0.935791 0.501540
Si Si3 0.558562 0.937311 0.904369
Si Si4 0.973855 0.062860 0.293461
Si Si5 0.226379 0.562617 0.902353
O O1 0.651376 0.750000 0.293066
O O2 0.431702 0.999896 0.394569
O O3 0.828989 0.999367 0.281162
O O4 0.701995 0.995625 0.196084
O O5 0.659170 0.750000 0.502561
O O6 0.500000 0.000000 0.500000
O O7 0.880766 0.997943 0.397666
O O8 0.557791 0.750000 0.907661
O O9 0.388996 0.985100 0.905927
O O10 0.789905 0.985209 0.801987
O O11 0.500000 0.000000 0.000000
O O12 0.959306 0.250000 0.299090
O O13 0.221284 0.750000 0.900356
O O14 0.000000 0.500000 0.000000
#
# Coordination Sequence:
#
# PCOD9157123 Si02
#       5
#     4   4   4   4   4
#     4  11  21  35  56  84 113 147 185 226 270 322
#     4  10  18  31  53  82 112 146 183 225 269 321
#     4  10  23  39  58  81 110 143 181 225 274 327
#     4  10  19  35  57  83 112 146 183 227 274 323
#     4  11  23  40  58  82 111 144 183 227 274 327
#
# _framework density 18.759698
#
# number of rings (size 3 to 8) (size 9 to 14) (size 15 to 20)
#    0.000    1.600    0.000    8.400    0.000    6.400 
#    0.000    1.000    0.000    0.000    0.000    0.000 
#    0.000    0.000    0.000    0.000    0.000    0.000 
#
# Total GULP energy -111732.015052 kJ/mol
# GULP energy per Si atom -5586.600753 kJ/mol
# Density = 1.871700 g / cm^3
# Si number density = 18.759698 Si / 1000 Ang^3
#
#
#
# Elastic Constant Matrix: (Units=GPa)
#
#
# Indices 1 2 3 4 5 6 
#
# 1 105.9268 41.5659 95.6352 0.0000 -6.6693 0.0000
# 2 41.5659 117.5907 70.3504 0.0000 -1.8683 0.0000
# 3 95.6352 70.3504 239.8143 0.0000 -6.2109 0.0000
# 4 0.0000 0.0000 0.0000 40.6252 0.0000 1.7740
# 5 -6.6693 -1.8683 -6.2109 0.0000 33.2370 0.0000
# 6 0.0000 0.0000 0.0000 1.7740 0.0000 21.5160
#
#
#
# Elastic Compliance Matrix: (Units=1/GPa)
#
#
# Indices 1 2 3 4 5 6 
#
# 1 0.015296 -0.002131 -0.005425 0.000000 0.001936 0.000000
# 2 -0.002131 0.010611 -0.002270 0.000000 -0.000255 0.000000
# 3 -0.005425 -0.002270 0.007001 0.000000 0.000092 0.000000
# 4 0.000000 0.000000 0.000000 0.024704 0.000000 -0.002037
# 5 0.001936 -0.000255 0.000092 0.000000 0.030478 0.000000
# 6 0.000000 0.000000 0.000000 -0.002037 0.000000 0.046645
#
#
# Mechanical properties :
#
#
# Convention : Reuss Voigt Hill
#
# Bulk Modulus (GPa) = 75.42409 97.60387 86.51398
# Shear Modulus (GPa) = 31.48502 36.12768 33.80635
#
# Velocity S-wave (km/s) = 4.10119 4.39317 4.24969
# Velocity P-wave (km/s) = 7.91953 8.82466 8.38432
#
# Compressibility (1/GPa) = 0.01325836
#
# Stress axis : x y z
#
# Youngs Moduli (GPa) = 65.37606 94.24130 142.82788
#
# Poissons Ratio (x) = 0.20080 0.77480
# Poissons Ratio (y) = 0.13929 0.32418
# Poissons Ratio (z) = 0.35465 0.21390
#
# Static dielectric constant tensor:
#      x y z
#    x 1.643950 0.000000 -0.011620 
#    y 0.000000 1.631370 0.000000 
#    z -0.011620 0.000000 1.666830 
# 
# From -- ./inp_files/25487.got.cif
#   From: 2010.05.17/outbox.cif.g08.bks.cpg/sg11_13_cif.got.tgz:25487.got - 2010.06.03 12:22:45.
