data_PCOD9157918
_publ_section_title
;
Structure prediction by ZEFSAII (Michael W. Deem and Ramdas Pophale) SiO2 
 PCOD9157918
Probable space group: P 21/M
;
_chemical_formula_sum "Si O2"
_cell_formula_units_Z 32
_cell_length_a 31.756534
_cell_length_b 8.731784
_cell_length_c 15.474668
_cell_angle_alpha 90.000000
_cell_angle_beta 151.459423
_cell_angle_gamma 90.000000
_cell_volume 2050.153195
_symmetry_space_group_name_H-M "P 21/M"
_symmetry_group_IT_number 11
_symmetry_cell_setting 'monoclinic'
loop_
_space_group_symop_operation_xyz
x,y,z
-x,1/2+y,-z
-x,-y,-z
x,1/2-y,z
loop_
_atom_site_type_symbol
_atom_site_label
_atom_site_fract_x
_atom_site_fract_y
_atom_site_fract_z
Si Si1 0.874824 0.935034 0.134349
Si Si2 0.871228 0.433078 0.827403
Si Si3 0.748461 0.566918 0.745521
Si Si4 0.056867 0.565025 0.225092
Si Si5 0.612090 0.933002 0.786304
Si Si6 0.074530 0.563830 0.450857
Si Si7 0.588340 0.066884 0.552866
Si Si8 0.207783 0.933812 0.839333
O O1 0.872179 0.750000 0.137244
O O2 0.975993 0.982662 0.301545
O O3 0.835645 0.007207 0.150156
O O4 0.815466 0.976904 0.944423
O O5 0.867674 0.250000 0.827996
O O6 0.790336 0.505556 0.732847
O O7 0.880731 0.474596 0.743252
O O8 0.961405 0.493408 0.033688
O O9 0.743641 0.750000 0.734937
O O10 0.654196 0.497803 0.600232
O O11 0.046133 0.750000 0.206003
O O12 0.089034 0.516888 0.377715
O O13 0.621100 0.750000 0.799479
O O14 0.514724 0.971386 0.646105
O O15 0.615161 0.995914 0.693787
O O16 0.692977 0.003912 0.983962
O O17 0.075157 0.750000 0.453194
O O18 0.147675 0.512462 0.650898
O O19 0.596386 0.250000 0.572748
O O20 0.209264 0.750000 0.842969
#
# Coordination Sequence:
#
# PCOD9157918 Si02
#       8
#     4   4   4   4   4   4   4   4
#     4  10  19  32  47  64  94 133 166 194 231 278
#     4  10  19  29  48  73  96 123 160 202 240 285
#     4  11  20  31  50  71  98 132 157 191 242 290
#     4   9  17  33  50  66  94 129 162 200 243 283
#     4  10  20  34  49  68  96 127 154 193 246 286
#     4   9  18  33  49  66  92 130 169 198 234 276
#     4  10  20  33  51  71  93 121 160 200 233 283
#     4  11  21  31  48  70  94 127 167 205 229 270
#
# _framework density 15.608589
#
# number of rings (size 3 to 8) (size 9 to 14) (size 15 to 20)
#    0.000    2.000    2.500    2.250    0.000    2.500 
#    0.000    1.875    0.000    0.000    0.000    0.875 
#    0.000    0.000    0.000    0.000    0.000    0.000 
#
# Total GULP energy -178552.529418 kJ/mol
# GULP energy per Si atom -5579.766544 kJ/mol
# Density = 1.557306 g / cm^3
# Si number density = 15.608589 Si / 1000 Ang^3
#
#
#
# Elastic Constant Matrix: (Units=GPa)
#
#
# Indices 1 2 3 4 5 6 
#
# 1 123.3204 35.8447 61.9563 0.0000 15.4194 0.0000
# 2 35.8447 29.3199 27.3072 0.0000 4.9006 0.0000
# 3 61.9563 27.3072 97.0144 0.0000 8.1243 0.0000
# 4 0.0000 0.0000 0.0000 20.8470 0.0000 5.1999
# 5 15.4194 4.9006 8.1243 0.0000 22.8713 0.0000
# 6 0.0000 0.0000 0.0000 5.1999 0.0000 21.6367
#
#
#
# Elastic Compliance Matrix: (Units=1/GPa)
#
#
# Indices 1 2 3 4 5 6 
#
# 1 0.015346 -0.012378 -0.005846 0.000000 -0.005617 0.000000
# 2 -0.012378 0.056875 -0.008021 0.000000 -0.000993 0.000000
# 3 -0.005846 -0.008021 0.016310 0.000000 -0.000134 0.000000
# 4 0.000000 0.000000 0.000000 0.051027 0.000000 -0.012263
# 5 -0.005617 -0.000993 -0.000134 0.000000 0.047770 0.000000
# 6 0.000000 0.000000 0.000000 -0.012263 0.000000 0.049165
#
#
# Mechanical properties :
#
#
# Convention : Reuss Voigt Hill
#
# Bulk Modulus (GPa) = 27.74559 55.54123 41.64341
# Shear Modulus (GPa) = 16.61145 21.37410 18.99277
#
# Velocity S-wave (km/s) = 3.26582 3.70453 3.49207
# Velocity P-wave (km/s) = 5.65997 7.34568 6.55722
#
# Compressibility (1/GPa) = 0.03604176
#
# Stress axis : x y z
#
# Youngs Moduli (GPa) = 65.16317 17.58240 61.31131
#
# Poissons Ratio (x) = 0.21763 0.35843
# Poissons Ratio (y) = 0.80656 0.49179
# Poissons Ratio (z) = 0.38095 0.14103
#
# Static dielectric constant tensor:
#      x y z
#    x 1.518070 0.000000 0.005770 
#    y 0.000000 1.524230 0.000000 
#    z 0.005770 0.000000 1.510360 
# 
# From -- ./inp_files/51220.got.cif
#   From: 2010.05.17/outbox.cif.g08.bks.cpg/sg11_26_cif.got.tgz:51220.got - 2010.06.03 12:22:45.
