data_PCOD9157242
_publ_section_title
;
Structure prediction by ZEFSAII (Michael W. Deem and Ramdas Pophale) SiO2 
 PCOD9157242
Probable space group: P 21/M
;
_chemical_formula_sum "Si O2"
_cell_formula_units_Z 32
_cell_length_a 16.624300
_cell_length_b 17.737525
_cell_length_c 10.606969
_cell_angle_alpha 90.000000
_cell_angle_beta 143.436597
_cell_angle_gamma 90.000000
_cell_volume 1863.219451
_symmetry_space_group_name_H-M "P 21/M"
_symmetry_group_IT_number 11
_symmetry_cell_setting 'monoclinic'
loop_
_space_group_symop_operation_xyz
x,y,z
-x,1/2+y,-z
-x,-y,-z
x,1/2-y,z
loop_
_atom_site_type_symbol
_atom_site_label
_atom_site_fract_x
_atom_site_fract_y
_atom_site_fract_z
Si Si1 0.394654 0.340912 0.123177
Si Si2 0.460349 0.841834 0.950739
Si Si3 0.184104 0.840762 0.486668
Si Si4 0.404863 0.159586 0.619670
Si Si5 0.133375 0.092857 0.191412
Si Si6 0.882575 0.659304 0.108587
Si Si7 0.171243 0.584450 0.199221
Si Si8 0.456795 0.587221 0.450200
O O1 0.407708 0.250000 0.147564
O O2 0.451299 0.364807 0.059189
O O3 0.238252 0.360726 0.949912
O O4 0.478743 0.376517 0.343226
O O5 0.461008 0.750000 0.954699
O O6 0.307141 0.866491 0.729068
O O7 0.522866 0.867087 0.161282
O O8 0.189172 0.750000 0.488438
O O9 0.200877 0.870766 0.365593
O O10 0.033412 0.863012 0.339481
O O11 0.407605 0.250000 0.617984
O O12 0.250145 0.132240 0.417899
O O13 0.482098 0.127290 0.595291
O O14 0.144378 0.123055 0.061767
O O15 0.160311 0.003653 0.221611
O O16 0.978295 0.107071 0.036471
O O17 0.880734 0.750000 0.090251
O O18 0.295271 0.594564 0.260472
O O19 0.500000 0.500000 0.500000
#
# Coordination Sequence:
#
# PCOD9157242 Si02
#       8
#     4   4   4   4   4   4   4   4
#     4  10  18  32  53  76 103 139 185 226 261 319
#     4   9  19  34  52  76 107 142 179 222 266 314
#     4   9  17  31  51  75 103 137 181 226 265 312
#     4  11  22  37  56  81 115 146 174 221 280 324
#     4  10  19  34  52  78 111 141 175 220 275 326
#     4   9  16  28  51  77  99 134 181 225 266 314
#     4  10  20  33  54  79 107 141 180 225 267 316
#     4  12  21  34  54  83 110 140 182 229 271 320
#
# _framework density 17.174575000000001
#
# number of rings (size 3 to 8) (size 9 to 14) (size 15 to 20)
#    0.000    2.000    3.750    0.750    0.000    1.000 
#    0.000    3.750    0.000    3.000    0.000    7.000 
#    0.000    0.000    0.000    0.000    0.000    0.000 
#
# Total GULP energy -178446.940095 kJ/mol
# GULP energy per Si atom -5576.466878 kJ/mol
# Density = 1.713548 g / cm^3
# Si number density = 17.174575 Si / 1000 Ang^3
#
#
#
# Elastic Constant Matrix: (Units=GPa)
#
#
# Indices 1 2 3 4 5 6 
#
# 1 94.7008 21.1165 76.4756 0.0000 10.0514 0.0000
# 2 21.1165 24.0330 30.9612 0.0000 2.0223 0.0000
# 3 76.4756 30.9612 163.5402 0.0000 11.1740 0.0000
# 4 0.0000 0.0000 0.0000 9.4777 0.0000 16.3410
# 5 10.0514 2.0223 11.1740 0.0000 32.5378 0.0000
# 6 0.0000 0.0000 0.0000 16.3410 0.0000 1.6842
#
#
#
# Elastic Compliance Matrix: (Units=1/GPa)
#
#
# Indices 1 2 3 4 5 6 
#
# 1 0.017931 -0.006564 -0.006955 0.000000 -0.002743 0.000000
# 2 -0.006564 0.057435 -0.007884 0.000000 0.001165 0.000000
# 3 -0.006955 -0.007884 0.010936 0.000000 -0.001117 0.000000
# 4 0.000000 0.000000 0.000000 -0.006708 0.000000 0.065087
# 5 -0.002743 0.001165 -0.001117 0.000000 0.031892 0.000000
# 6 0.000000 0.000000 0.000000 0.065087 0.000000 -0.037750
#
#
# Mechanical properties :
#
#
# Convention : Reuss Voigt Hill
#
# Bulk Modulus (GPa) = 22.99029 59.93116 41.46073
# Shear Modulus (GPa) = 38.15641 18.98798 28.57219
#
# Velocity S-wave (km/s) = 4.71858 3.32864 4.08319
# Velocity P-wave (km/s) = 6.56521 7.05296 6.81345
#
# Compressibility (1/GPa) = 0.04349662
#
# Stress axis : x y z
#
# Youngs Moduli (GPa) = 55.77033 17.41087 91.44333
#
# Poissons Ratio (x) = 0.11429 0.63596
# Poissons Ratio (y) = 0.36610 0.72090
# Poissons Ratio (z) = 0.38787 0.13726
#
# Static dielectric constant tensor:
#      x y z
#    x 1.567660 0.000000 0.037980 
#    y 0.000000 1.570210 0.000000 
#    z 0.037980 0.000000 1.599850 
# 
# From -- ./inp_files/41871.got.cif
#   From: 2010.05.17/outbox.cif.g08.bks.cpg/sg11_21_cif.got.tgz:41871.got - 2010.06.03 12:22:45.
