data_PCOD9157025
_publ_section_title
;
Structure prediction by ZEFSAII (Michael W. Deem and Ramdas Pophale) SiO2 
 PCOD9157025
Probable space group: P 21/M
;
_chemical_formula_sum "Si O2"
_cell_formula_units_Z 28
_cell_length_a 10.141565
_cell_length_b 18.006093
_cell_length_c 8.750942
_cell_angle_alpha 90.000000
_cell_angle_beta 122.537392
_cell_angle_gamma 90.000000
_cell_volume 1347.186655
_symmetry_space_group_name_H-M "P 21/M"
_symmetry_group_IT_number 11
_symmetry_cell_setting 'monoclinic'
loop_
_space_group_symop_operation_xyz
x,y,z
-x,1/2+y,-z
-x,-y,-z
x,1/2-y,z
loop_
_atom_site_type_symbol
_atom_site_label
_atom_site_fract_x
_atom_site_fract_y
_atom_site_fract_z
Si Si1 0.132275 0.335085 0.924582
Si Si2 0.087948 0.938980 0.384404
Si Si3 0.866028 0.951293 0.834503
Si Si4 0.507254 0.830999 0.787316
Si Si5 0.646585 0.337425 0.616604
Si Si6 0.400036 0.538187 0.173657
Si Si7 0.693842 0.463478 0.223248
O O1 0.075136 0.250000 0.871124
O O2 0.067752 0.393809 0.759020
O O3 0.100615 0.370513 0.073573
O O4 0.319241 0.333129 0.039843
O O5 0.214375 0.883158 0.380685
O O6 0.142981 0.950516 0.591407
O O7 0.110037 0.019782 0.321084
O O8 0.692427 0.979602 0.775788
O O9 0.000000 0.000000 0.000000
O O10 0.438040 0.750000 0.769853
O O11 0.493312 0.842244 0.595359
O O12 0.404825 0.889413 0.810498
O O13 0.680061 0.250000 0.662294
O O14 0.613414 0.383191 0.749849
O O15 0.579877 0.521307 0.241245
O O16 0.306080 0.527430 0.957060
#
# Coordination Sequence:
#
# PCOD9157025 Si02
#       7
#     4   4   4   4   4   4   4
#     4  10  18  31  51  76 104 133 169 219 264 311
#     4   9  19  32  54  77 103 135 177 217 261 313
#     4   9  18  33  53  80 103 135 175 221 264 307
#     4   9  18  31  53  77 102 134 175 217 263 315
#     4   9  18  32  51  77 101 131 173 222 263 307
#     4  10  20  33  54  75 109 141 177 217 263 311
#     4  10  20  34  52  77 105 144 175 214 260 316
#
# _framework density 20.784054999999999
#
# number of rings (size 3 to 8) (size 9 to 14) (size 15 to 20)
#    0.000    2.571    1.429    0.429    2.000    2.857 
#    0.000    2.857    0.000    0.000    0.000   10.000 
#    0.000    0.000    0.000    0.000    0.000    0.000 
#
# Total GULP energy -155970.053546 kJ/mol
# GULP energy per Si atom -5570.359055 kJ/mol
# Density = 2.073675 g / cm^3
# Si number density = 20.784055 Si / 1000 Ang^3
#
#
#
# Elastic Constant Matrix: (Units=GPa)
#
#
# Indices 1 2 3 4 5 6 
#
# 1 58.6427 10.4672 26.6739 0.0000 -2.7290 0.0000
# 2 10.4672 65.5172 12.2742 0.0000 -2.6117 0.0000
# 3 26.6739 12.2742 86.3044 0.0000 15.6802 0.0000
# 4 0.0000 0.0000 0.0000 27.9520 0.0000 4.1732
# 5 -2.7290 -2.6117 15.6802 0.0000 23.4162 0.0000
# 6 0.0000 0.0000 0.0000 4.1732 0.0000 8.0860
#
#
#
# Elastic Compliance Matrix: (Units=1/GPa)
#
#
# Indices 1 2 3 4 5 6 
#
# 1 0.021174 -0.001653 -0.007655 0.000000 0.007410 0.000000
# 2 -0.001653 0.016095 -0.002356 0.000000 0.003180 0.000000
# 3 -0.007655 -0.002356 0.016506 0.000000 -0.012208 0.000000
# 4 0.000000 0.000000 0.000000 0.038762 0.000000 -0.020005
# 5 0.007410 0.003180 -0.012208 0.000000 0.052098 0.000000
# 6 0.000000 0.000000 0.000000 -0.020005 0.000000 0.133996
#
#
# Mechanical properties :
#
#
# Convention : Reuss Voigt Hill
#
# Bulk Modulus (GPa) = 32.84438 34.36611 33.60525
# Shear Modulus (GPa) = 16.01997 22.62744 19.32371
#
# Velocity S-wave (km/s) = 2.77931 3.30311 3.05247
# Velocity P-wave (km/s) = 5.11238 5.57836 5.35045
#
# Compressibility (1/GPa) = 0.03044661
#
# Stress axis : x y z
#
# Youngs Moduli (GPa) = 47.22675 62.12948 60.58423
#
# Poissons Ratio (x) = 0.10272 0.46380
# Poissons Ratio (y) = 0.07808 0.14273
# Poissons Ratio (z) = 0.36154 0.14637
#
# Static dielectric constant tensor:
#      x y z
#    x 1.792360 0.000000 0.029960 
#    y 0.000000 1.784410 0.000000 
#    z 0.029960 0.000000 1.818160 
# 
# From -- ./inp_files/19225.got.cif
#   From: 2010.05.17/outbox.cif.g08.bks.cpg/sg11_10_cif.got.tgz:19225.got - 2010.06.03 12:22:45.
