data_PCOD9157182
_publ_section_title
;
Structure prediction by ZEFSAII (Michael W. Deem and Ramdas Pophale) SiO2 
 PCOD9157182
Probable space group: P 21/M
;
_chemical_formula_sum "Si O2"
_cell_formula_units_Z 32
_cell_length_a 21.685194
_cell_length_b 8.685993
_cell_length_c 13.018045
_cell_angle_alpha 90.000000
_cell_angle_beta 125.900666
_cell_angle_gamma 90.000000
_cell_volume 1986.242386
_symmetry_space_group_name_H-M "P 21/M"
_symmetry_group_IT_number 11
_symmetry_cell_setting 'monoclinic'
loop_
_space_group_symop_operation_xyz
x,y,z
-x,1/2+y,-z
-x,-y,-z
x,1/2-y,z
loop_
_atom_site_type_symbol
_atom_site_label
_atom_site_fract_x
_atom_site_fract_y
_atom_site_fract_z
Si Si1 0.592843 0.566134 0.691723
Si Si2 0.004891 0.064874 0.388889
Si Si3 0.163729 0.565245 0.541793
Si Si4 0.416040 0.933746 0.540107
Si Si5 0.319090 0.936042 0.030615
Si Si6 0.414996 0.934702 0.921018
Si Si7 0.838092 0.063334 0.219306
Si Si8 0.322128 0.066798 0.637180
O O1 0.596572 0.750000 0.683688
O O2 0.607838 0.487772 0.596747
O O3 0.505717 0.525809 0.637845
O O4 0.648822 0.509443 0.834913
O O5 0.009914 0.250000 0.396130
O O6 0.922420 0.020250 0.262427
O O7 0.000000 0.000000 0.500000
O O8 0.082833 0.995932 0.421587
O O9 0.164375 0.750000 0.539711
O O10 0.170088 0.516641 0.668804
O O11 0.236687 0.498910 0.555787
O O12 0.408765 0.750000 0.542164
O O13 0.367279 0.013653 0.580509
O O14 0.318991 0.750000 0.040745
O O15 0.373952 0.974713 0.988198
O O16 0.234118 0.988595 0.916654
O O17 0.416847 0.750000 0.914734
O O18 0.365943 0.999868 0.779049
O O19 0.500000 0.000000 0.000000
O O20 0.835645 0.250000 0.218089
O O21 0.320522 0.250000 0.641936
#
# Coordination Sequence:
#
# PCOD9157182 Si02
#       8
#     4   4   4   4   4   4   4   4
#     4  10  21  36  54  77 100 125 167 220 261 298
#     4   9  16  27  45  69  97 132 171 209 251 298
#     4  10  18  32  49  69 101 137 171 209 252 302
#     4  10  21  38  57  73  96 132 171 213 262 308
#     4  10  19  33  51  71  99 138 172 203 249 303
#     4  11  22  35  50  70 102 139 175 209 250 305
#     4   8  15  29  47  68  98 134 169 205 245 296
#     4  12  23  34  51  76 104 134 171 213 257 305
#
# _framework density 16.110824000000001
#
# number of rings (size 3 to 8) (size 9 to 14) (size 15 to 20)
#    0.000    2.000    1.250    4.500    0.000    4.500 
#    0.000    1.250    0.000    0.000    0.000    0.875 
#    0.000    0.000    0.000    0.000    0.000    0.000 
#
# Total GULP energy -178541.607152 kJ/mol
# GULP energy per Si atom -5579.425224 kJ/mol
# Density = 1.607415 g / cm^3
# Si number density = 16.110824 Si / 1000 Ang^3
#
#
#
# Elastic Constant Matrix: (Units=GPa)
#
#
# Indices 1 2 3 4 5 6 
#
# 1 39.0821 11.5381 30.7124 0.0000 13.7253 0.0000
# 2 11.5381 45.1359 19.3369 0.0000 3.6966 0.0000
# 3 30.7124 19.3369 90.9404 0.0000 16.0005 0.0000
# 4 0.0000 0.0000 0.0000 24.5324 0.0000 1.8539
# 5 13.7253 3.6966 16.0005 0.0000 24.7994 0.0000
# 6 0.0000 0.0000 0.0000 1.8539 0.0000 25.8426
#
#
#
# Elastic Compliance Matrix: (Units=1/GPa)
#
#
# Indices 1 2 3 4 5 6 
#
# 1 0.040039 -0.004779 -0.009850 0.000000 -0.015092 0.000000
# 2 -0.004779 0.024949 -0.003950 0.000000 0.001475 0.000000
# 3 -0.009850 -0.003950 0.015906 0.000000 -0.004222 0.000000
# 4 0.000000 0.000000 0.000000 0.040985 0.000000 -0.002940
# 5 -0.015092 0.001475 -0.004222 0.000000 0.051180 0.000000
# 6 0.000000 0.000000 0.000000 -0.002940 0.000000 0.038907
#
#
# Mechanical properties :
#
#
# Convention : Reuss Voigt Hill
#
# Bulk Modulus (GPa) = 22.86579 33.14813 28.00696
# Shear Modulus (GPa) = 18.96076 22.60629 20.78352
#
# Velocity S-wave (km/s) = 3.43431 3.74996 3.59560
# Velocity P-wave (km/s) = 5.47263 6.27450 5.88723
#
# Compressibility (1/GPa) = 0.04373345
#
# Stress axis : x y z
#
# Youngs Moduli (GPa) = 24.97560 40.08242 62.87060
#
# Poissons Ratio (x) = 0.19156 0.61930
# Poissons Ratio (y) = 0.11936 0.24837
# Poissons Ratio (z) = 0.24602 0.15834
#
# Static dielectric constant tensor:
#      x y z
#    x 1.563890 0.000000 0.025520 
#    y 0.000000 1.543370 0.000000 
#    z 0.025520 0.000000 1.528660 
# 
# From -- ./inp_files/42942.got.cif
#   From: 2010.05.17/outbox.cif.g08.bks.cpg/sg11_22_cif.got.tgz:42942.got - 2010.06.03 12:22:45.
