data_PCOD9157760
_publ_section_title
;
Structure prediction by ZEFSAII (Michael W. Deem and Ramdas Pophale) SiO2 
 PCOD9157760
Probable space group: P 21/M
;
_chemical_formula_sum "Si O2"
_cell_formula_units_Z 32
_cell_length_a 8.040299
_cell_length_b 20.520369
_cell_length_c 11.206303
_cell_angle_alpha 90.000000
_cell_angle_beta 60.617328
_cell_angle_gamma 90.000000
_cell_volume 1611.085023
_symmetry_space_group_name_H-M "P 21/M"
_symmetry_group_IT_number 11
_symmetry_cell_setting 'monoclinic'
loop_
_space_group_symop_operation_xyz
x,y,z
-x,1/2+y,-z
-x,-y,-z
x,1/2-y,z
loop_
_atom_site_type_symbol
_atom_site_label
_atom_site_fract_x
_atom_site_fract_y
_atom_site_fract_z
Si Si1 0.251553 0.827034 0.642174
Si Si2 0.727919 0.491905 0.137277
Si Si3 0.553098 0.883969 0.078423
Si Si4 0.217259 0.434601 0.649529
Si Si5 0.587332 0.594865 0.656023
Si Si6 0.827664 0.459040 0.856138
Si Si7 0.835784 0.888148 0.781922
Si Si8 0.485353 0.323950 0.663123
O O1 0.233082 0.750000 0.672541
O O2 0.425625 0.856853 0.659584
O O3 0.323566 0.836169 0.480533
O O4 0.048542 0.862059 0.729642
O O5 0.682954 0.561800 0.097621
O O6 0.775363 0.505201 0.259198
O O7 0.532201 0.451948 0.215430
O O8 0.859012 0.458478 0.989867
O O9 0.371971 0.923442 0.093736
O O10 0.492345 0.835521 0.204400
O O11 0.683797 0.856653 0.927065
O O12 0.316035 0.444654 0.487362
O O13 0.330805 0.374328 0.666109
O O14 0.992529 0.422005 0.726257
O O15 0.755628 0.624704 0.677134
O O16 0.827343 0.533633 0.809576
O O17 0.425834 0.250000 0.659781
#
# Coordination Sequence:
#
# PCOD9157760 Si02
#       8
#     4   4   4   4   4   4   4   4
#     4  10  24  43  62  84 115 157 203 248 300 351
#     4  10  18  37  55  82 124 158 185 238 300 347
#     4  10  20  37  60  85 121 153 193 242 292 355
#     4  10  22  32  58  89 116 154 199 241 294 356
#     4  11  21  38  59  89 121 155 196 248 291 358
#     4  11  20  36  57  90 123 157 190 241 301 359
#     4  11  22  39  62  90 124 158 195 243 304 356
#     4   9  21  43  61  78 112 156 200 249 296 348
#
# _framework density 19.862390999999999
#
# number of rings (size 3 to 8) (size 9 to 14) (size 15 to 20)
#    0.000    1.750    2.500    2.250    1.750    5.500 
#    0.000    0.625    0.000    0.000    0.000    0.000 
#    0.000    0.000    0.000    0.000    0.000    0.000 
#
# Total GULP energy -178373.559000 kJ/mol
# GULP energy per Si atom -5574.173719 kJ/mol
# Density = 1.981718 g / cm^3
# Si number density = 19.862391 Si / 1000 Ang^3
#
#
#
# Elastic Constant Matrix: (Units=GPa)
#
#
# Indices 1 2 3 4 5 6 
#
# 1 97.1163 17.3211 44.7731 0.0000 -6.9181 0.0000
# 2 17.3211 47.0742 33.4624 0.0000 -8.5991 0.0000
# 3 44.7731 33.4624 121.9777 0.0000 -13.1904 0.0000
# 4 0.0000 0.0000 0.0000 19.3991 0.0000 -3.5165
# 5 -6.9181 -8.5991 -13.1904 0.0000 33.0014 0.0000
# 6 0.0000 0.0000 0.0000 -3.5165 0.0000 11.3795
#
#
#
# Elastic Compliance Matrix: (Units=1/GPa)
#
#
# Indices 1 2 3 4 5 6 
#
# 1 0.012508 -0.001588 -0.004094 0.000000 0.000572 0.000000
# 2 -0.001588 0.027149 -0.006413 0.000000 0.004178 0.000000
# 3 -0.004094 -0.006413 0.011692 0.000000 0.002144 0.000000
# 4 0.000000 0.000000 0.000000 0.054608 0.000000 0.016875
# 5 0.000572 0.004178 0.002144 0.000000 0.032367 0.000000
# 6 0.000000 0.000000 0.000000 0.016875 0.000000 0.093092
#
#
# Mechanical properties :
#
#
# Convention : Reuss Voigt Hill
#
# Bulk Modulus (GPa) = 36.81917 50.80904 43.81410
# Shear Modulus (GPa) = 18.89216 24.13011 21.51113
#
# Velocity S-wave (km/s) = 3.08742 3.48927 3.29448
# Velocity P-wave (km/s) = 5.59347 6.47066 6.04799
#
# Compressibility (1/GPa) = 0.02715977
#
# Stress axis : x y z
#
# Youngs Moduli (GPa) = 79.94738 36.83327 85.52791
#
# Poissons Ratio (x) = 0.05849 0.35013
# Poissons Ratio (y) = 0.12695 0.54851
# Poissons Ratio (z) = 0.32729 0.23622
#
# Static dielectric constant tensor:
#      x y z
#    x 1.781550 0.000000 0.012860 
#    y 0.000000 1.687270 0.000000 
#    z 0.012860 0.000000 1.745050 
# 
# From -- ./inp_files/32832.got.cif
#   From: 2010.05.17/outbox.cif.g08.bks.cpg/sg11_17_cif.got.tgz:32832.got - 2010.06.03 12:22:45.
