data_PCOD9157453
_publ_section_title
;
Structure prediction by ZEFSAII (Michael W. Deem and Ramdas Pophale) SiO2 
 PCOD9157453
Probable space group: P 21/M
;
_chemical_formula_sum "Si O2"
_cell_formula_units_Z 32
_cell_length_a 11.796585
_cell_length_b 18.870136
_cell_length_c 11.970506
_cell_angle_alpha 90.000000
_cell_angle_beta 137.789999
_cell_angle_gamma 90.000000
_cell_volume 1790.259919
_symmetry_space_group_name_H-M "P 21/M"
_symmetry_group_IT_number 11
_symmetry_cell_setting 'monoclinic'
loop_
_space_group_symop_operation_xyz
x,y,z
-x,1/2+y,-z
-x,-y,-z
x,1/2-y,z
loop_
_atom_site_type_symbol
_atom_site_label
_atom_site_fract_x
_atom_site_fract_y
_atom_site_fract_z
Si Si1 0.880235 0.546854 0.660706
Si Si2 0.105074 0.073224 0.566697
Si Si3 0.954149 0.168625 0.649803
Si Si4 0.800339 0.048662 0.948613
Si Si5 0.015431 0.833346 0.065284
Si Si6 0.705640 0.908119 0.740903
Si Si7 0.476760 0.482209 0.853897
Si Si8 0.645954 0.085279 0.414647
O O1 0.930146 0.591909 0.588068
O O2 0.754108 0.589587 0.647425
O O3 0.776724 0.476332 0.549695
O O4 0.045134 0.530753 0.854933
O O5 0.304689 0.061528 0.718756
O O6 0.051299 0.122325 0.629287
O O7 0.000000 0.000000 0.500000
O O8 0.001545 0.250000 0.672307
O O9 0.758028 0.154088 0.480562
O O10 0.976589 0.149369 0.796845
O O11 0.633834 0.054507 0.904925
O O12 0.862608 0.115550 0.919582
O O13 0.763184 0.983260 0.838149
O O14 0.055091 0.750000 0.080095
O O15 0.824999 0.850450 0.886388
O O16 0.507160 0.901830 0.613362
O O17 0.439804 0.554816 0.759403
O O18 0.500000 0.500000 0.000000
#
# Coordination Sequence:
#
# PCOD9157453 Si02
#       8
#     4   4   4   4   4   4   4   4
#     4  10  18  33  55  84 113 144 181 232 292 328
#     4  11  21  35  57  80 115 150 189 236 287 342
#     4  11  23  39  57  80 114 158 194 228 283 352
#     4  10  20  34  59  88 114 147 192 243 282 340
#     4  10  22  39  58  80 116 159 192 231 287 340
#     4  10  20  33  59  87 114 140 192 239 286 330
#     4  10  21  33  58  89 114 144 187 240 295 331
#     4  10  20  33  56  86 114 143 184 241 282 340
#
# _framework density 17.874500000000001
#
# number of rings (size 3 to 8) (size 9 to 14) (size 15 to 20)
#    0.000    1.750    2.500    4.125    3.500    2.500 
#    0.000    3.125    0.000    0.000    0.000    0.000 
#    0.000    0.000    0.000    0.000    0.000    0.000 
#
# Total GULP energy -178387.962218 kJ/mol
# GULP energy per Si atom -5574.623819 kJ/mol
# Density = 1.783382 g / cm^3
# Si number density = 17.874500 Si / 1000 Ang^3
#
#
#
# Elastic Constant Matrix: (Units=GPa)
#
#
# Indices 1 2 3 4 5 6 
#
# 1 168.8159 45.4915 55.5447 0.0000 -2.5760 0.0000
# 2 45.4915 64.1562 23.0036 0.0000 -11.3697 0.0000
# 3 55.5447 23.0036 44.1929 0.0000 -5.3644 0.0000
# 4 0.0000 0.0000 0.0000 14.7881 0.0000 -3.9944
# 5 -2.5760 -11.3697 -5.3644 0.0000 39.9324 0.0000
# 6 0.0000 0.0000 0.0000 -3.9944 0.0000 23.2579
#
#
#
# Elastic Compliance Matrix: (Units=1/GPa)
#
#
# Indices 1 2 3 4 5 6 
#
# 1 0.010813 -0.003759 -0.011873 0.000000 -0.001968 0.000000
# 2 -0.003759 0.021184 -0.005692 0.000000 0.005024 0.000000
# 3 -0.011873 -0.005692 0.040891 0.000000 0.003106 0.000000
# 4 0.000000 0.000000 0.000000 0.070912 0.000000 0.012179
# 5 -0.001968 0.005024 0.003106 0.000000 0.026763 0.000000
# 6 0.000000 0.000000 0.000000 0.012179 0.000000 0.045088
#
#
# Mechanical properties :
#
#
# Convention : Reuss Voigt Hill
#
# Bulk Modulus (GPa) = 33.06956 58.36053 45.71504
# Shear Modulus (GPa) = 18.63046 25.80402 22.21724
#
# Velocity S-wave (km/s) = 3.23196 3.80362 3.52938
# Velocity P-wave (km/s) = 5.69812 7.21187 6.49922
#
# Compressibility (1/GPa) = 0.03023929
#
# Stress axis : x y z
#
# Youngs Moduli (GPa) = 92.48206 47.20611 24.45547
#
# Poissons Ratio (x) = 0.17744 0.29035
# Poissons Ratio (y) = 0.34762 0.13921
# Poissons Ratio (z) = 1.09801 0.26872
#
# Static dielectric constant tensor:
#      x y z
#    x 1.660060 0.000000 -0.002920 
#    y 0.000000 1.616350 0.000000 
#    z -0.002920 0.000000 1.649820 
# 
# From -- ./inp_files/36378.got.cif
#   From: 2010.05.17/outbox.cif.g08.bks.cpg/sg11_19_cif.got.tgz:36378.got - 2010.06.03 12:22:45.
