data_PCOD9157709
_publ_section_title
;
Structure prediction by ZEFSAII (Michael W. Deem and Ramdas Pophale) SiO2 
 PCOD9157709
Probable space group: P 21/M
;
_chemical_formula_sum "Si O2"
_cell_formula_units_Z 28
_cell_length_a 7.680846
_cell_length_b 33.669446
_cell_length_c 7.442996
_cell_angle_alpha 90.000000
_cell_angle_beta 140.969142
_cell_angle_gamma 90.000000
_cell_volume 1212.141445
_symmetry_space_group_name_H-M "P 21/M"
_symmetry_group_IT_number 11
_symmetry_cell_setting 'monoclinic'
loop_
_space_group_symop_operation_xyz
x,y,z
-x,1/2+y,-z
-x,-y,-z
x,1/2-y,z
loop_
_atom_site_type_symbol
_atom_site_label
_atom_site_fract_x
_atom_site_fract_y
_atom_site_fract_z
Si Si1 0.552170 0.250000 0.957060
Si Si2 0.527273 0.420102 0.089972
Si Si3 0.834818 0.750000 0.686214
Si Si4 0.857743 0.583255 0.895565
Si Si5 0.117305 0.453788 0.480803
Si Si6 0.059477 0.334658 0.192129
Si Si7 0.447032 0.163904 0.847455
Si Si8 0.207050 0.980423 0.308902
O O1 0.446473 0.207272 0.942415
O O2 0.885749 0.250000 0.214447
O O3 0.430847 0.250000 0.655639
O O4 0.892861 0.499857 0.584641
O O5 0.463916 0.374435 0.987764
O O6 0.846792 0.431328 0.336244
O O7 0.374224 0.445954 0.815480
O O8 0.852215 0.791202 0.803898
O O9 0.831745 0.567840 0.671301
O O10 0.861979 0.630327 0.877915
O O11 0.614384 0.570138 0.834257
O O12 0.136799 0.565321 0.209797
O O13 0.732628 0.336488 0.963750
O O14 0.204244 0.339416 0.504819
O O15 0.500000 0.000000 0.500000
O O16 0.000000 0.000000 0.000000
#
# Coordination Sequence:
#
# PCOD9157709 Si02
#       8
#     2   4   2   4   4   4   4   4
#     4   8  16  28  55  78 115 154 198 236 291 358
#     4  12  24  38  65  92 120 161 210 243 317 365
#     4   8  16  30  53  88 107 158 198 232 303 358
#     4  11  24  41  65  93 121 164 205 255 305 368
#     4  11  24  44  60  87 128 161 199 266 299 359
#     4  10  19  35  61  82 124 155 197 251 298 356
#     4  10  18  36  55  87 117 159 197 245 300 358
#     4  10  23  41  65  88 120 163 208 248 310 362
#
# _framework density 23.099616000000001
#
# number of rings (size 3 to 8) (size 9 to 14) (size 15 to 20)
#    0.000    1.714    2.857    1.714    0.000    5.714 
#    0.000    0.714    0.000    0.000    0.000   12.000 
#    0.000    0.000    0.000    0.000    0.000    0.000 
#
# Total GULP energy -156492.489749 kJ/mol
# GULP energy per Si atom -5589.017491 kJ/mol
# Density = 2.304704 g / cm^3
# Si number density = 23.099616 Si / 1000 Ang^3
#
#
#
# Elastic Constant Matrix: (Units=GPa)
#
#
# Indices 1 2 3 4 5 6 
#
# 1 100.4763 17.4390 9.9688 0.0000 -0.3673 0.0000
# 2 17.4390 165.1210 -2.2518 0.0000 -14.8726 0.0000
# 3 9.9688 -2.2518 88.0083 0.0000 9.0541 0.0000
# 4 0.0000 0.0000 0.0000 35.8586 0.0000 -6.2601
# 5 -0.3673 -14.8726 9.0541 0.0000 28.2664 0.0000
# 6 0.0000 0.0000 0.0000 -6.2601 0.0000 28.5249
#
#
#
# Elastic Compliance Matrix: (Units=1/GPa)
#
#
# Indices 1 2 3 4 5 6 
#
# 1 0.010262 -0.001106 -0.001184 0.000000 -0.000070 0.000000
# 2 -0.001106 0.006480 -0.000060 0.000000 0.003414 0.000000
# 3 -0.001184 -0.000060 0.011892 0.000000 -0.003856 0.000000
# 4 0.000000 0.000000 0.000000 0.028998 0.000000 0.006364
# 5 -0.000070 0.003414 -0.003856 0.000000 0.038408 0.000000
# 6 0.000000 0.000000 0.000000 0.006364 0.000000 0.036454
#
#
# Mechanical properties :
#
#
# Convention : Reuss Voigt Hill
#
# Bulk Modulus (GPa) = 41.78235 44.87973 43.33104
# Shear Modulus (GPa) = 34.44207 40.42660 37.43434
#
# Velocity S-wave (km/s) = 3.86557 4.18796 4.02999
# Velocity P-wave (km/s) = 6.16852 6.54647 6.36030
#
# Compressibility (1/GPa) = 0.02393355
#
# Stress axis : x y z
#
# Youngs Moduli (GPa) = 97.44917 154.32822 84.09158
#
# Poissons Ratio (x) = 0.17072 0.09952
# Poissons Ratio (y) = 0.10780 0.00506
# Poissons Ratio (z) = 0.11533 0.00928
#
# Static dielectric constant tensor:
#      x y z
#    x 1.851740 0.000000 0.013200 
#    y 0.000000 1.962500 0.000000 
#    z 0.013200 0.000000 1.821590 
# 
# From -- ./inp_files/52761.got.cif
#   From: 2010.05.17/outbox.cif.g08.bks.cpg/sg11_27_cif.got.tgz:52761.got - 2010.06.03 12:22:45.
