data_PCOD9157945
_publ_section_title
;
Structure prediction by ZEFSAII (Michael W. Deem and Ramdas Pophale) SiO2 
 PCOD9157945
Probable space group: P 21/M
;
_chemical_formula_sum "Si O2"
_cell_formula_units_Z 28
_cell_length_a 21.736656
_cell_length_b 9.158702
_cell_length_c 11.320411
_cell_angle_alpha 90.000000
_cell_angle_beta 50.286540
_cell_angle_gamma 90.000000
_cell_volume 1733.628601
_symmetry_space_group_name_H-M "P 21/M"
_symmetry_group_IT_number 11
_symmetry_cell_setting 'monoclinic'
loop_
_space_group_symop_operation_xyz
x,y,z
-x,1/2+y,-z
-x,-y,-z
x,1/2-y,z
loop_
_atom_site_type_symbol
_atom_site_label
_atom_site_fract_x
_atom_site_fract_y
_atom_site_fract_z
Si Si1 0.730124 0.423130 0.008759
Si Si2 0.404380 0.923300 0.523415
Si Si3 0.030067 0.423153 0.637044
Si Si4 0.924544 0.923598 0.153383
Si Si5 0.426410 0.422377 0.746717
Si Si6 0.227987 0.578769 0.765859
Si Si7 0.120278 0.076387 0.283832
O O1 0.728805 0.250000 0.992114
O O2 0.641779 0.490084 0.100861
O O3 0.755653 0.448818 0.114896
O O4 0.796543 0.499595 0.847478
O O5 0.409056 0.750000 0.552854
O O6 0.479258 0.949686 0.344999
O O7 0.313175 0.947139 0.596492
O O8 0.416482 0.023942 0.623339
O O9 0.010528 0.250000 0.657296
O O10 0.069702 0.455277 0.713854
O O11 0.088447 0.454093 0.455311
O O12 0.948697 0.512255 0.716630
O O13 0.929839 0.750000 0.130781
O O14 0.843294 0.983488 0.196818
O O15 0.000000 0.000000 0.000000
O O16 0.411353 0.250000 0.774636
O O17 0.207401 0.750000 0.779426
O O18 0.126926 0.250000 0.260371
#
# Coordination Sequence:
#
# PCOD9157945 Si02
#       7
#     4   4   4   4   4   4   4
#     4  10  19  30  44  66  97 125 148 184 232 268
#     4   8  15  27  41  60  90 123 150 183 227 266
#     4   9  20  36  49  65  92 120 146 185 233 268
#     4  11  22  34  48  67  92 121 151 184 222 263
#     4   9  15  24  41  64  89 119 154 185 218 268
#     4   9  18  31  45  64  93 125 152 181 221 266
#     4  10  19  32  51  70  87 114 153 189 223 270
#
# _framework density 16.151095999999999
#
# number of rings (size 3 to 8) (size 9 to 14) (size 15 to 20)
#    0.000    2.571    0.000    3.429    0.000    8.571 
#    0.000    0.000    0.000    0.000    0.000    1.000 
#    0.000    0.000    0.000    0.000    0.000    0.000 
#
# Total GULP energy -156011.118308 kJ/mol
# GULP energy per Si atom -5571.825654 kJ/mol
# Density = 1.611433 g / cm^3
# Si number density = 16.151096 Si / 1000 Ang^3
#
#
#
# Elastic Constant Matrix: (Units=GPa)
#
#
# Indices 1 2 3 4 5 6 
#
# 1 59.7336 37.4128 36.8419 0.0000 -19.3092 0.0000
# 2 37.4128 55.1191 50.7238 0.0000 -16.9153 0.0000
# 3 36.8419 50.7238 91.4322 0.0000 -34.8444 0.0000
# 4 0.0000 0.0000 0.0000 27.4518 0.0000 -6.9840
# 5 -19.3092 -16.9153 -34.8444 0.0000 28.4556 0.0000
# 6 0.0000 0.0000 0.0000 -6.9840 0.0000 24.7668
#
#
#
# Elastic Compliance Matrix: (Units=1/GPa)
#
#
# Indices 1 2 3 4 5 6 
#
# 1 0.032125 -0.021516 0.004547 0.000000 0.014577 0.000000
# 2 -0.021516 0.052013 -0.026186 0.000000 -0.015747 0.000000
# 3 0.004547 -0.026186 0.035392 0.000000 0.030857 0.000000
# 4 0.000000 0.000000 0.000000 0.039243 0.000000 0.011066
# 5 0.014577 -0.015747 0.030857 0.000000 0.073458 0.000000
# 6 0.000000 0.000000 0.000000 0.011066 0.000000 0.043497
#
#
# Mechanical properties :
#
#
# Convention : Reuss Voigt Hill
#
# Bulk Modulus (GPa) = 30.10402 50.69355 40.39879
# Shear Modulus (GPa) = 13.40088 21.55528 17.47808
#
# Velocity S-wave (km/s) = 2.88361 3.65718 3.29319
# Velocity P-wave (km/s) = 5.45586 7.02058 6.28709
#
# Compressibility (1/GPa) = 0.03321815
#
# Stress axis : x y z
#
# Youngs Moduli (GPa) = 31.12880 19.22611 28.25530
#
# Poissons Ratio (x) = 0.41367 -0.12849
# Poissons Ratio (y) = 0.66978 0.73991
# Poissons Ratio (z) = -0.14156 0.50346
#
# Static dielectric constant tensor:
#      x y z
#    x 1.529110 0.000000 -0.022360 
#    y 0.000000 1.543390 0.000000 
#    z -0.022360 0.000000 1.563190 
# 
# From -- ./inp_files/42359.got.cif
#   From: 2010.05.17/outbox.cif.g08.bks.cpg/sg11_22_cif.got.tgz:42359.got - 2010.06.03 12:22:45.
