data_PCOD9157887
_publ_section_title
;
Structure prediction by ZEFSAII (Michael W. Deem and Ramdas Pophale) SiO2 
 PCOD9157887
Probable space group: P 21/M
;
_chemical_formula_sum "Si O2"
_cell_formula_units_Z 24
_cell_length_a 11.731746
_cell_length_b 8.809191
_cell_length_c 13.612111
_cell_angle_alpha 90.000000
_cell_angle_beta 90.045944
_cell_angle_gamma 90.000000
_cell_volume 1406.772987
_symmetry_space_group_name_H-M "P 21/M"
_symmetry_group_IT_number 11
_symmetry_cell_setting 'monoclinic'
loop_
_space_group_symop_operation_xyz
x,y,z
-x,1/2+y,-z
-x,-y,-z
x,1/2-y,z
loop_
_atom_site_type_symbol
_atom_site_label
_atom_site_fract_x
_atom_site_fract_y
_atom_site_fract_z
Si Si1 0.297649 0.071563 0.746189
Si Si2 0.458890 0.578896 0.597262
Si Si3 0.327954 0.420682 0.257359
Si Si4 0.141528 0.931627 0.399218
Si Si5 0.109349 0.568467 0.622200
Si Si6 0.499922 0.567554 0.108538
O O1 0.275666 0.250000 0.756789
O O2 0.382174 0.021417 0.834710
O O3 0.373736 0.033388 0.651486
O O4 0.182249 0.985741 0.716173
O O5 0.500000 0.500000 0.500000
O O6 0.410856 0.750000 0.583186
O O7 0.568362 0.592088 0.666218
O O8 0.293795 0.250000 0.226850
O O9 0.227839 0.499741 0.319242
O O10 0.388554 0.509079 0.167781
O O11 0.145426 0.750000 0.392611
O O12 0.164190 0.972435 0.514698
O O13 0.014595 0.991918 0.377820
O O14 0.098010 0.750000 0.623793
O O15 0.498127 0.750000 0.107303
O O16 0.500000 0.500000 0.000000
#
# Coordination Sequence:
#
# PCOD9157887 Si02
#       6
#     4   4   4   4   4   4
#     4  10  20  33  50  73 101 132 167 208 253 302
#     4  10  19  29  44  68  99 133 166 203 247 297
#     4  10  20  33  50  73 101 133 170 210 253 303
#     4  10  20  33  50  74 106 142 178 213 249 294
#     4  10  20  33  51  75 105 142 179 212 248 295
#     4  10  21  37  57  79 102 130 166 211 263 313
#
# _framework density 17.060320999999998
#
# number of rings (size 3 to 8) (size 9 to 14) (size 15 to 20)
#    0.000    2.000    0.000    4.000    0.000    8.667 
#    0.000    0.000    0.000    1.000    0.000    0.000 
#    0.000    0.000    0.000    0.000    0.000    0.000 
#
# Total GULP energy -133745.427169 kJ/mol
# GULP energy per Si atom -5572.726132 kJ/mol
# Density = 1.702149 g / cm^3
# Si number density = 17.060321 Si / 1000 Ang^3
#
#
#
# Elastic Constant Matrix: (Units=GPa)
#
#
# Indices 1 2 3 4 5 6 
#
# 1 87.9674 34.6144 47.4033 0.0000 -0.6167 0.0000
# 2 34.6144 72.2359 43.0250 0.0000 -3.3790 0.0000
# 3 47.4033 43.0250 103.2207 0.0000 -2.8922 0.0000
# 4 0.0000 0.0000 0.0000 25.2142 0.0000 -1.5315
# 5 -0.6167 -3.3790 -2.8922 0.0000 25.0146 0.0000
# 6 0.0000 0.0000 0.0000 -1.5315 0.0000 31.8140
#
#
#
# Elastic Compliance Matrix: (Units=1/GPa)
#
#
# Indices 1 2 3 4 5 6 
#
# 1 0.016112 -0.004442 -0.005572 0.000000 -0.000847 0.000000
# 2 -0.004442 0.019704 -0.006122 0.000000 0.001844 0.000000
# 3 -0.005572 -0.006122 0.014819 0.000000 0.000749 0.000000
# 4 0.000000 0.000000 0.000000 0.039776 0.000000 0.001915
# 5 -0.000847 0.001844 0.000749 0.000000 0.040292 0.000000
# 6 0.000000 0.000000 0.000000 0.001915 0.000000 0.031525
#
#
# Mechanical properties :
#
#
# Convention : Reuss Voigt Hill
#
# Bulk Modulus (GPa) = 54.44959 57.05660 55.75309
# Shear Modulus (GPa) = 24.92259 25.63398 25.27828
#
# Velocity S-wave (km/s) = 3.82625 3.88048 3.85346
# Velocity P-wave (km/s) = 7.17673 7.32080 7.24913
#
# Compressibility (1/GPa) = 0.01836561
#
# Stress axis : x y z
#
# Youngs Moduli (GPa) = 62.06512 50.74984 67.47894
#
# Poissons Ratio (x) = 0.22542 0.37597
# Poissons Ratio (y) = 0.27568 0.41309
# Poissons Ratio (z) = 0.34581 0.31068
#
# Static dielectric constant tensor:
#      x y z
#    x 1.585860 0.000000 0.035960 
#    y 0.000000 1.578770 0.000000 
#    z 0.035960 0.000000 1.542580 
# 
# From -- ./inp_files/33782.got.cif
#   From: 2010.05.17/outbox.cif.g08.bks.cpg/sg11_17_cif.got.tgz:33782.got - 2010.06.03 12:22:45.
