data_PCOD9157983
_publ_section_title
;
Structure prediction by ZEFSAII (Michael W. Deem and Ramdas Pophale) SiO2 
 PCOD9157983
Probable space group: P 21/M
;
_chemical_formula_sum "Si O2"
_cell_formula_units_Z 32
_cell_length_a 20.493309
_cell_length_b 7.423087
_cell_length_c 12.160182
_cell_angle_alpha 90.000000
_cell_angle_beta 48.435441
_cell_angle_gamma 90.000000
_cell_volume 1384.074367
_symmetry_space_group_name_H-M "P 21/M"
_symmetry_group_IT_number 11
_symmetry_cell_setting 'monoclinic'
loop_
_space_group_symop_operation_xyz
x,y,z
-x,1/2+y,-z
-x,-y,-z
x,1/2-y,z
loop_
_atom_site_type_symbol
_atom_site_label
_atom_site_fract_x
_atom_site_fract_y
_atom_site_fract_z
Si Si1 0.829751 0.029974 0.598192
Si Si2 0.845517 0.032476 0.825291
Si Si3 0.470241 0.534011 0.859602
Si Si4 0.759173 0.047893 0.262502
Si Si5 0.631365 0.036052 0.810138
Si Si6 0.880006 0.028798 0.306875
Si Si7 0.067419 0.042701 0.052803
Si Si8 0.330446 0.969885 0.849698
O O1 0.831486 0.250000 0.596854
O O2 0.860134 0.971078 0.684515
O O3 0.729542 0.970448 0.695137
O O4 0.879620 0.971683 0.433535
O O5 0.848070 0.250000 0.823756
O O6 0.913649 0.963383 0.837776
O O7 0.749313 0.981393 0.979080
O O8 0.462766 0.750000 0.867397
O O9 0.570731 0.493382 0.771958
O O10 0.420110 0.471111 0.806655
O O11 0.418384 0.464680 0.025749
O O12 0.727675 0.250000 0.321953
O O13 0.793719 0.967078 0.337921
O O14 0.693649 0.964909 0.246163
O O15 0.851211 0.057030 0.092729
O O16 0.637702 0.250000 0.818612
O O17 0.879576 0.250000 0.303955
O O18 0.969661 0.971871 0.148462
O O19 0.073035 0.250000 0.012469
O O20 0.329823 0.750000 0.844061
#
# Coordination Sequence:
#
# PCOD9157983 Si02
#       8
#     4   4   4   4   4   4   4   4
#     4   9  16  29  48  66  91 123 154 187 219 261
#     4   9  16  29  48  67  88 120 156 183 218 269
#     4   9  15  25  42  65  90 112 141 181 223 263
#     4   9  17  31  51  69  86 115 158 194 221 263
#     4   9  16  26  43  66  89 115 145 179 218 264
#     4   9  18  30  46  69  91 117 154 193 227 261
#     4  10  19  30  45  68  96 117 143 192 241 268
#     4   8  13  24  44  66  85 110 147 186 216 254
#
# _framework density 23.120144
#
# number of rings (size 3 to 8) (size 9 to 14) (size 15 to 20)
#    0.000    3.000    1.250    1.500    0.000    0.500 
#    0.000    3.750    0.000    4.500    0.000    0.000 
#    0.000    0.000    0.000    0.000    0.000    0.000 
#
# Total GULP energy -178536.944552 kJ/mol
# GULP energy per Si atom -5579.279517 kJ/mol
# Density = 2.306752 g / cm^3
# Si number density = 23.120144 Si / 1000 Ang^3
#
#
#
# Elastic Constant Matrix: (Units=GPa)
#
#
# Indices 1 2 3 4 5 6 
#
# 1 103.7605 0.2156 -2.3593 0.0000 26.2410 0.0000
# 2 0.2156 80.2449 2.4540 0.0000 1.9463 0.0000
# 3 -2.3593 2.4540 28.6759 0.0000 19.6427 0.0000
# 4 0.0000 0.0000 0.0000 4.1043 0.0000 2.3226
# 5 26.2410 1.9463 19.6427 0.0000 35.8236 0.0000
# 6 0.0000 0.0000 0.0000 2.3226 0.0000 14.1794
#
#
#
# Elastic Compliance Matrix: (Units=1/GPa)
#
#
# Indices 1 2 3 4 5 6 
#
# 1 0.014519 -0.000016 0.013582 0.000000 -0.018082 0.000000
# 2 -0.000016 0.012495 -0.000983 0.000000 -0.000129 0.000000
# 3 0.013582 -0.000983 0.068629 0.000000 -0.047526 0.000000
# 4 0.000000 0.000000 0.000000 0.268541 0.000000 -0.043987
# 5 -0.018082 -0.000129 -0.047526 0.000000 0.067226 0.000000
# 6 0.000000 0.000000 0.000000 -0.043987 0.000000 0.077730
#
#
# Mechanical properties :
#
#
# Convention : Reuss Voigt Hill
#
# Bulk Modulus (GPa) = 8.27743 23.70020 15.98881
# Shear Modulus (GPa) = 9.53756 24.97951 17.25853
#
# Velocity S-wave (km/s) = 2.03327 3.29054 2.73513
# Velocity P-wave (km/s) = 3.01665 4.97092 4.11158
#
# Compressibility (1/GPa) = 0.12081040
#
# Stress axis : x y z
#
# Youngs Moduli (GPa) = 68.87373 80.03162 14.57111
#
# Poissons Ratio (x) = 0.00126 -0.19790
# Poissons Ratio (y) = 0.00109 0.01432
# Poissons Ratio (z) = -0.93543 0.07863
#
# Static dielectric constant tensor:
#      x y z
#    x 1.895560 0.000000 0.045970 
#    y 0.000000 1.874160 0.000000 
#    z 0.045970 0.000000 1.857200 
# 
# From -- ./inp_files/42414.got.cif
#   From: 2010.05.17/outbox.cif.g08.bks.cpg/sg11_22_cif.got.tgz:42414.got - 2010.06.03 12:22:45.
