data_PCOD9157559
_publ_section_title
;
Structure prediction by ZEFSAII (Michael W. Deem and Ramdas Pophale) SiO2 
 PCOD9157559
Probable space group: P 21/M
;
_chemical_formula_sum "Si O2"
_cell_formula_units_Z 32
_cell_length_a 8.926766
_cell_length_b 13.491933
_cell_length_c 20.386534
_cell_angle_alpha 90.000000
_cell_angle_beta 141.572329
_cell_angle_gamma 90.000000
_cell_volume 1526.058415
_symmetry_space_group_name_H-M "P 21/M"
_symmetry_group_IT_number 11
_symmetry_cell_setting 'monoclinic'
loop_
_space_group_symop_operation_xyz
x,y,z
-x,1/2+y,-z
-x,-y,-z
x,1/2-y,z
loop_
_atom_site_type_symbol
_atom_site_label
_atom_site_fract_x
_atom_site_fract_y
_atom_site_fract_z
Si Si1 0.926641 0.636116 0.391504
Si Si2 0.041479 0.556466 0.081995
Si Si3 0.504853 0.430073 0.832430
Si Si4 0.228780 0.471610 0.424237
Si Si5 0.434464 0.367526 0.945230
Si Si6 0.473282 0.136386 0.102064
Si Si7 0.401110 0.135777 0.598602
Si Si8 0.079553 0.973215 0.235729
O O1 0.007075 0.750000 0.428498
O O2 0.733468 0.628955 0.266676
O O3 0.775712 0.600305 0.403403
O O4 0.126843 0.560049 0.435137
O O5 0.303328 0.600447 0.156784
O O6 0.057471 0.489922 0.152814
O O7 0.000000 0.500000 0.000000
O O8 0.817900 0.631261 0.007681
O O9 0.581206 0.402025 0.932060
O O10 0.464507 0.549787 0.824389
O O11 0.500000 0.500000 0.500000
O O12 0.251383 0.378303 0.479801
O O13 0.092744 0.463854 0.307577
O O14 0.426903 0.250000 0.944487
O O15 0.160839 0.406300 0.842337
O O16 0.553103 0.396797 0.055898
O O17 0.544531 0.250000 0.141127
O O18 0.449109 0.250000 0.628593
O O19 0.661779 0.083760 0.679102
#
# Coordination Sequence:
#
# PCOD9157559 Si02
#       8
#     4   4   4   4   4   4   4   4
#     4  11  22  37  61  90 116 143 187 247 298 342
#     4   9  19  34  55  83 114 152 198 236 284 338
#     4  11  19  33  55  85 116 148 191 245 288 342
#     4  10  22  37  58  85 118 152 183 235 294 355
#     4  10  19  31  52  82 113 146 191 240 289 337
#     4   9  20  35  52  77 115 159 195 233 283 346
#     4  10  21  37  59  87 115 148 192 240 290 349
#     4  10  18  34  55  85 115 151 187 237 293 335
#
# _framework density 20.969052999999999
#
# number of rings (size 3 to 8) (size 9 to 14) (size 15 to 20)
#    0.000    2.000    2.500    1.500    0.000    3.500 
#    0.000    0.625    0.000    3.750    0.000    0.000 
#    0.000    0.000    0.000    0.000    0.000    0.000 
#
# Total GULP energy -178153.308870 kJ/mol
# GULP energy per Si atom -5567.290902 kJ/mol
# Density = 2.092133 g / cm^3
# Si number density = 20.969053 Si / 1000 Ang^3
#
#
#
# Elastic Constant Matrix: (Units=GPa)
#
#
# Indices 1 2 3 4 5 6 
#
# 1 121.1580 11.8251 21.2864 0.0000 -10.3987 0.0000
# 2 11.8251 43.9251 15.1129 0.0000 -1.7538 0.0000
# 3 21.2864 15.1129 64.3401 0.0000 -17.1309 0.0000
# 4 0.0000 0.0000 0.0000 25.9125 0.0000 -3.6135
# 5 -10.3987 -1.7538 -17.1309 0.0000 44.1190 0.0000
# 6 0.0000 0.0000 0.0000 -3.6135 0.0000 20.0108
#
#
#
# Elastic Compliance Matrix: (Units=1/GPa)
#
#
# Indices 1 2 3 4 5 6 
#
# 1 0.008905 -0.001570 -0.002270 0.000000 0.001155 0.000000
# 2 -0.001570 0.025125 -0.005816 0.000000 -0.001630 0.000000
# 3 -0.002270 -0.005816 0.019468 0.000000 0.006793 0.000000
# 4 0.000000 0.000000 0.000000 0.039588 0.000000 0.007149
# 5 0.001155 -0.001630 0.006793 0.000000 0.025511 0.000000
# 6 0.000000 0.000000 0.000000 0.007149 0.000000 0.051264
#
#
# Mechanical properties :
#
#
# Convention : Reuss Voigt Hill
#
# Bulk Modulus (GPa) = 29.25182 36.20798 32.72990
# Shear Modulus (GPa) = 24.92919 30.08839 27.50879
#
# Velocity S-wave (km/s) = 3.45172 3.79211 3.62591
# Velocity P-wave (km/s) = 5.46499 6.03973 5.75953
#
# Compressibility (1/GPa) = 0.03418590
#
# Stress axis : x y z
#
# Youngs Moduli (GPa) = 112.29836 39.80143 51.36602
#
# Poissons Ratio (x) = 0.06250 0.11659
# Poissons Ratio (y) = 0.17634 0.29874
# Poissons Ratio (z) = 0.25488 0.23148
#
# Static dielectric constant tensor:
#      x y z
#    x 1.882640 0.000000 0.021570 
#    y 0.000000 1.789930 0.000000 
#    z 0.021570 0.000000 1.843870 
# 
# From -- ./inp_files/26815.got.cif
#   From: 2010.05.17/outbox.cif.g08.bks.cpg/sg11_14_cif.got.tgz:26815.got - 2010.06.03 12:22:45.
