data_PCOD9157089
_publ_section_title
;
Structure prediction by ZEFSAII (Michael W. Deem and Ramdas Pophale) SiO2 
 PCOD9157089
Probable space group: P 21/M
;
_chemical_formula_sum "Si O2"
_cell_formula_units_Z 32
_cell_length_a 15.325935
_cell_length_b 14.330037
_cell_length_c 11.837853
_cell_angle_alpha 90.000000
_cell_angle_beta 138.049663
_cell_angle_gamma 90.000000
_cell_volume 1737.959639
_symmetry_space_group_name_H-M "P 21/M"
_symmetry_group_IT_number 11
_symmetry_cell_setting 'monoclinic'
loop_
_space_group_symop_operation_xyz
x,y,z
-x,1/2+y,-z
-x,-y,-z
x,1/2-y,z
loop_
_atom_site_type_symbol
_atom_site_label
_atom_site_fract_x
_atom_site_fract_y
_atom_site_fract_z
Si Si1 0.673513 0.350921 0.574287
Si Si2 0.884797 0.142707 0.077186
Si Si3 0.392074 0.644934 0.229129
Si Si4 0.134368 0.362838 0.173220
Si Si5 0.344346 0.456796 0.533177
Si Si6 0.870447 0.486481 0.499357
Si Si7 0.947205 0.355385 0.400676
Si Si8 0.026104 0.639902 0.201758
O O1 0.650490 0.250000 0.498379
O O2 0.614361 0.349760 0.641663
O O3 0.613907 0.438510 0.455541
O O4 0.831479 0.365323 0.723731
O O5 0.871771 0.250000 0.019599
O O6 0.907533 0.147677 0.231884
O O7 0.011717 0.106814 0.134224
O O8 0.745210 0.094881 0.928556
O O9 0.386638 0.750000 0.176408
O O10 0.526288 0.600765 0.320440
O O11 0.151521 0.250000 0.200845
O O12 0.260528 0.413316 0.347764
O O13 0.085692 0.381738 0.998549
O O14 0.247056 0.468808 0.544145
O O15 0.843324 0.404349 0.383313
O O16 0.960926 0.431396 0.680170
O O17 0.933623 0.571831 0.490810
O O18 0.977277 0.250000 0.465925
O O19 0.011658 0.750000 0.221129
#
# Coordination Sequence:
#
# PCOD9157089 Si02
#       8
#     4   4   4   4   4   4   4   4
#     4   9  18  32  48  68 103 146 180 207 250 316
#     4   9  17  32  54  76 103 141 177 208 256 319
#     4  10  19  33  51  75 106 138 172 211 262 319
#     4  10  18  31  52  82 114 142 170 211 266 316
#     4  11  21  31  50  81 109 134 175 225 265 304
#     4  10  21  33  51  81 104 133 176 222 271 309
#     4  10  20  36  55  74 103 139 179 222 263 315
#     4   9  17  31  51  75 109 144 174 209 252 312
#
# _framework density 18.412395
#
# number of rings (size 3 to 8) (size 9 to 14) (size 15 to 20)
#    0.000    2.250    2.500    1.125    0.000    4.000 
#    0.000    0.625    0.000    0.000    0.000    3.500 
#    0.000    0.000    0.000    0.000    0.000    0.000 
#
# Total GULP energy -178156.397279 kJ/mol
# GULP energy per Si atom -5567.387415 kJ/mol
# Density = 1.837049 g / cm^3
# Si number density = 18.412395 Si / 1000 Ang^3
#
#
#
# Elastic Constant Matrix: (Units=GPa)
#
#
# Indices 1 2 3 4 5 6 
#
# 1 30.9271 10.2226 3.1679 0.0000 3.8263 0.0000
# 2 10.2226 83.4481 7.1016 0.0000 14.2191 0.0000
# 3 3.1679 7.1016 26.7271 0.0000 10.1412 0.0000
# 4 0.0000 0.0000 0.0000 14.4004 0.0000 -6.1388
# 5 3.8263 14.2191 10.1412 0.0000 9.4960 0.0000
# 6 0.0000 0.0000 0.0000 -6.1388 0.0000 27.4111
#
#
#
# Elastic Compliance Matrix: (Units=1/GPa)
#
#
# Indices 1 2 3 4 5 6 
#
# 1 0.034420 -0.002387 0.000775 0.000000 -0.011121 0.000000
# 2 -0.002387 0.017393 0.008707 0.000000 -0.034381 0.000000
# 3 0.000775 0.008707 0.067378 0.000000 -0.085306 0.000000
# 4 0.000000 0.000000 0.000000 0.076772 0.000000 0.017193
# 5 -0.011121 -0.034381 -0.085306 0.000000 0.252373 0.000000
# 6 0.000000 0.000000 0.000000 0.017193 0.000000 0.040332
#
#
# Mechanical properties :
#
#
# Convention : Reuss Voigt Hill
#
# Bulk Modulus (GPa) = 7.49744 20.23183 13.86464
# Shear Modulus (GPa) = 9.63503 18.30216 13.96860
#
# Velocity S-wave (km/s) = 2.29004 3.15622 2.75735
# Velocity P-wave (km/s) = 3.32763 4.92892 4.20520
#
# Compressibility (1/GPa) = 0.13337880
#
# Stress axis : x y z
#
# Youngs Moduli (GPa) = 29.05303 57.49341 14.84166
#
# Poissons Ratio (x) = 0.13726 -0.01150
# Poissons Ratio (y) = 0.06936 -0.12922
# Poissons Ratio (z) = -0.02250 -0.50058
#
# Static dielectric constant tensor:
#      x y z
#    x 1.654540 0.000000 -0.006250 
#    y 0.000000 1.707090 0.000000 
#    z -0.006250 0.000000 1.641800 
# 
# From -- ./inp_files/39691.got.cif
#   From: 2010.05.17/outbox.cif.g08.bks.cpg/sg11_20_cif.got.tgz:39691.got - 2010.06.03 12:22:45.
