data_PCOD9157723
_publ_section_title
;
Structure prediction by ZEFSAII (Michael W. Deem and Ramdas Pophale) SiO2 
 PCOD9157723
Probable space group: P 21/M
;
_chemical_formula_sum "Si O2"
_cell_formula_units_Z 28
_cell_length_a 15.427856
_cell_length_b 16.309666
_cell_length_c 5.555216
_cell_angle_alpha 90.000000
_cell_angle_beta 122.805179
_cell_angle_gamma 90.000000
_cell_volume 1174.893291
_symmetry_space_group_name_H-M "P 21/M"
_symmetry_group_IT_number 11
_symmetry_cell_setting 'monoclinic'
loop_
_space_group_symop_operation_xyz
x,y,z
-x,1/2+y,-z
-x,-y,-z
x,1/2-y,z
loop_
_atom_site_type_symbol
_atom_site_label
_atom_site_fract_x
_atom_site_fract_y
_atom_site_fract_z
Si Si1 0.773410 0.887525 0.409085
Si Si2 0.446517 0.161018 0.920894
Si Si3 0.496373 0.114610 0.496020
Si Si4 0.787670 0.151823 0.430283
Si Si5 0.247559 0.118939 0.122525
Si Si6 0.286705 0.567630 0.181611
Si Si7 0.056559 0.523025 0.335095
O O1 0.648573 0.903469 0.221403
O O2 0.794451 0.845827 0.694172
O O3 0.839262 0.969289 0.507985
O O4 0.794282 0.845783 0.187051
O O5 0.394749 0.250000 0.841564
O O6 0.514237 0.153156 0.785689
O O7 0.513679 0.153937 0.260103
O O8 0.371635 0.125126 0.309299
O O9 0.589237 0.048027 0.633476
O O10 0.780144 0.250000 0.419381
O O11 0.741209 0.115850 0.613852
O O12 0.905034 0.116649 0.607297
O O13 0.741720 0.116146 0.106847
O O14 0.231177 0.020560 0.098001
O O15 0.000000 0.500000 0.500000
O O16 0.000000 0.500000 0.000000
#
# Coordination Sequence:
#
# PCOD9157723 Si02
#       7
#     4   4   4   4   4   4   4
#     4  10  20  38  61  88 117 154 201 250 307 365
#     4  10  21  37  55  82 125 167 209 260 299 344
#     4  10  22  32  57  89 124 172 219 255 287 344
#     4  12  27  44  64  96 132 161 197 258 322 374
#     4  10  18  36  58  87 126 158 206 257 288 345
#     4  12  21  39  62  89 130 173 206 244 301 362
#     4  12  24  44  72  94 116 156 204 256 315 389
#
# _framework density 23.831949999999999
#
# number of rings (size 3 to 8) (size 9 to 14) (size 15 to 20)
#    0.000    1.143    2.857    3.857    0.000    3.429 
#    0.000    7.143    0.000    0.000    0.000    0.000 
#    0.000    0.000    0.000    0.000    0.000    0.000 
#
# Total GULP energy -155881.247780 kJ/mol
# GULP energy per Si atom -5567.187421 kJ/mol
# Density = 2.377771 g / cm^3
# Si number density = 23.831950 Si / 1000 Ang^3
#
#
#
# Elastic Constant Matrix: (Units=GPa)
#
#
# Indices 1 2 3 4 5 6 
#
# 1 81.7972 34.5884 102.4790 0.0000 -23.2417 0.0000
# 2 34.5884 56.9239 28.8954 0.0000 2.5719 0.0000
# 3 102.4790 28.8954 161.2129 0.0000 -77.3280 0.0000
# 4 0.0000 0.0000 0.0000 42.4999 0.0000 -5.3124
# 5 -23.2417 2.5719 -77.3280 0.0000 61.2922 0.0000
# 6 0.0000 0.0000 0.0000 -5.3124 0.0000 40.2065
#
#
#
# Elastic Compliance Matrix: (Units=1/GPa)
#
#
# Indices 1 2 3 4 5 6 
#
# 1 -0.089760 -0.003040 0.104695 0.000000 0.098178 0.000000
# 2 -0.003040 0.024535 -0.008894 0.000000 -0.013403 0.000000
# 3 0.104695 -0.008894 -0.100125 0.000000 -0.086247 0.000000
# 4 0.000000 0.000000 0.000000 0.023925 0.000000 0.003161
# 5 0.098178 -0.013403 -0.086247 0.000000 -0.054706 0.000000
# 6 0.000000 0.000000 0.000000 0.003161 0.000000 0.025289
#
#
# Mechanical properties :
#
#
# Convention : Reuss Voigt Hill
#
# Bulk Modulus (GPa) = 49.57252 70.20659 59.88956
# Shear Modulus (GPa) = -14.30047 37.73113 11.71533
#
# Velocity S-wave (km/s) = -2.45226 3.98328 2.21957
# Velocity P-wave (km/s) = 3.58161 7.11887 5.63499
#
# Compressibility (1/GPa) = 0.02017247
#
# Stress axis : x y z
#
# Youngs Moduli (GPa) = -11.14086 40.75803 -9.98754
#
# Poissons Ratio (x) = 0.12392 1.04565
# Poissons Ratio (y) = -0.03387 -0.08883
# Poissons Ratio (z) = 1.16640 0.36250
#
# Static dielectric constant tensor:
#      x y z
#    x 1.964620 0.000000 -0.030720 
#    y 0.000000 1.999610 0.000000 
#    z -0.030720 0.000000 1.993620 
# 
# From -- ./inp_files/6906.got.cif
#   From: 2010.05.17/outbox.cif.g08.bks.cpg/sg11_4_cif.got.tgz:6906.got - 2010.06.03 12:22:45.
