data_PCOD9157029
_publ_section_title
;
Structure prediction by ZEFSAII (Michael W. Deem and Ramdas Pophale) SiO2 
 PCOD9157029
Probable space group: P 21/M
;
_chemical_formula_sum "Si O2"
_cell_formula_units_Z 32
_cell_length_a 20.120129
_cell_length_b 8.800799
_cell_length_c 28.436696
_cell_angle_alpha 90.000000
_cell_angle_beta 24.326950
_cell_angle_gamma 90.000000
_cell_volume 2074.288371
_symmetry_space_group_name_H-M "P 21/M"
_symmetry_group_IT_number 11
_symmetry_cell_setting 'monoclinic'
loop_
_space_group_symop_operation_xyz
x,y,z
-x,1/2+y,-z
-x,-y,-z
x,1/2-y,z
loop_
_atom_site_type_symbol
_atom_site_label
_atom_site_fract_x
_atom_site_fract_y
_atom_site_fract_z
Si Si1 0.489322 0.070066 0.708400
Si Si2 0.125275 0.931941 0.220275
Si Si3 0.830688 0.567868 0.474596
Si Si4 0.038018 0.431445 0.424904
Si Si5 0.700063 0.568756 0.081525
Si Si6 0.318981 0.432957 0.014183
Si Si7 0.845076 0.069243 0.074730
Si Si8 0.327311 0.566224 0.181459
O O1 0.496057 0.250000 0.695629
O O2 0.462690 0.046460 0.782213
O O3 0.648828 0.989679 0.587381
O O4 0.322118 0.000044 0.796830
O O5 0.131245 0.750000 0.211687
O O6 0.255269 0.976010 0.176941
O O7 0.950582 0.972813 0.354286
O O8 0.176218 0.006298 0.138755
O O9 0.835504 0.750000 0.476710
O O10 0.908791 0.491917 0.470286
O O11 0.035655 0.250000 0.427799
O O12 0.209551 0.491944 0.295518
O O13 0.000000 0.500000 0.500000
O O14 0.732309 0.750000 0.061634
O O15 0.688626 0.517578 0.035336
O O16 0.831909 0.483834 0.028619
O O17 0.315908 0.250000 0.016227
O O18 0.489388 0.480462 0.927346
O O19 0.844539 0.250000 0.078377
O O20 0.000000 0.000000 0.000000
O O21 0.315851 0.750000 0.192790
#
# Coordination Sequence:
#
# PCOD9157029 Si02
#       8
#     4   4   4   4   4   4   4   4
#     4   9  18  32  50  74 103 130 159 194 239 290
#     4   9  19  33  47  67  96 128 168 215 253 290
#     4  10  20  35  50  68  95 126 163 206 247 288
#     4  11  22  33  46  65  90 123 161 203 251 303
#     4   8  18  32  46  73 104 129 161 199 243 290
#     4  10  19  32  51  70  95 128 165 209 252 295
#     4  10  18  31  51  76 106 136 162 193 235 290
#     4   9  19  34  48  66  93 126 165 212 257 295
#
# _framework density 15.426977000000001
#
# number of rings (size 3 to 8) (size 9 to 14) (size 15 to 20)
#    0.750    1.750    0.000    3.750    1.750    3.500 
#    0.000    0.000    0.000    0.000    0.000    0.875 
#    0.000    0.000    0.000    0.000    0.000    0.000 
#
# Total GULP energy -178202.617475 kJ/mol
# GULP energy per Si atom -5568.831796 kJ/mol
# Density = 1.539186 g / cm^3
# Si number density = 15.426977 Si / 1000 Ang^3
#
#
#
# Elastic Constant Matrix: (Units=GPa)
#
#
# Indices 1 2 3 4 5 6 
#
# 1 55.1537 22.6112 52.9769 0.0000 -0.8262 0.0000
# 2 22.6112 52.0018 34.9870 0.0000 -0.9200 0.0000
# 3 52.9769 34.9870 108.0426 0.0000 -8.5827 0.0000
# 4 0.0000 0.0000 0.0000 28.8805 0.0000 0.9229
# 5 -0.8262 -0.9200 -8.5827 0.0000 17.5459 0.0000
# 6 0.0000 0.0000 0.0000 0.9229 0.0000 22.3447
#
#
#
# Elastic Compliance Matrix: (Units=1/GPa)
#
#
# Indices 1 2 3 4 5 6 
#
# 1 0.035893 -0.004508 -0.016672 0.000000 -0.006702 0.000000
# 2 -0.004508 0.025278 -0.006125 0.000000 -0.001883 0.000000
# 3 -0.016672 -0.006125 0.020107 0.000000 0.008729 0.000000
# 4 0.000000 0.000000 0.000000 0.034671 0.000000 -0.001432
# 5 -0.006702 -0.001883 0.008729 0.000000 0.060849 0.000000
# 6 0.000000 0.000000 0.000000 -0.001432 0.000000 0.044812
#
#
# Mechanical properties :
#
#
# Convention : Reuss Voigt Hill
#
# Bulk Modulus (GPa) = 37.49801 48.48315 42.99058
# Shear Modulus (GPa) = 17.53709 20.72909 19.13309
#
# Velocity S-wave (km/s) = 3.37528 3.66962 3.52552
# Velocity P-wave (km/s) = 6.28884 7.03211 6.67083
#
# Compressibility (1/GPa) = 0.02666808
#
# Stress axis : x y z
#
# Youngs Moduli (GPa) = 27.86056 39.56053 49.73353
#
# Poissons Ratio (x) = 0.17836 0.82916
# Poissons Ratio (y) = 0.12561 0.30459
# Poissons Ratio (z) = 0.46449 0.24229
#
# Static dielectric constant tensor:
#      x y z
#    x 1.501320 0.000000 0.002830 
#    y 0.000000 1.515150 0.000000 
#    z 0.002830 0.000000 1.515500 
# 
# From -- ./inp_files/73618.got.cif
#   From: 2010.05.17/outbox.cif.g08.bks.cpg/sg11_37_cif.got.tgz:73618.got - 2010.06.03 12:22:45.
