data_PCOD9157595
_publ_section_title
;
Structure prediction by ZEFSAII (Michael W. Deem and Ramdas Pophale) SiO2 
 PCOD9157595
Probable space group: P 21/M
;
_chemical_formula_sum "Si O2"
_cell_formula_units_Z 32
_cell_length_a 9.445596
_cell_length_b 18.170842
_cell_length_c 10.884264
_cell_angle_alpha 90.000000
_cell_angle_beta 127.162684
_cell_angle_gamma 90.000000
_cell_volume 1488.744357
_symmetry_space_group_name_H-M "P 21/M"
_symmetry_group_IT_number 11
_symmetry_cell_setting 'monoclinic'
loop_
_space_group_symop_operation_xyz
x,y,z
-x,1/2+y,-z
-x,-y,-z
x,1/2-y,z
loop_
_atom_site_type_symbol
_atom_site_label
_atom_site_fract_x
_atom_site_fract_y
_atom_site_fract_z
Si Si1 0.346920 0.333452 0.566120
Si Si2 0.144152 0.532561 0.738597
Si Si3 0.807504 0.668175 0.243130
Si Si4 0.338145 0.433899 0.020236
Si Si5 0.013559 0.912808 0.026746
Si Si6 0.850831 0.076856 0.651815
Si Si7 0.008408 0.833871 0.766036
Si Si8 0.381040 0.000293 0.644426
O O1 0.434853 0.250000 0.599185
O O2 0.244681 0.328816 0.642555
O O3 0.198153 0.337815 0.381647
O O4 0.427088 0.417288 0.621384
O O5 0.207354 0.498240 0.643882
O O6 0.959270 0.499884 0.692070
O O7 0.120001 0.619078 0.725972
O O8 0.280049 0.507066 0.915365
O O9 0.816084 0.750000 0.196764
O O10 0.002368 0.631380 0.330254
O O11 0.654121 0.623076 0.089472
O O12 0.176445 0.396968 0.010898
O O13 0.479569 0.460790 0.192316
O O14 0.039252 0.869326 0.915644
O O15 0.157255 0.901482 0.209922
O O16 0.000000 0.000000 0.000000
O O17 0.669693 0.057535 0.489211
O O18 0.063698 0.750000 0.795108
#
# Coordination Sequence:
#
# PCOD9157595 Si02
#       8
#     4   4   4   4   4   4   4   4
#     4  10  19  31  54  85 116 149 186 233 290 345
#     4  10  18  34  57  84 117 147 186 235 280 352
#     4   9  18  35  53  80 113 146 191 236 285 342
#     4  10  22  33  59  85 111 156 190 233 288 348
#     4  10  18  38  56  74 109 146 199 241 266 341
#     4  10  19  31  59  83 104 153 192 235 279 336
#     4  11  21  35  60  87 108 146 196 248 293 330
#     4  12  19  35  58  90 120 149 188 240 292 348
#
# _framework density 21.494623000000001
#
# number of rings (size 3 to 8) (size 9 to 14) (size 15 to 20)
#    0.000    2.000    6.250    1.500    0.000    2.000 
#    0.000    4.375    0.000    0.000    0.000    0.000 
#    0.000    0.000    0.000    0.000    0.000    0.000 
#
# Total GULP energy -178154.008623 kJ/mol
# GULP energy per Si atom -5567.312769 kJ/mol
# Density = 2.144570 g / cm^3
# Si number density = 21.494623 Si / 1000 Ang^3
#
#
#
# Elastic Constant Matrix: (Units=GPa)
#
#
# Indices 1 2 3 4 5 6 
#
# 1 24.3250 5.0968 7.9998 0.0000 -6.1406 0.0000
# 2 5.0968 138.0758 40.5690 0.0000 4.0350 0.0000
# 3 7.9998 40.5690 157.1373 0.0000 -1.5931 0.0000
# 4 0.0000 0.0000 0.0000 19.3466 0.0000 -6.2621
# 5 -6.1406 4.0350 -1.5931 0.0000 22.6868 0.0000
# 6 0.0000 0.0000 0.0000 -6.2621 0.0000 12.3777
#
#
#
# Elastic Compliance Matrix: (Units=1/GPa)
#
#
# Indices 1 2 3 4 5 6 
#
# 1 0.045131 -0.001503 -0.001784 0.000000 0.012357 0.000000
# 2 -0.001503 0.007941 -0.001993 0.000000 -0.001959 0.000000
# 3 -0.001784 -0.001993 0.006973 0.000000 0.000361 0.000000
# 4 0.000000 0.000000 0.000000 0.061811 0.000000 0.031271
# 5 0.012357 -0.001959 0.000361 0.000000 0.047797 0.000000
# 6 0.000000 0.000000 0.000000 0.031271 0.000000 0.096611
#
#
# Mechanical properties :
#
#
# Convention : Reuss Voigt Hill
#
# Bulk Modulus (GPa) = 20.20863 47.42989 33.81926
# Shear Modulus (GPa) = 17.04624 28.60706 22.82665
#
# Velocity S-wave (km/s) = 2.81916 3.65210 3.26232
# Velocity P-wave (km/s) = 4.47426 6.31646 5.47342
#
# Compressibility (1/GPa) = 0.04948381
#
# Stress axis : x y z
#
# Youngs Moduli (GPa) = 22.15766 125.93123 143.40968
#
# Poissons Ratio (x) = 0.18925 0.25589
# Poissons Ratio (y) = 0.03330 0.28588
# Poissons Ratio (z) = 0.03954 0.25104
#
# Static dielectric constant tensor:
#      x y z
#    x 1.862180 0.000000 -0.005830 
#    y 0.000000 1.833350 0.000000 
#    z -0.005830 0.000000 1.881110 
# 
# From -- ./inp_files/36072.got.cif
#   From: 2010.05.17/outbox.cif.g08.bks.cpg/sg11_19_cif.got.tgz:36072.got - 2010.06.03 12:22:45.
