data_PCOD9157768
_publ_section_title
;
Structure prediction by ZEFSAII (Michael W. Deem and Ramdas Pophale) SiO2 
 PCOD9157768
Probable space group: P 21/M
;
_chemical_formula_sum "Si O2"
_cell_formula_units_Z 32
_cell_length_a 9.429545
_cell_length_b 17.657513
_cell_length_c 14.812810
_cell_angle_alpha 90.000000
_cell_angle_beta 138.899836
_cell_angle_gamma 90.000000
_cell_volume 1621.334020
_symmetry_space_group_name_H-M "P 21/M"
_symmetry_group_IT_number 11
_symmetry_cell_setting 'monoclinic'
loop_
_space_group_symop_operation_xyz
x,y,z
-x,1/2+y,-z
-x,-y,-z
x,1/2-y,z
loop_
_atom_site_type_symbol
_atom_site_label
_atom_site_fract_x
_atom_site_fract_y
_atom_site_fract_z
Si Si1 0.356583 0.499447 0.671424
Si Si2 0.194987 0.444504 0.067576
Si Si3 0.811557 0.337534 0.191158
Si Si4 0.429725 0.575737 0.516059
Si Si5 0.172758 0.159501 0.232513
Si Si6 0.977357 0.337474 0.655581
Si Si7 0.011878 0.109857 0.466455
Si Si8 0.317048 0.158913 0.964373
O O1 0.584850 0.505200 0.829861
O O2 0.394456 0.550084 0.601775
O O3 0.255703 0.421181 0.587646
O O4 0.156782 0.539379 0.626905
O O5 0.199905 0.382887 0.150861
O O6 0.191885 0.393903 0.975687
O O7 0.000000 0.500000 0.000000
O O8 0.781867 0.250000 0.152392
O O9 0.961254 0.370491 0.184036
O O10 0.946050 0.341274 0.348886
O O11 0.567674 0.366068 0.085239
O O12 0.500000 0.500000 0.500000
O O13 0.620882 0.636492 0.608160
O O14 0.201641 0.611499 0.380821
O O15 0.164567 0.250000 0.217288
O O16 0.919208 0.250000 0.640698
O O17 0.978050 0.353462 0.548654
O O18 0.206428 0.350575 0.813575
O O19 0.305783 0.250000 0.981709
#
# Coordination Sequence:
#
# PCOD9157768 Si02
#       8
#     4   4   4   4   4   4   4   4
#     4   9  20  34  54  85 112 153 196 239 302 357
#     4  11  23  40  60  88 122 161 205 249 307 375
#     4  10  20  37  63  89 114 155 206 249 298 360
#     4  10  20  35  59  85 122 157 196 253 306 360
#     4  10  22  39  62  91 121 160 207 256 303 364
#     4  10  22  37  59  88 119 161 204 247 303 367
#     4  10  18  37  59  84 120 149 196 253 295 355
#     4  10  22  41  62  85 119 160 203 248 301 367
#
# _framework density 19.736834000000002
#
# number of rings (size 3 to 8) (size 9 to 14) (size 15 to 20)
#    0.000    2.000    1.250    1.875    3.500    1.000 
#    0.000    1.250    0.000    1.500    0.000    0.000 
#    0.000    0.000    0.000    0.000    0.000    0.000 
#
# Total GULP energy -178228.681233 kJ/mol
# GULP energy per Si atom -5569.646289 kJ/mol
# Density = 1.969191 g / cm^3
# Si number density = 19.736834 Si / 1000 Ang^3
#
#
#
# Elastic Constant Matrix: (Units=GPa)
#
#
# Indices 1 2 3 4 5 6 
#
# 1 59.9175 13.7473 13.7106 0.0000 5.5818 0.0000
# 2 13.7473 56.3410 24.0924 0.0000 14.2234 0.0000
# 3 13.7106 24.0924 68.4377 0.0000 3.3346 0.0000
# 4 0.0000 0.0000 0.0000 13.4371 0.0000 22.8156
# 5 5.5818 14.2234 3.3346 0.0000 28.0868 0.0000
# 6 0.0000 0.0000 0.0000 22.8156 0.0000 14.1464
#
#
#
# Elastic Compliance Matrix: (Units=1/GPa)
#
#
# Indices 1 2 3 4 5 6 
#
# 1 0.018098 -0.002871 -0.002525 0.000000 -0.001843 0.000000
# 2 -0.002871 0.024401 -0.007484 0.000000 -0.010898 0.000000
# 3 -0.002525 -0.007484 0.017645 0.000000 0.002197 0.000000
# 4 0.000000 0.000000 0.000000 -0.042808 0.000000 0.069041
# 5 -0.001843 -0.010898 0.002197 0.000000 0.041228 0.000000
# 6 0.000000 0.000000 0.000000 0.069041 0.000000 -0.040661
#
#
# Mechanical properties :
#
#
# Convention : Reuss Voigt Hill
#
# Bulk Modulus (GPa) = 29.08308 31.97744 30.53026
# Shear Modulus (GPa) = 90.70427 20.01046 55.35737
#
# Velocity S-wave (km/s) = 6.78650 3.18758 5.30176
# Velocity P-wave (km/s) = 8.72790 5.45753 7.27877
#
# Compressibility (1/GPa) = 0.03438426
#
# Stress axis : x y z
#
# Youngs Moduli (GPa) = 55.25533 40.98206 56.67252
#
# Poissons Ratio (x) = 0.11765 0.14311
# Poissons Ratio (y) = 0.15863 0.42413
# Poissons Ratio (z) = 0.13953 0.30670
#
# Static dielectric constant tensor:
#      x y z
#    x 1.724260 0.000000 0.022860 
#    y 0.000000 1.682690 0.000000 
#    z 0.022860 0.000000 1.724630 
# 
# From -- ./inp_files/48279.got.cif
#   From: 2010.05.17/outbox.cif.g08.bks.cpg/sg11_25_cif.got.tgz:48279.got - 2010.06.03 12:22:45.
