data_PCOD9157141
_publ_section_title
;
Structure prediction by ZEFSAII (Michael W. Deem and Ramdas Pophale) SiO2 
 PCOD9157141
Probable space group: P 21/M
;
_chemical_formula_sum "Si O2"
_cell_formula_units_Z 28
_cell_length_a 19.532461
_cell_length_b 8.606913
_cell_length_c 16.244174
_cell_angle_alpha 90.000000
_cell_angle_beta 146.274808
_cell_angle_gamma 90.000000
_cell_volume 1516.210237
_symmetry_space_group_name_H-M "P 21/M"
_symmetry_group_IT_number 11
_symmetry_cell_setting 'monoclinic'
loop_
_space_group_symop_operation_xyz
x,y,z
-x,1/2+y,-z
-x,-y,-z
x,1/2-y,z
loop_
_atom_site_type_symbol
_atom_site_label
_atom_site_fract_x
_atom_site_fract_y
_atom_site_fract_z
Si Si1 0.895551 0.062324 0.834284
Si Si2 0.615844 0.431671 0.567881
Si Si3 0.696412 0.072240 0.217879
Si Si4 0.473673 0.932326 0.088737
Si Si5 0.871030 0.436239 0.619299
Si Si6 0.063825 0.071121 0.483079
Si Si7 0.394598 0.432502 0.618110
O O1 0.896195 0.250000 0.838385
O O2 0.756829 0.007798 0.721181
O O3 0.914170 0.021084 0.755623
O O4 0.000000 0.000000 0.000000
O O5 0.500000 0.500000 0.500000
O O6 0.620261 0.250000 0.590057
O O7 0.589733 0.464396 0.446280
O O8 0.739961 0.250000 0.272371
O O9 0.569654 0.045661 0.140046
O O10 0.793460 0.953054 0.350326
O O11 0.659159 0.045040 0.085552
O O12 0.505496 0.750000 0.103288
O O13 0.496293 0.954690 0.207405
O O14 0.856422 0.250000 0.602312
O O15 0.951413 0.489102 0.621141
O O16 0.736790 0.516088 0.475593
O O17 0.029754 0.250000 0.440776
O O18 0.000000 0.000000 0.500000
O O19 0.388395 0.250000 0.590267
#
# Coordination Sequence:
#
# PCOD9157141 Si02
#       7
#     4   4   4   4   4   4   4
#     4   9  20  37  60  88 117 147 188 235 285 344
#     4  10  21  37  56  83 115 148 187 233 284 341
#     4  10  19  32  51  75 106 140 173 218 267 312
#     4   9  18  31  50  78 107 136 175 217 260 313
#     4  10  20  36  56  82 111 143 186 235 277 330
#     4  12  24  38  55  77 106 145 190 235 282 336
#     4  10  18  31  54  82 110 143 182 224 269 326
#
# _framework density 18.467095
#
# number of rings (size 3 to 8) (size 9 to 14) (size 15 to 20)
#    0.000    2.000    1.429    3.857    0.000    4.571 
#    0.000    1.429    0.000    1.714    0.000    0.000 
#    0.000    0.000    0.000    0.000    0.000    0.000 
#
# Total GULP energy -155999.512248 kJ/mol
# GULP energy per Si atom -5571.411152 kJ/mol
# Density = 1.842506 g / cm^3
# Si number density = 18.467095 Si / 1000 Ang^3
#
#
#
# Elastic Constant Matrix: (Units=GPa)
#
#
# Indices 1 2 3 4 5 6 
#
# 1 105.7312 14.9979 39.7279 0.0000 -5.6632 0.0000
# 2 14.9979 36.8353 18.4489 0.0000 1.9511 0.0000
# 3 39.7279 18.4489 106.2788 0.0000 -22.0732 0.0000
# 4 0.0000 0.0000 0.0000 27.8291 0.0000 -2.4698
# 5 -5.6632 1.9511 -22.0732 0.0000 13.4546 0.0000
# 6 0.0000 0.0000 0.0000 -2.4698 0.0000 31.5869
#
#
#
# Elastic Compliance Matrix: (Units=1/GPa)
#
#
# Indices 1 2 3 4 5 6 
#
# 1 0.011268 -0.002420 -0.004147 0.000000 -0.001710 0.000000
# 2 -0.002420 0.034006 -0.009456 0.000000 -0.021464 0.000000
# 3 -0.004147 -0.009456 0.018996 0.000000 0.030789 0.000000
# 4 0.000000 0.000000 0.000000 0.036185 0.000000 0.002829
# 5 -0.001710 -0.021464 0.030789 0.000000 0.127229 0.000000
# 6 0.000000 0.000000 0.000000 0.002829 0.000000 0.031880
#
#
# Mechanical properties :
#
#
# Convention : Reuss Voigt Hill
#
# Bulk Modulus (GPa) = 31.03393 43.91052 37.47222
# Shear Modulus (GPa) = 16.53703 26.28547 21.41125
#
# Velocity S-wave (km/s) = 2.99571 3.77685 3.40873
# Velocity P-wave (km/s) = 5.36723 6.54590 5.98565
#
# Compressibility (1/GPa) = 0.03222280
#
# Stress axis : x y z
#
# Youngs Moduli (GPa) = 88.74770 29.40623 52.64377
#
# Poissons Ratio (x) = 0.07117 0.21831
# Poissons Ratio (y) = 0.21480 0.49781
# Poissons Ratio (z) = 0.36803 0.27807
#
# Static dielectric constant tensor:
#      x y z
#    x 1.696940 0.000000 0.002340 
#    y 0.000000 1.632610 0.000000 
#    z 0.002340 0.000000 1.677620 
# 
# From -- ./inp_files/53283.got.cif
#   From: 2010.05.17/outbox.cif.g08.bks.cpg/sg11_27_cif.got.tgz:53283.got - 2010.06.03 12:22:45.
