data_PCOD9157571
_publ_section_title
;
Structure prediction by ZEFSAII (Michael W. Deem and Ramdas Pophale) SiO2 
 PCOD9157571
Probable space group: P 21/M
;
_chemical_formula_sum "Si O2"
_cell_formula_units_Z 28
_cell_length_a 22.181022
_cell_length_b 7.956782
_cell_length_c 15.353326
_cell_angle_alpha 90.000000
_cell_angle_beta 24.018726
_cell_angle_gamma 90.000000
_cell_volume 1102.943961
_symmetry_space_group_name_H-M "P 21/M"
_symmetry_group_IT_number 11
_symmetry_cell_setting 'monoclinic'
loop_
_space_group_symop_operation_xyz
x,y,z
-x,1/2+y,-z
-x,-y,-z
x,1/2-y,z
loop_
_atom_site_type_symbol
_atom_site_label
_atom_site_fract_x
_atom_site_fract_y
_atom_site_fract_z
Si Si1 0.671667 0.438804 0.958747
Si Si2 0.269391 0.442443 0.300814
Si Si3 0.449629 0.943486 0.390676
Si Si4 0.308683 0.047396 0.805286
Si Si5 0.234984 0.953101 0.534490
Si Si6 0.067878 0.049313 0.276539
Si Si7 0.069943 0.048416 0.999168
O O1 0.635275 0.250000 0.034038
O O2 0.657370 0.456740 0.874544
O O3 0.840867 0.479591 0.761738
O O4 0.569832 0.556596 0.152536
O O5 0.306203 0.250000 0.237395
O O6 0.307902 0.492558 0.348394
O O7 0.092157 0.469643 0.525592
O O8 0.415255 0.750000 0.456850
O O9 0.539219 0.022343 0.353818
O O10 0.311622 0.022376 0.521246
O O11 0.328069 0.250000 0.773724
O O12 0.181513 0.019214 0.046272
O O13 0.228714 0.983040 0.823004
O O14 0.240311 0.750000 0.531698
O O15 0.063267 0.003722 0.760751
O O16 0.047702 0.250000 0.310233
O O17 0.080623 0.250000 0.987929
O O18 0.000000 0.000000 0.000000
#
# Coordination Sequence:
#
# PCOD9157571 Si02
#       7
#     4   4   4   4   4   4   4
#     4  11  22  35  52  79 115 154 194 237 284 332
#     4  12  23  34  52  80 114 151 195 240 287 335
#     4   9  19  37  60  82 108 150 196 236 281 335
#     4   8  15  32  58  82 108 143 182 225 277 335
#     4  10  21  39  60  82 111 148 190 236 289 342
#     4  10  18  34  56  79 111 150 195 240 285 332
#     4  10  20  37  60  87 115 144 180 228 285 343
#
# _framework density 25.386603000000001
#
# number of rings (size 3 to 8) (size 9 to 14) (size 15 to 20)
#    0.000    2.000    1.429    4.286    0.000    1.714 
#    0.000    1.429    0.000    0.000    0.000    0.000 
#    0.000    0.000    0.000    0.000    0.000    0.000 
#
# Total GULP energy -156582.460705 kJ/mol
# GULP energy per Si atom -5592.230739 kJ/mol
# Density = 2.532882 g / cm^3
# Si number density = 25.386603 Si / 1000 Ang^3
#
#
#
# Elastic Constant Matrix: (Units=GPa)
#
#
# Indices 1 2 3 4 5 6 
#
# 1 199.2696 9.7075 39.0016 0.0000 -19.0471 0.0000
# 2 9.7075 57.7850 2.8612 0.0000 -0.4303 0.0000
# 3 39.0016 2.8612 82.5576 0.0000 -25.5438 0.0000
# 4 0.0000 0.0000 0.0000 20.3781 0.0000 2.2510
# 5 -19.0471 -0.4303 -25.5438 0.0000 53.4819 0.0000
# 6 0.0000 0.0000 0.0000 2.2510 0.0000 26.8847
#
#
#
# Elastic Compliance Matrix: (Units=1/GPa)
#
#
# Indices 1 2 3 4 5 6 
#
# 1 0.005601 -0.000818 -0.002350 0.000000 0.000866 0.000000
# 2 -0.000818 0.017456 -0.000311 0.000000 -0.000300 0.000000
# 3 -0.002350 -0.000311 0.015224 0.000000 0.006432 0.000000
# 4 0.000000 0.000000 0.000000 0.049530 0.000000 -0.004147
# 5 0.000866 -0.000300 0.006432 0.000000 0.022076 0.000000
# 6 0.000000 0.000000 0.000000 -0.004147 0.000000 0.037543
#
#
# Mechanical properties :
#
#
# Convention : Reuss Voigt Hill
#
# Bulk Modulus (GPa) = 31.92581 49.19477 40.56029
# Shear Modulus (GPa) = 30.33453 39.35171 34.84312
#
# Velocity S-wave (km/s) = 3.46049 3.94140 3.70875
# Velocity P-wave (km/s) = 5.34507 6.33507 5.86101
#
# Compressibility (1/GPa) = 0.03132262
#
# Stress axis : x y z
#
# Youngs Moduli (GPa) = 178.54493 57.28641 65.68759
#
# Poissons Ratio (x) = 0.04687 0.15434
# Poissons Ratio (y) = 0.14607 0.02044
# Poissons Ratio (z) = 0.41952 0.01783
#
# Static dielectric constant tensor:
#      x y z
#    x 2.089960 0.000000 0.004910 
#    y 0.000000 1.879260 0.000000 
#    z 0.004910 0.000000 2.082530 
# 
# From -- ./inp_files/54442.got.cif
#   From: 2010.05.17/outbox.cif.g08.bks.cpg/sg11_28_cif.got.tgz:54442.got - 2010.06.03 12:22:45.
