data_PCOD9157218
_publ_section_title
;
Structure prediction by ZEFSAII (Michael W. Deem and Ramdas Pophale) SiO2 
 PCOD9157218
Probable space group: P 21/M
;
_chemical_formula_sum "Si O2"
_cell_formula_units_Z 32
_cell_length_a 12.701537
_cell_length_b 8.176765
_cell_length_c 22.051220
_cell_angle_alpha 90.000000
_cell_angle_beta 132.653859
_cell_angle_gamma 90.000000
_cell_volume 1684.339995
_symmetry_space_group_name_H-M "P 21/M"
_symmetry_group_IT_number 11
_symmetry_cell_setting 'monoclinic'
loop_
_space_group_symop_operation_xyz
x,y,z
-x,1/2+y,-z
-x,-y,-z
x,1/2-y,z
loop_
_atom_site_type_symbol
_atom_site_label
_atom_site_fract_x
_atom_site_fract_y
_atom_site_fract_z
Si Si1 0.223619 0.936997 0.019459
Si Si2 0.659381 0.437742 0.070918
Si Si3 0.211382 0.062343 0.760601
Si Si4 0.619512 0.447306 0.727666
Si Si5 0.623161 0.557642 0.593142
Si Si6 0.508458 0.950494 0.198667
Si Si7 0.056190 0.554228 0.142975
Si Si8 0.943079 0.054098 0.718134
O O1 0.209491 0.750000 0.035564
O O2 0.269776 0.940674 0.967085
O O3 0.361952 0.008267 0.108283
O O4 0.064505 0.008714 0.952730
O O5 0.663085 0.250000 0.094601
O O6 0.730421 0.554013 0.147905
O O7 0.500000 0.500000 0.000000
O O8 0.194064 0.250000 0.733089
O O9 0.342217 0.990474 0.772173
O O10 0.053755 0.987669 0.710730
O O11 0.620854 0.250000 0.724100
O O12 0.586720 0.514279 0.648547
O O13 0.511485 0.492924 0.738873
O O14 0.781836 0.498657 0.808952
O O15 0.500000 0.500000 0.500000
O O16 0.640355 0.750000 0.594399
O O17 0.777619 0.478663 0.640039
O O18 0.508650 0.750000 0.192114
O O19 0.056257 0.750000 0.146932
O O20 0.029222 0.491661 0.201874
O O21 0.963958 0.250000 0.727856
#
# Coordination Sequence:
#
# PCOD9157218 Si02
#       8
#     4   4   4   4   4   4   4   4
#     4  10  19  29  44  67  97 136 185 229 265 304
#     4  11  20  29  43  66  98 136 183 235 275 306
#     4  10  18  32  52  74 103 141 180 218 263 312
#     4   9  19  37  56  75 104 140 176 212 259 315
#     4  11  22  38  63  89 111 130 159 203 256 313
#     4   9  18  33  51  71 101 145 187 219 257 309
#     4   9  17  29  46  69  99 136 175 222 269 304
#     4   9  18  32  53  81 111 137 169 212 263 313
#
# _framework density 18.998539999999998
#
# number of rings (size 3 to 8) (size 9 to 14) (size 15 to 20)
#    0.000    2.250    2.500    2.250    0.000    3.500 
#    0.000    1.250    0.000    0.750    0.000    0.000 
#    0.000    0.000    0.000    0.000    0.000    0.000 
#
# Total GULP energy -178306.561969 kJ/mol
# GULP energy per Si atom -5572.080062 kJ/mol
# Density = 1.895530 g / cm^3
# Si number density = 18.998540 Si / 1000 Ang^3
#
#
#
# Elastic Constant Matrix: (Units=GPa)
#
#
# Indices 1 2 3 4 5 6 
#
# 1 122.4696 10.3630 56.9692 0.0000 3.0229 0.0000
# 2 10.3630 16.8188 0.1517 0.0000 -2.7137 0.0000
# 3 56.9692 0.1517 82.4146 0.0000 15.9874 0.0000
# 4 0.0000 0.0000 0.0000 21.5669 0.0000 1.6698
# 5 3.0229 -2.7137 15.9874 0.0000 16.1686 0.0000
# 6 0.0000 0.0000 0.0000 1.6698 0.0000 12.1602
#
#
#
# Elastic Compliance Matrix: (Units=1/GPa)
#
#
# Indices 1 2 3 4 5 6 
#
# 1 0.013581 -0.007168 -0.010701 0.000000 0.006839 0.000000
# 2 -0.007168 0.065350 0.003028 0.000000 0.009315 0.000000
# 3 -0.010701 0.003028 0.023558 0.000000 -0.020785 0.000000
# 4 0.000000 0.000000 0.000000 0.046866 0.000000 -0.006436
# 5 0.006839 0.009315 -0.020785 0.000000 0.082685 0.000000
# 6 0.000000 0.000000 0.000000 -0.006436 0.000000 0.083119
#
#
# Mechanical properties :
#
#
# Convention : Reuss Voigt Hill
#
# Bulk Modulus (GPa) = 13.73538 39.63009 26.68274
# Shear Modulus (GPa) = 13.54612 20.26041 16.90327
#
# Velocity S-wave (km/s) = 2.67312 3.26915 2.98604
# Velocity P-wave (km/s) = 4.09546 5.92913 5.09546
#
# Compressibility (1/GPa) = 0.07280466
#
# Stress axis : x y z
#
# Youngs Moduli (GPa) = 73.63232 15.30231 42.44929
#
# Poissons Ratio (x) = 0.10969 0.45427
# Poissons Ratio (y) = 0.52779 -0.12852
# Poissons Ratio (z) = 0.78797 -0.04633
#
# Static dielectric constant tensor:
#      x y z
#    x -0.212390 0.000000 -1.782410 
#    y 0.000000 1.690670 0.000000 
#    z -1.782410 0.000000 -0.097160 
# 
# From -- ./inp_files/42786.got.cif
#   From: 2010.05.17/outbox.cif.g08.bks.cpg/sg11_22_cif.got.tgz:42786.got - 2010.06.03 12:22:45.
