data_PCOD9157101
_publ_section_title
;
Structure prediction by ZEFSAII (Michael W. Deem and Ramdas Pophale) SiO2 
 PCOD9157101
Probable space group: P 21/M
;
_chemical_formula_sum "Si O2"
_cell_formula_units_Z 32
_cell_length_a 10.038957
_cell_length_b 9.093128
_cell_length_c 23.842965
_cell_angle_alpha 90.000000
_cell_angle_beta 59.208605
_cell_angle_gamma 90.000000
_cell_volume 1869.708588
_symmetry_space_group_name_H-M "P 21/M"
_symmetry_group_IT_number 11
_symmetry_cell_setting 'monoclinic'
loop_
_space_group_symop_operation_xyz
x,y,z
-x,1/2+y,-z
-x,-y,-z
x,1/2-y,z
loop_
_atom_site_type_symbol
_atom_site_label
_atom_site_fract_x
_atom_site_fract_y
_atom_site_fract_z
Si Si1 0.529376 0.925133 0.053163
Si Si2 0.842083 0.573295 0.055692
Si Si3 0.063962 0.075897 0.541310
Si Si4 0.324957 0.919576 0.807791
Si Si5 0.191358 0.924499 0.318978
Si Si6 0.641660 0.917599 0.812961
Si Si7 0.500790 0.575006 0.327328
Si Si8 0.569248 0.924961 0.539906
O O1 0.518356 0.750000 0.050663
O O2 0.698380 0.959228 0.044112
O O3 0.402169 0.985894 0.124104
O O4 0.500000 0.000000 0.000000
O O5 0.856822 0.750000 0.056268
O O6 0.793592 0.505837 0.126428
O O7 0.000000 0.500000 0.000000
O O8 0.035005 0.250000 0.542801
O O9 0.246183 0.051958 0.504397
O O10 0.965181 0.026491 0.616402
O O11 0.000000 0.000000 0.500000
O O12 0.277887 0.750000 0.808661
O O13 0.485581 0.916831 0.808624
O O14 0.369938 0.002117 0.740751
O O15 0.185770 0.750000 0.308107
O O16 0.334743 0.946879 0.331537
O O17 0.229091 0.011820 0.254543
O O18 0.677205 0.750000 0.820986
O O19 0.525322 0.750000 0.326959
O O20 0.491090 0.499300 0.389907
O O21 0.539066 0.750000 0.547680
O O22 0.500000 0.000000 0.500000
#
# Coordination Sequence:
#
# PCOD9157101 Si02
#       8
#     4   4   4   4   4   4   4   4
#     4  10  20  34  54  79 108 142 178 216 258 312
#     4  10  20  34  54  81 110 141 177 219 265 311
#     4  10  20  34  54  80 106 135 173 218 264 313
#     4   9  17  30  50  77 107 137 174 218 260 308
#     4   9  17  30  50  77 106 133 166 215 267 310
#     4   9  17  29  48  76 106 137 173 213 258 308
#     4  10  18  31  53  78 105 136 173 217 264 314
#     4  11  23  37  54  76 106 142 179 218 263 318
#
# _framework density 17.114965999999999
#
# number of rings (size 3 to 8) (size 9 to 14) (size 15 to 20)
#    0.000    2.250    1.250    2.250    0.000    6.000 
#    0.000    0.000    2.750    0.000    0.000    0.000 
#    0.000    0.000    0.000    0.000    0.000    0.000 
#
# Total GULP energy -178489.371147 kJ/mol
# GULP energy per Si atom -5577.792848 kJ/mol
# Density = 1.707601 g / cm^3
# Si number density = 17.114966 Si / 1000 Ang^3
#
#
#
# Elastic Constant Matrix: (Units=GPa)
#
#
# Indices 1 2 3 4 5 6 
#
# 1 43.2865 59.7828 57.0450 0.0000 8.2846 0.0000
# 2 59.7828 110.4962 97.2206 0.0000 4.9089 0.0000
# 3 57.0450 97.2206 199.3797 0.0000 1.0606 0.0000
# 4 0.0000 0.0000 0.0000 38.5338 0.0000 3.5330
# 5 8.2846 4.9089 1.0606 0.0000 24.8965 0.0000
# 6 0.0000 0.0000 0.0000 3.5330 0.0000 20.6803
#
#
#
# Elastic Compliance Matrix: (Units=1/GPa)
#
#
# Indices 1 2 3 4 5 6 
#
# 1 0.106151 -0.052055 -0.004856 0.000000 -0.024852 0.000000
# 2 -0.052055 0.041575 -0.005429 0.000000 0.009356 0.000000
# 3 -0.004856 -0.005429 0.009040 0.000000 0.002301 0.000000
# 4 0.000000 0.000000 0.000000 0.026364 0.000000 -0.004504
# 5 -0.024852 0.009356 0.002301 0.000000 0.046493 0.000000
# 6 0.000000 0.000000 0.000000 -0.004504 0.000000 0.049125
#
#
# Mechanical properties :
#
#
# Convention : Reuss Voigt Hill
#
# Bulk Modulus (GPa) = 31.16636 86.80656 58.98646
# Shear Modulus (GPa) = 12.07372 26.09637 19.08504
#
# Velocity S-wave (km/s) = 2.65891 3.90907 3.34295
# Velocity P-wave (km/s) = 5.26079 8.43826 7.03136
#
# Compressibility (1/GPa) = 0.03208588
#
# Stress axis : x y z
#
# Youngs Moduli (GPa) = 9.42054 24.05307 110.62248
#
# Poissons Ratio (x) = 1.25209 0.53718
# Poissons Ratio (y) = 0.49039 0.60053
# Poissons Ratio (z) = 0.04575 0.13057
#
# Static dielectric constant tensor:
#      x y z
#    x 1.557080 0.000000 -0.009800 
#    y 0.000000 1.576500 0.000000 
#    z -0.009800 0.000000 1.568900 
# 
# From -- ./inp_files/67078.got.cif
#   From: 2010.05.17/outbox.cif.g08.bks.cpg/sg11_34_cif.got.tgz:67078.got - 2010.06.03 12:22:45.
