data_PCOD9157486
_publ_section_title
;
Structure prediction by ZEFSAII (Michael W. Deem and Ramdas Pophale) SiO2 
 PCOD9157486
Probable space group: P 21/M
;
_chemical_formula_sum "Si O2"
_cell_formula_units_Z 22
_cell_length_a 12.601283
_cell_length_b 8.213448
_cell_length_c 8.646872
_cell_angle_alpha 90.000000
_cell_angle_beta 94.160147
_cell_angle_gamma 90.000000
_cell_volume 892.593065
_symmetry_space_group_name_H-M "P 21/M"
_symmetry_group_IT_number 11
_symmetry_cell_setting 'monoclinic'
loop_
_space_group_symop_operation_xyz
x,y,z
-x,1/2+y,-z
-x,-y,-z
x,1/2-y,z
loop_
_atom_site_type_symbol
_atom_site_label
_atom_site_fract_x
_atom_site_fract_y
_atom_site_fract_z
Si Si1 0.193586 0.073586 0.528802
Si Si2 0.275274 0.750000 0.466552
Si Si3 0.054632 0.557758 0.773587
Si Si4 0.582959 0.250000 0.195605
Si Si5 0.169384 0.435960 0.092747
Si Si6 0.441659 0.063817 0.652527
Si Si7 0.317949 0.750000 0.135727
O O1 0.184355 0.250000 0.452801
O O2 0.312872 0.070809 0.616236
O O3 0.202536 0.906562 0.440832
O O4 0.096555 0.044291 0.633937
O O5 0.334715 0.750000 0.642453
O O6 0.347982 0.750000 0.322683
O O7 0.084958 0.750000 0.761549
O O8 0.930825 0.553135 0.801331
O O9 0.116085 0.475856 0.922203
O O10 0.527287 0.423480 0.222277
O O11 0.621274 0.250000 0.023230
O O12 0.211464 0.250000 0.098347
O O13 0.252951 0.580187 0.120323
O O14 0.460999 0.250000 0.702257
O O15 0.500000 0.000000 0.500000
#
# Coordination Sequence:
#
# PCOD9157486 Si02
#       7
#     4   2   4   2   4   4   2
#     4  10  20  34  58  84 115 161 197 244 308 361
#     4  10  22  40  60  88 122 158 204 250 296 362
#     4  10  18  33  57  84 118 160 206 245 306 361
#     4  10  22  40  64  91 125 159 195 246 302 362
#     4  10  21  33  53  85 120 158 203 261 296 347
#     4  10  19  33  59  97 122 150 198 243 293 361
#     4  12  24  40  64  89 119 163 211 242 308 356
#
# _framework density 24.647290000000002
#
# number of rings (size 3 to 8) (size 9 to 14) (size 15 to 20)
#    0.000    1.818    2.727    2.727    2.545    2.909 
#    0.000    0.909    0.000    4.364    0.000    0.000 
#    0.000    0.000    0.000    0.000    0.000    0.000 
#
# Total GULP energy -122630.270063 kJ/mol
# GULP energy per Si atom -5574.103185 kJ/mol
# Density = 2.459119 g / cm^3
# Si number density = 24.647290 Si / 1000 Ang^3
#
#
#
# Elastic Constant Matrix: (Units=GPa)
#
#
# Indices 1 2 3 4 5 6 
#
# 1 -73.6561 -46.8039 8.7204 0.0000 -8.7970 0.0000
# 2 -46.8039 215.4989 20.2980 0.0000 -14.8130 0.0000
# 3 8.7204 20.2980 90.3951 0.0000 -12.7397 0.0000
# 4 0.0000 0.0000 0.0000 4.4091 0.0000 -29.8816
# 5 -8.7970 -14.8130 -12.7397 0.0000 34.4836 0.0000
# 6 0.0000 0.0000 0.0000 -29.8816 0.0000 -48.7225
#
#
#
# Elastic Compliance Matrix: (Units=1/GPa)
#
#
# Indices 1 2 3 4 5 6 
#
# 1 -0.011223 -0.002800 0.001201 0.000000 -0.003622 0.000000
# 2 -0.002800 0.004143 -0.000538 0.000000 0.000867 0.000000
# 3 0.001201 -0.000538 0.011687 0.000000 0.004393 0.000000
# 4 0.000000 0.000000 0.000000 0.043984 0.000000 -0.026975
# 5 -0.003622 0.000867 0.004393 0.000000 0.030070 0.000000
# 6 0.000000 0.000000 0.000000 -0.026975 0.000000 -0.003980
#
#
# Mechanical properties :
#
#
# Convention : Reuss Voigt Hill
#
# Bulk Modulus (GPa) = 3004.36512 21.85188 1513.10850
# Shear Modulus (GPa) = 63.23927 14.70226 38.97077
#
# Velocity S-wave (km/s) = 5.07084 2.44500 3.98067
# Velocity P-wave (km/s) = 35.43831 4.10558 25.22628
#
# Compressibility (1/GPa) = 0.00033285
#
# Stress axis : x y z
#
# Youngs Moduli (GPa) = -89.10355 241.39403 85.56808
#
# Poissons Ratio (x) = 0.67580 -0.10275
# Poissons Ratio (y) = -0.24945 0.04604
# Poissons Ratio (z) = 0.10700 0.12987
#
# Static dielectric constant tensor:
#      x y z
#    x 1.813640 0.000000 -0.007220 
#    y 0.000000 2.100220 0.000000 
#    z -0.007220 0.000000 1.955610 
# 
# From -- ./inp_files/20211.got.cif
#   From: 2010.05.17/outbox.cif.g08.bks.cpg/sg11_11_cif.got.tgz:20211.got - 2010.06.03 12:22:45.
