data_PCOD9157060
_publ_section_title
;
Structure prediction by ZEFSAII (Michael W. Deem and Ramdas Pophale) SiO2 
 PCOD9157060
Probable space group: P 21/M
;
_chemical_formula_sum "Si O2"
_cell_formula_units_Z 32
_cell_length_a 22.818156
_cell_length_b 14.327654
_cell_length_c 8.863141
_cell_angle_alpha 90.000000
_cell_angle_beta 28.926767
_cell_angle_gamma 90.000000
_cell_volume 1401.559648
_symmetry_space_group_name_H-M "P 21/M"
_symmetry_group_IT_number 11
_symmetry_cell_setting 'monoclinic'
loop_
_space_group_symop_operation_xyz
x,y,z
-x,1/2+y,-z
-x,-y,-z
x,1/2-y,z
loop_
_atom_site_type_symbol
_atom_site_label
_atom_site_fract_x
_atom_site_fract_y
_atom_site_fract_z
Si Si1 0.558659 0.960710 0.218888
Si Si2 0.221981 0.048703 0.548004
Si Si3 0.995269 0.854026 0.812364
Si Si4 0.484253 0.356476 0.933692
Si Si5 0.292245 0.144225 0.895483
Si Si6 0.125691 0.855395 0.848144
Si Si7 0.091721 0.454680 0.510997
Si Si8 0.462720 0.853443 0.841920
O O1 0.636495 0.875457 0.107595
O O2 0.500000 0.000000 0.500000
O O3 0.615483 0.057949 0.032341
O O4 0.461712 0.920974 0.318919
O O5 0.353584 0.093527 0.240133
O O6 0.160095 0.049966 0.521009
O O7 0.213460 0.944796 0.636573
O O8 0.140436 0.114942 0.838203
O O9 0.000761 0.750000 0.735822
O O10 0.064027 0.852618 0.820113
O O11 0.050063 0.938225 0.591873
O O12 0.475809 0.250000 0.904091
O O13 0.537989 0.356228 0.977431
O O14 0.249238 0.250000 0.982999
O O15 0.397641 0.133330 0.531330
O O16 0.177946 0.076957 0.179532
O O17 0.172706 0.750000 0.772045
O O18 0.022597 0.886541 0.200591
O O19 0.424097 0.750000 0.876645
#
# Coordination Sequence:
#
# PCOD9157060 Si02
#       8
#     4   4   4   4   4   4   4   4
#     4  10  20  34  53  76  99 123 156 204 256 299
#     4   9  16  25  43  73  98 125 168 204 241 292
#     4   8  14  24  38  63 103 135 160 202 248 289
#     4  11  20  33  55  76  98 131 166 202 246 301
#     4  10  18  31  52  76 100 126 166 214 249 291
#     4   8  14  24  39  63 102 136 160 200 248 291
#     4   9  15  24  43  72  97 127 168 206 248 288
#     4   9  21  37  51  72 101 130 161 202 255 307
#
# _framework density 22.831707000000002
#
# number of rings (size 3 to 8) (size 9 to 14) (size 15 to 20)
#    0.000    2.750    1.250    3.000    0.000    1.500 
#    0.000    1.250    0.000    6.000    0.000    1.750 
#    0.000    0.000    0.000    0.000    0.000    0.000 
#
# Total GULP energy -178340.099007 kJ/mol
# GULP energy per Si atom -5573.128094 kJ/mol
# Density = 2.277974 g / cm^3
# Si number density = 22.831707 Si / 1000 Ang^3
#
#
#
# Elastic Constant Matrix: (Units=GPa)
#
#
# Indices 1 2 3 4 5 6 
#
# 1 20.5513 11.0265 0.9030 0.0000 7.7955 0.0000
# 2 11.0265 159.8120 29.1090 0.0000 10.0397 0.0000
# 3 0.9030 29.1090 74.8119 0.0000 8.3285 0.0000
# 4 0.0000 0.0000 0.0000 28.1254 0.0000 4.8655
# 5 7.7955 10.0397 8.3285 0.0000 19.1764 0.0000
# 6 0.0000 0.0000 0.0000 4.8655 0.0000 16.9865
#
#
#
# Elastic Compliance Matrix: (Units=1/GPa)
#
#
# Indices 1 2 3 4 5 6 
#
# 1 0.059249 -0.003170 0.003168 0.000000 -0.023802 0.000000
# 2 -0.003170 0.007021 -0.002551 0.000000 -0.001279 0.000000
# 3 0.003168 -0.002551 0.015043 0.000000 -0.006486 0.000000
# 4 0.000000 0.000000 0.000000 0.037409 0.000000 -0.010715
# 5 -0.023802 -0.001279 -0.006486 0.000000 0.065310 0.000000
# 6 0.000000 0.000000 0.000000 -0.010715 0.000000 0.061939
#
#
# Mechanical properties :
#
#
# Convention : Reuss Voigt Hill
#
# Bulk Modulus (GPa) = 13.12210 37.47247 25.29728
# Shear Modulus (GPa) = 18.08453 27.13344 22.60899
#
# Velocity S-wave (km/s) = 2.81744 3.45107 3.15023
# Velocity P-wave (km/s) = 4.04274 5.68577 4.93314
#
# Compressibility (1/GPa) = 0.07620732
#
# Stress axis : x y z
#
# Youngs Moduli (GPa) = 16.87797 142.42755 66.47476
#
# Poissons Ratio (x) = 0.45145 -0.21059
# Poissons Ratio (y) = 0.05350 0.16959
# Poissons Ratio (z) = -0.05347 0.36336
#
# Static dielectric constant tensor:
#      x y z
#    x 1.965050 0.000000 0.036180 
#    y 0.000000 1.878260 0.000000 
#    z 0.036180 0.000000 1.982440 
# 
# From -- ./inp_files/28845.got.cif
#   From: 2010.05.17/outbox.cif.g08.bks.cpg/sg11_15_cif.got.tgz:28845.got - 2010.06.03 12:22:45.
