data_PCOD9157737
_publ_section_title
;
Structure prediction by ZEFSAII (Michael W. Deem and Ramdas Pophale) SiO2 
 PCOD9157737
Probable space group: P 21/M
;
_chemical_formula_sum "Si O2"
_cell_formula_units_Z 28
_cell_length_a 18.346902
_cell_length_b 15.356087
_cell_length_c 5.701565
_cell_angle_alpha 90.000000
_cell_angle_beta 125.567745
_cell_angle_gamma 90.000000
_cell_volume 1306.642215
_symmetry_space_group_name_H-M "P 21/M"
_symmetry_group_IT_number 11
_symmetry_cell_setting 'monoclinic'
loop_
_space_group_symop_operation_xyz
x,y,z
-x,1/2+y,-z
-x,-y,-z
x,1/2-y,z
loop_
_atom_site_type_symbol
_atom_site_label
_atom_site_fract_x
_atom_site_fract_y
_atom_site_fract_z
Si Si1 0.015502 0.750000 0.884635
Si Si2 0.269154 0.508278 0.596752
Si Si3 0.329797 0.656106 0.394242
Si Si4 0.601558 0.850848 0.181180
Si Si5 0.829923 0.400942 0.206017
Si Si6 0.921614 0.450295 0.984124
Si Si7 0.494576 0.104269 0.500082
Si Si8 0.961718 0.250000 0.586579
O O1 0.062640 0.845500 0.983910
O O2 0.983933 0.750000 0.555774
O O3 0.973919 0.750000 0.067712
O O4 0.332526 0.577429 0.582986
O O5 0.314048 0.415522 0.662890
O O6 0.245966 0.542713 0.809388
O O7 0.170743 0.517765 0.302334
O O8 0.340857 0.750000 0.532815
O O9 0.406671 0.644177 0.346036
O O10 0.232239 0.651541 0.093045
O O11 0.626257 0.750000 0.234399
O O12 0.547845 0.870222 0.326051
O O13 0.553237 0.867417 0.836811
O O14 0.900735 0.466058 0.218400
O O15 0.892044 0.331709 0.456716
O O16 0.000000 0.500000 0.000000
O O17 0.500000 0.000000 0.500000
#
# Coordination Sequence:
#
# PCOD9157737 Si02
#       8
#     2   4   4   4   4   4   4   2
#     4  10  20  40  64  94 126 160 203 270 331 394
#     4  11  24  40  66  94 131 177 226 277 339 407
#     4  11  23  36  62 100 133 170 219 280 340 401
#     4  12  27  48  70  96 143 192 233 283 342 407
#     4  10  21  36  62  95 131 169 213 270 338 400
#     4  10  23  42  65  95 130 171 219 272 341 402
#     4  12  25  48  69 101 136 185 238 290 338 400
#     4  10  18  36  60  90 128 162 195 260 337 398
#
# _framework density 21.42897
#
# number of rings (size 3 to 8) (size 9 to 14) (size 15 to 20)
#    0.000    1.143    3.571    2.571    8.000    0.571 
#    1.286    0.000    1.571    0.000    0.000    0.000 
#    0.000    0.000    0.000    0.000    0.000    0.000 
#
# Total GULP energy -155877.314491 kJ/mol
# GULP energy per Si atom -5567.046946 kJ/mol
# Density = 2.138020 g / cm^3
# Si number density = 21.428970 Si / 1000 Ang^3
#
#
#
# Elastic Constant Matrix: (Units=GPa)
#
#
# Indices 1 2 3 4 5 6 
#
# 1 137.2354 63.7436 35.7991 0.0000 -20.1272 0.0000
# 2 63.7436 160.7032 18.9008 0.0000 -8.9482 0.0000
# 3 35.7991 18.9008 63.3876 0.0000 -24.2844 0.0000
# 4 0.0000 0.0000 0.0000 11.7342 0.0000 -12.5439
# 5 -20.1272 -8.9482 -24.2844 0.0000 39.5453 0.0000
# 6 0.0000 0.0000 0.0000 -12.5439 0.0000 12.8321
#
#
#
# Elastic Compliance Matrix: (Units=1/GPa)
#
#
# Indices 1 2 3 4 5 6 
#
# 1 0.010232 -0.003480 -0.003985 0.000000 0.001973 0.000000
# 2 -0.003480 0.007636 -0.000429 0.000000 -0.000307 0.000000
# 3 -0.003985 -0.000429 0.022675 0.000000 0.011799 0.000000
# 4 0.000000 0.000000 0.000000 -1.893968 0.000000 -1.851437
# 5 0.001973 -0.000307 0.011799 0.000000 0.033468 0.000000
# 6 0.000000 0.000000 0.000000 -1.851437 0.000000 -1.731932
#
#
# Mechanical properties :
#
#
# Convention : Reuss Voigt Hill
#
# Bulk Modulus (GPa) = 40.39629 66.46813 53.43221
# Shear Modulus (GPa) = -1.41729 29.01450 13.79861
#
# Velocity S-wave (km/s) = -0.81414 3.68365 2.54032
# Velocity P-wave (km/s) = 4.24363 7.01267 5.79594
#
# Compressibility (1/GPa) = 0.02475475
#
# Stress axis : x y z
#
# Youngs Moduli (GPa) = 97.73149 130.95150 44.10159
#
# Poissons Ratio (x) = 0.45572 0.17575
# Poissons Ratio (y) = 0.34011 0.01893
# Poissons Ratio (z) = 0.38948 0.05620
#
# Static dielectric constant tensor:
#      x y z
#    x 1.840500 0.000000 -0.134330 
#    y 0.000000 1.787630 0.000000 
#    z -0.134330 0.000000 1.962830 
# 
# From -- ./inp_files/8168.got.cif
#   From: 2010.05.17/outbox.cif.g08.bks.cpg/sg11_5_cif.got.tgz:8168.got - 2010.06.03 12:22:45.
