data_PCOD9157684
_publ_section_title
;
Structure prediction by ZEFSAII (Michael W. Deem and Ramdas Pophale) SiO2 
 PCOD9157684
Probable space group: P 21/M
;
_chemical_formula_sum "Si O2"
_cell_formula_units_Z 28
_cell_length_a 10.544085
_cell_length_b 8.544886
_cell_length_c 30.969450
_cell_angle_alpha 90.000000
_cell_angle_beta 33.655613
_cell_angle_gamma 90.000000
_cell_volume 1546.375595
_symmetry_space_group_name_H-M "P 21/M"
_symmetry_group_IT_number 11
_symmetry_cell_setting 'monoclinic'
loop_
_space_group_symop_operation_xyz
x,y,z
-x,1/2+y,-z
-x,-y,-z
x,1/2-y,z
loop_
_atom_site_type_symbol
_atom_site_label
_atom_site_fract_x
_atom_site_fract_y
_atom_site_fract_z
Si Si1 0.142056 0.939110 0.234938
Si Si2 0.901955 0.437044 0.095223
Si Si3 0.132625 0.940436 0.338314
Si Si4 0.654599 0.939043 0.080146
Si Si5 0.630322 0.560656 0.505375
Si Si6 0.322574 0.937151 0.672906
Si Si7 0.592125 0.937196 0.256216
O O1 0.124158 0.750000 0.238493
O O2 0.131922 0.987415 0.288247
O O3 0.392696 0.984606 0.146481
O O4 0.930375 0.009936 0.269415
O O5 0.894683 0.250000 0.100073
O O6 0.742939 0.492452 0.100474
O O7 0.803092 0.508338 0.166839
O O8 0.159398 0.484985 0.008596
O O9 0.138311 0.750000 0.336851
O O10 0.358705 0.994713 0.299177
O O11 0.894798 0.989811 0.427585
O O12 0.660788 0.750000 0.082479
O O13 0.500000 0.500000 0.500000
O O14 0.626015 0.750000 0.505597
O O15 0.497526 0.508028 0.585871
O O16 0.331148 0.750000 0.671862
O O17 0.386777 0.002403 0.701334
O O18 0.586899 0.750000 0.258028
#
# Coordination Sequence:
#
# PCOD9157684 Si02
#       7
#     4   4   4   4   4   4   4
#     4  10  18  35  60  83 109 146 190 227 266 329
#     4  10  19  32  54  84 117 145 178 231 283 322
#     4   9  18  34  59  83 107 142 188 230 265 321
#     4   9  18  33  55  84 113 146 187 226 269 329
#     4  10  20  36  57  82 112 143 181 229 276 324
#     4  11  24  38  54  83 118 146 180 232 286 331
#     4  11  22  39  59  80 110 152 192 225 274 337
#
# _framework density 18.106856000000001
#
# number of rings (size 3 to 8) (size 9 to 14) (size 15 to 20)
#    0.000    2.000    2.857    1.286    0.000    2.286 
#    0.000    2.143    0.000    0.000    0.000    0.000 
#    0.000    0.000    0.000    0.000    0.000    0.000 
#
# Total GULP energy -156292.692679 kJ/mol
# GULP energy per Si atom -5581.881881 kJ/mol
# Density = 1.806564 g / cm^3
# Si number density = 18.106856 Si / 1000 Ang^3
#
#
#
# Elastic Constant Matrix: (Units=GPa)
#
#
# Indices 1 2 3 4 5 6 
#
# 1 106.5755 17.3998 62.5298 0.0000 7.3337 0.0000
# 2 17.3998 17.6652 26.2860 0.0000 1.6335 0.0000
# 3 62.5298 26.2860 145.4574 0.0000 0.8695 0.0000
# 4 0.0000 0.0000 0.0000 21.1438 0.0000 4.3075
# 5 7.3337 1.6335 0.8695 0.0000 31.8322 0.0000
# 6 0.0000 0.0000 0.0000 4.3075 0.0000 25.2370
#
#
#
# Elastic Compliance Matrix: (Units=1/GPa)
#
#
# Indices 1 2 3 4 5 6 
#
# 1 0.013232 -0.005950 -0.004597 0.000000 -0.002618 0.000000
# 2 -0.005950 0.080518 -0.011978 0.000000 -0.002434 0.000000
# 3 -0.004597 -0.011978 0.011008 0.000000 0.001373 0.000000
# 4 0.000000 0.000000 0.000000 0.048999 0.000000 -0.008363
# 5 -0.002618 -0.002434 0.001373 0.000000 0.032105 0.000000
# 6 0.000000 0.000000 0.000000 -0.008363 0.000000 0.041052
#
#
# Mechanical properties :
#
#
# Convention : Reuss Voigt Hill
#
# Bulk Modulus (GPa) = 16.74873 53.56993 35.15933
# Shear Modulus (GPa) = 17.13112 26.54144 21.83628
#
# Velocity S-wave (km/s) = 3.07923 3.83276 3.47647
# Velocity P-wave (km/s) = 4.68105 7.01687 5.96442
#
# Compressibility (1/GPa) = 0.05970603
#
# Stress axis : x y z
#
# Youngs Moduli (GPa) = 75.57508 12.41960 90.84691
#
# Poissons Ratio (x) = 0.07390 0.41764
# Poissons Ratio (y) = 0.44969 1.08818
# Poissons Ratio (z) = 0.34744 0.14876
#
# Static dielectric constant tensor:
#      x y z
#    x 1.577640 0.000000 -0.013450 
#    y 0.000000 1.608920 0.000000 
#    z -0.013450 0.000000 1.640290 
# 
# From -- ./inp_files/28297.got.cif
#   From: 2010.05.17/outbox.cif.g08.bks.cpg/sg11_15_cif.got.tgz:28297.got - 2010.06.03 12:22:45.
