data_PCOD9157923
_publ_section_title
;
Structure prediction by ZEFSAII (Michael W. Deem and Ramdas Pophale) SiO2 
 PCOD9157923
Probable space group: P 21/M
;
_chemical_formula_sum "Si O2"
_cell_formula_units_Z 32
_cell_length_a 27.734050
_cell_length_b 8.573316
_cell_length_c 21.591847
_cell_angle_alpha 90.000000
_cell_angle_beta 19.658092
_cell_angle_gamma 90.000000
_cell_volume 1727.095521
_symmetry_space_group_name_H-M "P 21/M"
_symmetry_group_IT_number 11
_symmetry_cell_setting 'monoclinic'
loop_
_space_group_symop_operation_xyz
x,y,z
-x,1/2+y,-z
-x,-y,-z
x,1/2-y,z
loop_
_atom_site_type_symbol
_atom_site_label
_atom_site_fract_x
_atom_site_fract_y
_atom_site_fract_z
Si Si1 0.538520 0.061481 0.050009
Si Si2 0.967964 0.937558 0.338938
Si Si3 0.160760 0.061355 0.637897
Si Si4 0.288381 0.939214 0.916523
Si Si5 0.652089 0.937102 0.293034
Si Si6 0.489195 0.440129 0.248287
Si Si7 0.056177 0.063461 0.997039
Si Si8 0.725242 0.063635 0.711194
O O1 0.531552 0.250000 0.058487
O O2 0.545938 0.009610 0.112121
O O3 0.393310 0.001518 0.193399
O O4 0.668761 0.014009 0.847409
O O5 0.963780 0.750000 0.348067
O O6 0.886184 0.983766 0.374587
O O7 0.879704 0.004757 0.503024
O O8 0.132829 0.985282 0.131252
O O9 0.154392 0.250000 0.648996
O O10 0.323597 0.012026 0.454246
O O11 0.050164 0.992708 0.820527
O O12 0.290319 0.750000 0.910098
O O13 0.411475 0.990697 0.815304
O O14 0.313468 0.004837 0.817820
O O15 0.648203 0.750000 0.297973
O O16 0.783097 0.988583 0.179055
O O17 0.500000 0.000000 0.500000
O O18 0.490807 0.250000 0.246550
O O19 0.056517 0.250000 0.994241
O O20 0.000000 0.000000 0.000000
O O21 0.722188 0.250000 0.712369
#
# Coordination Sequence:
#
# PCOD9157923 Si02
#       8
#     4   4   4   4   4   4   4   4
#     4   9  17  33  52  77 111 146 184 228 280 332
#     4  10  19  34  56  80 108 146 186 226 276 331
#     4  10  19  35  59  83 110 145 186 234 279 327
#     4  10  21  38  60  83 109 146 189 231 275 333
#     4  11  25  43  62  85 116 153 188 229 280 338
#     4   9  18  34  57  81 108 144 186 228 274 330
#     4  11  25  42  61  87 118 149 185 233 281 333
#     4  10  19  29  51  81 110 144 185 232 278 327
#
# _framework density 18.528217999999999
#
# number of rings (size 3 to 8) (size 9 to 14) (size 15 to 20)
#    0.000    2.000    2.500    1.125    1.750    3.000 
#    0.000    1.250    0.000    0.000    0.000    0.000 
#    0.000    0.000    0.000    0.000    0.000    0.000 
#
# Total GULP energy -178636.354705 kJ/mol
# GULP energy per Si atom -5582.386085 kJ/mol
# Density = 1.848605 g / cm^3
# Si number density = 18.528218 Si / 1000 Ang^3
#
#
#
# Elastic Constant Matrix: (Units=GPa)
#
#
# Indices 1 2 3 4 5 6 
#
# 1 104.6153 23.4207 68.7510 0.0000 -14.5188 0.0000
# 2 23.4207 14.2410 28.9020 0.0000 -1.3614 0.0000
# 3 68.7510 28.9020 168.1140 0.0000 -5.0741 0.0000
# 4 0.0000 0.0000 0.0000 30.5666 0.0000 5.5630
# 5 -14.5188 -1.3614 -5.0741 0.0000 33.2025 0.0000
# 6 0.0000 0.0000 0.0000 5.5630 0.0000 17.8271
#
#
#
# Elastic Compliance Matrix: (Units=1/GPa)
#
#
# Indices 1 2 3 4 5 6 
#
# 1 0.017317 -0.021340 -0.003226 0.000000 0.006205 0.000000
# 2 -0.021340 0.134230 -0.014532 0.000000 -0.006049 0.000000
# 3 -0.003226 -0.014532 0.009750 0.000000 -0.000516 0.000000
# 4 0.000000 0.000000 0.000000 0.034685 0.000000 -0.010824
# 5 0.006205 -0.006049 -0.000516 0.000000 0.032504 0.000000
# 6 0.000000 0.000000 0.000000 -0.010824 0.000000 0.059472
#
#
# Mechanical properties :
#
#
# Convention : Reuss Voigt Hill
#
# Bulk Modulus (GPa) = 12.03346 58.79084 35.41215
# Shear Modulus (GPa) = 12.69499 27.37902 20.03701
#
# Velocity S-wave (km/s) = 2.62042 3.84825 3.29208
# Velocity P-wave (km/s) = 3.95780 7.17946 5.79693
#
# Compressibility (1/GPa) = 0.08310165
#
# Stress axis : x y z
#
# Youngs Moduli (GPa) = 57.74516 7.44990 102.55967
#
# Poissons Ratio (x) = 0.15898 0.33086
# Poissons Ratio (y) = 1.23227 1.49042
# Poissons Ratio (z) = 0.18629 0.10826
#
# Static dielectric constant tensor:
#      x y z
#    x 1.624810 0.000000 -0.000790 
#    y 0.000000 1.633540 0.000000 
#    z -0.000790 0.000000 1.634930 
# 
# From -- ./inp_files/66982.got.cif
#   From: 2010.05.17/outbox.cif.g08.bks.cpg/sg11_34_cif.got.tgz:66982.got - 2010.06.03 12:22:45.
