data_PCOD9157208
_publ_section_title
;
Structure prediction by ZEFSAII (Michael W. Deem and Ramdas Pophale) SiO2 
 PCOD9157208
Probable space group: P 21/M
;
_chemical_formula_sum "Si O2"
_cell_formula_units_Z 32
_cell_length_a 11.994293
_cell_length_b 13.168058
_cell_length_c 19.813395
_cell_angle_alpha 90.000000
_cell_angle_beta 155.885510
_cell_angle_gamma 90.000000
_cell_volume 1278.534673
_symmetry_space_group_name_H-M "P 21/M"
_symmetry_group_IT_number 11
_symmetry_cell_setting 'monoclinic'
loop_
_space_group_symop_operation_xyz
x,y,z
-x,1/2+y,-z
-x,-y,-z
x,1/2-y,z
loop_
_atom_site_type_symbol
_atom_site_label
_atom_site_fract_x
_atom_site_fract_y
_atom_site_fract_z
Si Si1 0.756239 0.950874 0.460256
Si Si2 0.388400 0.632851 0.372519
Si Si3 0.676917 0.372524 0.195886
Si Si4 0.630414 0.628918 0.255598
Si Si5 0.521804 0.871330 0.762762
Si Si6 0.123738 0.073176 0.257889
Si Si7 0.514978 0.128443 0.967211
Si Si8 0.035395 0.631906 0.973462
O O1 0.511847 0.897642 0.367286
O O2 0.818947 0.904830 0.420708
O O3 0.027406 0.922961 0.650180
O O4 0.665776 0.065128 0.392861
O O5 0.297013 0.750000 0.321914
O O6 0.638307 0.617016 0.563236
O O7 0.170557 0.547794 0.274701
O O8 0.715884 0.250000 0.213012
O O9 0.558574 0.392395 0.204532
O O10 0.480555 0.404838 0.025559
O O11 0.638894 0.750000 0.258459
O O12 0.656966 0.593826 0.193157
O O13 0.335002 0.593816 0.120277
O O14 0.495532 0.750000 0.736872
O O15 0.837119 0.902538 0.923351
O O16 0.138915 0.118633 0.191085
O O17 0.829395 0.106297 0.122161
O O18 0.477740 0.250000 0.947736
O O19 0.082677 0.750000 0.013252
#
# Coordination Sequence:
#
# PCOD9157208 Si02
#       8
#     4   4   4   4   4   4   4   4
#     4  12  21  36  56  87 118 147 185 242 293 335
#     4  11  21  31  49  81 115 144 179 228 290 340
#     4  10  20  36  61  86 113 147 195 242 277 330
#     4   9  19  33  57  87 114 145 184 236 293 340
#     4  10  22  38  55  82 113 155 197 234 281 340
#     4  10  18  32  51  78 108 144 182 226 277 335
#     4   9  17  34  58  84 110 148 193 231 273 336
#     4   9  17  34  55  79 111 147 187 225 272 341
#
# _framework density 25.028654
#
# number of rings (size 3 to 8) (size 9 to 14) (size 15 to 20)
#    0.000    2.000    2.500    3.375    0.000    0.500 
#    0.000    0.625    0.000    0.000    3.250    0.000 
#    0.000    0.000    0.000    0.000    0.000    0.000 
#
# Total GULP energy -179013.866159 kJ/mol
# GULP energy per Si atom -5594.183317 kJ/mol
# Density = 2.497169 g / cm^3
# Si number density = 25.028654 Si / 1000 Ang^3
#
#
#
# Elastic Constant Matrix: (Units=GPa)
#
#
# Indices 1 2 3 4 5 6 
#
# 1 78.2841 5.7010 13.6210 0.0000 -17.4854 0.0000
# 2 5.7010 111.6656 -4.3193 0.0000 -3.0485 0.0000
# 3 13.6210 -4.3193 51.8373 0.0000 -24.7933 0.0000
# 4 0.0000 0.0000 0.0000 35.4174 0.0000 -7.0042
# 5 -17.4854 -3.0485 -24.7933 0.0000 37.6038 0.0000
# 6 0.0000 0.0000 0.0000 -7.0042 0.0000 36.5434
#
#
#
# Elastic Compliance Matrix: (Units=1/GPa)
#
#
# Indices 1 2 3 4 5 6 
#
# 1 0.014320 -0.000605 -0.000952 0.000000 0.005982 0.000000
# 2 -0.000605 0.009093 0.001657 0.000000 0.001549 0.000000
# 3 -0.000952 0.001657 0.028528 0.000000 0.018501 0.000000
# 4 0.000000 0.000000 0.000000 0.029347 0.000000 0.005625
# 5 0.005982 0.001549 0.018501 0.000000 0.041698 0.000000
# 6 0.000000 0.000000 0.000000 0.005625 0.000000 0.028443
#
#
# Mechanical properties :
#
#
# Convention : Reuss Voigt Hill
#
# Bulk Modulus (GPa) = 19.17853 30.19916 24.68884
# Shear Modulus (GPa) = 29.65450 37.03189 33.34320
#
# Velocity S-wave (km/s) = 3.44586 3.85070 3.65389
# Velocity P-wave (km/s) = 4.84883 5.64470 5.26183
#
# Compressibility (1/GPa) = 0.05214165
#
# Stress axis : x y z
#
# Youngs Moduli (GPa) = 69.83356 109.98007 35.05292
#
# Poissons Ratio (x) = 0.06649 0.03337
# Poissons Ratio (y) = 0.04222 -0.05809
# Poissons Ratio (z) = 0.06649 -0.18226
#
# Static dielectric constant tensor:
#      x y z
#    x 1.951540 0.000000 -0.025510 
#    y 0.000000 2.021700 0.000000 
#    z -0.025510 0.000000 1.978720 
# 
# From -- ./inp_files/59519.got.cif
#   From: 2010.05.17/outbox.cif.g08.bks.cpg/sg11_30_cif.got.tgz:59519.got - 2010.06.03 12:22:45.
