data_PCOD9157477
_publ_section_title
;
Structure prediction by ZEFSAII (Michael W. Deem and Ramdas Pophale) SiO2 
 PCOD9157477
Probable space group: P 21/M
;
_chemical_formula_sum "Si O2"
_cell_formula_units_Z 24
_cell_length_a 16.218545
_cell_length_b 13.934799
_cell_length_c 9.679835
_cell_angle_alpha 90.000000
_cell_angle_beta 142.004858
_cell_angle_gamma 90.000000
_cell_volume 1346.714067
_symmetry_space_group_name_H-M "P 21/M"
_symmetry_group_IT_number 11
_symmetry_cell_setting 'monoclinic'
loop_
_space_group_symop_operation_xyz
x,y,z
-x,1/2+y,-z
-x,-y,-z
x,1/2-y,z
loop_
_atom_site_type_symbol
_atom_site_label
_atom_site_fract_x
_atom_site_fract_y
_atom_site_fract_z
Si Si1 0.537933 0.750000 0.724052
Si Si2 0.684037 0.565555 0.001529
Si Si3 0.452302 0.750000 0.315049
Si Si4 0.070892 0.560284 0.711939
Si Si5 0.425917 0.750000 0.882473
Si Si6 0.805182 0.866281 0.454726
Si Si7 0.199971 0.750000 0.778708
Si Si8 0.457514 0.409385 0.759397
O O1 0.629214 0.655053 0.843435
O O2 0.443268 0.750000 0.466326
O O3 0.460850 0.750000 0.768873
O O4 0.556750 0.499157 0.875761
O O5 0.795249 0.499074 0.072828
O O6 0.752996 0.609255 0.230637
O O7 0.527325 0.843967 0.356620
O O8 0.314399 0.750000 0.048093
O O9 0.116797 0.656250 0.696130
O O10 0.000000 0.500000 0.500000
O O11 0.955525 0.592224 0.666253
O O12 0.272002 0.750000 0.725925
O O13 0.488213 0.842377 0.042817
O O14 0.800673 0.750000 0.468489
O O15 0.698426 0.920321 0.411637
#
# Coordination Sequence:
#
# PCOD9157477 Si02
#       8
#     2   4   2   4   2   4   2   4
#     4  12  24  33  55  84 116 147 193 233 275 330
#     4  11  20  35  54  84 117 144 180 241 279 323
#     4  10  22  37  54  85 109 156 182 227 287 327
#     4  10  21  30  55  89 113 141 177 232 287 328
#     4  10  18  33  57  84 106 139 179 241 282 312
#     4  11  18  31  56  92 109 139 183 230 278 331
#     4  10  18  39  54  81 117 140 180 235 274 333
#     4  10  18  35  60  80 112 141 187 231 282 326
#
# _framework density 17.821155000000001
#
# number of rings (size 3 to 8) (size 9 to 14) (size 15 to 20)
#    0.000    1.667    8.333    0.500    0.000    0.667 
#    0.000    0.000    0.000    2.000   21.667    0.000 
#    0.000    0.000    0.000    0.000    0.000    0.000 
#
# Total GULP energy -133717.527460 kJ/mol
# GULP energy per Si atom -5571.563644 kJ/mol
# Density = 1.778059 g / cm^3
# Si number density = 17.821155 Si / 1000 Ang^3
#
#
#
# Elastic Constant Matrix: (Units=GPa)
#
#
# Indices 1 2 3 4 5 6 
#
# 1 101.1156 38.3003 45.5531 0.0000 28.8387 0.0000
# 2 38.3003 102.4084 33.2248 0.0000 20.9153 0.0000
# 3 45.5531 33.2248 38.8859 0.0000 9.4328 0.0000
# 4 0.0000 0.0000 0.0000 13.1820 0.0000 13.5856
# 5 28.8387 20.9153 9.4328 0.0000 44.5298 0.0000
# 6 0.0000 0.0000 0.0000 13.5856 0.0000 15.5829
#
#
#
# Elastic Compliance Matrix: (Units=1/GPa)
#
#
# Indices 1 2 3 4 5 6 
#
# 1 0.025163 0.002166 -0.028597 0.000000 -0.011256 0.000000
# 2 0.002166 0.014450 -0.013596 0.000000 -0.005310 0.000000
# 3 -0.028597 -0.013596 0.068301 0.000000 0.010438 0.000000
# 4 0.000000 0.000000 0.000000 0.747520 0.000000 -0.651706
# 5 -0.011256 -0.005310 0.010438 0.000000 0.030029 0.000000
# 6 0.000000 0.000000 0.000000 -0.651706 0.000000 0.632345
#
#
# Mechanical properties :
#
#
# Convention : Reuss Voigt Hill
#
# Bulk Modulus (GPa) = 35.89394 52.95182 44.42288
# Shear Modulus (GPa) = 3.11110 23.01440 13.06275
#
# Velocity S-wave (km/s) = 1.32270 3.59752 2.71032
# Velocity P-wave (km/s) = 4.74527 6.85810 5.89708
#
# Compressibility (1/GPa) = 0.02785986
#
# Stress axis : x y z
#
# Youngs Moduli (GPa) = 39.74163 69.20354 14.64111
#
# Poissons Ratio (x) = -0.14989 0.41869
# Poissons Ratio (y) = -0.08608 0.19906
# Poissons Ratio (z) = 1.13649 0.94087
#
# Static dielectric constant tensor:
#      x y z
#    x 1.659760 0.000000 0.058290 
#    y 0.000000 1.651730 0.000000 
#    z 0.058290 0.000000 1.601670 
# 
# From -- ./inp_files/22377.got.cif
#   From: 2010.05.17/outbox.cif.g08.bks.cpg/sg11_12_cif.got.tgz:22377.got - 2010.06.03 12:22:45.
