data_PCOD9157131
_publ_section_title
;
Structure prediction by ZEFSAII (Michael W. Deem and Ramdas Pophale) SiO2 
 PCOD9157131
Probable space group: P 21/M
;
_chemical_formula_sum "Si O2"
_cell_formula_units_Z 24
_cell_length_a 11.789809
_cell_length_b 10.384003
_cell_length_c 12.155556
_cell_angle_alpha 90.000000
_cell_angle_beta 120.064523
_cell_angle_gamma 90.000000
_cell_volume 1287.936049
_symmetry_space_group_name_H-M "P 21/M"
_symmetry_group_IT_number 11
_symmetry_cell_setting 'monoclinic'
loop_
_space_group_symop_operation_xyz
x,y,z
-x,1/2+y,-z
-x,-y,-z
x,1/2-y,z
loop_
_atom_site_type_symbol
_atom_site_label
_atom_site_fract_x
_atom_site_fract_y
_atom_site_fract_z
Si Si1 0.143637 0.100363 0.291580
Si Si2 0.932071 0.890933 0.120447
Si Si3 0.876837 0.595550 0.460840
Si Si4 0.295371 0.455750 0.825840
Si Si5 0.708375 0.898438 0.843389
Si Si6 0.590573 0.388062 0.938559
O O1 0.105475 0.250000 0.253582
O O2 0.163860 0.085237 0.431472
O O3 0.268918 0.076544 0.274267
O O4 0.030545 0.002762 0.200176
O O5 0.996263 0.750000 0.149253
O O6 0.816280 0.890001 0.154733
O O7 0.852880 0.911262 0.969024
O O8 0.902969 0.750000 0.452270
O O9 0.763691 0.545930 0.324149
O O10 0.000000 0.500000 0.500000
O O11 0.437322 0.390344 0.893240
O O12 0.327076 0.585145 0.910092
O O13 0.666587 0.750000 0.840198
O O14 0.620068 0.998037 0.867182
O O15 0.627654 0.250000 0.909521
#
# Coordination Sequence:
#
# PCOD9157131 Si02
#       6
#     4   4   4   4   4   4
#     4  10  21  35  53  79 111 148 185 223 271 334
#     4  10  18  31  54  78 108 145 180 226 279 327
#     4  11  22  37  57  81 115 151 184 223 277 338
#     4  10  21  36  56  84 116 145 180 233 290 328
#     4   9  20  37  53  77 113 148 183 227 283 326
#     4  10  21  37  61  85 108 145 194 237 274 329
#
# _framework density 18.634464000000001
#
# number of rings (size 3 to 8) (size 9 to 14) (size 15 to 20)
#    0.000    2.000    1.667    2.000    0.000    8.667 
#    0.000    0.833    0.000    0.000    0.000    0.000 
#    0.000    0.000    0.000    0.000    0.000    0.000 
#
# Total GULP energy -133718.235911 kJ/mol
# GULP energy per Si atom -5571.593163 kJ/mol
# Density = 1.859205 g / cm^3
# Si number density = 18.634464 Si / 1000 Ang^3
#
#
#
# Elastic Constant Matrix: (Units=GPa)
#
#
# Indices 1 2 3 4 5 6 
#
# 1 72.6685 55.0594 26.9020 0.0000 -21.4578 0.0000
# 2 55.0594 101.8962 28.6648 0.0000 -5.8170 0.0000
# 3 26.9020 28.6648 66.0248 0.0000 -17.7797 0.0000
# 4 0.0000 0.0000 0.0000 11.7274 0.0000 -5.6137
# 5 -21.4578 -5.8170 -17.7797 0.0000 31.8138 0.0000
# 6 0.0000 0.0000 0.0000 -5.6137 0.0000 -17.5783
#
#
#
# Elastic Compliance Matrix: (Units=1/GPa)
#
#
# Indices 1 2 3 4 5 6 
#
# 1 0.031075 -0.015440 -0.001264 0.000000 0.017430 0.000000
# 2 -0.015440 0.018868 -0.004445 0.000000 -0.009448 0.000000
# 3 -0.001264 -0.004445 0.020179 0.000000 0.009612 0.000000
# 4 0.000000 0.000000 0.000000 0.073964 0.000000 -0.023620
# 5 0.017430 -0.009448 0.009612 0.000000 0.046833 0.000000
# 6 0.000000 0.000000 0.000000 -0.023620 0.000000 -0.049345
#
#
# Mechanical properties :
#
#
# Convention : Reuss Voigt Hill
#
# Bulk Modulus (GPa) = 35.94178 51.31577 43.62878
# Shear Modulus (GPa) = 25.88704 13.85681 19.87192
#
# Velocity S-wave (km/s) = 3.73124 2.72988 3.26913
# Velocity P-wave (km/s) = 6.15569 6.12652 6.14112
#
# Compressibility (1/GPa) = 0.02782277
#
# Stress axis : x y z
#
# Youngs Moduli (GPa) = 32.18047 52.99954 49.55627
#
# Poissons Ratio (x) = 0.81834 0.06266
# Poissons Ratio (y) = 0.49688 0.22026
# Poissons Ratio (z) = 0.04069 0.23557
#
# Static dielectric constant tensor:
#      x y z
#    x 1.651010 0.000000 -0.040460 
#    y 0.000000 1.672520 0.000000 
#    z -0.040460 0.000000 1.658760 
# 
# From -- ./inp_files/34914.got.cif
#   From: 2010.05.17/outbox.cif.g08.bks.cpg/sg11_18_cif.got.tgz:34914.got - 2010.06.03 12:22:45.
