data_PCOD9157935
_publ_section_title
;
Structure prediction by ZEFSAII (Michael W. Deem and Ramdas Pophale) SiO2 
 PCOD9157935
Probable space group: P 21/M
;
_chemical_formula_sum "Si O2"
_cell_formula_units_Z 28
_cell_length_a 22.202458
_cell_length_b 7.546709
_cell_length_c 11.830507
_cell_angle_alpha 90.000000
_cell_angle_beta 129.993265
_cell_angle_gamma 90.000000
_cell_volume 1518.653921
_symmetry_space_group_name_H-M "P 21/M"
_symmetry_group_IT_number 11
_symmetry_cell_setting 'monoclinic'
loop_
_space_group_symop_operation_xyz
x,y,z
-x,1/2+y,-z
-x,-y,-z
x,1/2-y,z
loop_
_atom_site_type_symbol
_atom_site_label
_atom_site_fract_x
_atom_site_fract_y
_atom_site_fract_z
Si Si1 0.425764 0.037706 0.831320
Si Si2 0.758597 0.542282 0.018407
Si Si3 0.265635 0.467391 0.753695
Si Si4 0.069167 0.542025 0.740664
Si Si5 0.534827 0.534237 0.372385
Si Si6 0.903851 0.535927 0.492390
Si Si7 0.625747 0.542263 0.699554
O O1 0.417940 0.250000 0.814004
O O2 0.345261 0.971644 0.790708
O O3 0.441717 0.972606 0.723747
O O4 0.500000 0.000000 0.000000
O O5 0.739081 0.750000 0.002141
O O6 0.740726 0.471452 0.123191
O O7 0.851692 0.529857 0.107650
O O8 0.702169 0.465597 0.853881
O O9 0.265593 0.250000 0.755520
O O10 0.185397 0.521686 0.592443
O O11 0.068416 0.750000 0.763420
O O12 0.082760 0.512749 0.622884
O O13 0.980579 0.470479 0.653008
O O14 0.534007 0.750000 0.372812
O O15 0.594178 0.469982 0.542137
O O16 0.447800 0.475185 0.303765
O O17 0.905438 0.750000 0.500902
O O18 0.640829 0.750000 0.696412
#
# Coordination Sequence:
#
# PCOD9157935 Si02
#       7
#     4   4   4   4   4   4   4
#     4  10  19  30  44  62  85 110 137 170 204 241
#     4   9  16  26  40  57  79 108 138 163 195 247
#     4   8  14  25  40  56  76 106 137 160 190 237
#     4   9  15  22  36  58  81 102 128 167 206 236
#     4   9  18  30  44  64  85 105 137 179 211 237
#     4   8  14  25  38  53  77 108 137 160 192 245
#     4   9  17  30  46  61  81 111 141 169 207 251
#
# _framework density 18.437380000000001
#
# number of rings (size 3 to 8) (size 9 to 14) (size 15 to 20)
#    0.000    3.143    0.000    2.143    0.000    2.857 
#    0.000    4.286    0.000    0.000    0.000    1.000 
#    0.000    0.000    0.000    0.000    0.000    0.000 
#
# Total GULP energy -155878.413807 kJ/mol
# GULP energy per Si atom -5567.086207 kJ/mol
# Density = 1.839542 g / cm^3
# Si number density = 18.437380 Si / 1000 Ang^3
#
#
#
# Elastic Constant Matrix: (Units=GPa)
#
#
# Indices 1 2 3 4 5 6 
#
# 1 98.0654 -5.4669 76.0584 0.0000 25.0778 0.0000
# 2 -5.4669 38.8596 -1.9862 0.0000 -5.2522 0.0000
# 3 76.0584 -1.9862 163.0503 0.0000 36.9940 0.0000
# 4 0.0000 0.0000 0.0000 11.1408 0.0000 5.0909
# 5 25.0778 -5.2522 36.9940 0.0000 31.8339 0.0000
# 6 0.0000 0.0000 0.0000 5.0909 0.0000 11.6094
#
#
#
# Elastic Compliance Matrix: (Units=1/GPa)
#
#
# Indices 1 2 3 4 5 6 
#
# 1 0.016737 0.001299 -0.006585 0.000000 -0.005318 0.000000
# 2 0.001299 0.026520 -0.001417 0.000000 0.004999 0.000000
# 3 -0.006585 -0.001417 0.010951 0.000000 -0.007773 0.000000
# 4 0.000000 0.000000 0.000000 0.112254 0.000000 -0.049226
# 5 -0.005318 0.004999 -0.007773 0.000000 0.045460 0.000000
# 6 0.000000 0.000000 0.000000 -0.049226 0.000000 0.107723
#
#
# Mechanical properties :
#
#
# Convention : Reuss Voigt Hill
#
# Bulk Modulus (GPa) = 24.50867 48.57621 36.54244
# Shear Modulus (GPa) = 14.42373 26.34149 20.38261
#
# Velocity S-wave (km/s) = 2.80001 3.78392 3.32852
# Velocity P-wave (km/s) = 4.87598 6.74496 5.88514
#
# Compressibility (1/GPa) = 0.04080189
#
# Stress axis : x y z
#
# Youngs Moduli (GPa) = 59.74854 37.70795 91.31668
#
# Poissons Ratio (x) = -0.04899 0.60130
# Poissons Ratio (y) = -0.07763 0.12941
# Poissons Ratio (z) = 0.39343 0.05344
#
# Static dielectric constant tensor:
#      x y z
#    x 1.624760 0.000000 0.036420 
#    y 0.000000 1.718500 0.000000 
#    z 0.036420 0.000000 1.674390 
# 
# From -- ./inp_files/42333.got.cif
#   From: 2010.05.17/outbox.cif.g08.bks.cpg/sg11_22_cif.got.tgz:42333.got - 2010.06.03 12:22:45.
