data_PCOD9157001
_publ_section_title
;
Structure prediction by ZEFSAII (Michael W. Deem and Ramdas Pophale) SiO2 
 PCOD9157001
Probable space group: P 21/M
;
_chemical_formula_sum "Si O2"
_cell_formula_units_Z 32
_cell_length_a 23.417866
_cell_length_b 13.671781
_cell_length_c 10.372525
_cell_angle_alpha 90.000000
_cell_angle_beta 146.070823
_cell_angle_gamma 90.000000
_cell_volume 1853.623843
_symmetry_space_group_name_H-M "P 21/M"
_symmetry_group_IT_number 11
_symmetry_cell_setting 'monoclinic'
loop_
_space_group_symop_operation_xyz
x,y,z
-x,1/2+y,-z
-x,-y,-z
x,1/2-y,z
loop_
_atom_site_type_symbol
_atom_site_label
_atom_site_fract_x
_atom_site_fract_y
_atom_site_fract_z
Si Si1 0.424075 0.367219 0.749247
Si Si2 0.208165 0.641299 0.642244
Si Si3 0.285527 0.134573 0.967967
Si Si4 0.741037 0.862688 0.788793
Si Si5 0.079585 0.009571 0.974195
Si Si6 0.084932 0.008381 0.549217
Si Si7 0.385900 0.011634 0.936441
Si Si8 0.944953 0.143276 0.883803
O O1 0.449853 0.250000 0.809878
O O2 0.336615 0.373897 0.475794
O O3 0.389968 0.414254 0.822405
O O4 0.515784 0.440120 0.878283
O O5 0.248109 0.750000 0.745627
O O6 0.148380 0.592263 0.649556
O O7 0.292276 0.564391 0.754126
O O8 0.127670 0.649451 0.375678
O O9 0.287714 0.250000 0.942816
O O10 0.170921 0.091043 0.730529
O O11 0.362893 0.075442 0.021019
O O12 0.308184 0.121742 0.162662
O O13 0.779469 0.750000 0.859369
O O14 0.834398 0.937276 0.946667
O O15 0.043170 0.084530 0.017175
O O16 0.981489 0.980153 0.705300
O O17 0.113277 0.913992 0.113436
O O18 0.000000 0.000000 0.500000
O O19 0.975426 0.250000 0.984848
#
# Coordination Sequence:
#
# PCOD9157001 Si02
#       8
#     4   4   4   4   4   4   4   4
#     4  10  21  36  57  83 106 134 176 222 268 320
#     4   9  18  32  51  72 100 135 169 207 257 315
#     4  10  21  36  55  79 108 141 177 220 266 315
#     4  10  20  34  54  78 105 140 177 216 263 316
#     4  10  18  31  51  70 104 137 171 215 257 310
#     4  10  19  32  49  75 102 136 177 213 253 304
#     4  10  20  36  57  80 106 135 173 221 270 313
#     4   9  18  30  46  72  99 132 170 209 258 310
#
# _framework density 17.263480999999999
#
# number of rings (size 3 to 8) (size 9 to 14) (size 15 to 20)
#    0.000    2.250    1.250    1.875    0.000    3.000 
#    0.000    0.000    0.000    0.750    0.000    0.000 
#    0.000    0.000    0.000    0.000    0.000    0.000 
#
# Total GULP energy -178174.314159 kJ/mol
# GULP energy per Si atom -5567.947317 kJ/mol
# Density = 1.722419 g / cm^3
# Si number density = 17.263481 Si / 1000 Ang^3
#
#
#
# Elastic Constant Matrix: (Units=GPa)
#
#
# Indices 1 2 3 4 5 6 
#
# 1 100.5074 48.9679 12.5858 0.0000 -5.2780 0.0000
# 2 48.9679 120.0590 23.7701 0.0000 -9.4031 0.0000
# 3 12.5858 23.7701 40.0404 0.0000 -6.5777 0.0000
# 4 0.0000 0.0000 0.0000 20.6837 0.0000 -2.4602
# 5 -5.2780 -9.4031 -6.5777 0.0000 19.6710 0.0000
# 6 0.0000 0.0000 0.0000 -2.4602 0.0000 24.6116
#
#
#
# Elastic Compliance Matrix: (Units=1/GPa)
#
#
# Indices 1 2 3 4 5 6 
#
# 1 0.012463 -0.004844 -0.000924 0.000000 0.000720 0.000000
# 2 -0.004844 0.011468 -0.004866 0.000000 0.002555 0.000000
# 3 -0.000924 -0.004866 0.029343 0.000000 0.007238 0.000000
# 4 0.000000 0.000000 0.000000 0.048929 0.000000 0.004891
# 5 0.000720 0.002555 0.007238 0.000000 0.054671 0.000000
# 6 0.000000 0.000000 0.000000 0.004891 0.000000 0.041120
#
#
# Mechanical properties :
#
#
# Convention : Reuss Voigt Hill
#
# Bulk Modulus (GPa) = 31.24289 47.91714 39.58001
# Shear Modulus (GPa) = 21.74569 24.67879 23.21224
#
# Velocity S-wave (km/s) = 3.55298 3.78502 3.67084
# Velocity P-wave (km/s) = 5.91342 6.84971 6.39871
#
# Compressibility (1/GPa) = 0.03200728
#
# Stress axis : x y z
#
# Youngs Moduli (GPa) = 80.23757 87.19567 34.07993
#
# Poissons Ratio (x) = 0.42238 0.03148
# Poissons Ratio (y) = 0.38867 0.16583
# Poissons Ratio (z) = 0.07410 0.42429
#
# Static dielectric constant tensor:
#      x y z
#    x 1.599320 0.000000 -0.005240 
#    y 0.000000 1.602490 0.000000 
#    z -0.005240 0.000000 1.580940 
# 
# From -- ./inp_files/26856.got.cif
#   From: 2010.05.17/outbox.cif.g08.bks.cpg/sg11_14_cif.got.tgz:26856.got - 2010.06.03 12:22:45.
