data_PCOD9157940
_publ_section_title
;
Structure prediction by ZEFSAII (Michael W. Deem and Ramdas Pophale) SiO2 
 PCOD9157940
Probable space group: P 21/M
;
_chemical_formula_sum "Si O2"
_cell_formula_units_Z 32
_cell_length_a 6.752073
_cell_length_b 7.476049
_cell_length_c 23.911484
_cell_angle_alpha 90.000000
_cell_angle_beta 109.382615
_cell_angle_gamma 90.000000
_cell_volume 1138.613704
_symmetry_space_group_name_H-M "P 21/M"
_symmetry_group_IT_number 11
_symmetry_cell_setting 'monoclinic'
loop_
_space_group_symop_operation_xyz
x,y,z
-x,1/2+y,-z
-x,-y,-z
x,1/2-y,z
loop_
_atom_site_type_symbol
_atom_site_label
_atom_site_fract_x
_atom_site_fract_y
_atom_site_fract_z
Si Si1 0.167665 0.548011 0.269715
Si Si2 0.296821 0.459115 0.644146
Si Si3 0.557205 0.533651 0.892113
Si Si4 0.033032 0.959347 0.140329
Si Si5 0.212017 0.035290 0.983044
Si Si6 0.186179 0.529451 0.390600
Si Si7 0.750325 0.461142 0.483543
Si Si8 0.293732 0.540291 0.761741
O O1 0.251650 0.750000 0.269520
O O2 0.258614 0.468190 0.335668
O O3 0.922757 0.561544 0.264931
O O4 0.125737 0.457977 0.205898
O O5 0.286556 0.250000 0.651921
O O6 0.057074 0.532604 0.624559
O O7 0.353676 0.475950 0.583891
O O8 0.410373 0.525620 0.712324
O O9 0.550291 0.750000 0.893260
O O10 0.770948 0.474734 0.882007
O O11 0.598536 0.467341 0.959444
O O12 0.392094 0.474512 0.829347
O O13 0.988983 0.750000 0.147595
O O14 0.840584 0.035106 0.084776
O O15 0.226869 0.250000 0.979853
O O16 0.000000 0.000000 0.000000
O O17 0.190642 0.750000 0.389838
O O18 0.298170 0.468474 0.458353
O O19 0.725972 0.250000 0.482905
O O20 0.000000 0.500000 0.500000
O O21 0.253990 0.750000 0.765430
#
# Coordination Sequence:
#
# PCOD9157940 Si02
#       8
#     4   4   4   4   4   4   4   4
#     4   9  17  30  45  65  93 121 147 182 223 265
#     4   9  16  26  39  57  83 114 144 183 228 266
#     4   9  18  31  47  66  91 118 148 187 227 264
#     4   9  17  29  49  71  89 114 151 186 221 266
#     4   8  14  27  45  65  87 113 145 184 223 260
#     4   7  12  22  36  54  80 111 140 171 213 256
#     4   9  14  21  35  56  81 112 148 183 218 262
#     4  10  19  30  44  64  89 121 153 182 222 273
#
# _framework density 28.104354000000001
#
# number of rings (size 3 to 8) (size 9 to 14) (size 15 to 20)
#    0.000    3.250    0.000    2.625    0.000    1.500 
#    0.000    1.250    0.000    0.000    0.000    0.875 
#    0.000    0.000    0.000    0.000    0.000    0.000 
#
# Total GULP energy -178600.191925 kJ/mol
# GULP energy per Si atom -5581.255998 kJ/mol
# Density = 2.804039 g / cm^3
# Si number density = 28.104354 Si / 1000 Ang^3
#
#
#
# Elastic Constant Matrix: (Units=GPa)
#
#
# Indices 1 2 3 4 5 6 
#
# 1 54.2992 2.7542 60.2560 0.0000 3.1333 0.0000
# 2 2.7542 121.1489 7.7663 0.0000 2.6824 0.0000
# 3 60.2560 7.7663 379.1150 0.0000 -2.3051 0.0000
# 4 0.0000 0.0000 0.0000 16.7063 0.0000 -7.1447
# 5 3.1333 2.6824 -2.3051 0.0000 78.6998 0.0000
# 6 0.0000 0.0000 0.0000 -7.1447 0.0000 17.3535
#
#
#
# Elastic Compliance Matrix: (Units=1/GPa)
#
#
# Indices 1 2 3 4 5 6 
#
# 1 0.022447 -0.000260 -0.003568 0.000000 -0.000989 0.000000
# 2 -0.000260 0.008275 -0.000130 0.000000 -0.000276 0.000000
# 3 -0.003568 -0.000130 0.003209 0.000000 0.000240 0.000000
# 4 0.000000 0.000000 0.000000 0.072650 0.000000 0.029911
# 5 -0.000989 -0.000276 0.000240 0.000000 0.012762 0.000000
# 6 0.000000 0.000000 0.000000 0.029911 0.000000 0.069940
#
#
# Mechanical properties :
#
#
# Convention : Reuss Voigt Hill
#
# Bulk Modulus (GPa) = 38.44025 77.34624 57.89324
# Shear Modulus (GPa) = 24.28722 54.80434 39.54578
#
# Velocity S-wave (km/s) = 2.94288 4.42071 3.75521
# Velocity P-wave (km/s) = 5.02541 7.32378 6.28062
#
# Compressibility (1/GPa) = 0.02601440
#
# Stress axis : x y z
#
# Youngs Moduli (GPa) = 44.55031 120.85124 311.62459
#
# Poissons Ratio (x) = 0.03138 1.11198
# Poissons Ratio (y) = 0.01157 0.04048
# Poissons Ratio (z) = 0.15897 0.01570
#
# Static dielectric constant tensor:
#      x y z
#    x 2.274880 0.000000 0.006840 
#    y 0.000000 1.975710 0.000000 
#    z 0.006840 0.000000 2.358680 
# 
# From -- ./inp_files/68253.got.cif
#   From: 2010.05.17/outbox.cif.g08.bks.cpg/sg11_35_cif.got.tgz:68253.got - 2010.06.03 12:22:45.
