data_PCOD9157863
_publ_section_title
;
Structure prediction by ZEFSAII (Michael W. Deem and Ramdas Pophale) SiO2 
 PCOD9157863
Probable space group: P 21/M
;
_chemical_formula_sum "Si O2"
_cell_formula_units_Z 32
_cell_length_a 22.555715
_cell_length_b 17.878594
_cell_length_c 25.435854
_cell_angle_alpha 90.000000
_cell_angle_beta 10.757968
_cell_angle_gamma 90.000000
_cell_volume 1914.648627
_symmetry_space_group_name_H-M "P 21/M"
_symmetry_group_IT_number 11
_symmetry_cell_setting 'monoclinic'
loop_
_space_group_symop_operation_xyz
x,y,z
-x,1/2+y,-z
-x,-y,-z
x,1/2-y,z
loop_
_atom_site_type_symbol
_atom_site_label
_atom_site_fract_x
_atom_site_fract_y
_atom_site_fract_z
Si Si1 0.491067 0.997712 0.834986
Si Si2 0.886823 0.076494 0.914725
Si Si3 0.611793 0.833598 0.586579
Si Si4 0.799926 0.540739 0.802732
Si Si5 0.348597 0.076559 0.612946
Si Si6 0.408980 0.878592 0.059765
Si Si7 0.304389 0.166604 0.299630
Si Si8 0.146728 0.665889 0.890668
O O1 0.563793 0.909756 0.787460
O O2 0.258196 0.994642 0.988006
O O3 0.821718 0.036939 0.532742
O O4 0.325813 0.037186 0.028357
O O5 0.089483 0.121015 0.694749
O O6 0.115027 0.064078 0.766156
O O7 0.588607 0.124695 0.194747
O O8 0.700451 0.750000 0.525571
O O9 0.374466 0.829228 0.743516
O O10 0.639138 0.606136 0.908558
O O11 0.684839 0.461523 0.878731
O O12 0.631906 0.130149 0.346559
O O13 0.500000 0.000000 0.500000
O O14 0.143327 0.114792 0.837751
O O15 0.579738 0.839943 0.861668
O O16 0.077314 0.840100 0.363731
O O17 0.399326 0.250000 0.237069
O O18 0.045163 0.750000 0.965961
#
# Coordination Sequence:
#
# PCOD9157863 Si02
#       8
#     4   4   4   4   4   4   4   4
#     4  10  19  30  43  63  89 119 151 185 219 262
#     4  10  19  30  43  63  92 123 154 189 225 268
#     4   9  17  28  42  59  83 121 159 183 209 254
#     4   9  17  30  47  62  80 110 150 186 215 245
#     4  10  19  31  48  70  98 128 159 203 250 282
#     4   9  17  30  46  62  83 113 145 180 214 248
#     4  10  19  29  42  64  93 118 142 173 215 265
#     4   9  17  30  47  67  92 122 158 195 232 284
#
# _framework density 16.713249999999999
#
# number of rings (size 3 to 8) (size 9 to 14) (size 15 to 20)
#    0.000    2.500    0.000    3.000    0.000    7.000 
#    0.000    0.000    0.000    0.000    0.000    0.000 
#    0.000   20.000    0.000    0.000    0.000    0.000 
#
# Total GULP energy -178341.225949 kJ/mol
# GULP energy per Si atom -5573.163311 kJ/mol
# Density = 1.667521 g / cm^3
# Si number density = 16.713250 Si / 1000 Ang^3
#
#
#
# Elastic Constant Matrix: (Units=GPa)
#
#
# Indices 1 2 3 4 5 6 
#
# 1 39.9247 -1.7676 23.5491 0.0000 5.8554 0.0000
# 2 -1.7676 35.5383 29.8885 0.0000 -13.1703 0.0000
# 3 23.5491 29.8885 142.0876 0.0000 12.2782 0.0000
# 4 0.0000 0.0000 0.0000 37.5843 0.0000 -3.0023
# 5 5.8554 -13.1703 12.2782 0.0000 24.2039 0.0000
# 6 0.0000 0.0000 0.0000 -3.0023 0.0000 17.5589
#
#
#
# Elastic Compliance Matrix: (Units=1/GPa)
#
#
# Indices 1 2 3 4 5 6 
#
# 1 0.029007 0.006451 -0.006130 0.000000 -0.000397 0.000000
# 2 0.006451 0.055406 -0.015891 0.000000 0.036649 0.000000
# 3 -0.006130 -0.015891 0.012567 0.000000 -0.013539 0.000000
# 4 0.000000 0.000000 0.000000 0.026975 0.000000 0.004612
# 5 -0.000397 0.036649 -0.013539 0.000000 0.068222 0.000000
# 6 0.000000 0.000000 0.000000 0.004612 0.000000 0.057740
#
#
# Mechanical properties :
#
#
# Convention : Reuss Voigt Hill
#
# Bulk Modulus (GPa) = 15.18848 35.65453 25.42150
# Shear Modulus (GPa) = 16.50146 26.92812 21.71479
#
# Velocity S-wave (km/s) = 3.14559 4.01831 3.60843
# Velocity P-wave (km/s) = 4.72233 6.55046 5.71003
#
# Compressibility (1/GPa) = 0.06583939
#
# Stress axis : x y z
#
# Youngs Moduli (GPa) = 34.47465 18.04852 79.57648
#
# Poissons Ratio (x) = -0.11643 0.48782
# Poissons Ratio (y) = -0.22240 1.26455
# Poissons Ratio (z) = 0.21134 0.28681
#
# Static dielectric constant tensor:
#      x y z
#    x 1.563050 0.000000 -0.003210 
#    y 0.000000 1.562660 0.000000 
#    z -0.003210 0.000000 1.560350 
# 
# From -- ./inp_files/67701.got.cif
#   From: 2010.05.17/outbox.cif.g08.bks.cpg/sg11_34_cif.got.tgz:67701.got - 2010.06.03 12:22:45.
