data_PCOD9157212
_publ_section_title
;
Structure prediction by ZEFSAII (Michael W. Deem and Ramdas Pophale) SiO2 
 PCOD9157212
Probable space group: P 21/M
;
_chemical_formula_sum "Si O2"
_cell_formula_units_Z 32
_cell_length_a 22.322700
_cell_length_b 8.770393
_cell_length_c 18.271037
_cell_angle_alpha 90.000000
_cell_angle_beta 35.153732
_cell_angle_gamma 90.000000
_cell_volume 2059.584959
_symmetry_space_group_name_H-M "P 21/M"
_symmetry_group_IT_number 11
_symmetry_cell_setting 'monoclinic'
loop_
_space_group_symop_operation_xyz
x,y,z
-x,1/2+y,-z
-x,-y,-z
x,1/2-y,z
loop_
_atom_site_type_symbol
_atom_site_label
_atom_site_fract_x
_atom_site_fract_y
_atom_site_fract_z
Si Si1 0.998726 0.932625 0.918780
Si Si2 0.624763 0.429423 0.566340
Si Si3 0.616718 0.933359 0.886742
Si Si4 0.626044 0.426627 0.028182
Si Si5 0.377795 0.430923 0.813544
Si Si6 0.787186 0.931141 0.295065
Si Si7 0.372886 0.426456 0.283795
Si Si8 0.215898 0.931640 0.864665
O O1 0.998428 0.750000 0.920494
O O2 0.106446 0.995761 0.779147
O O3 0.000000 0.000000 0.000000
O O4 0.890459 0.996600 0.996254
O O5 0.640334 0.250000 0.537897
O O6 0.501374 0.462515 0.682525
O O7 0.691881 0.524459 0.442024
O O8 0.656762 0.472775 0.617242
O O9 0.611355 0.750000 0.896324
O O10 0.665527 0.973065 0.758809
O O11 0.500000 0.000000 0.000000
O O12 0.663758 0.000295 0.914300
O O13 0.656541 0.250000 0.002609
O O14 0.655673 0.516443 0.071797
O O15 0.499293 0.431473 0.153371
O O16 0.362589 0.250000 0.820401
O O17 0.311677 0.519799 0.819449
O O18 0.799474 0.750000 0.276438
O O19 0.770694 0.000760 0.230466
O O20 0.344033 0.250000 0.325916
O O21 0.205529 0.750000 0.870154
#
# Coordination Sequence:
#
# PCOD9157212 Si02
#       8
#     4   4   4   4   4   4   4   4
#     4  10  18  32  52  72  92 112 143 186 232 274
#     4  10  20  32  46  65  91 123 157 191 228 271
#     4   9  15  23  37  57  81 111 148 186 223 265
#     4   9  16  26  40  59  84 115 150 186 225 267
#     4  10  20  33  47  65  92 125 158 190 228 272
#     4  11  21  34  51  69  91 119 152 189 231 274
#     4   8  15  26  39  57  83 115 149 184 223 266
#     4  11  21  34  51  70  92 118 152 190 230 273
#
# _framework density 15.537110999999999
#
# number of rings (size 3 to 8) (size 9 to 14) (size 15 to 20)
#    0.000    2.250    0.000    7.125    0.000    5.500 
#    0.000    0.000    0.000    0.000    0.000    0.000 
#    0.000    1.000    0.000    3.750    0.000    6.750 
#
# Total GULP energy -178295.456968 kJ/mol
# GULP energy per Si atom -5571.733030 kJ/mol
# Density = 1.550175 g / cm^3
# Si number density = 15.537111 Si / 1000 Ang^3
#
#
#
# Elastic Constant Matrix: (Units=GPa)
#
#
# Indices 1 2 3 4 5 6 
#
# 1 45.5334 42.2969 48.9351 0.0000 11.3086 0.0000
# 2 42.2969 121.1756 43.4800 0.0000 2.7192 0.0000
# 3 48.9351 43.4800 46.1924 0.0000 8.6924 0.0000
# 4 0.0000 0.0000 0.0000 24.6867 0.0000 4.0817
# 5 11.3086 2.7192 8.6924 0.0000 15.5280 0.0000
# 6 0.0000 0.0000 0.0000 4.0817 0.0000 24.6437
#
#
#
# Elastic Compliance Matrix: (Units=1/GPa)
#
#
# Indices 1 2 3 4 5 6 
#
# 1 -0.148470 -0.005587 0.158734 0.000000 0.020246 0.000000
# 2 -0.005587 0.012594 -0.007026 0.000000 0.005797 0.000000
# 3 0.158734 -0.007026 -0.132313 0.000000 -0.040303 0.000000
# 4 0.000000 0.000000 0.000000 0.041648 0.000000 -0.006898
# 5 0.020246 0.005797 -0.040303 0.000000 0.071201 0.000000
# 6 0.000000 0.000000 0.000000 -0.006898 0.000000 0.041721
#
#
# Mechanical properties :
#
#
# Convention : Reuss Voigt Hill
#
# Bulk Modulus (GPa) = 41.57450 53.59171 47.58310
# Shear Modulus (GPa) = -12.56777 18.18430 2.80827
#
# Velocity S-wave (km/s) = -2.84718 3.42479 1.34588
# Velocity P-wave (km/s) = 4.00096 7.08566 5.75388
#
# Compressibility (1/GPa) = 0.02405321
#
# Stress axis : x y z
#
# Youngs Moduli (GPa) = -6.73537 79.40449 -7.55784
#
# Poissons Ratio (x) = 0.44363 1.19969
# Poissons Ratio (y) = -0.03763 -0.05310
# Poissons Ratio (z) = 1.06914 0.55792
#
# Static dielectric constant tensor:
#      x y z
#    x 1.535540 0.000000 0.007240 
#    y 0.000000 1.518960 0.000000 
#    z 0.007240 0.000000 1.528100 
# 
# From -- ./inp_files/54273.got.cif
#   From: 2010.05.17/outbox.cif.g08.bks.cpg/sg11_28_cif.got.tgz:54273.got - 2010.06.03 12:22:45.
