data_PCOD9157788
_publ_section_title
;
Structure prediction by ZEFSAII (Michael W. Deem and Ramdas Pophale) SiO2 
 PCOD9157788
Probable space group: P 21/M
;
_chemical_formula_sum "Si O2"
_cell_formula_units_Z 32
_cell_length_a 8.302305
_cell_length_b 14.853746
_cell_length_c 12.915659
_cell_angle_alpha 90.000000
_cell_angle_beta 85.295532
_cell_angle_gamma 90.000000
_cell_volume 1587.397297
_symmetry_space_group_name_H-M "P 21/M"
_symmetry_group_IT_number 11
_symmetry_cell_setting 'monoclinic'
loop_
_space_group_symop_operation_xyz
x,y,z
-x,1/2+y,-z
-x,-y,-z
x,1/2-y,z
loop_
_atom_site_type_symbol
_atom_site_label
_atom_site_fract_x
_atom_site_fract_y
_atom_site_fract_z
Si Si1 0.014868 0.349562 0.961109
Si Si2 0.690985 0.650766 0.511780
Si Si3 0.670372 0.089262 0.048689
Si Si4 0.970696 0.557605 0.400176
Si Si5 0.808678 0.961340 0.205455
Si Si6 0.308783 0.089154 0.088584
Si Si7 0.705712 0.506683 0.693117
Si Si8 0.538468 0.850208 0.298093
O O1 0.031773 0.250000 0.914334
O O2 0.159110 0.364058 0.037575
O O3 0.833827 0.356120 0.016185
O O4 0.046207 0.429413 0.876688
O O5 0.674538 0.750000 0.559851
O O6 0.672644 0.570763 0.595480
O O7 0.571084 0.644133 0.420012
O O8 0.867084 0.640829 0.447450
O O9 0.489799 0.130633 0.063397
O O10 0.708057 0.038088 0.154272
O O11 0.671512 0.009676 0.963584
O O12 0.144401 0.559810 0.338722
O O13 0.000000 0.500000 0.500000
O O14 0.863089 0.510980 0.316906
O O15 0.703335 0.871295 0.228332
O O16 0.269147 0.072109 0.210690
O O17 0.567135 0.435806 0.724457
O O18 0.478319 0.750000 0.276910
#
# Coordination Sequence:
#
# PCOD9157788 Si02
#       8
#     4   4   4   4   4   4   4   4
#     4  11  23  37  57  87 122 160 201 250 303 363
#     4   9  20  36  54  78 113 156 195 236 292 360
#     4  10  20  38  60  84 114 159 204 245 301 364
#     4   9  19  33  57  85 112 144 193 243 301 358
#     4  10  18  38  59  78 113 152 192 242 302 367
#     4  10  21  37  60  86 117 156 204 251 300 357
#     4  11  19  35  57  87 111 153 193 243 304 359
#     4  10  20  34  55  83 113 145 188 245 304 362
#
# _framework density 20.158784000000001
#
# number of rings (size 3 to 8) (size 9 to 14) (size 15 to 20)
#    0.000    2.000    1.250    3.750    0.000    2.000 
#    0.000    1.875    0.000    0.000    0.000    0.000 
#    0.000    0.000    0.000    0.000    0.000    0.000 
#
# Total GULP energy -178194.594473 kJ/mol
# GULP energy per Si atom -5568.581077 kJ/mol
# Density = 2.011290 g / cm^3
# Si number density = 20.158784 Si / 1000 Ang^3
#
#
#
# Elastic Constant Matrix: (Units=GPa)
#
#
# Indices 1 2 3 4 5 6 
#
# 1 94.7385 12.6134 13.7661 0.0000 -9.6002 0.0000
# 2 12.6134 41.8252 -4.0935 0.0000 7.0639 0.0000
# 3 13.7661 -4.0935 71.7344 0.0000 7.2891 0.0000
# 4 0.0000 0.0000 0.0000 13.9293 0.0000 -8.1638
# 5 -9.6002 7.0639 7.2891 0.0000 27.0673 0.0000
# 6 0.0000 0.0000 0.0000 -8.1638 0.0000 13.0755
#
#
#
# Elastic Compliance Matrix: (Units=1/GPa)
#
#
# Indices 1 2 3 4 5 6 
#
# 1 0.012410 -0.005196 -0.003355 0.000000 0.006661 0.000000
# 2 -0.005196 0.027513 0.003582 0.000000 -0.009988 0.000000
# 3 -0.003355 0.003582 0.015427 0.000000 -0.006279 0.000000
# 4 0.000000 0.000000 0.000000 0.113223 0.000000 0.070692
# 5 0.006661 -0.009988 -0.006279 0.000000 0.043605 0.000000
# 6 0.000000 0.000000 0.000000 0.070692 0.000000 0.120616
#
#
# Mechanical properties :
#
#
# Convention : Reuss Voigt Hill
#
# Bulk Modulus (GPa) = 22.02038 28.09670 25.05854
# Shear Modulus (GPa) = 13.97165 23.21523 18.59344
#
# Velocity S-wave (km/s) = 2.63550 3.39723 3.04032
# Velocity P-wave (km/s) = 4.49537 5.41814 4.97818
#
# Compressibility (1/GPa) = 0.04541247
#
# Stress axis : x y z
#
# Youngs Moduli (GPa) = 80.58314 36.34606 64.82344
#
# Poissons Ratio (x) = 0.18884 0.21747
# Poissons Ratio (y) = 0.41868 -0.23220
# Poissons Ratio (z) = 0.27034 -0.13019
#
# Static dielectric constant tensor:
#      x y z
#    x 1.820440 0.000000 0.003650 
#    y 0.000000 1.688260 0.000000 
#    z 0.003650 0.000000 1.709510 
# 
# From -- ./inp_files/22190.got.cif
#   From: 2010.05.17/outbox.cif.g08.bks.cpg/sg11_12_cif.got.tgz:22190.got - 2010.06.03 12:22:45.
