data_PCOD9157886
_publ_section_title
;
Structure prediction by ZEFSAII (Michael W. Deem and Ramdas Pophale) SiO2 
 PCOD9157886
Probable space group: P 21/M
;
_chemical_formula_sum "Si O2"
_cell_formula_units_Z 32
_cell_length_a 19.034920
_cell_length_b 7.708625
_cell_length_c 10.673912
_cell_angle_alpha 90.000000
_cell_angle_beta 51.895390
_cell_angle_gamma 90.000000
_cell_volume 1232.432282
_symmetry_space_group_name_H-M "P 21/M"
_symmetry_group_IT_number 11
_symmetry_cell_setting 'monoclinic'
loop_
_space_group_symop_operation_xyz
x,y,z
-x,1/2+y,-z
-x,-y,-z
x,1/2-y,z
loop_
_atom_site_type_symbol
_atom_site_label
_atom_site_fract_x
_atom_site_fract_y
_atom_site_fract_z
Si Si1 0.749250 0.045144 0.050938
Si Si2 0.384487 0.535686 0.376402
Si Si3 0.883529 0.457024 0.117345
Si Si4 0.397488 0.541811 0.632136
Si Si5 0.440425 0.456081 0.942319
Si Si6 0.731749 0.451285 0.723389
Si Si7 0.894217 0.944027 0.695096
Si Si8 0.027905 0.549419 0.748391
O O1 0.752456 0.250000 0.011361
O O2 0.792434 0.030419 0.141804
O O3 0.650908 0.974459 0.189250
O O4 0.815938 0.948780 0.885920
O O5 0.386109 0.750000 0.371105
O O6 0.357482 0.481145 0.543887
O O7 0.486761 0.478055 0.238254
O O8 0.317298 0.469843 0.343299
O O9 0.902575 0.250000 0.099984
O O10 0.891610 0.521674 0.252487
O O11 0.952774 0.540980 0.941991
O O12 0.500000 0.500000 0.500000
O O13 0.386906 0.750000 0.652171
O O14 0.431947 0.250000 0.941974
O O15 0.500000 0.500000 0.000000
O O16 0.340985 0.524830 0.083712
O O17 0.736108 0.250000 0.694148
O O18 0.833617 0.498696 0.644558
O O19 0.922795 0.750000 0.638204
O O20 0.978516 0.027769 0.678335
O O21 0.048026 0.750000 0.696005
#
# Coordination Sequence:
#
# PCOD9157886 Si02
#       8
#     4   4   4   4   4   4   4   4
#     4   9  18  31  47  68  93 121 154 189 223 267
#     4   8  17  33  49  63  84 114 149 188 227 264
#     4   8  13  24  42  62  87 117 148 181 216 261
#     4  10  21  36  50  67  90 119 154 190 227 264
#     4   9  16  28  45  65  85 111 144 184 229 269
#     4  10  19  31  47  66  88 117 151 190 231 272
#     4  10  19  29  44  68  98 124 147 182 228 279
#     4   8  14  24  39  62  90 119 146 174 218 271
#
# _framework density 25.964917
#
# number of rings (size 3 to 8) (size 9 to 14) (size 15 to 20)
#    0.000    3.000    0.000    1.875    1.750    1.000 
#    0.000    3.125    0.000    0.000    0.000    0.875 
#    0.000    0.000    0.000    0.000    0.000    0.000 
#
# Total GULP energy -178328.463396 kJ/mol
# GULP energy per Si atom -5572.764481 kJ/mol
# Density = 2.590582 g / cm^3
# Si number density = 25.964917 Si / 1000 Ang^3
#
#
#
# Elastic Constant Matrix: (Units=GPa)
#
#
# Indices 1 2 3 4 5 6 
#
# 1 129.7619 16.1841 11.8777 0.0000 12.4271 0.0000
# 2 16.1841 51.6661 6.1201 0.0000 0.8952 0.0000
# 3 11.8777 6.1201 84.1483 0.0000 -8.7940 0.0000
# 4 0.0000 0.0000 0.0000 9.4833 0.0000 1.9659
# 5 12.4271 0.8952 -8.7940 0.0000 36.5958 0.0000
# 6 0.0000 0.0000 0.0000 1.9659 0.0000 26.1858
#
#
#
# Elastic Compliance Matrix: (Units=1/GPa)
#
#
# Indices 1 2 3 4 5 6 
#
# 1 0.008431 -0.002428 -0.001340 0.000000 -0.003126 0.000000
# 2 -0.002428 0.020248 -0.001124 0.000000 0.000059 0.000000
# 3 -0.001340 -0.001124 0.012520 0.000000 0.003491 0.000000
# 4 0.000000 0.000000 0.000000 0.107116 0.000000 -0.008042
# 5 -0.003126 0.000059 0.003491 0.000000 0.029224 0.000000
# 6 0.000000 0.000000 0.000000 -0.008042 0.000000 0.038792
#
#
# Mechanical properties :
#
#
# Convention : Reuss Voigt Hill
#
# Bulk Modulus (GPa) = 31.83236 37.10445 34.46841
# Shear Modulus (GPa) = 21.13389 29.87926 25.50657
#
# Velocity S-wave (km/s) = 2.85606 3.39596 3.13764
# Velocity P-wave (km/s) = 4.81274 5.44958 5.14103
#
# Compressibility (1/GPa) = 0.03141457
#
# Stress axis : x y z
#
# Youngs Moduli (GPa) = 118.60601 49.38825 79.87534
#
# Poissons Ratio (x) = 0.11992 0.10705
# Poissons Ratio (y) = 0.28799 0.08975
# Poissons Ratio (z) = 0.15895 0.05550
#
# Static dielectric constant tensor:
#      x y z
#    x 2.441990 0.000000 0.085740 
#    y 0.000000 1.863810 0.000000 
#    z 0.085740 0.000000 2.089580 
# 
# From -- ./inp_files/42463.got.cif
#   From: 2010.05.17/outbox.cif.g08.bks.cpg/sg11_22_cif.got.tgz:42463.got - 2010.06.03 12:22:45.
