data_PCOD9157207
_publ_section_title
;
Structure prediction by ZEFSAII (Michael W. Deem and Ramdas Pophale) SiO2 
 PCOD9157207
Probable space group: P 21/M
;
_chemical_formula_sum "Si O2"
_cell_formula_units_Z 32
_cell_length_a 12.879363
_cell_length_b 10.501648
_cell_length_c 12.254773
_cell_angle_alpha 90.000000
_cell_angle_beta 113.905308
_cell_angle_gamma 90.000000
_cell_volume 1515.326187
_symmetry_space_group_name_H-M "P 21/M"
_symmetry_group_IT_number 11
_symmetry_cell_setting 'monoclinic'
loop_
_space_group_symop_operation_xyz
x,y,z
-x,1/2+y,-z
-x,-y,-z
x,1/2-y,z
loop_
_atom_site_type_symbol
_atom_site_label
_atom_site_fract_x
_atom_site_fract_y
_atom_site_fract_z
Si Si1 0.668253 0.102632 0.029069
Si Si2 0.111727 0.897145 0.207113
Si Si3 0.357000 0.595518 0.222386
Si Si4 0.414348 0.104854 0.589625
Si Si5 0.242360 0.888640 0.480159
Si Si6 0.311385 0.110378 0.787942
Si Si7 0.896440 0.466869 0.377350
Si Si8 0.937590 0.388318 0.155483
O O1 0.635894 0.250000 0.039435
O O2 0.804990 0.102993 0.069454
O O3 0.647667 0.003089 0.116685
O O4 0.618147 0.059994 0.891990
O O5 0.088004 0.750000 0.166447
O O6 0.230100 0.940154 0.202853
O O7 0.141648 0.898667 0.349105
O O8 0.010957 0.994816 0.143304
O O9 0.358809 0.750000 0.225106
O O10 0.456776 0.555749 0.346502
O O11 0.408482 0.250000 0.543797
O O12 0.375217 0.111495 0.699931
O O13 0.327604 0.005179 0.501585
O O14 0.296872 0.750000 0.484847
O O15 0.191576 0.894957 0.580378
O O16 0.324173 0.250000 0.844489
O O17 0.178868 0.083266 0.702123
O O18 0.937871 0.394268 0.287890
O O19 0.000000 0.500000 0.500000
O O20 0.981153 0.250000 0.138319
#
# Coordination Sequence:
#
# PCOD9157207 Si02
#       8
#     4   4   4   4   4   4   4   4
#     4   9  19  36  56  77 104 141 176 212 263 318
#     4  10  21  36  54  77 103 140 183 218 256 310
#     4   9  19  38  59  74  98 140 187 221 256 312
#     4   9  19  36  56  78 104 139 176 214 262 316
#     4  10  20  34  52  80 111 138 171 215 263 311
#     4   9  19  32  51  81 110 132 168 217 264 311
#     4  10  18  32  51  78 107 143 172 205 251 321
#     4  10  20  33  51  78 109 138 171 215 264 311
#
# _framework density 21.117564999999999
#
# number of rings (size 3 to 8) (size 9 to 14) (size 15 to 20)
#    0.000    2.500    1.250    0.375    0.000    8.000 
#    0.000    1.875    0.000    0.000    0.000    0.000 
#    0.000    0.000    0.000    0.000    0.000    0.000 
#
# Total GULP energy -178557.879775 kJ/mol
# GULP energy per Si atom -5579.933743 kJ/mol
# Density = 2.106950 g / cm^3
# Si number density = 21.117565 Si / 1000 Ang^3
#
#
#
# Elastic Constant Matrix: (Units=GPa)
#
#
# Indices 1 2 3 4 5 6 
#
# 1 57.0173 31.2597 0.6226 0.0000 -0.0652 0.0000
# 2 31.2597 116.1162 15.2238 0.0000 3.1941 0.0000
# 3 0.6226 15.2238 50.7657 0.0000 3.9967 0.0000
# 4 0.0000 0.0000 0.0000 2.1491 0.0000 -3.4458
# 5 -0.0652 3.1941 3.9967 0.0000 22.8840 0.0000
# 6 0.0000 0.0000 0.0000 -3.4458 0.0000 6.6996
#
#
#
# Elastic Compliance Matrix: (Units=1/GPa)
#
#
# Indices 1 2 3 4 5 6 
#
# 1 0.020689 -0.005774 0.001429 0.000000 0.000615 0.000000
# 2 -0.005774 0.010590 -0.003029 0.000000 -0.000966 0.000000
# 3 0.001429 -0.003029 0.020842 0.000000 -0.003213 0.000000
# 4 0.000000 0.000000 0.000000 2.653381 0.000000 1.364699
# 5 0.000615 -0.000966 -0.003213 0.000000 0.044396 0.000000
# 6 0.000000 0.000000 0.000000 1.364699 0.000000 0.851161
#
#
# Mechanical properties :
#
#
# Convention : Reuss Voigt Hill
#
# Bulk Modulus (GPa) = 26.75646 35.34572 31.05109
# Shear Modulus (GPa) = 1.37807 18.13275 9.75541
#
# Velocity S-wave (km/s) = 0.80869 2.93346 2.15165
# Velocity P-wave (km/s) = 3.68371 5.31484 4.57260
#
# Compressibility (1/GPa) = 0.03737415
#
# Stress axis : x y z
#
# Youngs Moduli (GPa) = 48.33423 94.42695 47.97977
#
# Poissons Ratio (x) = 0.54523 -0.06858
# Poissons Ratio (y) = 0.27909 0.14533
# Poissons Ratio (z) = -0.06909 0.28602
#
# Static dielectric constant tensor:
#      x y z
#    x 1.799400 0.000000 -0.005690 
#    y 0.000000 1.745880 0.000000 
#    z -0.005690 0.000000 1.779380 
# 
# From -- ./inp_files/51764.got.cif
#   From: 2010.05.17/outbox.cif.g08.bks.cpg/sg11_26_cif.got.tgz:51764.got - 2010.06.03 12:22:45.
