data_PCOD9157529
_publ_section_title
;
Structure prediction by ZEFSAII (Michael W. Deem and Ramdas Pophale) SiO2 
 PCOD9157529
Probable space group: P 21/M
;
_chemical_formula_sum "Si O2"
_cell_formula_units_Z 24
_cell_length_a 14.148724
_cell_length_b 10.231676
_cell_length_c 14.519169
_cell_angle_alpha 90.000000
_cell_angle_beta 135.619151
_cell_angle_gamma 90.000000
_cell_volume 1470.099228
_symmetry_space_group_name_H-M "P 21/M"
_symmetry_group_IT_number 11
_symmetry_cell_setting 'monoclinic'
loop_
_space_group_symop_operation_xyz
x,y,z
-x,1/2+y,-z
-x,-y,-z
x,1/2-y,z
loop_
_atom_site_type_symbol
_atom_site_label
_atom_site_fract_x
_atom_site_fract_y
_atom_site_fract_z
Si Si1 0.703793 0.499526 0.409451
Si Si2 0.117899 0.906440 0.621908
Si Si3 0.024009 0.093608 0.295446
Si Si4 0.294368 0.250000 0.314188
Si Si5 0.717951 0.250000 0.715344
Si Si6 0.422579 0.750000 0.580734
Si Si7 0.903034 0.996174 0.845010
Si Si8 0.437495 0.250000 0.617223
O O1 0.750461 0.458651 0.339451
O O2 0.629429 0.377230 0.402985
O O3 0.609290 0.624227 0.358103
O O4 0.841377 0.536238 0.561389
O O5 0.098898 0.750000 0.588240
O O6 0.099436 0.921258 0.718788
O O7 0.000000 0.000000 0.500000
O O8 0.042380 0.250000 0.294360
O O9 0.012043 0.020657 0.190264
O O10 0.418763 0.250000 0.329885
O O11 0.201162 0.375477 0.232681
O O12 0.358367 0.250000 0.462528
O O13 0.647123 0.250000 0.567136
O O14 0.812099 0.375647 0.785563
O O15 0.595833 0.250000 0.703488
O O16 0.000000 0.000000 0.000000
#
# Coordination Sequence:
#
# PCOD9157529 Si02
#       8
#     4   4   4   2   2   2   4   2
#     4  11  17  32  49  80 104 137 168 209 270 308
#     4   9  19  29  48  73 106 136 170 208 259 318
#     4  10  18  34  50  73 106 142 171 206 257 316
#     4  11  21  38  49  75 103 146 176 205 267 313
#     4  11  23  34  49  83 105 136 182 213 257 305
#     4  11  20  30  56  74 109 134 169 224 255 310
#     4  12  22  36  54  74 105 141 177 214 252 305
#     4  11  20  34  56  72 111 146 165 212 265 324
#
# _framework density 16.325429
#
# number of rings (size 3 to 8) (size 9 to 14) (size 15 to 20)
#    0.000    1.333    5.833    1.500    1.167    2.667 
#    0.000    0.000    0.000    0.000    0.000    7.000 
#    0.000    0.000    0.000    0.000    0.000    0.000 
#
# Total GULP energy -133774.276703 kJ/mol
# GULP energy per Si atom -5573.928196 kJ/mol
# Density = 1.628827 g / cm^3
# Si number density = 16.325429 Si / 1000 Ang^3
#
#
#
# Elastic Constant Matrix: (Units=GPa)
#
#
# Indices 1 2 3 4 5 6 
#
# 1 180.4195 76.8282 38.1517 0.0000 -10.6825 0.0000
# 2 76.8282 152.5965 28.9934 0.0000 2.0622 0.0000
# 3 38.1517 28.9934 54.8079 0.0000 -8.7975 0.0000
# 4 0.0000 0.0000 0.0000 -5.3828 0.0000 -13.9390
# 5 -10.6825 2.0622 -8.7975 0.0000 15.2977 0.0000
# 6 0.0000 0.0000 0.0000 -13.9390 0.0000 29.3575
#
#
#
# Elastic Compliance Matrix: (Units=1/GPa)
#
#
# Indices 1 2 3 4 5 6 
#
# 1 0.007904 -0.003471 -0.002980 0.000000 0.004274 0.000000
# 2 -0.003471 0.008986 -0.003218 0.000000 -0.005486 0.000000
# 3 -0.002980 -0.003218 0.023971 0.000000 0.012138 0.000000
# 4 0.000000 0.000000 0.000000 -0.083326 0.000000 -0.039563
# 5 0.004274 -0.005486 0.012138 0.000000 0.076074 0.000000
# 6 0.000000 0.000000 0.000000 -0.039563 0.000000 0.015278
#
#
# Mechanical properties :
#
#
# Convention : Reuss Voigt Hill
#
# Bulk Modulus (GPa) = 46.46217 75.08562 60.77389
# Shear Modulus (GPa) = 66.31409 24.11118 45.21264
#
# Velocity S-wave (km/s) = 6.38031 3.84723 5.26828
# Velocity P-wave (km/s) = 9.09942 8.11343 8.62054
#
# Compressibility (1/GPa) = 0.02152289
#
# Stress axis : x y z
#
# Youngs Moduli (GPa) = 126.52123 111.27962 41.71787
#
# Poissons Ratio (x) = 0.38625 0.12431
# Poissons Ratio (y) = 0.43915 0.13426
# Poissons Ratio (z) = 0.37700 0.35813
#
# Static dielectric constant tensor:
#      x y z
#    x 1.596030 0.000000 -0.007850 
#    y 0.000000 1.529910 0.000000 
#    z -0.007850 0.000000 1.508030 
# 
# From -- ./inp_files/42288.got.cif
#   From: 2010.05.17/outbox.cif.g08.bks.cpg/sg11_22_cif.got.tgz:42288.got - 2010.06.03 12:22:45.
