data_PCOD9157090
_publ_section_title
;
Structure prediction by ZEFSAII (Michael W. Deem and Ramdas Pophale) SiO2 
 PCOD9157090
Probable space group: P 21/M
;
_chemical_formula_sum "Si O2"
_cell_formula_units_Z 32
_cell_length_a 9.865088
_cell_length_b 27.273724
_cell_length_c 5.417022
_cell_angle_alpha 90.000000
_cell_angle_beta 105.268334
_cell_angle_gamma 90.000000
_cell_volume 1406.046494
_symmetry_space_group_name_H-M "P 21/M"
_symmetry_group_IT_number 11
_symmetry_cell_setting 'monoclinic'
loop_
_space_group_symop_operation_xyz
x,y,z
-x,1/2+y,-z
-x,-y,-z
x,1/2-y,z
loop_
_atom_site_type_symbol
_atom_site_label
_atom_site_fract_x
_atom_site_fract_y
_atom_site_fract_z
Si Si1 0.549066 0.359135 0.171212
Si Si2 0.959211 0.645752 0.010397
Si Si3 0.438200 0.347498 0.619546
Si Si4 0.717048 0.924126 0.969623
Si Si5 0.884699 0.458093 0.885094
Si Si6 0.346247 0.456805 0.564517
Si Si7 0.118420 0.192016 0.524923
Si Si8 0.722111 0.447875 0.305989
O O1 0.497079 0.329611 0.384967
O O2 0.439838 0.404381 0.078593
O O3 0.686206 0.390373 0.298413
O O4 0.534086 0.333194 0.899843
O O5 0.963855 0.675122 0.268615
O O6 0.049707 0.596508 0.052038
O O7 0.802302 0.623637 0.939503
O O8 0.965371 0.675872 0.760871
O O9 0.440512 0.407604 0.592392
O O10 0.276998 0.331436 0.591247
O O11 0.724780 0.958570 0.736790
O O12 0.758952 0.943643 0.258311
O O13 0.834685 0.458398 0.575915
O O14 0.769557 0.458298 0.050041
O O15 0.000000 0.500000 0.000000
O O16 0.395716 0.510700 0.671709
O O17 0.137227 0.250000 0.537169
#
# Coordination Sequence:
#
# PCOD9157090 Si02
#       8
#     4   4   4   4   4   4   4   4
#     4  10  20  35  57  83 123 153 196 242 296 353
#     4  12  21  42  60  88 130 153 204 255 319 360
#     4  10  19  35  57  86 121 165 174 245 326 361
#     4  10  18  33  56  80 108 169 178 240 316 356
#     4  12  27  40  62  84 124 180 219 256 301 362
#     4  10  18  31  53  74 123 155 202 238 278 343
#     4  12  23  38  66  98 121 150 199 255 329 391
#     4  12  24  38  55  92 117 165 229 249 277 372
#
# _framework density 22.758852000000001
#
# number of rings (size 3 to 8) (size 9 to 14) (size 15 to 20)
#    0.000    1.000    5.000    4.500    0.000    4.000 
#    0.000    0.000    0.000    0.000    0.000   17.500 
#    0.000    0.000    0.000    0.000    0.000    0.000 
#
# Total GULP energy -178363.537800 kJ/mol
# GULP energy per Si atom -5573.860556 kJ/mol
# Density = 2.270705 g / cm^3
# Si number density = 22.758852 Si / 1000 Ang^3
#
#
#
# Elastic Constant Matrix: (Units=GPa)
#
#
# Indices 1 2 3 4 5 6 
#
# 1 13.9973 3.8153 25.0047 0.0000 -10.3620 0.0000
# 2 3.8153 72.4297 26.7191 0.0000 -8.0872 0.0000
# 3 25.0047 26.7191 206.8477 0.0000 -38.0670 0.0000
# 4 0.0000 0.0000 0.0000 15.7008 0.0000 -0.9290
# 5 -10.3620 -8.0872 -38.0670 0.0000 30.4233 0.0000
# 6 0.0000 0.0000 0.0000 -0.9290 0.0000 14.4626
#
#
#
# Elastic Compliance Matrix: (Units=1/GPa)
#
#
# Indices 1 2 3 4 5 6 
#
# 1 0.104634 0.000297 -0.007943 0.000000 0.025778 0.000000
# 2 0.000297 0.014589 -0.001543 0.000000 0.002048 0.000000
# 3 -0.007943 -0.001543 0.007042 0.000000 0.005696 0.000000
# 4 0.000000 0.000000 0.000000 0.063934 0.000000 0.004107
# 5 0.025778 0.002048 0.005696 0.000000 0.049321 0.000000
# 6 0.000000 0.000000 0.000000 0.004107 0.000000 0.069408
#
#
# Mechanical properties :
#
#
# Convention : Reuss Voigt Hill
#
# Bulk Modulus (GPa) = 9.26906 44.92810 27.09858
# Shear Modulus (GPa) = 13.76388 27.96636 20.86512
#
# Velocity S-wave (km/s) = 2.46188 3.50925 3.03114
# Velocity P-wave (km/s) = 3.48750 6.01694 4.91763
#
# Compressibility (1/GPa) = 0.10788586
#
# Stress axis : x y z
#
# Youngs Moduli (GPa) = 9.55712 68.54525 141.99941
#
# Poissons Ratio (x) = -0.02034 1.12789
# Poissons Ratio (y) = -0.00284 0.21917
# Poissons Ratio (z) = 0.07591 0.10580
#
# Static dielectric constant tensor:
#      x y z
#    x 2.080890 0.000000 0.011580 
#    y 0.000000 1.863990 0.000000 
#    z 0.011580 0.000000 1.934900 
# 
# From -- ./inp_files/5489.got.cif
#   From: 2010.05.17/outbox.cif.g08.bks.cpg/sg11_3_cif.got.tgz:5489.got - 2010.06.03 12:22:45.
