data_PCOD9157020
_publ_section_title
;
Structure prediction by ZEFSAII (Michael W. Deem and Ramdas Pophale) SiO2 
 PCOD9157020
Probable space group: P 21/M
;
_chemical_formula_sum "Si O2"
_cell_formula_units_Z 32
_cell_length_a 11.815148
_cell_length_b 17.636120
_cell_length_c 11.957173
_cell_angle_alpha 90.000000
_cell_angle_beta 40.838328
_cell_angle_gamma 90.000000
_cell_volume 1629.295633
_symmetry_space_group_name_H-M "P 21/M"
_symmetry_group_IT_number 11
_symmetry_cell_setting 'monoclinic'
loop_
_space_group_symop_operation_xyz
x,y,z
-x,1/2+y,-z
-x,-y,-z
x,1/2-y,z
loop_
_atom_site_type_symbol
_atom_site_label
_atom_site_fract_x
_atom_site_fract_y
_atom_site_fract_z
Si Si1 0.946806 0.912971 0.055993
Si Si2 0.302202 0.340977 0.447844
Si Si3 0.818603 0.660887 0.692262
Si Si4 0.952442 0.586950 0.800416
Si Si5 0.066382 0.595268 0.190891
Si Si6 0.311374 0.658857 0.452591
Si Si7 0.436232 0.413983 0.558043
Si Si8 0.207845 0.838775 0.295835
O O1 0.759557 0.912469 0.251963
O O2 0.077383 0.879686 0.052274
O O3 0.931712 0.882117 0.941943
O O4 0.000000 0.000000 0.000000
O O5 0.309583 0.250000 0.447190
O O6 0.308337 0.364341 0.312845
O O7 0.435863 0.376784 0.435121
O O8 0.112250 0.367653 0.631295
O O9 0.792014 0.750000 0.732638
O O10 0.817370 0.617283 0.809712
O O11 0.014123 0.652964 0.494836
O O12 0.949564 0.495765 0.798744
O O13 0.138702 0.617114 0.622853
O O14 0.206995 0.618596 0.178355
O O15 0.289361 0.750000 0.472926
O O16 0.455827 0.631645 0.430538
O O17 0.332758 0.638152 0.305000
O O18 0.500000 0.500000 0.500000
O O19 0.233529 0.750000 0.253563
#
# Coordination Sequence:
#
# PCOD9157020 Si02
#       8
#     4   4   4   4   4   4   4   4
#     4   9  19  34  50  74 104 131 164 211 257 298
#     4   9  17  30  47  71 100 126 161 208 249 289
#     4   8  15  28  46  69  97 128 163 204 246 287
#     4  10  18  31  51  75 103 132 164 205 250 299
#     4   9  16  27  48  72  97 128 168 211 246 283
#     4  10  20  34  51  75 106 134 162 201 253 307
#     4  11  21  34  55  76  98 132 171 211 254 299
#     4   8  15  28  46  70 100 129 162 208 251 289
#
# _framework density 19.640388999999999
#
# number of rings (size 3 to 8) (size 9 to 14) (size 15 to 20)
#    0.000    2.750    0.000    4.875    0.000    5.500 
#    0.000    7.500    0.000    8.250    0.000    5.250 
#    0.000    0.000    0.000    0.000    0.000    0.000 
#
# Total GULP energy -178169.382020 kJ/mol
# GULP energy per Si atom -5567.793188 kJ/mol
# Density = 1.959569 g / cm^3
# Si number density = 19.640389 Si / 1000 Ang^3
#
#
#
# Elastic Constant Matrix: (Units=GPa)
#
#
# Indices 1 2 3 4 5 6 
#
# 1 185.0046 52.0819 40.1721 0.0000 61.9900 0.0000
# 2 52.0819 55.5894 12.6267 0.0000 22.8764 0.0000
# 3 40.1721 12.6267 38.5267 0.0000 32.4692 0.0000
# 4 0.0000 0.0000 0.0000 -36.9367 0.0000 38.6488
# 5 61.9900 22.8764 32.4692 0.0000 44.3896 0.0000
# 6 0.0000 0.0000 0.0000 38.6488 0.0000 20.0556
#
#
#
# Elastic Compliance Matrix: (Units=1/GPa)
#
#
# Indices 1 2 3 4 5 6 
#
# 1 0.011308 -0.004957 0.002580 0.000000 -0.015125 0.000000
# 2 -0.004957 0.025614 0.005384 0.000000 -0.010217 0.000000
# 3 0.002580 0.005384 0.070072 0.000000 -0.057632 0.000000
# 4 0.000000 0.000000 0.000000 -0.008975 0.000000 0.017296
# 5 -0.015125 -0.010217 -0.057632 0.000000 0.091070 0.000000
# 6 0.000000 0.000000 0.000000 0.017296 0.000000 0.016530
#
#
# Mechanical properties :
#
#
# Convention : Reuss Voigt Hill
#
# Bulk Modulus (GPa) = 8.84887 54.32022 31.58454
# Shear Modulus (GPa) = 21.07254 17.11771 19.09512
#
# Velocity S-wave (km/s) = 3.27910 2.95542 3.12146
# Velocity P-wave (km/s) = 4.34187 6.27403 5.39515
#
# Compressibility (1/GPa) = 0.11300883
#
# Stress axis : x y z
#
# Youngs Moduli (GPa) = 88.43048 39.04054 14.27097
#
# Poissons Ratio (x) = 0.19351 -0.03682
# Poissons Ratio (y) = 0.43831 -0.07683
# Poissons Ratio (z) = -0.22814 -0.21018
#
# Static dielectric constant tensor:
#      x y z
#    x 1.798610 0.000000 0.028210 
#    y 0.000000 1.657370 0.000000 
#    z 0.028210 0.000000 1.714070 
# 
# From -- ./inp_files/36003.got.cif
#   From: 2010.05.17/outbox.cif.g08.bks.cpg/sg11_19_cif.got.tgz:36003.got - 2010.06.03 12:22:45.
