data_PCOD9157160
_publ_section_title
;
Structure prediction by ZEFSAII (Michael W. Deem and Ramdas Pophale) SiO2 
 PCOD9157160
Probable space group: P 21/M
;
_chemical_formula_sum "Si O2"
_cell_formula_units_Z 28
_cell_length_a 10.214742
_cell_length_b 13.462117
_cell_length_c 12.146201
_cell_angle_alpha 90.000000
_cell_angle_beta 130.061241
_cell_angle_gamma 90.000000
_cell_volume 1278.336710
_symmetry_space_group_name_H-M "P 21/M"
_symmetry_group_IT_number 11
_symmetry_cell_setting 'monoclinic'
loop_
_space_group_symop_operation_xyz
x,y,z
-x,1/2+y,-z
-x,-y,-z
x,1/2-y,z
loop_
_atom_site_type_symbol
_atom_site_label
_atom_site_fract_x
_atom_site_fract_y
_atom_site_fract_z
Si Si1 0.681795 0.425662 0.285708
Si Si2 0.241191 0.490895 0.290678
Si Si3 0.343458 0.135376 0.970231
Si Si4 0.613720 0.856955 0.265382
Si Si5 0.778918 0.358917 0.897363
Si Si6 0.438114 0.638976 0.556437
Si Si7 0.110815 0.556033 0.815584
O O1 0.704789 0.539552 0.338383
O O2 0.671272 0.362797 0.390485
O O3 0.817581 0.407538 0.262800
O O4 0.496802 0.409023 0.126767
O O5 0.160018 0.551540 0.145609
O O6 0.344699 0.571052 0.417426
O O7 0.376196 0.409631 0.322113
O O8 0.092122 0.447394 0.284873
O O9 0.302367 0.250000 0.981148
O O10 0.408296 0.141182 0.879064
O O11 0.191595 0.054329 0.882174
O O12 0.694386 0.750000 0.337334
O O13 0.427470 0.861309 0.218760
O O14 0.839100 0.250000 0.893694
O O15 0.826627 0.376817 0.049522
O O16 0.457409 0.750000 0.525600
#
# Coordination Sequence:
#
# PCOD9157160 Si02
#       7
#     4   4   4   4   4   4   4
#     4  11  19  37  62  92 124 157 200 251 302 361
#     4  11  25  44  62  88 123 165 208 253 300 359
#     4  10  18  31  55  89 125 158 193 242 306 366
#     4   9  16  29  53  86 119 153 195 236 288 354
#     4  11  20  35  61  91 124 160 198 243 302 366
#     4  11  25  45  65  84 117 167 215 252 297 360
#     4  11  22  38  63  94 127 152 197 259 316 360
#
# _framework density 21.903462000000001
#
# number of rings (size 3 to 8) (size 9 to 14) (size 15 to 20)
#    0.000    1.429    4.286    2.143    0.000    2.857 
#    0.000    0.000    0.000    0.000    0.000    0.000 
#    0.000    0.000    0.000    0.000    0.000    0.000 
#
# Total GULP energy -156400.357143 kJ/mol
# GULP energy per Si atom -5585.727041 kJ/mol
# Density = 2.185361 g / cm^3
# Si number density = 21.903462 Si / 1000 Ang^3
#
#
#
# Elastic Constant Matrix: (Units=GPa)
#
#
# Indices 1 2 3 4 5 6 
#
# 1 102.1660 30.1902 33.5827 0.0000 -6.5446 0.0000
# 2 30.1902 3.4257 0.2922 0.0000 -4.6627 0.0000
# 3 33.5827 0.2922 22.8742 0.0000 -10.7609 0.0000
# 4 0.0000 0.0000 0.0000 12.2974 0.0000 -10.0101
# 5 -6.5446 -4.6627 -10.7609 0.0000 13.5857 0.0000
# 6 0.0000 0.0000 0.0000 -10.0101 0.0000 7.0884
#
#
#
# Elastic Compliance Matrix: (Units=1/GPa)
#
#
# Indices 1 2 3 4 5 6 
#
# 1 -0.000880 0.029926 0.008833 0.000000 0.016844 0.000000
# 2 0.029926 -0.036951 -0.067978 0.000000 -0.052110 0.000000
# 3 0.008833 -0.067978 0.036092 0.000000 0.009512 0.000000
# 4 0.000000 0.000000 0.000000 -0.543878 0.000000 -0.768050
# 5 0.016844 -0.052110 0.009512 0.000000 0.071371 0.000000
# 6 0.000000 0.000000 0.000000 -0.768050 0.000000 -0.943544
#
#
# Mechanical properties :
#
#
# Convention : Reuss Voigt Hill
#
# Bulk Modulus (GPa) = -16.61769 28.51070 5.94650
# Shear Modulus (GPa) = -3.62473 10.88769 3.63148
#
# Velocity S-wave (km/s) = -1.28781 2.23194 1.28901
# Velocity P-wave (km/s) = 3.13282 4.43699 2.22175
#
# Compressibility (1/GPa) = -0.06017684
#
# Stress axis : x y z
#
# Youngs Moduli (GPa) = -1136.60218 -27.06280 27.70700
#
# Poissons Ratio (x) = 0.80988 -0.24475
# Poissons Ratio (y) = 34.01399 1.88348
# Poissons Ratio (z) = 10.04003 -1.83968
#
# Static dielectric constant tensor:
#      x y z
#    x 1.783340 0.000000 -0.008940 
#    y 0.000000 1.828620 0.000000 
#    z -0.008940 0.000000 1.785930 
# 
# From -- ./inp_files/31962.got.cif
#   From: 2010.05.17/outbox.cif.g08.bks.cpg/sg11_16_cif.got.tgz:31962.got - 2010.06.03 12:22:45.
