data_PCOD9157639
_publ_section_title
;
Structure prediction by ZEFSAII (Michael W. Deem and Ramdas Pophale) SiO2 
 PCOD9157639
Probable space group: P 21/M
;
_chemical_formula_sum "Si O2"
_cell_formula_units_Z 32
_cell_length_a 10.533145
_cell_length_b 17.326292
_cell_length_c 11.888477
_cell_angle_alpha 90.000000
_cell_angle_beta 55.237342
_cell_angle_gamma 90.000000
_cell_volume 1782.413978
_symmetry_space_group_name_H-M "P 21/M"
_symmetry_group_IT_number 11
_symmetry_cell_setting 'monoclinic'
loop_
_space_group_symop_operation_xyz
x,y,z
-x,1/2+y,-z
-x,-y,-z
x,1/2-y,z
loop_
_atom_site_type_symbol
_atom_site_label
_atom_site_fract_x
_atom_site_fract_y
_atom_site_fract_z
Si Si1 0.680732 0.016728 0.412353
Si Si2 0.643560 0.156697 0.081324
Si Si3 0.155565 0.160297 0.065020
Si Si4 0.783680 0.160477 0.252887
Si Si5 0.933799 0.343260 0.798491
Si Si6 0.121361 0.439645 0.883760
Si Si7 0.099820 0.437716 0.518390
Si Si8 0.290357 0.342943 0.240932
O O1 0.711362 0.107627 0.385208
O O2 0.500000 0.000000 0.500000
O O3 0.765735 0.981604 0.259791
O O4 0.770040 0.980667 0.472794
O O5 0.640667 0.250000 0.080508
O O6 0.717432 0.136044 0.164477
O O7 0.467881 0.129999 0.160220
O O8 0.758983 0.134480 0.922405
O O9 0.192616 0.250000 0.022748
O O10 0.223544 0.139509 0.151475
O O11 0.969025 0.153169 0.161411
O O12 0.208492 0.103348 0.940508
O O13 0.745084 0.250000 0.287939
O O14 0.946449 0.250000 0.781996
O O15 0.033503 0.374644 0.853951
O O16 0.995379 0.387763 0.657807
O O17 0.000000 0.500000 0.000000
O O18 0.185477 0.381991 0.387853
O O19 0.000000 0.500000 0.500000
O O20 0.286882 0.250000 0.256465
#
# Coordination Sequence:
#
# PCOD9157639 Si02
#       8
#     4   4   4   4   4   4   4   4
#     4  11  23  39  57  85 121 150 185 241 288 336
#     4   9  17  33  58  86 110 138 186 238 280 333
#     4  10  19  34  59  87 112 144 194 240 278 336
#     4  10  18  34  61  84 109 149 197 231 276 343
#     4  10  20  37  61  85 111 148 193 237 282 343
#     4  11  20  34  61  87 114 144 191 237 287 332
#     4  11  24  39  57  80 117 153 195 231 281 346
#     4  10  21  37  58  83 115 151 188 233 287 344
#
# _framework density 17.95318
#
# number of rings (size 3 to 8) (size 9 to 14) (size 15 to 20)
#    0.000    1.750    2.500    2.250    1.750    0.000 
#    2.250    4.375    0.000    0.000    0.000    0.000 
#    0.000    0.000    0.000    0.000    0.000    0.000 
#
# Total GULP energy -178595.380224 kJ/mol
# GULP energy per Si atom -5581.105632 kJ/mol
# Density = 1.791232 g / cm^3
# Si number density = 17.953180 Si / 1000 Ang^3
#
#
#
# Elastic Constant Matrix: (Units=GPa)
#
#
# Indices 1 2 3 4 5 6 
#
# 1 127.9052 43.0403 57.6145 0.0000 4.5297 0.0000
# 2 43.0403 71.3438 38.4102 0.0000 11.6440 0.0000
# 3 57.6145 38.4102 91.7200 0.0000 1.4877 0.0000
# 4 0.0000 0.0000 0.0000 23.9346 0.0000 7.9843
# 5 4.5297 11.6440 1.4877 0.0000 25.9835 0.0000
# 6 0.0000 0.0000 0.0000 7.9843 0.0000 19.1673
#
#
#
# Elastic Compliance Matrix: (Units=1/GPa)
#
#
# Indices 1 2 3 4 5 6 
#
# 1 0.011732 -0.004033 -0.005682 0.000000 0.000087 0.000000
# 2 -0.004033 0.021157 -0.006190 0.000000 -0.008424 0.000000
# 3 -0.005682 -0.006190 0.017019 0.000000 0.002790 0.000000
# 4 0.000000 0.000000 0.000000 0.048523 0.000000 -0.020213
# 5 0.000087 -0.008424 0.002790 0.000000 0.042086 0.000000
# 6 0.000000 0.000000 0.000000 -0.020213 0.000000 0.060592
#
#
# Mechanical properties :
#
#
# Convention : Reuss Voigt Hill
#
# Bulk Modulus (GPa) = 55.25513 63.23322 59.24417
# Shear Modulus (GPa) = 20.92479 23.94403 22.43441
#
# Velocity S-wave (km/s) = 3.41767 3.65594 3.53881
# Velocity P-wave (km/s) = 6.81309 7.28827 7.05468
#
# Compressibility (1/GPa) = 0.01809787
#
# Stress axis : x y z
#
# Youngs Moduli (GPa) = 85.23991 47.26563 58.75799
#
# Poissons Ratio (x) = 0.19061 0.33386
# Poissons Ratio (y) = 0.34374 0.36373
# Poissons Ratio (z) = 0.48433 0.29259
#
# Static dielectric constant tensor:
#      x y z
#    x 1.604920 0.000000 -0.002610 
#    y 0.000000 1.639540 0.000000 
#    z -0.002610 0.000000 1.601670 
# 
# From -- ./inp_files/32818.got.cif
#   From: 2010.05.17/outbox.cif.g08.bks.cpg/sg11_17_cif.got.tgz:32818.got - 2010.06.03 12:22:45.
