data_PCOD9157527
_publ_section_title
;
Structure prediction by ZEFSAII (Michael W. Deem and Ramdas Pophale) SiO2 
 PCOD9157527
Probable space group: P 21/M
;
_chemical_formula_sum "Si O2"
_cell_formula_units_Z 28
_cell_length_a 11.905346
_cell_length_b 18.383590
_cell_length_c 7.601394
_cell_angle_alpha 90.000000
_cell_angle_beta 125.540318
_cell_angle_gamma 90.000000
_cell_volume 1353.734434
_symmetry_space_group_name_H-M "P 21/M"
_symmetry_group_IT_number 11
_symmetry_cell_setting 'monoclinic'
loop_
_space_group_symop_operation_xyz
x,y,z
-x,1/2+y,-z
-x,-y,-z
x,1/2-y,z
loop_
_atom_site_type_symbol
_atom_site_label
_atom_site_fract_x
_atom_site_fract_y
_atom_site_fract_z
Si Si1 0.076724 0.834296 0.064847
Si Si2 0.410722 0.166671 0.253074
Si Si3 0.641375 0.083952 0.676879
Si Si4 0.338837 0.022215 0.004667
Si Si5 0.261354 0.484225 0.557097
Si Si6 0.798576 0.830434 0.624287
Si Si7 0.980388 0.536627 0.176531
O O1 0.095107 0.750000 0.121988
O O2 0.221417 0.871238 0.149778
O O3 0.016492 0.879259 0.174353
O O4 0.961425 0.840465 0.807629
O O5 0.435026 0.250000 0.215954
O O6 0.530419 0.138433 0.493498
O O7 0.394599 0.103322 0.094091
O O8 0.273785 0.166845 0.249931
O O9 0.596200 0.036075 0.802023
O O10 0.682239 0.025946 0.562503
O O11 0.341254 0.996617 0.806533
O O12 0.175189 0.025325 0.905119
O O13 0.262063 0.397504 0.536231
O O14 0.099174 0.505656 0.410148
O O15 0.772946 0.750000 0.526753
O O16 0.000000 0.500000 0.000000
#
# Coordination Sequence:
#
# PCOD9157527 Si02
#       7
#     4   4   4   4   4   4   4
#     4  10  18  33  63  85 112 159 195 236 298 351
#     4  11  23  40  62  86 118 159 197 245 304 351
#     4  11  22  41  59  85 120 153 202 248 292 352
#     4  12  22  36  65  88 119 155 203 239 298 356
#     4  11  22  36  61  91 118 156 197 245 297 346
#     4  10  19  36  59  85 118 153 192 241 299 352
#     4  11  17  36  59  90 123 151 194 248 289 347
#
# _framework density 20.683524999999999
#
# number of rings (size 3 to 8) (size 9 to 14) (size 15 to 20)
#    0.000    1.143    7.143    1.286    0.000    1.143 
#    0.000    0.000    0.000    9.429    0.000    0.000 
#    0.000    0.000    0.000    0.000    0.000    0.000 
#
# Total GULP energy -156460.200145 kJ/mol
# GULP energy per Si atom -5587.864291 kJ/mol
# Density = 2.063645 g / cm^3
# Si number density = 20.683525 Si / 1000 Ang^3
#
#
#
# Elastic Constant Matrix: (Units=GPa)
#
#
# Indices 1 2 3 4 5 6 
#
# 1 47.3909 19.0871 23.9029 0.0000 -3.5469 0.0000
# 2 19.0871 143.6891 38.5414 0.0000 -6.6850 0.0000
# 3 23.9029 38.5414 94.3811 0.0000 0.7981 0.0000
# 4 0.0000 0.0000 0.0000 28.3165 0.0000 8.5464
# 5 -3.5469 -6.6850 0.7981 0.0000 37.0289 0.0000
# 6 0.0000 0.0000 0.0000 8.5464 0.0000 14.1925
#
#
#
# Elastic Compliance Matrix: (Units=1/GPa)
#
#
# Indices 1 2 3 4 5 6 
#
# 1 0.024770 -0.001686 -0.005603 0.000000 0.002189 0.000000
# 2 -0.001686 0.008012 -0.002856 0.000000 0.001347 0.000000
# 3 -0.005603 -0.002856 0.013192 0.000000 -0.001337 0.000000
# 4 0.000000 0.000000 0.000000 0.043159 0.000000 -0.025990
# 5 0.002189 0.001347 -0.001337 0.000000 0.027488 0.000000
# 6 0.000000 0.000000 0.000000 -0.025990 0.000000 0.086110
#
#
# Mechanical properties :
#
#
# Convention : Reuss Voigt Hill
#
# Bulk Modulus (GPa) = 38.93508 49.83598 44.38553
# Shear Modulus (GPa) = 21.59053 29.50291 25.54672
#
# Velocity S-wave (km/s) = 3.23437 3.78086 3.51825
# Velocity P-wave (km/s) = 5.72829 6.57318 6.16523
#
# Compressibility (1/GPa) = 0.02568378
#
# Stress axis : x y z
#
# Youngs Moduli (GPa) = 40.37131 124.81016 75.80245
#
# Poissons Ratio (x) = 0.21037 0.42476
# Poissons Ratio (y) = 0.06805 0.21652
# Poissons Ratio (z) = 0.22622 0.35650
#
# Static dielectric constant tensor:
#      x y z
#    x 1.759460 0.000000 0.038170 
#    y 0.000000 1.748940 0.000000 
#    z 0.038170 0.000000 1.765000 
# 
# From -- ./inp_files/41782.got.cif
#   From: 2010.05.17/outbox.cif.g08.bks.cpg/sg11_21_cif.got.tgz:41782.got - 2010.06.03 12:22:45.
