data_PCOD9157861
_publ_section_title
;
Structure prediction by ZEFSAII (Michael W. Deem and Ramdas Pophale) SiO2 
 PCOD9157861
Probable space group: P 21/M
;
_chemical_formula_sum "Si O2"
_cell_formula_units_Z 32
_cell_length_a 34.630391
_cell_length_b 8.867287
_cell_length_c 12.413814
_cell_angle_alpha 90.000000
_cell_angle_beta 153.507233
_cell_angle_gamma 90.000000
_cell_volume 1700.477351
_symmetry_space_group_name_H-M "P 21/M"
_symmetry_group_IT_number 11
_symmetry_cell_setting 'monoclinic'
loop_
_space_group_symop_operation_xyz
x,y,z
-x,1/2+y,-z
-x,-y,-z
x,1/2-y,z
loop_
_atom_site_type_symbol
_atom_site_label
_atom_site_fract_x
_atom_site_fract_y
_atom_site_fract_z
Si Si1 0.249418 0.926880 0.264586
Si Si2 0.413722 0.572016 0.832031
Si Si3 0.759706 0.581298 0.987660
Si Si4 0.964546 0.427800 0.741990
Si Si5 0.698840 0.570292 0.270445
Si Si6 0.965850 0.578954 0.520549
Si Si7 0.763644 0.430454 0.224059
Si Si8 0.141559 0.569141 0.199946
O O1 0.237802 0.750000 0.211387
O O2 0.335733 0.946026 0.551339
O O3 0.170942 0.971185 0.150049
O O4 0.258770 0.012573 0.175592
O O5 0.424880 0.750000 0.878802
O O6 0.380739 0.492056 0.858122
O O7 0.500000 0.500000 0.000000
O O8 0.722923 0.750000 0.905537
O O9 0.863401 0.592438 0.251278
O O10 0.739529 0.483689 0.043521
O O11 0.971315 0.250000 0.780812
O O12 0.980232 0.468507 0.656101
O O13 0.863909 0.474847 0.504885
O O14 0.046079 0.515212 0.996452
O O15 0.699873 0.750000 0.274143
O O16 0.702475 0.506565 0.159165
O O17 0.785254 0.506236 0.543952
O O18 0.000517 0.750000 0.625486
O O19 0.000000 0.500000 0.500000
O O20 0.760468 0.250000 0.222420
O O21 0.147484 0.750000 0.224172
#
# Coordination Sequence:
#
# PCOD9157861 Si02
#       8
#     4   4   4   4   4   4   4   4
#     4   9  19  34  53  79 110 142 175 216 267 320
#     4  10  21  39  63  91 118 142 172 211 262 321
#     4  10  20  32  49  74 103 138 181 224 265 315
#     4  10  20  32  47  69  98 137 185 232 276 320
#     4  11  22  37  58  82 109 141 179 222 269 323
#     4  10  19  29  42  63  94 133 178 228 275 318
#     4  10  21  37  54  73 104 146 189 229 270 318
#     4  10  20  34  52  75 106 143 184 231 280 325
#
# _framework density 18.818245999999998
#
# number of rings (size 3 to 8) (size 9 to 14) (size 15 to 20)
#    0.000    2.000    0.000    4.875    0.000    8.500 
#    0.000    0.000    0.000    0.750    0.000    0.000 
#    0.000    0.000    0.000    0.000    0.000    0.000 
#
# Total GULP energy -178573.504038 kJ/mol
# GULP energy per Si atom -5580.422001 kJ/mol
# Density = 1.877541 g / cm^3
# Si number density = 18.818246 Si / 1000 Ang^3
#
#
#
# Elastic Constant Matrix: (Units=GPa)
#
#
# Indices 1 2 3 4 5 6 
#
# 1 139.3815 59.6506 24.8312 0.0000 7.3089 0.0000
# 2 59.6506 99.0655 24.4512 0.0000 4.3135 0.0000
# 3 24.8312 24.4512 22.3753 0.0000 11.5256 0.0000
# 4 0.0000 0.0000 0.0000 26.2455 0.0000 -0.2891
# 5 7.3089 4.3135 11.5256 0.0000 21.5818 0.0000
# 6 0.0000 0.0000 0.0000 -0.2891 0.0000 30.3056
#
#
#
# Elastic Compliance Matrix: (Units=1/GPa)
#
#
# Indices 1 2 3 4 5 6 
#
# 1 0.010309 -0.004492 -0.007168 0.000000 0.001234 0.000000
# 2 -0.004492 0.016672 -0.016968 0.000000 0.007251 0.000000
# 3 -0.007168 -0.016968 0.094069 0.000000 -0.044418 0.000000
# 4 0.000000 0.000000 0.000000 0.038106 0.000000 0.000363
# 5 0.001234 0.007251 -0.044418 0.000000 0.068189 0.000000
# 6 0.000000 0.000000 0.000000 0.000363 0.000000 0.033001
#
#
# Mechanical properties :
#
#
# Convention : Reuss Voigt Hill
#
# Bulk Modulus (GPa) = 15.67550 53.18760 34.43155
# Shear Modulus (GPa) = 14.75512 25.75253 20.25382
#
# Velocity S-wave (km/s) = 2.80319 3.70332 3.28424
# Velocity P-wave (km/s) = 4.33880 6.82725 5.71999
#
# Compressibility (1/GPa) = 0.06379381
#
# Stress axis : x y z
#
# Youngs Moduli (GPa) = 97.00001 59.98251 10.63053
#
# Poissons Ratio (x) = 0.26945 0.07620
# Poissons Ratio (y) = 0.43574 0.18038
# Poissons Ratio (z) = 0.69527 1.01778
#
# Static dielectric constant tensor:
#      x y z
#    x 1.536980 0.000000 0.057550 
#    y 0.000000 1.647150 0.000000 
#    z 0.057550 0.000000 1.626900 
# 
# From -- ./inp_files/45342.got.cif
#   From: 2010.05.17/outbox.cif.g08.bks.cpg/sg11_23_cif.got.tgz:45342.got - 2010.06.03 12:22:45.
