data_PCOD9157841
_publ_section_title
;
Structure prediction by ZEFSAII (Michael W. Deem and Ramdas Pophale) SiO2 
 PCOD9157841
Probable space group: P 21/M
;
_chemical_formula_sum "Si O2"
_cell_formula_units_Z 30
_cell_length_a 12.563255
_cell_length_b 8.237420
_cell_length_c 11.797866
_cell_angle_alpha 90.000000
_cell_angle_beta 73.969431
_cell_angle_gamma 90.000000
_cell_volume 1173.469949
_symmetry_space_group_name_H-M "P 21/M"
_symmetry_group_IT_number 11
_symmetry_cell_setting 'monoclinic'
loop_
_space_group_symop_operation_xyz
x,y,z
-x,1/2+y,-z
-x,-y,-z
x,1/2-y,z
loop_
_atom_site_type_symbol
_atom_site_label
_atom_site_fract_x
_atom_site_fract_y
_atom_site_fract_z
Si Si1 0.182819 0.566475 0.273146
Si Si2 0.330636 0.072332 0.058258
Si Si3 0.845323 0.071694 0.099798
Si Si4 0.464244 0.565754 0.824958
Si Si5 0.037508 0.935694 0.611318
Si Si6 0.370378 0.942886 0.403824
Si Si7 0.067093 0.250000 0.048673
Si Si8 0.255218 0.434858 0.655404
O O1 0.144660 0.750000 0.305800
O O2 0.251529 0.558047 0.137743
O O3 0.079259 0.449600 0.290789
O O4 0.266457 0.516668 0.349981
O O5 0.278514 0.250000 0.088425
O O6 0.435809 0.070489 0.112051
O O7 0.374170 0.036522 0.920528
O O8 0.821754 0.250000 0.050581
O O9 0.858383 0.901234 0.029414
O O10 0.761524 0.045223 0.229441
O O11 0.969395 0.110974 0.109686
O O12 0.429626 0.750000 0.818064
O O13 0.519479 0.498295 0.694601
O O14 0.076876 0.750000 0.596087
O O15 0.000000 0.000000 0.500000
O O16 0.135495 0.045383 0.629718
O O17 0.372651 0.750000 0.412616
O O18 0.344231 0.016202 0.533878
O O19 0.274095 0.250000 0.683787
#
# Coordination Sequence:
#
# PCOD9157841 Si02
#       8
#     4   4   4   4   4   4   2   4
#     4  10  19  31  44  56  74 105 145 186 224 258
#     4   9  16  26  41  57  72  95 132 176 220 262
#     4   9  16  30  48  68  88 109 142 179 215 265
#     4   9  16  26  39  56  76  97 130 176 219 259
#     4  12  23  34  44  57  81 116 153 191 226 257
#     4  10  19  29  41  57  81 110 141 180 222 260
#     4   8  16  30  50  68  86 110 138 174 220 266
#     4  12  22  31  45  65  87 117 153 185 220 261
#
# _framework density 25.565204000000001
#
# number of rings (size 3 to 8) (size 9 to 14) (size 15 to 20)
#    0.400    1.600    2.000    4.000    0.000    4.267 
#    0.000    0.000    0.000    0.000    0.000    0.000 
#    0.000    0.000    0.000    0.000    0.000    8.000 
#
# Total GULP energy -167327.660450 kJ/mol
# GULP energy per Si atom -5577.588682 kJ/mol
# Density = 2.550702 g / cm^3
# Si number density = 25.565204 Si / 1000 Ang^3
#
#
#
# Elastic Constant Matrix: (Units=GPa)
#
#
# Indices 1 2 3 4 5 6 
#
# 1 55.6530 22.4044 40.1001 0.0000 15.9661 0.0000
# 2 22.4044 139.7585 49.3348 0.0000 -4.3143 0.0000
# 3 40.1001 49.3348 158.7964 0.0000 -27.8435 0.0000
# 4 0.0000 0.0000 0.0000 69.1488 0.0000 17.3949
# 5 15.9661 -4.3143 -27.8435 0.0000 44.5350 0.0000
# 6 0.0000 0.0000 0.0000 17.3949 0.0000 56.3661
#
#
#
# Elastic Compliance Matrix: (Units=1/GPa)
#
#
# Indices 1 2 3 4 5 6 
#
# 1 0.031502 -0.001889 -0.010536 0.000000 -0.018064 0.000000
# 2 -0.001889 0.008181 -0.002029 0.000000 0.000201 0.000000
# 3 -0.010536 -0.002029 0.011474 0.000000 0.010754 0.000000
# 4 0.000000 0.000000 0.000000 0.015679 0.000000 -0.004839
# 5 -0.018064 0.000201 0.010754 0.000000 0.035673 0.000000
# 6 0.000000 0.000000 0.000000 -0.004839 0.000000 0.019234
#
#
# Mechanical properties :
#
#
# Convention : Reuss Voigt Hill
#
# Bulk Modulus (GPa) = 44.94471 64.20961 54.57716
# Shear Modulus (GPa) = 31.63205 50.16788 40.89996
#
# Velocity S-wave (km/s) = 3.52136 4.43465 4.00413
# Velocity P-wave (km/s) = 5.84396 7.16882 6.54003
#
# Compressibility (1/GPa) = 0.02224956
#
# Stress axis : x y z
#
# Youngs Moduli (GPa) = 31.74356 122.24142 87.15305
#
# Poissons Ratio (x) = 0.23086 0.91822
# Poissons Ratio (y) = 0.05995 0.17687
# Poissons Ratio (z) = 0.33444 0.24808
#
# Static dielectric constant tensor:
#      x y z
#    x 2.143690 0.000000 0.017360 
#    y 0.000000 1.910400 0.000000 
#    z 0.017360 0.000000 2.072560 
# 
# From -- ./inp_files/53077.got.cif
#   From: 2010.05.17/outbox.cif.g08.bks.cpg/sg11_27_cif.got.tgz:53077.got - 2010.06.03 12:22:45.
