data_PCOD9157056
_publ_section_title
;
Structure prediction by ZEFSAII (Michael W. Deem and Ramdas Pophale) SiO2 
 PCOD9157056
Probable space group: P 21/M
;
_chemical_formula_sum "Si O2"
_cell_formula_units_Z 32
_cell_length_a 28.355057
_cell_length_b 8.676318
_cell_length_c 20.181738
_cell_angle_alpha 90.000000
_cell_angle_beta 158.491036
_cell_angle_gamma 90.000000
_cell_volume 1820.423501
_symmetry_space_group_name_H-M "P 21/M"
_symmetry_group_IT_number 11
_symmetry_cell_setting 'monoclinic'
loop_
_space_group_symop_operation_xyz
x,y,z
-x,1/2+y,-z
-x,-y,-z
x,1/2-y,z
loop_
_atom_site_type_symbol
_atom_site_label
_atom_site_fract_x
_atom_site_fract_y
_atom_site_fract_z
Si Si1 0.077897 0.933870 0.038787
Si Si2 0.906049 0.063033 0.175313
Si Si3 0.107853 0.563765 0.689258
Si Si4 0.626440 0.071339 0.795250
Si Si5 0.343989 0.932197 0.573713
Si Si6 0.608498 0.071488 0.932823
Si Si7 0.654447 0.935326 0.571656
Si Si8 0.922987 0.434270 0.712228
O O1 0.075155 0.750000 0.038174
O O2 0.224585 0.992109 0.233381
O O3 0.000000 0.000000 0.000000
O O4 0.007650 0.993765 0.881636
O O5 0.903443 0.250000 0.169361
O O6 0.915329 0.017907 0.264517
O O7 0.767810 0.005848 0.965211
O O8 0.021954 0.999460 0.283856
O O9 0.107660 0.750000 0.687303
O O10 0.253548 0.514800 0.861206
O O11 0.000000 0.500000 0.500000
O O12 0.627906 0.250000 0.775671
O O13 0.487925 0.006448 0.592441
O O14 0.620573 0.070266 0.868132
O O15 0.338324 0.750000 0.552043
O O16 0.225024 0.972837 0.465222
O O17 0.330333 0.020535 0.485988
O O18 0.482209 0.975578 0.784196
O O19 0.589676 0.250000 0.927330
O O20 0.656951 0.750000 0.580602
O O21 0.935751 0.250000 0.730296
#
# Coordination Sequence:
#
# PCOD9157056 Si02
#       8
#     4   4   4   4   4   4   4   4
#     4  12  23  35  51  73 101 135 176 220 265 310
#     4   9  18  35  55  76 104 137 174 209 251 311
#     4   9  18  33  56  85 112 137 166 208 255 306
#     4   7  13  28  50  72  95 127 166 211 255 300
#     4  10  19  30  47  72 102 133 171 217 260 303
#     4   8  15  29  49  74 103 132 167 208 253 302
#     4  10  18  31  52  74  99 131 170 218 268 309
#     4  11  23  36  50  73 105 138 174 217 263 309
#
# _framework density 17.578326000000001
#
# number of rings (size 3 to 8) (size 9 to 14) (size 15 to 20)
#    0.000    2.500    1.250    4.500    0.000    2.500 
#    0.000    6.250    0.000    0.750    0.000    0.000 
#    0.000    0.000    0.000    0.000    0.000    0.000 
#
# Total GULP energy -178364.897699 kJ/mol
# GULP energy per Si atom -5573.903053 kJ/mol
# Density = 1.753832 g / cm^3
# Si number density = 17.578326 Si / 1000 Ang^3
#
#
#
# Elastic Constant Matrix: (Units=GPa)
#
#
# Indices 1 2 3 4 5 6 
#
# 1 58.8773 23.1046 40.5116 0.0000 13.7013 0.0000
# 2 23.1046 37.2885 27.8848 0.0000 6.2681 0.0000
# 3 40.5116 27.8848 136.9474 0.0000 13.2833 0.0000
# 4 0.0000 0.0000 0.0000 30.4000 0.0000 1.8435
# 5 13.7013 6.2681 13.2833 0.0000 21.1596 0.0000
# 6 0.0000 0.0000 0.0000 1.8435 0.0000 15.9592
#
#
#
# Elastic Compliance Matrix: (Units=1/GPa)
#
#
# Indices 1 2 3 4 5 6 
#
# 1 0.027364 -0.011577 -0.004634 0.000000 -0.011381 0.000000
# 2 -0.011577 0.037186 -0.004052 0.000000 -0.000975 0.000000
# 3 -0.004634 -0.004052 0.009680 0.000000 -0.001876 0.000000
# 4 0.000000 0.000000 0.000000 0.033127 0.000000 -0.003827
# 5 -0.011381 -0.000975 -0.001876 0.000000 0.056096 0.000000
# 6 0.000000 0.000000 0.000000 -0.003827 0.000000 0.063102
#
#
# Mechanical properties :
#
#
# Convention : Reuss Voigt Hill
#
# Bulk Modulus (GPa) = 29.67061 46.23502 37.95281
# Shear Modulus (GPa) = 17.96528 22.94458 20.45493
#
# Velocity S-wave (km/s) = 3.20036 3.61678 3.41492
# Velocity P-wave (km/s) = 5.52921 6.61822 6.09807
#
# Compressibility (1/GPa) = 0.03370339
#
# Stress axis : x y z
#
# Youngs Moduli (GPa) = 36.54402 26.89213 103.30722
#
# Poissons Ratio (x) = 0.31134 0.47869
# Poissons Ratio (y) = 0.42308 0.41863
# Poissons Ratio (z) = 0.16933 0.10897
#
# Static dielectric constant tensor:
#      x y z
#    x 1.589010 0.000000 0.025760 
#    y 0.000000 1.593510 0.000000 
#    z 0.025760 0.000000 1.629450 
# 
# From -- ./inp_files/67450.got.cif
#   From: 2010.05.17/outbox.cif.g08.bks.cpg/sg11_34_cif.got.tgz:67450.got - 2010.06.03 12:22:45.
