data_PCOD9157215
_publ_section_title
;
Structure prediction by ZEFSAII (Michael W. Deem and Ramdas Pophale) SiO2 
 PCOD9157215
Probable space group: P 21/M
;
_chemical_formula_sum "Si O2"
_cell_formula_units_Z 24
_cell_length_a 11.533327
_cell_length_b 22.894506
_cell_length_c 14.789435
_cell_angle_alpha 90.000000
_cell_angle_beta 17.904011
_cell_angle_gamma 90.000000
_cell_volume 1200.533137
_symmetry_space_group_name_H-M "P 21/M"
_symmetry_group_IT_number 11
_symmetry_cell_setting 'monoclinic'
loop_
_space_group_symop_operation_xyz
x,y,z
-x,1/2+y,-z
-x,-y,-z
x,1/2-y,z
loop_
_atom_site_type_symbol
_atom_site_label
_atom_site_fract_x
_atom_site_fract_y
_atom_site_fract_z
Si Si1 0.686835 0.504265 0.098403
Si Si2 0.705453 0.377224 0.606493
Si Si3 0.529451 0.250000 0.541814
Si Si4 0.702946 0.873589 0.280992
Si Si5 0.576878 0.750000 0.165006
Si Si6 0.366562 0.557142 0.692990
Si Si7 0.680371 0.961253 0.787918
O O1 0.562695 0.569464 0.161370
O O2 0.455058 0.480913 0.358247
O O3 0.628202 0.458163 0.062543
O O4 0.096218 0.514484 0.835970
O O5 0.606883 0.376310 0.571680
O O6 0.603403 0.313921 0.725516
O O7 0.118964 0.402803 0.323811
O O8 0.315198 0.307666 0.671151
O O9 0.484989 0.250000 0.682356
O O10 0.975614 0.250000 0.187807
O O11 0.600321 0.909569 0.445353
O O12 0.086282 0.896566 0.950864
O O13 0.000000 0.000000 0.500000
O O14 0.500000 0.000000 0.000000
#
# Coordination Sequence:
#
# PCOD9157215 Si02
#       7
#     4   4   2   4   2   4   4
#     4   9  19  33  50  75 103 136 169 206 257 306
#     4   9  19  34  53  77 104 130 171 213 260 310
#     4  10  18  32  52  74 102 134 174 212 255 304
#     4  10  19  32  50  75 101 132 167 211 256 299
#     4  10  20  32  52  76 102 132 162 214 261 298
#     4  10  20  31  49  74 106 134 167 211 253 302
#     4  10  20  33  52  75 102 134 168 211 255 305
#
# _framework density 19.991119000000001
#
# number of rings (size 3 to 8) (size 9 to 14) (size 15 to 20)
#    0.000    2.333    0.000    4.000    0.000   12.667 
#    0.000    0.000    0.000    2.000    0.000    1.167 
#    0.000    0.000    0.000    0.000    0.000    0.000 
#
# Total GULP energy -133632.859790 kJ/mol
# GULP energy per Si atom -5568.035825 kJ/mol
# Density = 1.994562 g / cm^3
# Si number density = 19.991119 Si / 1000 Ang^3
#
#
#
# Elastic Constant Matrix: (Units=GPa)
#
#
# Indices 1 2 3 4 5 6 
#
# 1 76.5193 26.2765 21.7642 0.0000 3.2832 0.0000
# 2 26.2765 177.1826 53.9708 0.0000 -0.4806 0.0000
# 3 21.7642 53.9708 108.2755 0.0000 22.6066 0.0000
# 4 0.0000 0.0000 0.0000 32.5954 0.0000 -4.4159
# 5 3.2832 -0.4806 22.6066 0.0000 26.6096 0.0000
# 6 0.0000 0.0000 0.0000 -4.4159 0.0000 25.5818
#
#
#
# Elastic Compliance Matrix: (Units=1/GPa)
#
#
# Indices 1 2 3 4 5 6 
#
# 1 0.014172 -0.001452 -0.002133 0.000000 0.000037 0.000000
# 2 -0.001452 0.007094 -0.004022 0.000000 0.003724 0.000000
# 3 -0.002133 -0.004022 0.014137 0.000000 -0.011820 0.000000
# 4 0.000000 0.000000 0.000000 0.031414 0.000000 0.005423
# 5 0.000037 0.003724 -0.011820 0.000000 0.047685 0.000000
# 6 0.000000 0.000000 0.000000 0.005423 0.000000 0.040026
#
#
# Mechanical properties :
#
#
# Convention : Reuss Voigt Hill
#
# Bulk Modulus (GPa) = 49.52876 62.88895 56.20885
# Shear Modulus (GPa) = 28.33304 34.28841 31.31072
#
# Velocity S-wave (km/s) = 3.76876 4.14597 3.96186
# Velocity P-wave (km/s) = 6.61568 7.37872 7.00759
#
# Compressibility (1/GPa) = 0.02019029
#
# Stress axis : x y z
#
# Youngs Moduli (GPa) = 70.56056 140.95496 70.73624
#
# Poissons Ratio (x) = 0.20467 0.15086
# Poissons Ratio (y) = 0.10246 0.28450
# Poissons Ratio (z) = 0.15048 0.56692
#
# Static dielectric constant tensor:
#      x y z
#    x 1.822150 0.000000 -0.140300 
#    y 0.000000 1.999810 0.000000 
#    z -0.140300 0.000000 2.029560 
# 
# From -- ./inp_files/50842.got.cif
#   From: 2010.05.17/outbox.cif.g08.bks.cpg/sg11_26_cif.got.tgz:50842.got - 2010.06.03 12:22:45.
