data_PCOD9157447
_publ_section_title
;
Structure prediction by ZEFSAII (Michael W. Deem and Ramdas Pophale) SiO2 
 PCOD9157447
Probable space group: P 21/M
;
_chemical_formula_sum "Si O2"
_cell_formula_units_Z 28
_cell_length_a 7.558666
_cell_length_b 20.479154
_cell_length_c 11.433373
_cell_angle_alpha 90.000000
_cell_angle_beta 50.568701
_cell_angle_gamma 90.000000
_cell_volume 1366.993153
_symmetry_space_group_name_H-M "P 21/M"
_symmetry_group_IT_number 11
_symmetry_cell_setting 'monoclinic'
loop_
_space_group_symop_operation_xyz
x,y,z
-x,1/2+y,-z
-x,-y,-z
x,1/2-y,z
loop_
_atom_site_type_symbol
_atom_site_label
_atom_site_fract_x
_atom_site_fract_y
_atom_site_fract_z
Si Si1 0.459459 0.574463 0.099984
Si Si2 0.635925 0.324838 0.660705
Si Si3 0.874136 0.407992 0.967113
Si Si4 0.830466 0.826506 0.567980
Si Si5 0.774114 0.827609 0.320001
Si Si6 0.860981 0.961472 0.660436
Si Si7 0.999618 0.049372 0.149432
O O1 0.396694 0.634100 0.209294
O O2 0.327853 0.512351 0.211081
O O3 0.978817 0.526757 0.125233
O O4 0.350140 0.586500 0.018608
O O5 0.572386 0.250000 0.711962
O O6 0.899970 0.325175 0.515247
O O7 0.465810 0.351098 0.632996
O O8 0.025377 0.350561 0.850037
O O9 0.731884 0.566815 0.983701
O O10 0.855305 0.409475 0.115474
O O11 0.746635 0.750000 0.620702
O O12 0.751451 0.892142 0.667752
O O13 0.809605 0.845371 0.439910
O O14 0.771621 0.750000 0.322791
O O15 0.029539 0.945857 0.699440
O O16 0.000000 0.000000 0.500000
#
# Coordination Sequence:
#
# PCOD9157447 Si02
#       7
#     4   4   4   4   4   4   4
#     4  11  20  37  59  82 115 145 185 236 282 328
#     4  10  19  33  56  84 110 142 183 230 281 329
#     4  10  18  33  55  80 108 145 183 221 285 326
#     4  10  20  37  56  78 114 151 181 227 282 331
#     4  10  19  33  56  84 110 142 191 234 269 335
#     4  11  20  36  58  83 110 149 193 225 271 339
#     4  10  22  36  56  80 118 148 176 236 287 323
#
# _framework density 20.482913
#
# number of rings (size 3 to 8) (size 9 to 14) (size 15 to 20)
#    0.000    1.714    4.286    2.571    0.000    0.000 
#    0.000    7.857    0.000    2.571    0.000    0.000 
#    0.000    0.000    0.000    0.000    0.000    0.000 
#
# Total GULP energy -156089.487586 kJ/mol
# GULP energy per Si atom -5574.624557 kJ/mol
# Density = 2.043629 g / cm^3
# Si number density = 20.482913 Si / 1000 Ang^3
#
#
#
# Elastic Constant Matrix: (Units=GPa)
#
#
# Indices 1 2 3 4 5 6 
#
# 1 104.1944 17.3547 36.7932 0.0000 21.0205 0.0000
# 2 17.3547 55.9509 33.1931 0.0000 12.6578 0.0000
# 3 36.7932 33.1931 85.2703 0.0000 28.0370 0.0000
# 4 0.0000 0.0000 0.0000 22.7142 0.0000 10.6492
# 5 21.0205 12.6578 28.0370 0.0000 36.3345 0.0000
# 6 0.0000 0.0000 0.0000 10.6492 0.0000 18.4935
#
#
#
# Elastic Compliance Matrix: (Units=1/GPa)
#
#
# Indices 1 2 3 4 5 6 
#
# 1 0.011731 -0.000672 -0.003545 0.000000 -0.003817 0.000000
# 2 -0.000672 0.023339 -0.008374 0.000000 -0.001280 0.000000
# 3 -0.003545 -0.008374 0.019943 0.000000 -0.010421 0.000000
# 4 0.000000 0.000000 0.000000 0.060306 0.000000 -0.034726
# 5 -0.003817 -0.001280 -0.010421 0.000000 0.038217 0.000000
# 6 0.000000 0.000000 0.000000 -0.034726 0.000000 0.074070
#
#
# Mechanical properties :
#
#
# Convention : Reuss Voigt Hill
#
# Bulk Modulus (GPa) = 33.52287 46.67750 40.10018
# Shear Modulus (GPa) = 19.03068 26.04673 22.53871
#
# Velocity S-wave (km/s) = 3.05142 3.56986 3.32078
# Velocity P-wave (km/s) = 5.36812 6.31109 5.85861
#
# Compressibility (1/GPa) = 0.02983038
#
# Stress axis : x y z
#
# Youngs Moduli (GPa) = 85.24143 42.84690 50.14198
#
# Poissons Ratio (x) = 0.02879 0.17777
# Poissons Ratio (y) = 0.05728 0.41991
# Poissons Ratio (z) = 0.30221 0.35882
#
# Static dielectric constant tensor:
#      x y z
#    x 1.775550 0.000000 0.034020 
#    y 0.000000 1.758500 0.000000 
#    z 0.034020 0.000000 1.768480 
# 
# From -- ./inp_files/47350.got.cif
#   From: 2010.05.17/outbox.cif.g08.bks.cpg/sg11_24_cif.got.tgz:47350.got - 2010.06.03 12:22:45.
