data_PCOD9157953
_publ_section_title
;
Structure prediction by ZEFSAII (Michael W. Deem and Ramdas Pophale) SiO2 
 PCOD9157953
Probable space group: P 21/M
;
_chemical_formula_sum "Si O2"
_cell_formula_units_Z 28
_cell_length_a 22.087044
_cell_length_b 9.374223
_cell_length_c 11.613938
_cell_angle_alpha 90.000000
_cell_angle_beta 49.129919
_cell_angle_gamma 90.000000
_cell_volume 1818.387060
_symmetry_space_group_name_H-M "P 21/M"
_symmetry_group_IT_number 11
_symmetry_cell_setting 'monoclinic'
loop_
_space_group_symop_operation_xyz
x,y,z
-x,1/2+y,-z
-x,-y,-z
x,1/2-y,z
loop_
_atom_site_type_symbol
_atom_site_label
_atom_site_fract_x
_atom_site_fract_y
_atom_site_fract_z
Si Si1 0.624210 0.080707 0.798802
Si Si2 0.547329 0.581382 0.102537
Si Si3 0.936870 0.913940 0.233044
Si Si4 0.430626 0.421640 0.656248
Si Si5 0.736540 0.576688 0.249265
Si Si6 0.090309 0.085579 0.010750
Si Si7 0.758537 0.577109 0.488878
O O1 0.637801 0.250000 0.790713
O O2 0.545391 0.057954 0.817019
O O3 0.698738 0.000515 0.649139
O O4 0.600614 0.012338 0.950450
O O5 0.564166 0.750000 0.063141
O O6 0.561635 0.547463 0.217942
O O7 0.949300 0.750000 0.250696
O O8 0.923325 0.916207 0.111068
O O9 0.851893 0.962949 0.389984
O O10 0.016558 0.002404 0.157777
O O11 0.500000 0.500000 0.500000
O O12 0.438019 0.250000 0.632494
O O13 0.344102 0.466101 0.714522
O O14 0.740877 0.750000 0.241783
O O15 0.819654 0.526376 0.088000
O O16 0.736009 0.537374 0.384917
O O17 0.088177 0.250000 0.050589
O O18 0.752679 0.750000 0.505335
#
# Coordination Sequence:
#
# PCOD9157953 Si02
#       7
#     4   4   4   4   4   4   4
#     4  10  19  30  45  64  85 110 144 183 216 248
#     4   9  19  33  46  62  85 114 145 176 213 254
#     4   8  14  23  36  57  84 112 139 168 205 248
#     4  10  19  31  47  66  89 115 144 176 209 250
#     4   8  15  27  43  63  87 117 146 171 207 255
#     4   8  13  23  38  56  81 112 143 170 200 245
#     4   9  16  27  43  63  89 117 142 170 210 258
#
# _framework density 15.398262000000001
#
# number of rings (size 3 to 8) (size 9 to 14) (size 15 to 20)
#    0.000    3.143    0.000    3.000    0.000    1.714 
#    0.000    2.857    0.000    0.000    0.000    1.000 
#    0.000    0.000    0.000    0.000    0.000    0.000 
#
# Total GULP energy -155882.258795 kJ/mol
# GULP energy per Si atom -5567.223528 kJ/mol
# Density = 1.536321 g / cm^3
# Si number density = 15.398262 Si / 1000 Ang^3
#
#
#
# Elastic Constant Matrix: (Units=GPa)
#
#
# Indices 1 2 3 4 5 6 
#
# 1 89.5354 39.0701 71.1960 0.0000 -20.0248 0.0000
# 2 39.0701 44.4484 65.4969 0.0000 -15.4787 0.0000
# 3 71.1960 65.4969 142.5710 0.0000 -30.4209 0.0000
# 4 0.0000 0.0000 0.0000 29.7195 0.0000 -5.9424
# 5 -20.0248 -15.4787 -30.4209 0.0000 24.3668 0.0000
# 6 0.0000 0.0000 0.0000 -5.9424 0.0000 16.0038
#
#
#
# Elastic Compliance Matrix: (Units=1/GPa)
#
#
# Indices 1 2 3 4 5 6 
#
# 1 0.019927 -0.008339 -0.005120 0.000000 0.004687 0.000000
# 2 -0.008339 0.073750 -0.028874 0.000000 0.003948 0.000000
# 3 -0.005120 -0.028874 0.024569 0.000000 0.008124 0.000000
# 4 0.000000 0.000000 0.000000 0.036346 0.000000 0.013496
# 5 0.004687 0.003948 0.008124 0.000000 0.057541 0.000000
# 6 0.000000 0.000000 0.000000 0.013496 0.000000 0.067496
#
#
# Mechanical properties :
#
#
# Convention : Reuss Voigt Hill
#
# Bulk Modulus (GPa) = 29.77982 69.78675 49.78329
# Shear Modulus (GPa) = 13.31595 20.73746 17.02670
#
# Velocity S-wave (km/s) = 2.94389 3.67378 3.32890
# Velocity P-wave (km/s) = 5.56210 7.96336 6.86848
#
# Compressibility (1/GPa) = 0.03357979
#
# Stress axis : x y z
#
# Youngs Moduli (GPa) = 50.18252 13.55932 40.70193
#
# Poissons Ratio (x) = 0.11307 0.20840
# Poissons Ratio (y) = 0.41848 1.17522
# Poissons Ratio (z) = 0.25694 0.39151
#
# Static dielectric constant tensor:
#      x y z
#    x 1.513240 0.000000 -0.019420 
#    y 0.000000 1.515620 0.000000 
#    z -0.019420 0.000000 1.499570 
# 
# From -- ./inp_files/42376.got.cif
#   From: 2010.05.17/outbox.cif.g08.bks.cpg/sg11_22_cif.got.tgz:42376.got - 2010.06.03 12:22:45.
