data_PCOD9157520
_publ_section_title
;
Structure prediction by ZEFSAII (Michael W. Deem and Ramdas Pophale) SiO2 
 PCOD9157520
Probable space group: P 21/M
;
_chemical_formula_sum "Si O2"
_cell_formula_units_Z 24
_cell_length_a 7.101146
_cell_length_b 21.158173
_cell_length_c 9.268695
_cell_angle_alpha 90.000000
_cell_angle_beta 129.135916
_cell_angle_gamma 90.000000
_cell_volume 1080.168493
_symmetry_space_group_name_H-M "P 21/M"
_symmetry_group_IT_number 11
_symmetry_cell_setting 'monoclinic'
loop_
_space_group_symop_operation_xyz
x,y,z
-x,1/2+y,-z
-x,-y,-z
x,1/2-y,z
loop_
_atom_site_type_symbol
_atom_site_label
_atom_site_fract_x
_atom_site_fract_y
_atom_site_fract_z
Si Si1 0.138759 0.321272 0.218615
Si Si2 0.803662 0.981923 0.026852
Si Si3 0.646126 0.122866 0.955668
Si Si4 0.356920 0.414701 0.550463
Si Si5 0.184558 0.946290 0.436289
Si Si6 0.452992 0.870045 0.777011
O O1 0.102197 0.250000 0.251555
O O2 0.190453 0.370880 0.370837
O O3 0.375746 0.324754 0.232512
O O4 0.896985 0.346392 0.022373
O O5 0.938614 0.949537 0.226098
O O6 0.689074 0.048826 0.012414
O O7 0.613911 0.934080 0.866622
O O8 0.000000 0.000000 0.000000
O O9 0.589718 0.153724 0.082406
O O10 0.444666 0.121439 0.735177
O O11 0.600166 0.430588 0.574742
O O12 0.233608 0.482613 0.517151
O O13 0.216839 0.893588 0.575070
#
# Coordination Sequence:
#
# PCOD9157520 Si02
#       6
#     4   4   4   4   4   4
#     4  11  25  45  62  80 117 167 211 251 296 351
#     4  12  18  35  61  94 129 159 192 240 307 375
#     4  12  23  38  64  95 124 157 199 248 311 366
#     4  10  19  36  60  90 120 158 200 244 296 360
#     4  10  18  33  60  90 130 159 186 239 309 365
#     4  11  24  38  61  96 125 156 196 253 307 366
#
# _framework density 22.218755000000002
#
# number of rings (size 3 to 8) (size 9 to 14) (size 15 to 20)
#    0.000    1.000    6.667    1.500    0.000    3.333 
#    0.000    0.000    0.000    0.000    0.000    0.000 
#    0.000    0.000    0.000    0.000    0.000    0.000 
#
# Total GULP energy -134322.036948 kJ/mol
# GULP energy per Si atom -5596.751539 kJ/mol
# Density = 2.216818 g / cm^3
# Si number density = 22.218755 Si / 1000 Ang^3
#
#
#
# Elastic Constant Matrix: (Units=GPa)
#
#
# Indices 1 2 3 4 5 6 
#
# 1 50.2890 1.1678 4.8807 0.0000 -16.6664 0.0000
# 2 1.1678 69.6810 2.8423 0.0000 7.6668 0.0000
# 3 4.8807 2.8423 125.6212 0.0000 -1.5425 0.0000
# 4 0.0000 0.0000 0.0000 7.8729 0.0000 1.6243
# 5 -16.6664 7.6668 -1.5425 0.0000 33.8198 0.0000
# 6 0.0000 0.0000 0.0000 1.6243 0.0000 15.2686
#
#
#
# Elastic Compliance Matrix: (Units=1/GPa)
#
#
# Indices 1 2 3 4 5 6 
#
# 1 0.024041 -0.001715 -0.000745 0.000000 0.012202 0.000000
# 2 -0.001715 0.014858 -0.000321 0.000000 -0.004228 0.000000
# 3 -0.000745 -0.000321 0.007998 0.000000 0.000070 0.000000
# 4 0.000000 0.000000 0.000000 0.129868 0.000000 -0.013815
# 5 0.012202 -0.004228 0.000070 0.000000 0.036544 0.000000
# 6 0.000000 0.000000 0.000000 -0.013815 0.000000 0.066964
#
#
# Mechanical properties :
#
#
# Convention : Reuss Voigt Hill
#
# Bulk Modulus (GPa) = 24.19373 29.26363 26.72868
# Shear Modulus (GPa) = 16.68814 27.17228 21.93021
#
# Velocity S-wave (km/s) = 2.74356 3.50085 3.14509
# Velocity P-wave (km/s) = 4.57698 5.43513 5.02441
#
# Compressibility (1/GPa) = 0.04133303
#
# Stress axis : x y z
#
# Youngs Moduli (GPa) = 41.59518 67.30303 125.03848
#
# Poissons Ratio (x) = 0.11543 0.09321
# Poissons Ratio (y) = 0.07134 0.04019
# Poissons Ratio (z) = 0.03101 0.02164
#
# Static dielectric constant tensor:
#      x y z
#    x 1.938540 0.000000 -0.036890 
#    y 0.000000 1.770280 0.000000 
#    z -0.036890 0.000000 1.804630 
# 
# From -- ./inp_files/14405.got.cif
#   From: 2010.05.17/outbox.cif.g08.bks.cpg/sg11_8_cif.got.tgz:14405.got - 2010.06.03 12:22:45.
