data_PCOD9157603
_publ_section_title
;
Structure prediction by ZEFSAII (Michael W. Deem and Ramdas Pophale) SiO2 
 PCOD9157603
Probable space group: P 21/M
;
_chemical_formula_sum "Si O2"
_cell_formula_units_Z 28
_cell_length_a 27.031697
_cell_length_b 9.395958
_cell_length_c 9.261712
_cell_angle_alpha 90.000000
_cell_angle_beta 143.505495
_cell_angle_gamma 90.000000
_cell_volume 1399.061974
_symmetry_space_group_name_H-M "P 21/M"
_symmetry_group_IT_number 11
_symmetry_cell_setting 'monoclinic'
loop_
_space_group_symop_operation_xyz
x,y,z
-x,1/2+y,-z
-x,-y,-z
x,1/2-y,z
loop_
_atom_site_type_symbol
_atom_site_label
_atom_site_fract_x
_atom_site_fract_y
_atom_site_fract_z
Si Si1 0.434862 0.580431 0.449018
Si Si2 0.749748 0.093841 0.110467
Si Si3 0.864581 0.523604 0.147422
Si Si4 0.572137 0.575256 0.260624
Si Si5 0.243446 0.087376 0.372181
Si Si6 0.151540 0.077803 0.433417
Si Si7 0.015368 0.092743 0.316296
O O1 0.500000 0.500000 0.500000
O O2 0.453995 0.750000 0.514114
O O3 0.433317 0.492373 0.593518
O O4 0.343326 0.572974 0.163541
O O5 0.757036 0.250000 0.195779
O O6 0.812070 0.087734 0.119455
O O7 0.778109 0.975423 0.290540
O O8 0.915185 0.602110 0.393049
O O9 0.937279 0.479550 0.207932
O O10 0.796300 0.588692 0.880313
O O11 0.566323 0.750000 0.248509
O O12 0.663168 0.529770 0.413704
O O13 0.500000 0.500000 0.000000
O O14 0.253877 0.250000 0.443343
O O15 0.179863 0.026186 0.342087
O O16 0.144365 0.250000 0.420141
O O17 0.064602 0.022519 0.298226
O O18 0.988317 0.250000 0.210303
#
# Coordination Sequence:
#
# PCOD9157603 Si02
#       7
#     4   4   4   4   4   4   4
#     4  11  24  42  63  91 121 157 200 252 307 365
#     4  10  21  38  58  85 118 151 196 247 298 352
#     4  10  18  34  58  83 116 154 199 244 297 352
#     4  11  24  43  64  91 124 162 205 252 307 367
#     4  10  21  38  60  86 117 157 201 243 294 358
#     4   9  20  37  57  84 119 158 199 242 291 353
#     4   9  18  32  54  83 115 154 198 246 294 346
#
# _framework density 20.01341
#
# number of rings (size 3 to 8) (size 9 to 14) (size 15 to 20)
#    0.000    2.000    1.429    1.714    2.000    2.286 
#    0.000    2.857    0.000    0.000    0.000    0.000 
#    0.000    0.000    0.000    0.000    0.000    0.000 
#
# Total GULP energy -155871.809476 kJ/mol
# GULP energy per Si atom -5566.850338 kJ/mol
# Density = 1.996786 g / cm^3
# Si number density = 20.013410 Si / 1000 Ang^3
#
#
#
# Elastic Constant Matrix: (Units=GPa)
#
#
# Indices 1 2 3 4 5 6 
#
# 1 114.9747 14.2583 13.9267 0.0000 3.4685 0.0000
# 2 14.2583 54.6975 3.7788 0.0000 6.4030 0.0000
# 3 13.9267 3.7788 58.9231 0.0000 8.8558 0.0000
# 4 0.0000 0.0000 0.0000 -3.8694 0.0000 -13.6617
# 5 3.4685 6.4030 8.8558 0.0000 34.6696 0.0000
# 6 0.0000 0.0000 0.0000 -13.6617 0.0000 18.2924
#
#
#
# Elastic Compliance Matrix: (Units=1/GPa)
#
#
# Indices 1 2 3 4 5 6 
#
# 1 0.009225 -0.002266 -0.002037 0.000000 0.000016 0.000000
# 2 -0.002266 0.019271 -0.000207 0.000000 -0.003279 0.000000
# 3 -0.002037 -0.000207 0.018126 0.000000 -0.004388 0.000000
# 4 0.000000 0.000000 0.000000 -0.071060 0.000000 -0.053071
# 5 0.000016 -0.003279 -0.004388 0.000000 0.030569 0.000000
# 6 0.000000 0.000000 0.000000 -0.053071 0.000000 0.015031
#
#
# Mechanical properties :
#
#
# Convention : Reuss Voigt Hill
#
# Bulk Modulus (GPa) = 26.59555 32.50255 29.54905
# Shear Modulus (GPa) = 117.05169 22.92730 69.98949
#
# Velocity S-wave (km/s) = 7.65595 3.38834 5.92007
# Velocity P-wave (km/s) = 9.56395 5.61991 7.84387
#
# Compressibility (1/GPa) = 0.03760028
#
# Stress axis : x y z
#
# Youngs Moduli (GPa) = 108.40271 51.89079 55.17061
#
# Poissons Ratio (x) = 0.11757 0.11241
# Poissons Ratio (y) = 0.24562 0.01145
# Poissons Ratio (z) = 0.22086 0.01077
#
# Static dielectric constant tensor:
#      x y z
#    x 1.760320 0.000000 0.009370 
#    y 0.000000 1.744300 0.000000 
#    z 0.009370 0.000000 1.694350 
# 
# From -- ./inp_files/28628.got.cif
#   From: 2010.05.17/outbox.cif.g08.bks.cpg/sg11_15_cif.got.tgz:28628.got - 2010.06.03 12:22:45.
