data_PCOD9157661
_publ_section_title
;
Structure prediction by ZEFSAII (Michael W. Deem and Ramdas Pophale) SiO2 
 PCOD9157661
Probable space group: P 21/M
;
_chemical_formula_sum "Si O2"
_cell_formula_units_Z 28
_cell_length_a 12.758186
_cell_length_b 12.889328
_cell_length_c 9.584546
_cell_angle_alpha 90.000000
_cell_angle_beta 117.728446
_cell_angle_gamma 90.000000
_cell_volume 1395.127413
_symmetry_space_group_name_H-M "P 21/M"
_symmetry_group_IT_number 11
_symmetry_cell_setting 'monoclinic'
loop_
_space_group_symop_operation_xyz
x,y,z
-x,1/2+y,-z
-x,-y,-z
x,1/2-y,z
loop_
_atom_site_type_symbol
_atom_site_label
_atom_site_fract_x
_atom_site_fract_y
_atom_site_fract_z
Si Si1 0.861858 0.373471 0.937839
Si Si2 0.701571 0.558673 0.877878
Si Si3 0.277535 0.127064 0.427199
Si Si4 0.629929 0.570175 0.240734
Si Si5 0.859170 0.634843 0.222479
Si Si6 0.530450 0.131346 0.098849
Si Si7 0.959138 0.984699 0.747743
O O1 0.847354 0.250000 0.917815
O O2 0.742951 0.438492 0.902737
O O3 0.908806 0.428658 0.825318
O O4 0.960601 0.404337 0.114111
O O5 0.698625 0.598049 0.718201
O O6 0.579344 0.589839 0.875303
O O7 0.803418 0.615141 0.033090
O O8 0.272119 0.250000 0.438052
O O9 0.372436 0.083493 0.595864
O O10 0.151837 0.074437 0.384220
O O11 0.747689 0.624180 0.255472
O O12 0.632820 0.450389 0.194228
O O13 0.519934 0.619101 0.088882
O O14 0.908973 0.750000 0.261453
O O15 0.956236 0.546859 0.303483
O O16 0.557560 0.250000 0.145911
#
# Coordination Sequence:
#
# PCOD9157661 Si02
#       7
#     4   4   4   4   4   4   4
#     4   9  16  30  48  77 111 141 174 217 252 294
#     4   9  19  33  56  81 104 136 179 210 255 320
#     4  11  20  34  53  81 112 136 165 219 265 299
#     4  10  22  36  56  80 102 130 179 216 256 313
#     4  10  18  35  55  75 104 145 181 211 246 305
#     4  10  20  41  61  75  99 137 173 214 260 315
#     4   9  19  29  49  76 106 144 181 205 250 314
#
# _framework density 20.069852000000001
#
# number of rings (size 3 to 8) (size 9 to 14) (size 15 to 20)
#    0.000    2.286    0.000    5.143    0.000    1.143 
#    0.000   17.143    0.000    0.000    0.000    0.000 
#    0.000    0.000    0.000    0.000    0.000    0.000 
#
# Total GULP energy -156288.535021 kJ/mol
# GULP energy per Si atom -5581.733394 kJ/mol
# Density = 2.002417 g / cm^3
# Si number density = 20.069852 Si / 1000 Ang^3
#
#
#
# Elastic Constant Matrix: (Units=GPa)
#
#
# Indices 1 2 3 4 5 6 
#
# 1 21.2151 1.4570 11.2596 0.0000 -0.9317 0.0000
# 2 1.4570 158.3971 29.1235 0.0000 7.4370 0.0000
# 3 11.2596 29.1235 97.2936 0.0000 -4.3892 0.0000
# 4 0.0000 0.0000 0.0000 8.0210 0.0000 -0.9315
# 5 -0.9317 7.4370 -4.3892 0.0000 11.8120 0.0000
# 6 0.0000 0.0000 0.0000 -0.9315 0.0000 22.6562
#
#
#
# Elastic Compliance Matrix: (Units=1/GPa)
#
#
# Indices 1 2 3 4 5 6 
#
# 1 0.050305 0.000560 -0.005926 0.000000 0.001413 0.000000
# 2 0.000560 0.006995 -0.002396 0.000000 -0.005250 0.000000
# 3 -0.005926 -0.002396 0.011928 0.000000 0.005473 0.000000
# 4 0.000000 0.000000 0.000000 0.125271 0.000000 0.005151
# 5 0.001413 -0.005250 0.005473 0.000000 0.090110 0.000000
# 6 0.000000 0.000000 0.000000 0.005151 0.000000 0.044350
#
#
# Mechanical properties :
#
#
# Convention : Reuss Voigt Hill
#
# Bulk Modulus (GPa) = 18.61983 40.06510 29.34247
# Shear Modulus (GPa) = 13.79759 24.16890 18.98324
#
# Velocity S-wave (km/s) = 2.62483 3.47398 3.07882
# Velocity P-wave (km/s) = 4.29929 6.00812 5.22405
#
# Compressibility (1/GPa) = 0.05370618
#
# Stress axis : x y z
#
# Youngs Moduli (GPa) = 19.87882 142.95811 83.83685
#
# Poissons Ratio (x) = -0.08012 0.49679
# Poissons Ratio (y) = -0.01114 0.20084
# Poissons Ratio (z) = 0.11780 0.34247
#
# Static dielectric constant tensor:
#      x y z
#    x 1.751990 0.000000 -0.011650 
#    y 0.000000 1.698180 0.000000 
#    z -0.011650 0.000000 1.717100 
# 
# From -- ./inp_files/21629.got.cif
#   From: 2010.05.17/outbox.cif.g08.bks.cpg/sg11_11_cif.got.tgz:21629.got - 2010.06.03 12:22:45.
