data_PCOD9157765
_publ_section_title
;
Structure prediction by ZEFSAII (Michael W. Deem and Ramdas Pophale) SiO2 
 PCOD9157765
Probable space group: P 21/M
;
_chemical_formula_sum "Si O2"
_cell_formula_units_Z 32
_cell_length_a 22.388643
_cell_length_b 17.780533
_cell_length_c 6.160661
_cell_angle_alpha 90.000000
_cell_angle_beta 141.402942
_cell_angle_gamma 90.000000
_cell_volume 1529.934032
_symmetry_space_group_name_H-M "P 21/M"
_symmetry_group_IT_number 11
_symmetry_cell_setting 'monoclinic'
loop_
_space_group_symop_operation_xyz
x,y,z
-x,1/2+y,-z
-x,-y,-z
x,1/2-y,z
loop_
_atom_site_type_symbol
_atom_site_label
_atom_site_fract_x
_atom_site_fract_y
_atom_site_fract_z
Si Si1 0.345632 0.162183 0.942871
Si Si2 0.125064 0.936395 0.075255
Si Si3 0.273002 0.081789 0.126182
Si Si4 0.020251 0.831017 0.064092
Si Si5 0.197477 0.834538 0.892866
Si Si6 0.586529 0.528196 0.101224
Si Si7 0.706849 0.057793 0.113687
Si Si8 0.150266 0.114054 0.137291
O O1 0.360475 0.250000 0.954454
O O2 0.422338 0.108990 0.041016
O O3 0.242911 0.137318 0.546085
O O4 0.337828 0.138751 0.172642
O O5 0.034010 0.898626 0.933683
O O6 0.217941 0.922850 0.487247
O O7 0.119310 0.026173 0.045272
O O8 0.150077 0.891374 0.929453
O O9 0.328304 0.041467 0.482059
O O10 0.185482 0.125458 0.989690
O O11 0.251704 0.014223 0.900034
O O12 0.008212 0.750000 0.918077
O O13 0.117663 0.828535 0.479163
O O14 0.936466 0.842950 0.999098
O O15 0.215545 0.750000 0.028704
O O16 0.290712 0.874148 0.050165
O O17 0.615092 0.471388 0.986953
O O18 0.500000 0.500000 0.000000
#
# Coordination Sequence:
#
# PCOD9157765 Si02
#       8
#     4   4   4   4   4   4   4   4
#     4  10  22  38  60  90 124 153 188 236 290 344
#     4  11  19  36  57  79 112 152 197 245 288 341
#     4  10  19  37  60  86 112 150 191 231 285 343
#     4  10  23  35  49  78 118 155 197 247 297 339
#     4  10  21  36  55  79 113 156 199 246 296 339
#     4  10  21  38  64  90 115 150 186 230 282 346
#     4  10  18  37  58  83 112 141 196 233 284 345
#     4  11  20  36  58  84 114 153 199 245 285 347
#
# _framework density 20.915932999999999
#
# number of rings (size 3 to 8) (size 9 to 14) (size 15 to 20)
#    0.000    1.750    5.000    1.125    0.000    6.500 
#    0.000    1.875    0.000    3.750    0.000    0.000 
#    0.000    0.000    0.000    0.000    0.000    0.000 
#
# Total GULP energy -178324.497427 kJ/mol
# GULP energy per Si atom -5572.640545 kJ/mol
# Density = 2.086833 g / cm^3
# Si number density = 20.915933 Si / 1000 Ang^3
#
#
#
# Elastic Constant Matrix: (Units=GPa)
#
#
# Indices 1 2 3 4 5 6 
#
# 1 148.8152 46.1435 3.3821 0.0000 -2.5181 0.0000
# 2 46.1435 102.7918 -2.1671 0.0000 3.5394 0.0000
# 3 3.3821 -2.1671 9.2900 0.0000 -3.8263 0.0000
# 4 0.0000 0.0000 0.0000 11.9163 0.0000 -0.5579
# 5 -2.5181 3.5394 -3.8263 0.0000 21.6240 0.0000
# 6 0.0000 0.0000 0.0000 -0.5579 0.0000 17.6087
#
#
#
# Elastic Compliance Matrix: (Units=1/GPa)
#
#
# Indices 1 2 3 4 5 6 
#
# 1 0.007951 -0.003672 -0.003368 0.000000 0.000931 0.000000
# 2 -0.003672 0.011506 0.003310 0.000000 -0.001725 0.000000
# 3 -0.003368 0.003310 0.117845 0.000000 0.019918 0.000000
# 4 0.000000 0.000000 0.000000 0.084043 0.000000 0.002663
# 5 0.000931 -0.001725 0.019918 0.000000 0.050160 0.000000
# 6 0.000000 0.000000 0.000000 0.002663 0.000000 0.056875
#
#
# Mechanical properties :
#
#
# Convention : Reuss Voigt Hill
#
# Bulk Modulus (GPa) = 7.70163 39.51268 23.60716
# Shear Modulus (GPa) = 13.18846 24.46569 18.82707
#
# Velocity S-wave (km/s) = 2.51379 3.42382 3.00347
# Velocity P-wave (km/s) = 3.48076 5.87897 4.83104
#
# Compressibility (1/GPa) = 0.12984263
#
# Stress axis : x y z
#
# Youngs Moduli (GPa) = 125.77580 86.91108 8.48573
#
# Poissons Ratio (x) = 0.31915 0.02858
# Poissons Ratio (y) = 0.46186 -0.02809
# Poissons Ratio (z) = 0.42357 -0.28770
#
# Static dielectric constant tensor:
#      x y z
#    x 1.792090 0.000000 0.007930 
#    y 0.000000 1.788960 0.000000 
#    z 0.007930 0.000000 1.791230 
# 
# From -- ./inp_files/9147.got.cif
#   From: 2010.05.17/outbox.cif.g08.bks.cpg/sg11_5_cif.got.tgz:9147.got - 2010.06.03 12:22:45.
