data_PCOD9157362
_publ_section_title
;
Structure prediction by ZEFSAII (Michael W. Deem and Ramdas Pophale) SiO2 
 PCOD9157362
Probable space group: P 21/M
;
_chemical_formula_sum "Si O2"
_cell_formula_units_Z 32
_cell_length_a 11.562367
_cell_length_b 11.784002
_cell_length_c 20.879534
_cell_angle_alpha 90.000000
_cell_angle_beta 39.865561
_cell_angle_gamma 90.000000
_cell_volume 1823.519973
_symmetry_space_group_name_H-M "P 21/M"
_symmetry_group_IT_number 11
_symmetry_cell_setting 'monoclinic'
loop_
_space_group_symop_operation_xyz
x,y,z
-x,1/2+y,-z
-x,-y,-z
x,1/2-y,z
loop_
_atom_site_type_symbol
_atom_site_label
_atom_site_fract_x
_atom_site_fract_y
_atom_site_fract_z
Si Si1 0.477828 0.614087 0.663068
Si Si2 0.990674 0.876229 0.540214
Si Si3 0.196654 0.497827 0.552477
Si Si4 0.169473 0.617717 0.695994
Si Si5 0.815566 0.117838 0.731985
Si Si6 0.603234 0.945420 0.745947
Si Si7 0.236104 0.038223 0.122523
Si Si8 0.422791 0.874677 0.953473
O O1 0.498784 0.750000 0.661611
O O2 0.637975 0.565684 0.550642
O O3 0.291000 0.591283 0.706059
O O4 0.497906 0.558121 0.724199
O O5 0.017949 0.750000 0.497941
O O6 0.789203 0.876784 0.654896
O O7 0.134984 0.895352 0.535252
O O8 0.000000 0.000000 0.500000
O O9 0.228236 0.541047 0.610826
O O10 0.020308 0.417043 0.627941
O O11 0.198193 0.750000 0.668113
O O12 0.957592 0.596787 0.798032
O O13 0.795940 0.250000 0.746682
O O14 0.679301 0.066476 0.737342
O O15 0.774608 0.054749 0.816028
O O16 0.490274 0.895024 0.852638
O O17 0.399611 0.117260 0.076655
O O18 0.293046 0.973393 0.034086
O O19 0.340918 0.750000 0.994348
#
# Coordination Sequence:
#
# PCOD9157362 Si02
#       8
#     4   4   4   4   4   4   4   4
#     4  11  21  35  53  75 107 149 188 224 266 317
#     4  11  21  33  53  79 111 144 178 225 276 325
#     4  10  20  34  52  79 105 139 186 227 266 320
#     4  10  21  37  56  75 105 144 183 226 269 319
#     4   9  18  32  52  78 110 142 173 225 284 324
#     4  10  21  34  51  80 111 141 184 222 262 329
#     4   9  19  33  53  83 106 130 175 222 272 329
#     4  10  18  32  57  80 104 134 167 220 278 328
#
# _framework density 17.548477999999999
#
# number of rings (size 3 to 8) (size 9 to 14) (size 15 to 20)
#    0.000    2.000    1.250    3.750    0.000    2.000 
#    0.000    1.250    0.000    6.750    0.000    0.000 
#    0.000    0.000    0.000    0.000    0.000    0.000 
#
# Total GULP energy -178430.663547 kJ/mol
# GULP energy per Si atom -5575.958236 kJ/mol
# Density = 1.750854 g / cm^3
# Si number density = 17.548478 Si / 1000 Ang^3
#
#
#
# Elastic Constant Matrix: (Units=GPa)
#
#
# Indices 1 2 3 4 5 6 
#
# 1 99.0740 19.9786 11.0147 0.0000 8.2178 0.0000
# 2 19.9786 84.3605 -2.8110 0.0000 6.6181 0.0000
# 3 11.0147 -2.8110 52.4318 0.0000 15.0458 0.0000
# 4 0.0000 0.0000 0.0000 6.8922 0.0000 0.8449
# 5 8.2178 6.6181 15.0458 0.0000 16.7330 0.0000
# 6 0.0000 0.0000 0.0000 0.8449 0.0000 9.9783
#
#
#
# Elastic Compliance Matrix: (Units=1/GPa)
#
#
# Indices 1 2 3 4 5 6 
#
# 1 0.011008 -0.002421 -0.001571 0.000000 -0.003036 0.000000
# 2 -0.002421 0.013069 0.003169 0.000000 -0.006829 0.000000
# 3 -0.001571 0.003169 0.026565 0.000000 -0.024368 0.000000
# 4 0.000000 0.000000 0.000000 0.146613 0.000000 -0.012415
# 5 -0.003036 -0.006829 -0.024368 0.000000 0.085865 0.000000
# 6 0.000000 0.000000 0.000000 -0.012415 0.000000 0.101269
#
#
# Mechanical properties :
#
#
# Convention : Reuss Voigt Hill
#
# Bulk Modulus (GPa) = 20.41022 32.47009 26.44015
# Shear Modulus (GPa) = 12.42647 20.56630 16.49638
#
# Velocity S-wave (km/s) = 2.66394 3.42712 3.06934
# Velocity P-wave (km/s) = 4.59545 5.84837 5.25935
#
# Compressibility (1/GPa) = 0.04899506
#
# Stress axis : x y z
#
# Youngs Moduli (GPa) = 90.84129 76.51907 37.64344
#
# Poissons Ratio (x) = 0.18527 0.05915
# Poissons Ratio (y) = 0.21995 -0.11929
# Poissons Ratio (z) = 0.14273 -0.24249
#
# Static dielectric constant tensor:
#      x y z
#    x 1.604820 0.000000 0.028990 
#    y 0.000000 1.600460 0.000000 
#    z 0.028990 0.000000 1.616280 
# 
# From -- ./inp_files/64609.got.cif
#   From: 2010.05.17/outbox.cif.g08.bks.cpg/sg11_33_cif.got.tgz:64609.got - 2010.06.03 12:22:45.
