data_PCOD9157601
_publ_section_title
;
Structure prediction by ZEFSAII (Michael W. Deem and Ramdas Pophale) SiO2 
 PCOD9157601
Probable space group: P 21/M
;
_chemical_formula_sum "Si O2"
_cell_formula_units_Z 32
_cell_length_a 27.891023
_cell_length_b 8.010563
_cell_length_c 21.722136
_cell_angle_alpha 90.000000
_cell_angle_beta 19.694152
_cell_angle_gamma 90.000000
_cell_volume 1635.531209
_symmetry_space_group_name_H-M "P 21/M"
_symmetry_group_IT_number 11
_symmetry_cell_setting 'monoclinic'
loop_
_space_group_symop_operation_xyz
x,y,z
-x,1/2+y,-z
-x,-y,-z
x,1/2-y,z
loop_
_atom_site_type_symbol
_atom_site_label
_atom_site_fract_x
_atom_site_fract_y
_atom_site_fract_z
Si Si1 0.011041 0.454718 0.251992
Si Si2 0.469409 0.454130 0.834626
Si Si3 0.213249 0.951600 0.577996
Si Si4 0.333582 0.048878 0.869943
Si Si5 0.559906 0.948374 0.493510
Si Si6 0.223967 0.048617 0.216319
Si Si7 0.041470 0.950284 0.546564
Si Si8 0.844836 0.949152 0.211034
O O1 0.010143 0.250000 0.252325
O O2 0.909344 0.511454 0.320042
O O3 0.958145 0.508682 0.383594
O O4 0.174424 0.509411 0.047520
O O5 0.471898 0.250000 0.832136
O O6 0.631657 0.511076 0.632089
O O7 0.385676 0.506497 0.874205
O O8 0.375532 0.507801 0.006504
O O9 0.215119 0.750000 0.573072
O O10 0.183869 0.998095 0.683997
O O11 0.328813 0.250000 0.877624
O O12 0.447907 0.998473 0.681200
O O13 0.571112 0.750000 0.479183
O O14 0.715531 0.016193 0.324738
O O15 0.500000 0.000000 0.500000
O O16 0.222426 0.250000 0.216662
O O17 0.098825 0.989159 0.320906
O O18 0.176250 0.995083 0.341750
O O19 0.030505 0.750000 0.561933
O O20 0.839376 0.750000 0.215622
O O21 0.000000 0.000000 0.000000
#
# Coordination Sequence:
#
# PCOD9157601 Si02
#       8
#     4   4   4   4   4   4   4   4
#     4   9  18  32  54  81 109 141 180 224 271 325
#     4   9  16  30  54  78 102 140 183 222 268 323
#     4  10  20  36  58  82 108 142 184 226 270 327
#     4  10  18  34  58  81 108 142 181 228 274 321
#     4  11  25  42  60  86 116 146 182 228 276 327
#     4   9  16  28  48  73 101 137 180 221 266 321
#     4   9  16  29  47  72 104 137 175 222 271 319
#     4  11  25  43  61  83 114 150 185 224 273 331
#
# _framework density 19.565508000000001
#
# number of rings (size 3 to 8) (size 9 to 14) (size 15 to 20)
#    0.000    2.250    2.500    0.750    1.750    1.500 
#    0.000    3.125    0.000    0.000    0.000    0.000 
#    0.000    0.000    0.000    0.000    0.000    0.000 
#
# Total GULP energy -178575.971831 kJ/mol
# GULP energy per Si atom -5580.499120 kJ/mol
# Density = 1.952098 g / cm^3
# Si number density = 19.565508 Si / 1000 Ang^3
#
#
#
# Elastic Constant Matrix: (Units=GPa)
#
#
# Indices 1 2 3 4 5 6 
#
# 1 116.8721 10.8060 85.0339 0.0000 -15.1207 0.0000
# 2 10.8060 12.8334 11.4668 0.0000 -5.4356 0.0000
# 3 85.0339 11.4668 194.4698 0.0000 -6.0458 0.0000
# 4 0.0000 0.0000 0.0000 22.6473 0.0000 8.5718
# 5 -15.1207 -5.4356 -6.0458 0.0000 33.8632 0.0000
# 6 0.0000 0.0000 0.0000 8.5718 0.0000 18.7297
#
#
#
# Elastic Compliance Matrix: (Units=1/GPa)
#
#
# Indices 1 2 3 4 5 6 
#
# 1 0.013564 -0.004656 -0.005522 0.000000 0.004323 0.000000
# 2 -0.004656 0.089386 -0.002869 0.000000 0.011757 0.000000
# 3 -0.005522 -0.002869 0.007678 0.000000 -0.001556 0.000000
# 4 0.000000 0.000000 0.000000 0.053407 0.000000 -0.024442
# 5 0.004323 0.011757 -0.001556 0.000000 0.033070 0.000000
# 6 0.000000 0.000000 0.000000 -0.024442 0.000000 0.064577
#
#
# Mechanical properties :
#
#
# Convention : Reuss Voigt Hill
#
# Bulk Modulus (GPa) = 11.82974 59.86539 35.84756
# Shear Modulus (GPa) = 15.82514 29.50596 22.66555
#
# Velocity S-wave (km/s) = 2.84708 3.88759 3.40728
# Velocity P-wave (km/s) = 4.10696 7.12846 5.81731
#
# Compressibility (1/GPa) = 0.08453273
#
# Stress axis : x y z
#
# Youngs Moduli (GPa) = 73.72504 11.18748 130.24960
#
# Poissons Ratio (x) = 0.05209 0.71924
# Poissons Ratio (y) = 0.34326 0.37371
# Poissons Ratio (z) = 0.40711 0.03210
#
# Static dielectric constant tensor:
#      x y z
#    x 1.668780 0.000000 -0.012510 
#    y 0.000000 1.705460 0.000000 
#    z -0.012510 0.000000 1.691780 
# 
# From -- ./inp_files/66995.got.cif
#   From: 2010.05.17/outbox.cif.g08.bks.cpg/sg11_34_cif.got.tgz:66995.got - 2010.06.03 12:22:45.
