data_PCOD9157050
_publ_section_title
;
Structure prediction by ZEFSAII (Michael W. Deem and Ramdas Pophale) SiO2 
 PCOD9157050
Probable space group: P 21/M
;
_chemical_formula_sum "Si O2"
_cell_formula_units_Z 24
_cell_length_a 6.140796
_cell_length_b 19.507342
_cell_length_c 14.071696
_cell_angle_alpha 90.000000
_cell_angle_beta 56.044004
_cell_angle_gamma 90.000000
_cell_volume 1398.196524
_symmetry_space_group_name_H-M "P 21/M"
_symmetry_group_IT_number 11
_symmetry_cell_setting 'monoclinic'
loop_
_space_group_symop_operation_xyz
x,y,z
-x,1/2+y,-z
-x,-y,-z
x,1/2-y,z
loop_
_atom_site_type_symbol
_atom_site_label
_atom_site_fract_x
_atom_site_fract_y
_atom_site_fract_z
Si Si1 0.652309 0.032574 0.827647
Si Si2 0.601469 0.414851 0.243410
Si Si3 0.122006 0.330188 0.410545
Si Si4 0.127405 0.072570 0.591554
Si Si5 0.868519 0.551237 0.956147
Si Si6 0.700862 0.076799 0.440090
O O1 0.881789 0.075171 0.721644
O O2 0.533366 0.976769 0.782612
O O3 0.782349 0.990447 0.882939
O O4 0.404834 0.074715 0.929908
O O5 0.396152 0.352841 0.296180
O O6 0.641782 0.435965 0.343382
O O7 0.890280 0.399942 0.131119
O O8 0.111431 0.250000 0.430930
O O9 0.092919 0.375475 0.513200
O O10 0.885410 0.357942 0.403877
O O11 0.421088 0.087629 0.559019
O O12 0.156783 0.991741 0.557397
O O13 0.000000 0.500000 0.000000
#
# Coordination Sequence:
#
# PCOD9157050 Si02
#       6
#     4   4   4   4   4   4
#     4  10  18  31  51  82 109 135 169 220 266 315
#     4  10  18  33  53  77 109 136 174 216 270 312
#     4  11  23  35  50  75 109 144 179 219 262 320
#     4  10  20  32  54  77 104 140 176 216 267 317
#     4   9  18  29  50  81 112 132 165 212 267 315
#     4  10  20  31  53  77 106 141 177 218 266 317
#
# _framework density 17.16497
#
# number of rings (size 3 to 8) (size 9 to 14) (size 15 to 20)
#    0.000    2.000    3.333    0.500    4.667    2.667 
#    0.000    0.000    0.000    1.000    0.000    9.333 
#    0.000    0.000    0.000    0.000    0.000    0.000 
#
# Total GULP energy -133641.201446 kJ/mol
# GULP energy per Si atom -5568.383394 kJ/mol
# Density = 1.712590 g / cm^3
# Si number density = 17.164970 Si / 1000 Ang^3
#
#
#
# Elastic Constant Matrix: (Units=GPa)
#
#
# Indices 1 2 3 4 5 6 
#
# 1 100.8187 30.1089 61.0970 0.0000 -15.7600 0.0000
# 2 30.1089 73.4957 32.7585 0.0000 -1.1191 0.0000
# 3 61.0970 32.7585 117.8254 0.0000 -36.9377 0.0000
# 4 0.0000 0.0000 0.0000 11.6475 0.0000 -2.6806
# 5 -15.7600 -1.1191 -36.9377 0.0000 52.8877 0.0000
# 6 0.0000 0.0000 0.0000 -2.6806 0.0000 9.7905
#
#
#
# Elastic Compliance Matrix: (Units=1/GPa)
#
#
# Indices 1 2 3 4 5 6 
#
# 1 0.015059 -0.002987 -0.007159 0.000000 -0.000575 0.000000
# 2 -0.002987 0.016628 -0.004152 0.000000 -0.003438 0.000000
# 3 -0.007159 -0.004152 0.016205 0.000000 0.009097 0.000000
# 4 0.000000 0.000000 0.000000 0.091629 0.000000 0.025087
# 5 -0.000575 -0.003438 0.009097 0.000000 0.025017 0.000000
# 6 0.000000 0.000000 0.000000 0.025087 0.000000 0.109008
#
#
# Mechanical properties :
#
#
# Convention : Reuss Voigt Hill
#
# Bulk Modulus (GPa) = 51.82091 60.00761 55.91426
# Shear Modulus (GPa) = 16.20352 26.07685 21.14018
#
# Velocity S-wave (km/s) = 3.07577 3.90191 3.51321
# Velocity P-wave (km/s) = 6.54746 7.43875 7.00729
#
# Compressibility (1/GPa) = 0.01929723
#
# Stress axis : x y z
#
# Youngs Moduli (GPa) = 66.40479 60.13853 61.70797
#
# Poissons Ratio (x) = 0.17965 0.44174
# Poissons Ratio (y) = 0.19837 0.25620
# Poissons Ratio (z) = 0.47536 0.24969
#
# Static dielectric constant tensor:
#      x y z
#    x 1.654930 0.000000 -0.024160 
#    y 0.000000 1.529190 0.000000 
#    z -0.024160 0.000000 1.636410 
# 
# From -- ./inp_files/29863.got.cif
#   From: 2010.05.17/outbox.cif.g08.bks.cpg/sg11_15_cif.got.tgz:29863.got - 2010.06.03 12:22:45.
