data_PCOD9157286
_publ_section_title
;
Structure prediction by ZEFSAII (Michael W. Deem and Ramdas Pophale) SiO2 
 PCOD9157286
Probable space group: P 21/M
;
_chemical_formula_sum "Si O2"
_cell_formula_units_Z 32
_cell_length_a 15.988951
_cell_length_b 16.625410
_cell_length_c 23.187822
_cell_angle_alpha 90.000000
_cell_angle_beta 16.801341
_cell_angle_gamma 90.000000
_cell_volume 1781.687701
_symmetry_space_group_name_H-M "P 21/M"
_symmetry_group_IT_number 11
_symmetry_cell_setting 'monoclinic'
loop_
_space_group_symop_operation_xyz
x,y,z
-x,1/2+y,-z
-x,-y,-z
x,1/2-y,z
loop_
_atom_site_type_symbol
_atom_site_label
_atom_site_fract_x
_atom_site_fract_y
_atom_site_fract_z
Si Si1 0.887397 0.012692 0.814484
Si Si2 0.181845 0.030883 0.497439
Si Si3 0.197792 0.055017 0.910413
Si Si4 0.269963 0.095276 0.238851
Si Si5 0.025916 0.046689 0.848816
Si Si6 0.449202 0.343802 0.242031
Si Si7 0.376478 0.339812 0.696871
Si Si8 0.930521 0.661567 0.748666
O O1 0.061446 0.033175 0.757629
O O2 0.058434 0.035038 0.643533
O O3 0.586489 0.060337 0.015436
O O4 0.821634 0.917272 0.853989
O O5 0.257572 0.115298 0.418322
O O6 0.479306 0.980630 0.301738
O O7 0.950000 0.979843 0.613933
O O8 0.226329 0.138316 0.857285
O O9 0.057383 0.037899 0.065299
O O10 0.000000 0.000000 0.000000
O O11 0.293751 0.141188 0.283316
O O12 0.163565 0.148738 0.255523
O O13 0.280391 0.092732 0.714319
O O14 0.748054 0.105427 0.041653
O O15 0.501741 0.250000 0.216702
O O16 0.293413 0.250000 0.732976
O O17 0.721201 0.341994 0.477437
O O18 0.835783 0.750000 0.831390
#
# Coordination Sequence:
#
# PCOD9157286 Si02
#       8
#     4   4   4   4   4   4   4   4
#     4  10  20  36  55  80 106 148 184 214 263 324
#     4  10  18  34  54  77 107 136 180 220 260 321
#     4   9  17  33  52  77 100 137 174 215 262 317
#     4  10  19  35  56  75 106 145 182 216 266 327
#     4   9  20  34  55  78 106 141 183 217 265 323
#     4  10  20  34  53  79 106 137 178 229 270 307
#     4  10  18  32  54  79 104 137 177 223 270 314
#     4  10  19  32  53  79 107 138 176 224 271 315
#
# _framework density 17.960498999999999
#
# number of rings (size 3 to 8) (size 9 to 14) (size 15 to 20)
#    0.000    2.250    2.500    2.625    0.000    0.500 
#    0.000    6.250    0.000    0.000    0.000    0.000 
#    0.000    0.000    0.000    0.000    0.000    0.000 
#
# Total GULP energy -178319.874902 kJ/mol
# GULP energy per Si atom -5572.496091 kJ/mol
# Density = 1.791962 g / cm^3
# Si number density = 17.960499 Si / 1000 Ang^3
#
#
#
# Elastic Constant Matrix: (Units=GPa)
#
#
# Indices 1 2 3 4 5 6 
#
# 1 85.0971 23.1817 13.9843 0.0000 -1.5315 0.0000
# 2 23.1817 73.8634 6.8488 0.0000 14.0187 0.0000
# 3 13.9843 6.8488 33.5775 0.0000 1.8422 0.0000
# 4 0.0000 0.0000 0.0000 20.8932 0.0000 -4.6829
# 5 -1.5315 14.0187 1.8422 0.0000 22.3601 0.0000
# 6 0.0000 0.0000 0.0000 -4.6829 0.0000 23.3295
#
#
#
# Elastic Compliance Matrix: (Units=1/GPa)
#
#
# Indices 1 2 3 4 5 6 
#
# 1 0.013954 -0.004732 -0.005085 0.000000 0.004341 0.000000
# 2 -0.004732 0.017204 -0.000933 0.000000 -0.011033 0.000000
# 3 -0.005085 -0.000933 0.032222 0.000000 -0.002418 0.000000
# 4 0.000000 0.000000 0.000000 0.050117 0.000000 0.010060
# 5 0.004341 -0.011033 -0.002418 0.000000 0.052137 0.000000
# 6 0.000000 0.000000 0.000000 0.010060 0.000000 0.044883
#
#
# Mechanical properties :
#
#
# Convention : Reuss Voigt Hill
#
# Bulk Modulus (GPa) = 23.87687 31.17419 27.52553
# Shear Modulus (GPa) = 20.32707 23.21811 21.77259
#
# Velocity S-wave (km/s) = 3.36782 3.59936 3.48551
# Velocity P-wave (km/s) = 5.33347 5.88801 5.61759
#
# Compressibility (1/GPa) = 0.04188154
#
# Stress axis : x y z
#
# Youngs Moduli (GPa) = 71.66395 58.12545 31.03428
#
# Poissons Ratio (x) = 0.27504 0.15780
# Poissons Ratio (y) = 0.33911 0.02896
# Poissons Ratio (z) = 0.36438 0.05424
#
# Static dielectric constant tensor:
#      x y z
#    x 1.643620 0.000000 -0.011350 
#    y 0.000000 1.627330 0.000000 
#    z -0.011350 0.000000 1.612350 
# 
# From -- ./inp_files/65844.got.cif
#   From: 2010.05.17/outbox.cif.g08.bks.cpg/sg11_33_cif.got.tgz:65844.got - 2010.06.03 12:22:45.
