data_PCOD9157896
_publ_section_title
;
Structure prediction by ZEFSAII (Michael W. Deem and Ramdas Pophale) SiO2 
 PCOD9157896
Probable space group: P 21/M
;
_chemical_formula_sum "Si O2"
_cell_formula_units_Z 32
_cell_length_a 17.892992
_cell_length_b 7.494814
_cell_length_c 15.044154
_cell_angle_alpha 90.000000
_cell_angle_beta 36.050561
_cell_angle_gamma 90.000000
_cell_volume 1187.291302
_symmetry_space_group_name_H-M "P 21/M"
_symmetry_group_IT_number 11
_symmetry_cell_setting 'monoclinic'
loop_
_space_group_symop_operation_xyz
x,y,z
-x,1/2+y,-z
-x,-y,-z
x,1/2-y,z
loop_
_atom_site_type_symbol
_atom_site_label
_atom_site_fract_x
_atom_site_fract_y
_atom_site_fract_z
Si Si1 0.533227 0.536575 0.069033
Si Si2 0.295008 0.043271 0.960811
Si Si3 0.273993 0.044441 0.693204
Si Si4 0.033825 0.460103 0.696924
Si Si5 0.507561 0.466982 0.370443
Si Si6 0.878021 0.463156 0.680443
Si Si7 0.733004 0.035666 0.652891
Si Si8 0.904241 0.538294 0.987761
O O1 0.544001 0.750000 0.069540
O O2 0.664572 0.463158 0.983378
O O3 0.405225 0.466528 0.238212
O O4 0.500000 0.500000 0.000000
O O5 0.260040 0.250000 0.000095
O O6 0.196009 0.959026 0.987848
O O7 0.429407 0.031892 0.780328
O O8 0.244209 0.250000 0.698355
O O9 0.362699 0.969841 0.528527
O O10 0.148272 0.968361 0.866075
O O11 0.387261 0.038555 0.659328
O O12 0.019832 0.250000 0.712198
O O13 0.923635 0.531671 0.734399
O O14 0.163520 0.500130 0.521492
O O15 0.027567 0.518503 0.806130
O O16 0.509371 0.250000 0.373088
O O17 0.866841 0.250000 0.698109
O O18 0.773302 0.536157 0.711824
O O19 0.000000 0.500000 0.500000
O O20 0.725461 0.250000 0.669733
O O21 0.887225 0.750000 0.014627
#
# Coordination Sequence:
#
# PCOD9157896 Si02
#       8
#     4   4   4   4   4   4   4   4
#     4  10  22  37  53  71  94 126 164 203 241 280
#     4   9  19  34  47  67  98 131 162 195 238 286
#     4   8  15  27  42  65  98 129 156 189 234 285
#     4  10  19  29  45  70  95 118 151 197 239 278
#     4   9  15  25  45  69  92 124 162 196 231 278
#     4   8  15  27  42  61  83 108 142 185 228 268
#     4   9  18  34  51  65  86 121 160 194 235 287
#     4   9  17  29  45  66  98 132 155 182 229 288
#
# _framework density 26.952103999999999
#
# number of rings (size 3 to 8) (size 9 to 14) (size 15 to 20)
#    0.000    3.000    0.000    1.500    1.750    4.000 
#    0.000    0.000    0.000    0.000    0.000    0.875 
#    0.000    0.000    0.000    0.000    0.000    0.000 
#
# Total GULP energy -178424.878555 kJ/mol
# GULP energy per Si atom -5575.777455 kJ/mol
# Density = 2.689076 g / cm^3
# Si number density = 26.952104 Si / 1000 Ang^3
#
#
#
# Elastic Constant Matrix: (Units=GPa)
#
#
# Indices 1 2 3 4 5 6 
#
# 1 84.9498 1.9106 -6.4023 0.0000 20.2415 0.0000
# 2 1.9106 116.7478 12.3538 0.0000 0.0272 0.0000
# 3 -6.4023 12.3538 121.5312 0.0000 16.6176 0.0000
# 4 0.0000 0.0000 0.0000 28.8374 0.0000 6.2046
# 5 20.2415 0.0272 16.6176 0.0000 35.1867 0.0000
# 6 0.0000 0.0000 0.0000 6.2046 0.0000 8.2040
#
#
#
# Elastic Compliance Matrix: (Units=1/GPa)
#
#
# Indices 1 2 3 4 5 6 
#
# 1 0.014094 -0.000443 0.002027 0.000000 -0.009065 0.000000
# 2 -0.000443 0.008679 -0.001004 0.000000 0.000722 0.000000
# 3 0.002027 -0.001004 0.009190 0.000000 -0.005505 0.000000
# 4 0.000000 0.000000 0.000000 0.041416 0.000000 -0.031322
# 5 -0.009065 0.000722 -0.005505 0.000000 0.036234 0.000000
# 6 0.000000 0.000000 0.000000 -0.031322 0.000000 0.145580
#
#
# Mechanical properties :
#
#
# Convention : Reuss Voigt Hill
#
# Bulk Modulus (GPa) = 30.19103 37.66146 33.92625
# Shear Modulus (GPa) = 18.86260 35.47007 27.16633
#
# Velocity S-wave (km/s) = 2.64835 3.63166 3.17826
# Velocity P-wave (km/s) = 4.53627 5.62042 5.10719
#
# Compressibility (1/GPa) = 0.03312242
#
# Stress axis : x y z
#
# Youngs Moduli (GPa) = 70.95051 115.22288 108.81386
#
# Poissons Ratio (x) = 0.05105 -0.22057
# Poissons Ratio (y) = 0.03143 0.10929
# Poissons Ratio (z) = -0.14382 0.11572
#
# Static dielectric constant tensor:
#      x y z
#    x 2.187950 0.000000 0.012460 
#    y 0.000000 2.012090 0.000000 
#    z 0.012460 0.000000 2.407480 
# 
# From -- ./inp_files/61747.got.cif
#   From: 2010.05.17/outbox.cif.g08.bks.cpg/sg11_31_cif.got.tgz:61747.got - 2010.06.03 12:22:45.
