data_PCOD9157395
_publ_section_title
;
Structure prediction by ZEFSAII (Michael W. Deem and Ramdas Pophale) SiO2 
 PCOD9157395
Probable space group: P 21/M
;
_chemical_formula_sum "Si O2"
_cell_formula_units_Z 20
_cell_length_a 5.493300
_cell_length_b 17.283529
_cell_length_c 10.127191
_cell_angle_alpha 90.000000
_cell_angle_beta 123.425881
_cell_angle_gamma 90.000000
_cell_volume 802.477130
_symmetry_space_group_name_H-M "P 21/M"
_symmetry_group_IT_number 11
_symmetry_cell_setting 'monoclinic'
loop_
_space_group_symop_operation_xyz
x,y,z
-x,1/2+y,-z
-x,-y,-z
x,1/2-y,z
loop_
_atom_site_type_symbol
_atom_site_label
_atom_site_fract_x
_atom_site_fract_y
_atom_site_fract_z
Si Si1 0.365404 0.250000 0.317015
Si Si2 0.163584 0.333764 0.873088
Si Si3 0.672030 0.250000 0.120021
Si Si4 0.203554 0.162092 0.574454
Si Si5 0.355457 0.589172 0.587664
Si Si6 0.266187 0.954335 0.274094
O O1 0.537280 0.250000 0.226964
O O2 0.477514 0.167494 0.405241
O O3 0.015693 0.250000 0.203786
O O4 0.039720 0.250000 0.888007
O O5 0.110030 0.331099 0.700518
O O6 0.016155 0.413549 0.872742
O O7 0.506607 0.323362 0.003482
O O8 0.238299 0.250000 0.538148
O O9 0.488127 0.111042 0.667821
O O10 0.934000 0.118244 0.424624
O O11 0.588298 0.534033 0.728360
O O12 0.237225 0.540735 0.425643
#
# Coordination Sequence:
#
# PCOD9157395 Si02
#       6
#     2   4   2   4   4   4
#     4  12  26  45  62  89 128 180 198 254 308 386
#     4   8  19  37  60  90 109 158 212 260 302 352
#     4  10  26  43  66  85 126 168 226 252 294 366
#     4  10  18  32  63  91 115 155 200 263 315 375
#     4  10  23  37  55  94 129 157 206 242 337 372
#     4  10  20  36  63  91 123 155 199 277 303 376
#
# _framework density 24.922830000000001
#
# number of rings (size 3 to 8) (size 9 to 14) (size 15 to 20)
#    0.600    1.600    1.000    1.200    8.400    0.000 
#    0.000    2.000    0.000    0.000    0.000    0.000 
#    0.000    0.000    0.000    0.000    0.000    0.000 
#
# Total GULP energy -111501.237272 kJ/mol
# GULP energy per Si atom -5575.061864 kJ/mol
# Density = 2.486610 g / cm^3
# Si number density = 24.922830 Si / 1000 Ang^3
#
#
#
# Elastic Constant Matrix: (Units=GPa)
#
#
# Indices 1 2 3 4 5 6 
#
# 1 72.4714 30.0978 18.9535 0.0000 33.1784 0.0000
# 2 30.0978 115.7104 17.2233 0.0000 10.8382 0.0000
# 3 18.9535 17.2233 72.6299 0.0000 25.0532 0.0000
# 4 0.0000 0.0000 0.0000 -10.5793 0.0000 15.8449
# 5 33.1784 10.8382 25.0532 0.0000 39.4034 0.0000
# 6 0.0000 0.0000 0.0000 15.8449 0.0000 47.3304
#
#
#
# Elastic Compliance Matrix: (Units=1/GPa)
#
#
# Indices 1 2 3 4 5 6 
#
# 1 0.024791 -0.004778 0.001807 0.000000 -0.020710 0.000000
# 2 -0.004778 0.009942 -0.001992 0.000000 0.002555 0.000000
# 3 0.001807 -0.001992 0.018068 0.000000 -0.012461 0.000000
# 4 0.000000 0.000000 0.000000 -0.062958 0.000000 0.021076
# 5 -0.020710 0.002555 -0.012461 0.000000 0.050037 0.000000
# 6 0.000000 0.000000 0.000000 0.021076 0.000000 0.014072
#
#
# Mechanical properties :
#
#
# Convention : Reuss Voigt Hill
#
# Bulk Modulus (GPa) = 23.32332 43.70677 33.51504
# Shear Modulus (GPa) = 63.96301 28.20004 46.08153
#
# Velocity S-wave (km/s) = 5.07150 3.36742 4.30463
# Velocity P-wave (km/s) = 6.60848 5.71789 6.17925
#
# Compressibility (1/GPa) = 0.04287554
#
# Stress axis : x y z
#
# Youngs Moduli (GPa) = 40.33672 100.58092 55.34733
#
# Poissons Ratio (x) = 0.48055 -0.10002
# Poissons Ratio (y) = 0.19272 0.11026
# Poissons Ratio (z) = -0.07289 0.20038
#
# Static dielectric constant tensor:
#      x y z
#    x 2.070220 0.000000 -0.047080 
#    y 0.000000 2.045260 0.000000 
#    z -0.047080 0.000000 2.011120 
# 
# From -- ./inp_files/4375.got.cif
#   From: 2010.05.17/outbox.cif.g08.bks.cpg/sg11_3_cif.got.tgz:4375.got - 2010.06.03 12:22:45.
