data_PCOD9157611
_publ_section_title
;
Structure prediction by ZEFSAII (Michael W. Deem and Ramdas Pophale) SiO2 
 PCOD9157611
Probable space group: P 21/M
;
_chemical_formula_sum "Si O2"
_cell_formula_units_Z 22
_cell_length_a 8.265874
_cell_length_b 11.925468
_cell_length_c 11.363418
_cell_angle_alpha 90.000000
_cell_angle_beta 112.194987
_cell_angle_gamma 90.000000
_cell_volume 1037.143825
_symmetry_space_group_name_H-M "P 21/M"
_symmetry_group_IT_number 11
_symmetry_cell_setting 'monoclinic'
loop_
_space_group_symop_operation_xyz
x,y,z
-x,1/2+y,-z
-x,-y,-z
x,1/2-y,z
loop_
_atom_site_type_symbol
_atom_site_label
_atom_site_fract_x
_atom_site_fract_y
_atom_site_fract_z
Si Si1 0.094903 0.378373 0.233880
Si Si2 0.189227 0.870371 0.524096
Si Si3 0.857018 0.545146 0.323374
Si Si4 0.384263 0.950178 0.362550
Si Si5 0.711748 0.750000 0.134778
Si Si6 0.994139 0.750000 0.009183
Si Si7 0.605681 0.250000 0.805733
O O1 0.117522 0.250000 0.287540
O O2 0.275623 0.446497 0.278710
O O3 0.966368 0.454672 0.276497
O O4 0.019674 0.355919 0.083118
O O5 0.229989 0.750000 0.585941
O O6 0.251444 0.878110 0.407559
O O7 0.982779 0.891289 0.451148
O O8 0.263628 0.967279 0.627897
O O9 0.775941 0.638256 0.219122
O O10 0.446742 0.860472 0.283711
O O11 0.500000 0.000000 0.500000
O O12 0.502080 0.750000 0.100489
O O13 0.823323 0.750000 0.045162
O O14 0.183981 0.750000 0.121274
#
# Coordination Sequence:
#
# PCOD9157611 Si02
#       7
#     4   4   4   4   2   2   2
#     4   9  22  42  70  96 127 188 227 282 347 401
#     4  10  18  34  58  90 127 172 208 262 328 410
#     4  10  20  35  61  95 130 167 223 270 336 416
#     4  11  23  40  64  99 139 175 217 281 348 415
#     4  12  24  42  64  96 134 178 228 292 346 388
#     4  10  24  49  70  94 136 183 243 286 335 404
#     4  12  26  43  68 102 136 183 235 282 347 410
#
# _framework density 21.2121
#
# number of rings (size 3 to 8) (size 9 to 14) (size 15 to 20)
#    0.545    1.091    1.818    3.818    1.273    2.909 
#    1.636    5.455    0.000    0.000    0.000    0.000 
#    0.000    0.000    0.000    0.000    0.000    0.000 
#
# Total GULP energy -122520.226269 kJ/mol
# GULP energy per Si atom -5569.101194 kJ/mol
# Density = 2.116382 g / cm^3
# Si number density = 21.212100 Si / 1000 Ang^3
#
#
#
# Elastic Constant Matrix: (Units=GPa)
#
#
# Indices 1 2 3 4 5 6 
#
# 1 73.5072 26.1555 29.5150 0.0000 -19.3752 0.0000
# 2 26.1555 149.1075 33.0472 0.0000 0.1262 0.0000
# 3 29.5150 33.0472 83.9328 0.0000 -6.6509 0.0000
# 4 0.0000 0.0000 0.0000 40.7626 0.0000 1.3339
# 5 -19.3752 0.1262 -6.6509 0.0000 37.7016 0.0000
# 6 0.0000 0.0000 0.0000 1.3339 0.0000 20.2180
#
#
#
# Elastic Compliance Matrix: (Units=1/GPa)
#
#
# Indices 1 2 3 4 5 6 
#
# 1 0.018697 -0.002173 -0.005028 0.000000 0.008729 0.000000
# 2 -0.002173 0.007611 -0.002356 0.000000 -0.001558 0.000000
# 3 -0.005028 -0.002356 0.014610 0.000000 0.000002 0.000000
# 4 0.000000 0.000000 0.000000 0.024585 0.000000 -0.001622
# 5 0.008729 -0.001558 0.000002 0.000000 0.031015 0.000000
# 6 0.000000 0.000000 0.000000 -0.001622 0.000000 0.049568
#
#
# Mechanical properties :
#
#
# Convention : Reuss Voigt Hill
#
# Bulk Modulus (GPa) = 45.86108 53.77589 49.81849
# Shear Modulus (GPa) = 28.99093 34.25843 31.62468
#
# Velocity S-wave (km/s) = 3.70092 4.02312 3.86538
# Velocity P-wave (km/s) = 6.31899 6.85472 6.59230
#
# Compressibility (1/GPa) = 0.02180498
#
# Stress axis : x y z
#
# Youngs Moduli (GPa) = 53.48558 131.38482 68.44601
#
# Poissons Ratio (x) = 0.28547 0.34411
# Poissons Ratio (y) = 0.11621 0.16127
# Poissons Ratio (z) = 0.26890 0.30957
#
# Static dielectric constant tensor:
#      x y z
#    x 1.917280 0.000000 -0.017480 
#    y 0.000000 1.762880 0.000000 
#    z -0.017480 0.000000 1.735450 
# 
# From -- ./inp_files/31219.got.cif
#   From: 2010.05.17/outbox.cif.g08.bks.cpg/sg11_16_cif.got.tgz:31219.got - 2010.06.03 12:22:45.
