data_PCOD9157551
_publ_section_title
;
Structure prediction by ZEFSAII (Michael W. Deem and Ramdas Pophale) SiO2 
 PCOD9157551
Probable space group: P 21/M
;
_chemical_formula_sum "Si O2"
_cell_formula_units_Z 28
_cell_length_a 27.178092
_cell_length_b 7.482262
_cell_length_c 9.677648
_cell_angle_alpha 90.000000
_cell_angle_beta 142.377345
_cell_angle_gamma 90.000000
_cell_volume 1201.372718
_symmetry_space_group_name_H-M "P 21/M"
_symmetry_group_IT_number 11
_symmetry_cell_setting 'monoclinic'
loop_
_space_group_symop_operation_xyz
x,y,z
-x,1/2+y,-z
-x,-y,-z
x,1/2-y,z
loop_
_atom_site_type_symbol
_atom_site_label
_atom_site_fract_x
_atom_site_fract_y
_atom_site_fract_z
Si Si1 0.688073 0.468157 0.851591
Si Si2 0.871029 0.465947 0.247661
Si Si3 0.779700 0.451645 0.560270
Si Si4 0.352672 0.959027 0.929634
Si Si5 0.523176 0.461371 0.391403
Si Si6 0.915001 0.469644 0.052648
Si Si7 0.916513 0.544854 0.658594
O O1 0.683506 0.250000 0.844114
O O2 0.615131 0.528500 0.590189
O O3 0.778064 0.515533 0.012166
O O4 0.671719 0.531328 0.973109
O O5 0.875200 0.250000 0.267054
O O6 0.921108 0.524062 0.225454
O O7 0.895136 0.540642 0.448754
O O8 0.757983 0.250000 0.556887
O O9 0.701127 0.535739 0.314080
O O10 0.847697 0.446028 0.590799
O O11 0.831085 0.531693 0.799747
O O12 0.330516 0.750000 0.884474
O O13 0.449285 0.969092 0.135878
O O14 0.500000 0.500000 0.500000
O O15 0.523597 0.250000 0.371294
O O16 0.915445 0.250000 0.049623
O O17 0.992400 0.527969 0.137309
O O18 0.914952 0.750000 0.701459
#
# Coordination Sequence:
#
# PCOD9157551 Si02
#       7
#     4   4   4   4   4   4   4
#     4   8  14  26  45  69  92 121 161 195 232 288
#     4  10  18  34  55  73  97 134 169 204 247 295
#     4  10  19  35  54  72  97 134 172 207 245 298
#     4   9  16  28  46  69  94 123 163 202 242 292
#     4   9  16  26  42  68  98 125 156 197 244 289
#     4   9  20  34  52  75  99 129 171 211 247 296
#     4  11  21  33  49  77 104 126 165 213 255 298
#
# _framework density 23.306674000000001
#
# number of rings (size 3 to 8) (size 9 to 14) (size 15 to 20)
#    0.000    2.571    1.429    2.571    0.000    0.571 
#    0.000    2.857    0.000    0.857    0.000    0.000 
#    0.000    0.000    0.000    0.000    0.000    0.571 
#
# Total GULP energy -156263.180143 kJ/mol
# GULP energy per Si atom -5580.827862 kJ/mol
# Density = 2.325363 g / cm^3
# Si number density = 23.306674 Si / 1000 Ang^3
#
#
#
# Elastic Constant Matrix: (Units=GPa)
#
#
# Indices 1 2 3 4 5 6 
#
# 1 26.2598 -2.7737 4.0727 0.0000 -5.6912 0.0000
# 2 -2.7737 73.7447 -0.1948 0.0000 1.0298 0.0000
# 3 4.0727 -0.1948 146.7166 0.0000 10.4331 0.0000
# 4 0.0000 0.0000 0.0000 11.0428 0.0000 -3.1880
# 5 -5.6912 1.0298 10.4331 0.0000 38.2300 0.0000
# 6 0.0000 0.0000 0.0000 -3.1880 0.0000 2.4566
#
#
#
# Elastic Compliance Matrix: (Units=1/GPa)
#
#
# Indices 1 2 3 4 5 6 
#
# 1 0.039839 0.001406 -0.001553 0.000000 0.006317 0.000000
# 2 0.001406 0.013615 -0.000010 0.000000 -0.000155 0.000000
# 3 -0.001553 -0.000010 0.007011 0.000000 -0.002144 0.000000
# 4 0.000000 0.000000 0.000000 0.144812 0.000000 0.187928
# 5 0.006317 -0.000155 -0.002144 0.000000 0.027687 0.000000
# 6 0.000000 0.000000 0.000000 0.187928 0.000000 0.650949
#
#
# Mechanical properties :
#
#
# Convention : Reuss Voigt Hill
#
# Bulk Modulus (GPa) = 16.62451 27.65883 22.14167
# Shear Modulus (GPa) = 5.52927 26.72033 16.12480
#
# Velocity S-wave (km/s) = 1.54193 3.38963 2.63316
# Velocity P-wave (km/s) = 3.21224 5.21656 4.33192
#
# Compressibility (1/GPa) = 0.06015213
#
# Stress axis : x y z
#
# Youngs Moduli (GPa) = 25.10077 73.44664 142.62376
#
# Poissons Ratio (x) = -0.10328 0.22153
# Poissons Ratio (y) = -0.03530 0.00142
# Poissons Ratio (z) = 0.03899 0.00073
#
# Static dielectric constant tensor:
#      x y z
#    x 1.828460 0.000000 0.021530 
#    y 0.000000 1.927880 0.000000 
#    z 0.021530 0.000000 1.934410 
# 
# From -- ./inp_files/28430.got.cif
#   From: 2010.05.17/outbox.cif.g08.bks.cpg/sg11_15_cif.got.tgz:28430.got - 2010.06.03 12:22:45.
