data_PCOD9157785
_publ_section_title
;
Structure prediction by ZEFSAII (Michael W. Deem and Ramdas Pophale) SiO2 
 PCOD9157785
Probable space group: P 21/M
;
_chemical_formula_sum "Si O2"
_cell_formula_units_Z 26
_cell_length_a 8.132328
_cell_length_b 22.631369
_cell_length_c 7.652282
_cell_angle_alpha 90.000000
_cell_angle_beta 130.787257
_cell_angle_gamma 90.000000
_cell_volume 1066.333559
_symmetry_space_group_name_H-M "P 21/M"
_symmetry_group_IT_number 11
_symmetry_cell_setting 'monoclinic'
loop_
_space_group_symop_operation_xyz
x,y,z
-x,1/2+y,-z
-x,-y,-z
x,1/2-y,z
loop_
_atom_site_type_symbol
_atom_site_label
_atom_site_fract_x
_atom_site_fract_y
_atom_site_fract_z
Si Si1 0.474175 0.130833 0.332638
Si Si2 0.203167 0.750000 0.903956
Si Si3 0.767773 0.116673 0.109606
Si Si4 0.756111 0.750000 0.807430
Si Si5 0.711300 0.750000 0.201623
Si Si6 0.869248 0.957466 0.780628
Si Si7 0.133962 0.936762 0.465493
Si Si8 0.689627 0.875983 0.178851
O O1 0.377177 0.191271 0.342722
O O2 0.348575 0.072501 0.305908
O O3 0.727058 0.115083 0.533857
O O4 0.417026 0.135163 0.085893
O O5 0.466352 0.750000 0.111639
O O6 0.191388 0.684884 0.809721
O O7 0.004416 0.750000 0.907061
O O8 0.787527 0.070678 0.282261
O O9 0.966787 0.097090 0.129697
O O10 0.526691 0.109637 0.861262
O O11 0.745743 0.750000 0.013638
O O12 0.793659 0.814271 0.314238
O O13 0.823184 0.999580 0.584610
O O14 0.000000 0.000000 0.000000
O O15 0.879774 0.922139 0.287514
#
# Coordination Sequence:
#
# PCOD9157785 Si02
#       8
#     4   2   4   2   2   4   4   4
#     4  10  21  40  63  94 122 164 213 262 320 377
#     4  10  18  39  67  91 126 166 208 271 323 383
#     4  10  23  41  65  91 124 164 215 258 322 380
#     4  10  18  37  69  89 126 167 214 266 328 380
#     4   8  18  32  62  94 124 159 208 267 319 381
#     4  12  23  42  64  90 129 170 212 266 312 382
#     4  11  23  40  63  90 128 168 205 261 323 381
#     4   9  19  39  60  91 119 164 208 255 319 377
#
# _framework density 24.382614
#
# number of rings (size 3 to 8) (size 9 to 14) (size 15 to 20)
#    0.000    1.846    3.077    1.846    0.000    1.846 
#    5.538    0.000    0.000    1.846    0.000    0.000 
#    0.000    0.000    0.000    0.000    0.000    0.000 
#
# Total GULP energy -144971.932566 kJ/mol
# GULP energy per Si atom -5575.843560 kJ/mol
# Density = 2.432712 g / cm^3
# Si number density = 24.382614 Si / 1000 Ang^3
#
#
#
# Elastic Constant Matrix: (Units=GPa)
#
#
# Indices 1 2 3 4 5 6 
#
# 1 110.9315 25.4346 21.7736 0.0000 36.5053 0.0000
# 2 25.4346 106.9910 18.9986 0.0000 8.0845 0.0000
# 3 21.7736 18.9986 53.8293 0.0000 14.6605 0.0000
# 4 0.0000 0.0000 0.0000 -25.8717 0.0000 32.5027
# 5 36.5053 8.0845 14.6605 0.0000 28.0569 0.0000
# 6 0.0000 0.0000 0.0000 32.5027 0.0000 40.0030
#
#
#
# Elastic Compliance Matrix: (Units=1/GPa)
#
#
# Indices 1 2 3 4 5 6 
#
# 1 0.016313 -0.002294 -0.000219 0.000000 -0.020450 0.000000
# 2 -0.002294 0.010329 -0.003171 0.000000 0.001665 0.000000
# 3 -0.000219 -0.003171 0.022687 0.000000 -0.010655 0.000000
# 4 0.000000 0.000000 0.000000 -0.019128 0.000000 0.015541
# 5 -0.020450 0.001665 -0.010655 0.000000 0.067337 0.000000
# 6 0.000000 0.000000 0.000000 0.015541 0.000000 0.012371
#
#
# Mechanical properties :
#
#
# Convention : Reuss Voigt Hill
#
# Bulk Modulus (GPa) = 26.34325 44.90727 35.62526
# Shear Modulus (GPa) = 37.33217 22.14063 29.73640
#
# Velocity S-wave (km/s) = 3.91717 3.01666 3.49603
# Velocity P-wave (km/s) = 5.59344 5.53094 5.56228
#
# Compressibility (1/GPa) = 0.03796039
#
# Stress axis : x y z
#
# Youngs Moduli (GPa) = 61.30012 96.81295 44.07745
#
# Poissons Ratio (x) = 0.22208 0.00967
# Poissons Ratio (y) = 0.14061 0.13978
# Poissons Ratio (z) = 0.01345 0.30702
#
# Static dielectric constant tensor:
#      x y z
#    x 2.032110 0.000000 -0.055910 
#    y 0.000000 1.953500 0.000000 
#    z -0.055910 0.000000 1.972800 
# 
# From -- ./inp_files/14575.got.cif
#   From: 2010.05.17/outbox.cif.g08.bks.cpg/sg11_8_cif.got.tgz:14575.got - 2010.06.03 12:22:45.
