data_PCOD9157641
_publ_section_title
;
Structure prediction by ZEFSAII (Michael W. Deem and Ramdas Pophale) SiO2 
 PCOD9157641
Probable space group: P 21/M
;
_chemical_formula_sum "Si O2"
_cell_formula_units_Z 32
_cell_length_a 15.440837
_cell_length_b 10.648853
_cell_length_c 19.842289
_cell_angle_alpha 90.000000
_cell_angle_beta 29.372009
_cell_angle_gamma 90.000000
_cell_volume 1600.239702
_symmetry_space_group_name_H-M "P 21/M"
_symmetry_group_IT_number 11
_symmetry_cell_setting 'monoclinic'
loop_
_space_group_symop_operation_xyz
x,y,z
-x,1/2+y,-z
-x,-y,-z
x,1/2-y,z
loop_
_atom_site_type_symbol
_atom_site_label
_atom_site_fract_x
_atom_site_fract_y
_atom_site_fract_z
Si Si1 0.795455 0.984620 0.157696
Si Si2 0.147638 0.895297 0.103143
Si Si3 0.322594 0.604446 0.271764
Si Si4 0.792868 0.101051 0.790621
Si Si5 0.447564 0.105788 0.400243
Si Si6 0.255367 0.393237 0.656333
Si Si7 0.703194 0.885121 0.083650
Si Si8 0.179914 0.400754 0.465268
O O1 0.778071 0.949006 0.247503
O O2 0.714427 0.890819 0.156894
O O3 0.655273 0.097509 0.246091
O O4 0.000000 0.000000 0.000000
O O5 0.204327 0.750000 0.051627
O O6 0.222779 0.948203 0.122928
O O7 0.935386 0.892256 0.251021
O O8 0.199881 0.991680 0.009647
O O9 0.251484 0.750000 0.322727
O O10 0.335750 0.568499 0.183783
O O11 0.508571 0.607975 0.184023
O O12 0.206782 0.496928 0.385730
O O13 0.776509 0.250000 0.811936
O O14 0.989742 0.079517 0.628350
O O15 0.393995 0.250000 0.443020
O O16 0.388421 0.045793 0.511690
O O17 0.331046 0.061139 0.416677
O O18 0.312147 0.250000 0.631306
O O19 0.781557 0.750000 0.009012
O O20 0.197275 0.250000 0.437497
#
# Coordination Sequence:
#
# PCOD9157641 Si02
#       8
#     4   4   4   4   4   4   4   4
#     4  12  23  38  59  84 117 162 200 242 292 364
#     4  10  20  38  63  86 109 150 204 248 287 346
#     4  10  21  37  56  83 120 157 187 230 293 357
#     4   9  18  35  62  88 112 148 193 237 291 349
#     4  10  21  37  61  89 116 149 201 256 296 342
#     4  10  20  38  61  86 115 151 199 255 302 346
#     4  11  24  40  55  82 124 159 190 240 299 355
#     4  10  18  34  61  88 114 145 188 243 290 343
#
# _framework density 19.997004
#
# number of rings (size 3 to 8) (size 9 to 14) (size 15 to 20)
#    0.000    1.750    3.750    1.125    0.000    2.500 
#    0.000    1.250    0.000    0.750    0.000    0.000 
#    0.000    0.000    0.000    0.000    0.000    0.000 
#
# Total GULP energy -178162.958086 kJ/mol
# GULP energy per Si atom -5567.592440 kJ/mol
# Density = 1.995149 g / cm^3
# Si number density = 19.997004 Si / 1000 Ang^3
#
#
#
# Elastic Constant Matrix: (Units=GPa)
#
#
# Indices 1 2 3 4 5 6 
#
# 1 128.3643 13.9745 23.0697 0.0000 7.7303 0.0000
# 2 13.9745 70.6692 23.7135 0.0000 12.9590 0.0000
# 3 23.0697 23.7135 63.0058 0.0000 3.9096 0.0000
# 4 0.0000 0.0000 0.0000 23.2527 0.0000 2.4725
# 5 7.7303 12.9590 3.9096 0.0000 34.4707 0.0000
# 6 0.0000 0.0000 0.0000 2.4725 0.0000 16.1758
#
#
#
# Elastic Compliance Matrix: (Units=1/GPa)
#
#
# Indices 1 2 3 4 5 6 
#
# 1 0.008433 -0.000463 -0.002827 0.000000 -0.001396 0.000000
# 2 -0.000463 0.017300 -0.005987 0.000000 -0.005721 0.000000
# 3 -0.002827 -0.005987 0.019115 0.000000 0.000717 0.000000
# 4 0.000000 0.000000 0.000000 0.043716 0.000000 -0.006682
# 5 -0.001396 -0.005721 0.000717 0.000000 0.031393 0.000000
# 6 0.000000 0.000000 0.000000 -0.006682 0.000000 0.062842
#
#
# Mechanical properties :
#
#
# Convention : Reuss Voigt Hill
#
# Bulk Modulus (GPa) = 38.02963 42.61718 40.32340
# Shear Modulus (GPa) = 23.79623 28.19862 25.99742
#
# Velocity S-wave (km/s) = 3.45337 3.75926 3.60955
# Velocity P-wave (km/s) = 5.91269 6.34041 6.13028
#
# Compressibility (1/GPa) = 0.02629529
#
# Stress axis : x y z
#
# Youngs Moduli (GPa) = 118.58377 57.80367 52.31396
#
# Poissons Ratio (x) = 0.02676 0.14788
# Poissons Ratio (y) = 0.05489 0.31319
# Poissons Ratio (z) = 0.33522 0.34605
#
# Static dielectric constant tensor:
#      x y z
#    x 1.777380 0.000000 0.023550 
#    y 0.000000 1.731790 0.000000 
#    z 0.023550 0.000000 1.723630 
# 
# From -- ./inp_files/47221.got.cif
#   From: 2010.05.17/outbox.cif.g08.bks.cpg/sg11_24_cif.got.tgz:47221.got - 2010.06.03 12:22:45.
