data_PCOD9157939
_publ_section_title
;
Structure prediction by ZEFSAII (Michael W. Deem and Ramdas Pophale) SiO2 
 PCOD9157939
Probable space group: P 21/M
;
_chemical_formula_sum "Si O2"
_cell_formula_units_Z 28
_cell_length_a 11.756472
_cell_length_b 9.674397
_cell_length_c 18.204003
_cell_angle_alpha 90.000000
_cell_angle_beta 39.389808
_cell_angle_gamma 90.000000
_cell_volume 1313.902462
_symmetry_space_group_name_H-M "P 21/M"
_symmetry_group_IT_number 11
_symmetry_cell_setting 'monoclinic'
loop_
_space_group_symop_operation_xyz
x,y,z
-x,1/2+y,-z
-x,-y,-z
x,1/2-y,z
loop_
_atom_site_type_symbol
_atom_site_label
_atom_site_fract_x
_atom_site_fract_y
_atom_site_fract_z
Si Si1 0.093502 0.083924 0.685339
Si Si2 0.669505 0.091979 0.722676
Si Si3 0.851822 0.096482 0.941208
Si Si4 0.221748 0.583944 0.492723
Si Si5 0.751487 0.591376 0.117411
Si Si6 0.374478 0.416813 0.665889
Si Si7 0.446636 0.404656 0.094893
O O1 0.090681 0.250000 0.674568
O O2 0.273413 0.045234 0.641892
O O3 0.937028 0.048246 0.821677
O O4 0.092103 0.001872 0.610085
O O5 0.713580 0.250000 0.723085
O O6 0.778910 0.055271 0.594285
O O7 0.459497 0.093546 0.802187
O O8 0.678281 0.986038 0.785483
O O9 0.928237 0.250000 0.915858
O O10 0.639526 0.110824 0.037015
O O11 0.864390 0.997913 0.004374
O O12 0.201023 0.750000 0.511853
O O13 0.421380 0.542171 0.421525
O O14 0.810679 0.750000 0.085399
O O15 0.740848 0.537352 0.206040
O O16 0.375835 0.250000 0.667886
O O17 0.382291 0.250000 0.107202
O O18 0.500000 0.500000 0.000000
#
# Coordination Sequence:
#
# PCOD9157939 Si02
#       7
#     4   4   4   4   4   4   4
#     4  10  19  30  44  63  93 130 159 187 226 267
#     4   8  15  29  48  69  93 119 147 184 228 266
#     4   9  19  32  44  65  96 123 147 182 231 278
#     4   9  17  30  47  67  92 123 161 197 222 252
#     4   8  14  27  46  64  86 120 157 189 223 267
#     4   8  15  28  45  65  90 122 160 198 230 257
#     4  10  19  32  52  75  95 114 142 182 227 278
#
# _framework density 21.310562000000001
#
# number of rings (size 3 to 8) (size 9 to 14) (size 15 to 20)
#    0.000    3.143    0.000    2.571    0.000    2.286 
#    0.000    2.857    0.000    0.857    0.000    0.000 
#    0.000    0.000    0.000    0.000    0.000    0.000 
#
# Total GULP energy -156155.482834 kJ/mol
# GULP energy per Si atom -5576.981530 kJ/mol
# Density = 2.126206 g / cm^3
# Si number density = 21.310562 Si / 1000 Ang^3
#
#
#
# Elastic Constant Matrix: (Units=GPa)
#
#
# Indices 1 2 3 4 5 6 
#
# 1 38.8741 24.4836 24.3365 0.0000 3.6279 0.0000
# 2 24.4836 99.1634 94.9159 0.0000 40.4422 0.0000
# 3 24.3365 94.9159 187.9614 0.0000 41.4421 0.0000
# 4 0.0000 0.0000 0.0000 40.2785 0.0000 9.4466
# 5 3.6279 40.4422 41.4421 0.0000 41.5156 0.0000
# 6 0.0000 0.0000 0.0000 9.4466 0.0000 8.2392
#
#
#
# Elastic Compliance Matrix: (Units=1/GPa)
#
#
# Indices 1 2 3 4 5 6 
#
# 1 0.032064 -0.010757 -0.000529 0.000000 0.008204 0.000000
# 2 -0.010757 0.028944 -0.009250 0.000000 -0.018022 0.000000
# 3 -0.000529 -0.009250 0.010338 0.000000 -0.001263 0.000000
# 4 0.000000 0.000000 0.000000 0.033959 0.000000 -0.038935
# 5 0.008204 -0.018022 -0.001263 0.000000 0.042187 0.000000
# 6 0.000000 0.000000 0.000000 -0.038935 0.000000 0.166012
#
#
# Mechanical properties :
#
#
# Convention : Reuss Voigt Hill
#
# Bulk Modulus (GPa) = 33.02948 68.16344 50.59646
# Shear Modulus (GPa) = 13.71121 30.15751 21.93436
#
# Velocity S-wave (km/s) = 2.53928 3.76592 3.21171
# Velocity P-wave (km/s) = 4.91223 7.13896 6.12759
#
# Compressibility (1/GPa) = 0.03027599
#
# Stress axis : x y z
#
# Youngs Moduli (GPa) = 31.18756 34.54990 96.73103
#
# Poissons Ratio (x) = 0.37165 0.05112
# Poissons Ratio (y) = 0.33548 0.89472
# Poissons Ratio (z) = 0.01648 0.31957
#
# Static dielectric constant tensor:
#      x y z
#    x 1.861950 0.000000 -0.025470 
#    y 0.000000 1.742430 0.000000 
#    z -0.025470 0.000000 1.771770 
# 
# From -- ./inp_files/26441.got.cif
#   From: 2010.05.17/outbox.cif.g08.bks.cpg/sg11_14_cif.got.tgz:26441.got - 2010.06.03 12:22:45.
