data_PCOD9157128
_publ_section_title
;
Structure prediction by ZEFSAII (Michael W. Deem and Ramdas Pophale) SiO2 
 PCOD9157128
Probable space group: P 21/M
;
_chemical_formula_sum "Si O2"
_cell_formula_units_Z 24
_cell_length_a 26.057564
_cell_length_b 10.533627
_cell_length_c 11.737867
_cell_angle_alpha 90.000000
_cell_angle_beta 157.771476
_cell_angle_gamma 90.000000
_cell_volume 1218.818943
_symmetry_space_group_name_H-M "P 21/M"
_symmetry_group_IT_number 11
_symmetry_cell_setting 'monoclinic'
loop_
_space_group_symop_operation_xyz
x,y,z
-x,1/2+y,-z
-x,-y,-z
x,1/2-y,z
loop_
_atom_site_type_symbol
_atom_site_label
_atom_site_fract_x
_atom_site_fract_y
_atom_site_fract_z
Si Si1 0.395643 0.397504 0.337037
Si Si2 0.119286 0.390826 0.636670
Si Si3 0.522668 0.899146 0.236469
Si Si4 0.224586 0.494686 0.628752
Si Si5 0.778546 0.596806 0.627648
Si Si6 0.013531 0.108201 0.749063
O O1 0.500000 0.500000 0.500000
O O2 0.432394 0.250000 0.384213
O O3 0.403318 0.408584 0.489128
O O4 0.244744 0.418483 0.978410
O O5 0.063779 0.250000 0.544644
O O6 0.187984 0.392560 0.650773
O O7 0.011538 0.504723 0.400347
O O8 0.493079 0.750000 0.156442
O O9 0.628000 0.943125 0.357006
O O10 0.382531 0.973400 0.954067
O O11 0.184551 0.456624 0.419314
O O12 0.130877 0.609123 0.481621
O O13 0.780846 0.750000 0.626600
O O14 0.879920 0.561371 0.937941
O O15 0.050441 0.250000 0.787091
#
# Coordination Sequence:
#
# PCOD9157128 Si02
#       6
#     4   4   4   4   4   4
#     4  10  18  33  53  77 103 136 173 215 254 307
#     4   9  19  31  53  79 103 131 171 216 261 295
#     4  10  20  33  52  76 108 138 173 210 260 312
#     4  10  18  31  54  74 105 129 177 209 256 295
#     4  10  20  34  50  76 107 142 170 210 262 312
#     4   9  19  34  55  78 103 135 180 213 251 305
#
# _framework density 19.691192999999998
#
# number of rings (size 3 to 8) (size 9 to 14) (size 15 to 20)
#    1.000    1.333    1.667    2.000    0.000    0.667 
#    0.000    1.667    0.000    4.000    0.000    0.000 
#    0.000    0.000    0.000    0.000    0.000    0.000 
#
# Total GULP energy -133731.711390 kJ/mol
# GULP energy per Si atom -5572.154641 kJ/mol
# Density = 1.964637 g / cm^3
# Si number density = 19.691193 Si / 1000 Ang^3
#
#
#
# Elastic Constant Matrix: (Units=GPa)
#
#
# Indices 1 2 3 4 5 6 
#
# 1 73.6963 6.7309 12.5946 0.0000 -7.0233 0.0000
# 2 6.7309 65.3962 34.1650 0.0000 -9.2821 0.0000
# 3 12.5946 34.1650 101.2117 0.0000 -19.2153 0.0000
# 4 0.0000 0.0000 0.0000 113.4048 0.0000 -8.5833
# 5 -7.0233 -9.2821 -19.2153 0.0000 24.4228 0.0000
# 6 0.0000 0.0000 0.0000 -8.5833 0.0000 -3.1754
#
#
#
# Elastic Compliance Matrix: (Units=1/GPa)
#
#
# Indices 1 2 3 4 5 6 
#
# 1 0.014078 -0.000489 -0.001003 0.000000 0.003073 0.000000
# 2 -0.000489 0.018713 -0.005799 0.000000 0.002409 0.000000
# 3 -0.001003 -0.005799 0.013507 0.000000 0.008135 0.000000
# 4 0.000000 0.000000 0.000000 0.007320 0.000000 -0.019788
# 5 0.003073 0.002409 0.008135 0.000000 0.049145 0.000000
# 6 0.000000 0.000000 0.000000 -0.019788 0.000000 -0.261437
#
#
# Mechanical properties :
#
#
# Convention : Reuss Voigt Hill
#
# Bulk Modulus (GPa) = 31.52884 38.58723 35.05804
# Shear Modulus (GPa) = -37.44742 39.38470 0.96864
#
# Velocity S-wave (km/s) = -4.36562 4.47712 0.70213
# Velocity P-wave (km/s) = 3.06025 6.80917 4.30115
#
# Compressibility (1/GPa) = 0.03171699
#
# Stress axis : x y z
#
# Youngs Moduli (GPa) = 71.03177 53.43876 74.03643
#
# Poissons Ratio (x) = 0.02611 0.07429
# Poissons Ratio (y) = 0.03470 0.42930
# Poissons Ratio (z) = 0.07128 0.30987
#
# Static dielectric constant tensor:
#      x y z
#    x 1.700400 0.000000 -0.001110 
#    y 0.000000 1.710440 0.000000 
#    z -0.001110 0.000000 1.681940 
# 
# From -- ./inp_files/45427.got.cif
#   From: 2010.05.17/outbox.cif.g08.bks.cpg/sg11_23_cif.got.tgz:45427.got - 2010.06.03 12:22:45.
