data_PCOD9157312
_publ_section_title
;
Structure prediction by ZEFSAII (Michael W. Deem and Ramdas Pophale) SiO2 
 PCOD9157312
Probable space group: P 21/M
;
_chemical_formula_sum "Si O2"
_cell_formula_units_Z 28
_cell_length_a 9.059882
_cell_length_b 15.678076
_cell_length_c 14.738444
_cell_angle_alpha 90.000000
_cell_angle_beta 136.411057
_cell_angle_gamma 90.000000
_cell_volume 1443.405900
_symmetry_space_group_name_H-M "P 21/M"
_symmetry_group_IT_number 11
_symmetry_cell_setting 'monoclinic'
loop_
_space_group_symop_operation_xyz
x,y,z
-x,1/2+y,-z
-x,-y,-z
x,1/2-y,z
loop_
_atom_site_type_symbol
_atom_site_label
_atom_site_fract_x
_atom_site_fract_y
_atom_site_fract_z
Si Si1 0.008455 0.350895 0.324160
Si Si2 0.592089 0.922904 0.602143
Si Si3 0.103685 0.951572 0.178121
Si Si4 0.847542 0.646080 0.415916
Si Si5 0.299191 0.550663 0.949263
Si Si6 0.852001 0.149202 0.612531
Si Si7 0.628100 0.148579 0.840197
O O1 0.960633 0.250000 0.300164
O O2 0.836232 0.404346 0.190851
O O3 0.239628 0.367903 0.380987
O O4 0.033715 0.380460 0.439359
O O5 0.382731 0.869435 0.533380
O O6 0.500000 0.000000 0.500000
O O7 0.732957 0.968291 0.742000
O O8 0.127762 0.898581 0.282676
O O9 0.179156 0.894064 0.129054
O O10 0.864596 0.987149 0.072366
O O11 0.849581 0.750000 0.416743
O O12 0.599339 0.620135 0.304080
O O13 0.970942 0.618308 0.380443
O O14 0.500000 0.500000 0.000000
O O15 0.369461 0.619870 0.054672
O O16 0.877257 0.250000 0.638156
O O17 0.642298 0.250000 0.839211
#
# Coordination Sequence:
#
# PCOD9157312 Si02
#       7
#     4   4   4   4   4   4   4
#     4  10  20  38  59  82 115 158 198 239 295 361
#     4   9  18  31  51  81 114 147 185 233 291 347
#     4  10  21  37  56  82 115 152 196 243 298 357
#     4   9  19  33  56  86 113 142 188 239 285 337
#     4  11  24  41  60  85 119 157 198 251 306 357
#     4  10  18  32  54  85 118 150 191 242 290 345
#     4  11  22  40  63  87 115 156 201 243 293 362
#
# _framework density 19.398564
#
# number of rings (size 3 to 8) (size 9 to 14) (size 15 to 20)
#    0.000    2.000    0.000    4.286    0.000    2.286 
#    0.000   10.000    0.000    3.429    0.000    0.000 
#    0.000    0.000    0.000    0.000    0.000    0.000 
#
# Total GULP energy -156348.544144 kJ/mol
# GULP energy per Si atom -5583.876577 kJ/mol
# Density = 1.935441 g / cm^3
# Si number density = 19.398564 Si / 1000 Ang^3
#
#
#
# Elastic Constant Matrix: (Units=GPa)
#
#
# Indices 1 2 3 4 5 6 
#
# 1 76.2430 26.2917 32.9043 0.0000 4.3510 0.0000
# 2 26.2917 50.3568 18.3383 0.0000 -1.8404 0.0000
# 3 32.9043 18.3383 83.1233 0.0000 0.4600 0.0000
# 4 0.0000 0.0000 0.0000 23.6426 0.0000 2.6437
# 5 4.3510 -1.8404 0.4600 0.0000 32.7819 0.0000
# 6 0.0000 0.0000 0.0000 2.6437 0.0000 27.6147
#
#
#
# Elastic Compliance Matrix: (Units=1/GPa)
#
#
# Indices 1 2 3 4 5 6 
#
# 1 0.018301 -0.007638 -0.005544 0.000000 -0.002780 0.000000
# 2 -0.007638 0.024834 -0.002469 0.000000 0.002443 0.000000
# 3 -0.005544 -0.002469 0.014767 0.000000 0.000390 0.000000
# 4 0.000000 0.000000 0.000000 0.042754 0.000000 -0.004093
# 5 -0.002780 0.002443 0.000390 0.000000 0.031005 0.000000
# 6 0.000000 0.000000 0.000000 -0.004093 0.000000 0.036604
#
#
# Mechanical properties :
#
#
# Convention : Reuss Voigt Hill
#
# Bulk Modulus (GPa) = 37.59210 40.53242 39.06226
# Shear Modulus (GPa) = 23.98823 25.62044 24.80434
#
# Velocity S-wave (km/s) = 3.52035 3.63814 3.57973
# Velocity P-wave (km/s) = 5.99539 6.21192 6.10461
#
# Compressibility (1/GPa) = 0.02660134
#
# Stress axis : x y z
#
# Youngs Moduli (GPa) = 54.64160 40.26671 67.71635
#
# Poissons Ratio (x) = 0.30755 0.37542
# Poissons Ratio (y) = 0.41734 0.16719
# Poissons Ratio (z) = 0.30294 0.09942
#
# Static dielectric constant tensor:
#      x y z
#    x 1.667240 0.000000 -0.003340 
#    y 0.000000 1.667450 0.000000 
#    z -0.003340 0.000000 1.687780 
# 
# From -- ./inp_files/48022.got.cif
#   From: 2010.05.17/outbox.cif.g08.bks.cpg/sg11_25_cif.got.tgz:48022.got - 2010.06.03 12:22:45.
