data_PCOD9157184
_publ_section_title
;
Structure prediction by ZEFSAII (Michael W. Deem and Ramdas Pophale) SiO2 
 PCOD9157184
Probable space group: P 21/M
;
_chemical_formula_sum "Si O2"
_cell_formula_units_Z 32
_cell_length_a 5.327945
_cell_length_b 21.166182
_cell_length_c 14.839516
_cell_angle_alpha 90.000000
_cell_angle_beta 77.283926
_cell_angle_gamma 90.000000
_cell_volume 1632.439792
_symmetry_space_group_name_H-M "P 21/M"
_symmetry_group_IT_number 11
_symmetry_cell_setting 'monoclinic'
loop_
_space_group_symop_operation_xyz
x,y,z
-x,1/2+y,-z
-x,-y,-z
x,1/2-y,z
loop_
_atom_site_type_symbol
_atom_site_label
_atom_site_fract_x
_atom_site_fract_y
_atom_site_fract_z
Si Si1 0.098940 0.516637 0.890057
Si Si2 0.814184 0.820025 0.479318
Si Si3 0.238354 0.080814 0.730781
Si Si4 0.668835 0.821601 0.038517
Si Si5 0.767071 0.538357 0.473234
Si Si6 0.577440 0.557858 0.925862
Si Si7 0.905369 0.320607 0.842864
Si Si8 0.609902 0.181347 0.645293
O O1 0.228894 0.462553 0.820073
O O2 0.324006 0.567169 0.886667
O O3 0.839911 0.535605 0.858752
O O4 0.000000 0.500000 0.000000
O O5 0.802144 0.750000 0.527565
O O6 0.762224 0.891323 0.519732
O O7 0.595356 0.816234 0.420100
O O8 0.104037 0.823916 0.416716
O O9 0.198253 0.048268 0.637491
O O10 0.008236 0.130243 0.763499
O O11 0.500136 0.121603 0.707345
O O12 0.685656 0.750000 0.000178
O O13 0.915090 0.830993 0.083319
O O14 0.393649 0.825335 0.110667
O O15 0.653475 0.878678 0.970556
O O16 0.500000 0.500000 0.500000
O O17 0.000000 0.500000 0.500000
O O18 0.500000 0.500000 0.000000
O O19 0.968531 0.250000 0.807532
O O20 0.588866 0.250000 0.694371
#
# Coordination Sequence:
#
# PCOD9157184 Si02
#       8
#     4   4   4   4   4   4   4   4
#     4  10  21  33  52  77 105 143 189 226 263 321
#     4   9  18  35  58  83 113 149 184 224 282 352
#     4  11  22  37  57  80 116 156 182 231 289 333
#     4  10  20  34  52  78 114 150 184 227 279 337
#     4  11  24  40  58  86 119 151 193 242 291 351
#     4  10  18  32  49  72 105 141 184 226 256 311
#     4  10  20  32  51  81 114 147 179 213 275 362
#     4   9  18  31  51  81 114 147 179 213 274 361
#
# _framework density 19.602558999999999
#
# number of rings (size 3 to 8) (size 9 to 14) (size 15 to 20)
#    0.000    2.000    0.000    5.625    0.000    6.500 
#    0.000    6.250    0.000    0.000    0.000    5.250 
#    0.000    0.000    0.000    0.000    0.000    0.000 
#
# Total GULP energy -178315.573361 kJ/mol
# GULP energy per Si atom -5572.361668 kJ/mol
# Density = 1.955794 g / cm^3
# Si number density = 19.602559 Si / 1000 Ang^3
#
#
#
# Elastic Constant Matrix: (Units=GPa)
#
#
# Indices 1 2 3 4 5 6 
#
# 1 134.9526 17.8225 1.8657 0.0000 -1.0885 0.0000
# 2 17.8225 128.2769 30.3951 0.0000 1.2684 0.0000
# 3 1.8657 30.3951 39.9950 0.0000 1.9443 0.0000
# 4 0.0000 0.0000 0.0000 26.9269 0.0000 7.9218
# 5 -1.0885 1.2684 1.9443 0.0000 22.6172 0.0000
# 6 0.0000 0.0000 0.0000 7.9218 0.0000 -48.9557
#
#
#
# Elastic Compliance Matrix: (Units=1/GPa)
#
#
# Indices 1 2 3 4 5 6 
#
# 1 0.007562 -0.001179 0.000524 0.000000 0.000385 0.000000
# 2 -0.001179 0.009692 -0.007312 0.000000 0.000028 0.000000
# 3 0.000524 -0.007312 0.030642 0.000000 -0.002199 0.000000
# 4 0.000000 0.000000 0.000000 0.035450 0.000000 0.005736
# 5 0.000385 0.000028 -0.002199 0.000000 0.044420 0.000000
# 6 0.000000 0.000000 0.000000 0.005736 0.000000 -0.019498
#
#
# Mechanical properties :
#
#
# Convention : Reuss Voigt Hill
#
# Bulk Modulus (GPa) = 31.28593 44.82122 38.05357
# Shear Modulus (GPa) = 37.07719 16.99375 27.03547
#
# Velocity S-wave (km/s) = 4.35379 2.94754 3.71776
# Velocity P-wave (km/s) = 6.42408 5.87355 6.15497
#
# Compressibility (1/GPa) = 0.03196325
#
# Stress axis : x y z
#
# Youngs Moduli (GPa) = 132.24850 103.18181 32.63460
#
# Poissons Ratio (x) = 0.12161 -0.01711
# Poissons Ratio (y) = 0.15587 0.23862
# Poissons Ratio (z) = -0.06933 0.75444
#
# Static dielectric constant tensor:
#      x y z
#    x 1.473590 0.000000 -0.281460 
#    y 0.000000 1.724620 0.000000 
#    z -0.281460 0.000000 1.373710 
# 
# From -- ./inp_files/46213.got.cif
#   From: 2010.05.17/outbox.cif.g08.bks.cpg/sg11_24_cif.got.tgz:46213.got - 2010.06.03 12:22:45.
