data_PCOD9157804
_publ_section_title
;
Structure prediction by ZEFSAII (Michael W. Deem and Ramdas Pophale) SiO2 
 PCOD9157804
Probable space group: P 21/M
;
_chemical_formula_sum "Si O2"
_cell_formula_units_Z 28
_cell_length_a 17.184424
_cell_length_b 15.556415
_cell_length_c 6.142500
_cell_angle_alpha 90.000000
_cell_angle_beta 122.627846
_cell_angle_gamma 90.000000
_cell_volume 1382.929303
_symmetry_space_group_name_H-M "P 21/M"
_symmetry_group_IT_number 11
_symmetry_cell_setting 'monoclinic'
loop_
_space_group_symop_operation_xyz
x,y,z
-x,1/2+y,-z
-x,-y,-z
x,1/2-y,z
loop_
_atom_site_type_symbol
_atom_site_label
_atom_site_fract_x
_atom_site_fract_y
_atom_site_fract_z
Si Si1 0.060960 0.045737 0.775768
Si Si2 0.211508 0.425503 0.692172
Si Si3 0.346796 0.155333 0.554817
Si Si4 0.299598 0.652375 0.513778
Si Si5 0.536699 0.414767 0.936545
Si Si6 0.883903 0.067044 0.751422
Si Si7 0.654520 0.009227 0.765980
O O1 0.137819 0.102345 0.767018
O O2 0.986216 0.090383 0.820708
O O3 0.000000 0.000000 0.500000
O O4 0.107156 0.970175 0.990619
O O5 0.272575 0.362828 0.634759
O O6 0.154633 0.485039 0.440278
O O7 0.282484 0.484724 0.933186
O O8 0.330305 0.250000 0.435351
O O9 0.450590 0.149438 0.805018
O O10 0.346074 0.077393 0.379916
O O11 0.317456 0.750000 0.475326
O O12 0.191858 0.639548 0.410119
O O13 0.310432 0.583985 0.337547
O O14 0.374490 0.625241 0.808788
O O15 0.564537 0.448824 0.740541
O O16 0.500000 0.500000 0.000000
#
# Coordination Sequence:
#
# PCOD9157804 Si02
#       7
#     4   4   4   4   4   4   4
#     4   9  19  32  69  95 121 170 214 256 322 390
#     4  11  19  40  66  91 127 170 214 262 328 385
#     4  12  26  41  64  96 130 170 225 277 323 386
#     4  12  25  40  65  98 133 173 220 273 328 391
#     4  12  23  45  66  88 130 175 220 271 328 389
#     4  10  18  39  61  97 129 167 217 265 318 390
#     4  12  22  43  65  89 130 177 215 268 331 387
#
# _framework density 20.246877000000001
#
# number of rings (size 3 to 8) (size 9 to 14) (size 15 to 20)
#    0.000    0.857    7.143    0.857    0.000    1.714 
#    0.000    0.714    0.000   11.143    0.000    0.000 
#    0.000    0.000    0.000    0.000    0.000    0.000 
#
# Total GULP energy -156084.081300 kJ/mol
# GULP energy per Si atom -5574.431475 kJ/mol
# Density = 2.020079 g / cm^3
# Si number density = 20.246877 Si / 1000 Ang^3
#
#
#
# Elastic Constant Matrix: (Units=GPa)
#
#
# Indices 1 2 3 4 5 6 
#
# 1 137.0625 37.1485 10.0015 0.0000 -0.4924 0.0000
# 2 37.1485 123.5350 23.1235 0.0000 -2.2898 0.0000
# 3 10.0015 23.1235 93.2768 0.0000 10.7296 0.0000
# 4 0.0000 0.0000 0.0000 3.7283 0.0000 7.7707
# 5 -0.4924 -2.2898 10.7296 0.0000 30.1668 0.0000
# 6 0.0000 0.0000 0.0000 7.7707 0.0000 8.9244
#
#
#
# Elastic Compliance Matrix: (Units=1/GPa)
#
#
# Indices 1 2 3 4 5 6 
#
# 1 0.007950 -0.002338 -0.000279 0.000000 0.000052 0.000000
# 2 -0.002338 0.009238 -0.002206 0.000000 0.001448 0.000000
# 3 -0.000279 -0.002206 0.011800 0.000000 -0.004369 0.000000
# 4 0.000000 0.000000 0.000000 -0.329182 0.000000 0.286625
# 5 0.000052 0.001448 -0.004369 0.000000 0.034814 0.000000
# 6 0.000000 0.000000 0.000000 0.286625 0.000000 -0.137518
#
#
# Mechanical properties :
#
#
# Convention : Reuss Voigt Hill
#
# Bulk Modulus (GPa) = 51.69808 54.93570 53.31689
# Shear Modulus (GPa) = -12.92635 27.47061 7.27213
#
# Velocity S-wave (km/s) = -2.52947 3.68745 1.89724
# Velocity P-wave (km/s) = 4.13017 6.73213 5.58479
#
# Compressibility (1/GPa) = 0.01934308
#
# Stress axis : x y z
#
# Youngs Moduli (GPa) = 125.78586 108.25410 84.74513
#
# Poissons Ratio (x) = 0.25305 0.02363
# Poissons Ratio (y) = 0.29403 0.18694
# Poissons Ratio (z) = 0.03508 0.23880
#
# Static dielectric constant tensor:
#      x y z
#    x 1.876060 0.000000 0.020210 
#    y 0.000000 1.682430 0.000000 
#    z 0.020210 0.000000 1.742030 
# 
# From -- ./inp_files/8143.got.cif
#   From: 2010.05.17/outbox.cif.g08.bks.cpg/sg11_5_cif.got.tgz:8143.got - 2010.06.03 12:22:45.
