data_PCOD9157197
_publ_section_title
;
Structure prediction by ZEFSAII (Michael W. Deem and Ramdas Pophale) SiO2 
 PCOD9157197
Probable space group: P 21/M
;
_chemical_formula_sum "Si O2"
_cell_formula_units_Z 32
_cell_length_a 13.926865
_cell_length_b 7.363709
_cell_length_c 16.209831
_cell_angle_alpha 90.000000
_cell_angle_beta 64.857357
_cell_angle_gamma 90.000000
_cell_volume 1504.867847
_symmetry_space_group_name_H-M "P 21/M"
_symmetry_group_IT_number 11
_symmetry_cell_setting 'monoclinic'
loop_
_space_group_symop_operation_xyz
x,y,z
-x,1/2+y,-z
-x,-y,-z
x,1/2-y,z
loop_
_atom_site_type_symbol
_atom_site_label
_atom_site_fract_x
_atom_site_fract_y
_atom_site_fract_z
Si Si1 0.329404 0.027710 0.771231
Si Si2 0.105935 0.964753 0.412374
Si Si3 0.520651 0.464987 0.586999
Si Si4 0.443895 0.469391 0.897441
Si Si5 0.244184 0.970551 0.509819
Si Si6 0.098431 0.527584 0.227521
Si Si7 0.337631 0.962097 0.112562
Si Si8 0.136450 0.464224 0.728581
O O1 0.324861 0.250000 0.773437
O O2 0.424206 0.966245 0.676483
O O3 0.371290 0.971707 0.846610
O O4 0.218851 0.966326 0.768665
O O5 0.125921 0.750000 0.396294
O O6 0.187609 0.037904 0.448350
O O7 0.096892 0.032850 0.323366
O O8 0.000000 0.000000 0.500000
O O9 0.500000 0.500000 0.500000
O O10 0.525084 0.250000 0.603099
O O11 0.638075 0.537866 0.549864
O O12 0.449295 0.250000 0.891369
O O13 0.567476 0.533469 0.861658
O O14 0.386343 0.520350 0.003552
O O15 0.243442 0.750000 0.510906
O O16 0.190344 0.018612 0.617438
O O17 0.095493 0.750000 0.223890
O O18 0.216201 0.468007 0.155196
O O19 0.985636 0.466058 0.229352
O O20 0.327164 0.750000 0.138452
O O21 0.127707 0.250000 0.747093
#
# Coordination Sequence:
#
# PCOD9157197 Si02
#       8
#     4   4   4   4   4   4   4   4
#     4   9  18  31  50  73  95 126 164 199 235 284
#     4  10  19  31  47  70  99 132 168 201 238 283
#     4  10  19  31  47  70  99 132 168 201 238 283
#     4   9  18  34  55  75  96 122 155 198 246 292
#     4  10  20  30  44  69 102 131 162 208 248 277
#     4   9  18  31  50  73  95 126 164 199 235 284
#     4   9  18  34  55  75  96 122 155 198 246 292
#     4  10  18  32  51  69  95 131 169 198 231 287
#
# _framework density 21.264326000000001
#
# number of rings (size 3 to 8) (size 9 to 14) (size 15 to 20)
#    0.000    2.500    2.500    0.000    1.750    0.000 
#    0.000    3.125    0.000    0.000    0.000    0.000 
#    0.000    0.000    0.000    0.000    0.000    0.000 
#
# Total GULP energy -178182.195988 kJ/mol
# GULP energy per Si atom -5568.193625 kJ/mol
# Density = 2.121593 g / cm^3
# Si number density = 21.264326 Si / 1000 Ang^3
#
#
#
# Elastic Constant Matrix: (Units=GPa)
#
#
# Indices 1 2 3 4 5 6 
#
# 1 272.5171 6.6624 76.3194 0.0000 -4.8342 0.0000
# 2 6.6624 75.3163 -7.1987 0.0000 -1.8623 0.0000
# 3 76.3194 -7.1987 74.1575 0.0000 -5.6379 0.0000
# 4 0.0000 0.0000 0.0000 17.2787 0.0000 0.0994
# 5 -4.8342 -1.8623 -5.6379 0.0000 38.4498 0.0000
# 6 0.0000 0.0000 0.0000 0.0994 0.0000 -6.0608
#
#
#
# Elastic Compliance Matrix: (Units=1/GPa)
#
#
# Indices 1 2 3 4 5 6 
#
# 1 0.005228 -0.000992 -0.005492 0.000000 -0.000196 0.000000
# 2 -0.000992 0.013617 0.002411 0.000000 0.000888 0.000000
# 3 -0.005492 0.002411 0.019545 0.000000 0.002292 0.000000
# 4 0.000000 0.000000 0.000000 0.057869 0.000000 0.000949
# 5 -0.000196 0.000888 0.002292 0.000000 0.026362 0.000000
# 6 0.000000 0.000000 0.000000 0.000949 0.000000 -0.164979
#
#
# Mechanical properties :
#
#
# Convention : Reuss Voigt Hill
#
# Bulk Modulus (GPa) = 33.06472 63.72857 48.39664
# Shear Modulus (GPa) = -207.22386 33.01407 -87.10489
#
# Velocity S-wave (km/s) = -9.88246 3.94452 -6.40717
# Velocity P-wave (km/s) = 10.70673 7.12604 5.65038
#
# Compressibility (1/GPa) = 0.03024371
#
# Stress axis : x y z
#
# Youngs Moduli (GPa) = 191.26608 73.43506 51.16363
#
# Poissons Ratio (x) = 0.07287 0.28099
# Poissons Ratio (y) = 0.18979 -0.12334
# Poissons Ratio (z) = 1.05042 -0.17702
#
# Static dielectric constant tensor:
#      x y z
#    x 1.769030 0.000000 -0.002560 
#    y 0.000000 1.802880 0.000000 
#    z -0.002560 0.000000 1.702300 
# 
# From -- ./inp_files/43127.got.cif
#   From: 2010.05.17/outbox.cif.g08.bks.cpg/sg11_22_cif.got.tgz:43127.got - 2010.06.03 12:22:45.
