data_PCOD9157275
_publ_section_title
;
Structure prediction by ZEFSAII (Michael W. Deem and Ramdas Pophale) SiO2 
 PCOD9157275
Probable space group: P 21/M
;
_chemical_formula_sum "Si O2"
_cell_formula_units_Z 24
_cell_length_a 13.193610
_cell_length_b 7.550396
_cell_length_c 25.154227
_cell_angle_alpha 90.000000
_cell_angle_beta 152.011621
_cell_angle_gamma 90.000000
_cell_volume 1175.947501
_symmetry_space_group_name_H-M "P 21/M"
_symmetry_group_IT_number 11
_symmetry_cell_setting 'monoclinic'
loop_
_space_group_symop_operation_xyz
x,y,z
-x,1/2+y,-z
-x,-y,-z
x,1/2-y,z
loop_
_atom_site_type_symbol
_atom_site_label
_atom_site_fract_x
_atom_site_fract_y
_atom_site_fract_z
Si Si1 0.345418 0.539227 0.978366
Si Si2 0.864262 0.465339 0.615337
Si Si3 0.673441 0.966357 0.217606
Si Si4 0.251192 0.463074 0.628087
Si Si5 0.493537 0.043364 0.637607
Si Si6 0.853767 0.043176 0.729247
O O1 0.322882 0.750000 0.971798
O O2 0.469671 0.474383 0.088514
O O3 0.500000 0.500000 0.000000
O O4 0.106891 0.466169 0.859031
O O5 0.858348 0.250000 0.612352
O O6 0.694825 0.530465 0.493557
O O7 0.815757 0.530461 0.652446
O O8 0.105321 0.518387 0.709553
O O9 0.670948 0.750000 0.216651
O O10 0.684111 0.027324 0.283378
O O11 0.270800 0.250000 0.637978
O O12 0.399089 0.533533 0.648554
O O13 0.000000 0.500000 0.500000
O O14 0.538510 0.250000 0.669922
O O15 0.704637 0.965184 0.706649
O O16 0.792919 0.250000 0.697391
#
# Coordination Sequence:
#
# PCOD9157275 Si02
#       6
#     4   4   4   4   4   4
#     4  11  21  36  57  79 104 138 178 216 258 310
#     4  10  18  32  54  76 107 142 168 207 264 320
#     4   9  18  33  53  77 104 135 169 211 262 310
#     4  10  19  34  54  76 103 137 173 211 258 308
#     4  10  21  34  52  79 109 138 173 218 261 305
#     4  10  21  37  52  75 111 143 172 212 264 311
#
# _framework density 20.409072999999999
#
# number of rings (size 3 to 8) (size 9 to 14) (size 15 to 20)
#    0.000    2.000    3.333    1.000    0.000    1.333 
#    0.000    2.500    0.000    0.000    0.000    0.000 
#    0.000    0.000    0.000    0.000    0.000    0.000 
#
# Total GULP energy -134031.888795 kJ/mol
# GULP energy per Si atom -5584.662033 kJ/mol
# Density = 2.036262 g / cm^3
# Si number density = 20.409073 Si / 1000 Ang^3
#
#
#
# Elastic Constant Matrix: (Units=GPa)
#
#
# Indices 1 2 3 4 5 6 
#
# 1 190.7692 4.0903 40.6355 0.0000 -9.9815 0.0000
# 2 4.0903 50.8996 -18.1201 0.0000 -1.5351 0.0000
# 3 40.6355 -18.1201 51.5193 0.0000 -17.8188 0.0000
# 4 0.0000 0.0000 0.0000 22.0339 0.0000 1.7751
# 5 -9.9815 -1.5351 -17.8188 0.0000 37.8963 0.0000
# 6 0.0000 0.0000 0.0000 1.7751 0.0000 2.4545
#
#
#
# Elastic Compliance Matrix: (Units=1/GPa)
#
#
# Indices 1 2 3 4 5 6 
#
# 1 0.006694 -0.003046 -0.006908 0.000000 -0.001608 0.000000
# 2 -0.003046 0.024855 0.013393 0.000000 0.006502 0.000000
# 3 -0.006908 0.013393 0.034784 0.000000 0.015079 0.000000
# 4 0.000000 0.000000 0.000000 0.048192 0.000000 -0.034852
# 5 -0.001608 0.006502 0.015079 0.000000 0.033318 0.000000
# 6 0.000000 0.000000 0.000000 -0.034852 0.000000 0.432618
#
#
# Mechanical properties :
#
#
# Convention : Reuss Voigt Hill
#
# Bulk Modulus (GPa) = 13.65869 38.48885 26.07377
# Shear Modulus (GPa) = 8.36139 30.24910 19.30525
#
# Velocity S-wave (km/s) = 2.02628 3.85403 3.07891
# Velocity P-wave (km/s) = 3.49018 6.22129 5.04409
#
# Compressibility (1/GPa) = 0.07321346
#
# Stress axis : x y z
#
# Youngs Moduli (GPa) = 149.37709 40.23307 28.74873
#
# Poissons Ratio (x) = 0.12253 0.19858
# Poissons Ratio (y) = 0.45493 -0.38503
# Poissons Ratio (z) = 1.03183 -0.53884
#
# Static dielectric constant tensor:
#      x y z
#    x 1.737930 0.000000 -0.013020 
#    y 0.000000 1.769760 0.000000 
#    z -0.013020 0.000000 1.662180 
# 
# From -- ./inp_files/33690.got.cif
#   From: 2010.05.17/outbox.cif.g08.bks.cpg/sg11_17_cif.got.tgz:33690.got - 2010.06.03 12:22:45.
