data_PCOD9157944
_publ_section_title
;
Structure prediction by ZEFSAII (Michael W. Deem and Ramdas Pophale) SiO2 
 PCOD9157944
Probable space group: P 21/M
;
_chemical_formula_sum "Si O2"
_cell_formula_units_Z 28
_cell_length_a 13.634603
_cell_length_b 8.944210
_cell_length_c 27.918789
_cell_angle_alpha 90.000000
_cell_angle_beta 31.359560
_cell_angle_gamma 90.000000
_cell_volume 1771.838922
_symmetry_space_group_name_H-M "P 21/M"
_symmetry_group_IT_number 11
_symmetry_cell_setting 'monoclinic'
loop_
_space_group_symop_operation_xyz
x,y,z
-x,1/2+y,-z
-x,-y,-z
x,1/2-y,z
loop_
_atom_site_type_symbol
_atom_site_label
_atom_site_fract_x
_atom_site_fract_y
_atom_site_fract_z
Si Si1 0.903403 0.069830 0.933885
Si Si2 0.667796 0.924002 0.794208
Si Si3 0.711338 0.422850 0.111007
Si Si4 0.062255 0.069701 0.400674
Si Si5 0.453365 0.072027 0.968512
Si Si6 0.285587 0.071371 0.404443
Si Si7 0.319335 0.072425 0.774507
O O1 0.877403 0.250000 0.940801
O O2 0.120010 0.032244 0.833095
O O3 0.858213 0.032300 0.008396
O O4 0.747192 0.989553 0.967100
O O5 0.693718 0.750000 0.797504
O O6 0.489529 0.926795 0.832361
O O7 0.844210 0.974925 0.688636
O O8 0.607604 0.019265 0.864993
O O9 0.746239 0.250000 0.110834
O O10 0.702930 0.525007 0.160772
O O11 0.045580 0.250000 0.407766
O O12 0.202705 0.030204 0.386229
O O13 0.863277 0.996194 0.496094
O O14 0.449273 0.250000 0.973352
O O15 0.500000 0.000000 0.000000
O O16 0.287808 0.250000 0.406424
O O17 0.494856 0.007971 0.322284
O O18 0.343249 0.250000 0.761202
#
# Coordination Sequence:
#
# PCOD9157944 Si02
#       7
#     4   4   4   4   4   4   4
#     4   9  20  35  48  66  95 128 162 201 241 286
#     4   9  17  32  51  71  99 130 161 201 246 287
#     4   9  16  29  45  64  95 130 162 198 239 279
#     4   9  17  31  47  66  94 131 168 204 244 280
#     4  11  22  36  55  77  98 123 157 199 247 295
#     4  10  19  30  44  65  96 133 170 207 241 277
#     4  11  20  29  44  67  96 132 168 200 238 283
#
# _framework density 15.802790999999999
#
# number of rings (size 3 to 8) (size 9 to 14) (size 15 to 20)
#    0.000    2.286    1.429    3.429    0.000    4.571 
#    0.000    0.000    0.000    0.000    0.000    1.000 
#    0.000    0.000    0.000    0.000    0.000    0.000 
#
# Total GULP energy -156164.305328 kJ/mol
# GULP energy per Si atom -5577.296619 kJ/mol
# Density = 1.576682 g / cm^3
# Si number density = 15.802791 Si / 1000 Ang^3
#
#
#
# Elastic Constant Matrix: (Units=GPa)
#
#
# Indices 1 2 3 4 5 6 
#
# 1 60.9745 37.8584 55.4976 0.0000 5.0275 0.0000
# 2 37.8584 56.6786 56.3946 0.0000 0.3835 0.0000
# 3 55.4976 56.3946 153.0545 0.0000 -10.5287 0.0000
# 4 0.0000 0.0000 0.0000 28.3506 0.0000 1.3222
# 5 5.0275 0.3835 -10.5287 0.0000 16.8157 0.0000
# 6 0.0000 0.0000 0.0000 1.3222 0.0000 20.6220
#
#
#
# Elastic Compliance Matrix: (Units=1/GPa)
#
#
# Indices 1 2 3 4 5 6 
#
# 1 0.033944 -0.014708 -0.007904 0.000000 -0.014762 0.000000
# 2 -0.014708 0.035134 -0.007696 0.000000 -0.001223 0.000000
# 3 -0.007904 -0.007696 0.012969 0.000000 0.010659 0.000000
# 4 0.000000 0.000000 0.000000 0.035378 0.000000 -0.002268
# 5 -0.014762 -0.001223 0.010659 0.000000 0.070583 0.000000
# 6 0.000000 0.000000 0.000000 -0.002268 0.000000 0.048637
#
#
# Mechanical properties :
#
#
# Convention : Reuss Voigt Hill
#
# Bulk Modulus (GPa) = 46.66621 63.35655 55.01138
# Shear Modulus (GPa) = 16.42546 21.22145 18.82346
#
# Velocity S-wave (km/s) = 3.22747 3.66853 3.45504
# Velocity P-wave (km/s) = 6.59418 7.62385 7.12764
#
# Compressibility (1/GPa) = 0.02142878
#
# Stress axis : x y z
#
# Youngs Moduli (GPa) = 29.46051 28.46262 77.10930
#
# Poissons Ratio (x) = 0.41864 0.60947
# Poissons Ratio (y) = 0.43332 0.59346
# Poissons Ratio (z) = 0.23286 0.21906
#
# Static dielectric constant tensor:
#      x y z
#    x 1.503100 0.000000 -0.013060 
#    y 0.000000 1.526690 0.000000 
#    z -0.013060 0.000000 1.551110 
# 
# From -- ./inp_files/73269.got.cif
#   From: 2010.05.17/outbox.cif.g08.bks.cpg/sg11_37_cif.got.tgz:73269.got - 2010.06.03 12:22:45.
