data_PCOD9157287
_publ_section_title
;
Structure prediction by ZEFSAII (Michael W. Deem and Ramdas Pophale) SiO2 
 PCOD9157287
Probable space group: P 21/M
;
_chemical_formula_sum "Si O2"
_cell_formula_units_Z 32
_cell_length_a 26.598009
_cell_length_b 8.249624
_cell_length_c 23.310991
_cell_angle_alpha 90.000000
_cell_angle_beta 18.057581
_cell_angle_gamma 90.000000
_cell_volume 1585.504091
_symmetry_space_group_name_H-M "P 21/M"
_symmetry_group_IT_number 11
_symmetry_cell_setting 'monoclinic'
loop_
_space_group_symop_operation_xyz
x,y,z
-x,1/2+y,-z
-x,-y,-z
x,1/2-y,z
loop_
_atom_site_type_symbol
_atom_site_label
_atom_site_fract_x
_atom_site_fract_y
_atom_site_fract_z
Si Si1 0.360916 0.438472 0.518320
Si Si2 0.715439 0.052319 0.967492
Si Si3 0.362194 0.554009 0.074433
Si Si4 0.726061 0.056858 0.704156
Si Si5 0.401935 0.437815 0.663205
Si Si6 0.936933 0.942397 0.373133
Si Si7 0.350697 0.051751 0.399022
Si Si8 0.170748 0.936941 0.833046
O O1 0.317086 0.250000 0.571327
O O2 0.547458 0.462016 0.335949
O O3 0.326648 0.493138 0.491541
O O4 0.273770 0.534746 0.663363
O O5 0.715748 0.250000 0.970663
O O6 0.725669 0.007614 0.889054
O O7 0.876697 0.995045 0.826454
O O8 0.534006 0.999556 0.183309
O O9 0.377297 0.750000 0.058798
O O10 0.274543 0.504870 0.228480
O O11 0.545050 0.485220 0.877934
O O12 0.749539 0.250000 0.675607
O O13 0.856960 0.971568 0.522106
O O14 0.500000 0.500000 0.500000
O O15 0.432255 0.250000 0.639735
O O16 0.224599 0.465651 0.830946
O O17 0.947834 0.750000 0.350507
O O18 0.799324 0.006037 0.477799
O O19 0.352365 0.250000 0.393868
O O20 0.176578 0.750000 0.842085
O O21 0.000000 0.000000 0.000000
#
# Coordination Sequence:
#
# PCOD9157287 Si02
#       8
#     4   4   4   4   4   4   4   4
#     4  10  19  34  55  81 109 142 183 226 273 324
#     4   9  17  32  56  80 101 136 187 231 271 322
#     4   9  17  32  53  75 104 138 180 227 276 338
#     4  10  19  30  49  78 107 138 175 225 285 338
#     4  10  18  32  54  79 107 140 177 215 261 319
#     4  10  19  34  57  78 103 143 185 227 275 327
#     4   9  18  34  55  80 109 142 188 233 263 317
#     4  11  21  36  57  84 116 148 180 223 274 325
#
# _framework density 20.182855
#
# number of rings (size 3 to 8) (size 9 to 14) (size 15 to 20)
#    0.000    2.250    1.250    4.500    0.000    1.000 
#    2.250    1.875    0.000    0.000    0.000    0.000 
#    0.000    0.000    0.000    0.000    0.000    0.000 
#
# Total GULP energy -178275.963531 kJ/mol
# GULP energy per Si atom -5571.123860 kJ/mol
# Density = 2.013692 g / cm^3
# Si number density = 20.182855 Si / 1000 Ang^3
#
#
#
# Elastic Constant Matrix: (Units=GPa)
#
#
# Indices 1 2 3 4 5 6 
#
# 1 120.6082 9.1544 53.4360 0.0000 -23.0392 0.0000
# 2 9.1544 25.5039 1.6053 0.0000 1.8111 0.0000
# 3 53.4360 1.6053 66.0059 0.0000 -27.5733 0.0000
# 4 0.0000 0.0000 0.0000 16.1044 0.0000 0.5926
# 5 -23.0392 1.8111 -27.5733 0.0000 26.5646 0.0000
# 6 0.0000 0.0000 0.0000 0.5926 0.0000 18.9623
#
#
#
# Elastic Compliance Matrix: (Units=1/GPa)
#
#
# Indices 1 2 3 4 5 6 
#
# 1 0.013373 -0.004256 -0.010164 0.000000 0.001339 0.000000
# 2 -0.004256 0.041266 -0.000487 0.000000 -0.007009 0.000000
# 3 -0.010164 -0.000487 0.034819 0.000000 0.027360 0.000000
# 4 0.000000 0.000000 0.000000 0.062166 0.000000 -0.001943
# 5 0.001339 -0.007009 0.027360 0.000000 0.067682 0.000000
# 6 0.000000 0.000000 0.000000 -0.001943 0.000000 0.052797
#
#
# Mechanical properties :
#
#
# Convention : Reuss Voigt Hill
#
# Bulk Modulus (GPa) = 16.76531 37.83438 27.29984
# Shear Modulus (GPa) = 15.53776 22.18775 18.86275
#
# Velocity S-wave (km/s) = 2.77763 3.31922 3.06043
# Velocity P-wave (km/s) = 4.31413 5.78586 5.10332
#
# Compressibility (1/GPa) = 0.05964697
#
# Stress axis : x y z
#
# Youngs Moduli (GPa) = 74.77701 24.23329 28.71963
#
# Poissons Ratio (x) = 0.10313 0.29189
# Poissons Ratio (y) = 0.31821 0.01397
# Poissons Ratio (z) = 0.76000 0.01179
#
# Static dielectric constant tensor:
#      x y z
#    x 1.747790 0.000000 -0.086470 
#    y 0.000000 1.691550 0.000000 
#    z -0.086470 0.000000 1.849080 
# 
# From -- ./inp_files/70325.got.cif
#   From: 2010.05.17/outbox.cif.g08.bks.cpg/sg11_36_cif.got.tgz:70325.got - 2010.06.03 12:22:45.
