data_PCOD9157394
_publ_section_title
;
Structure prediction by ZEFSAII (Michael W. Deem and Ramdas Pophale) SiO2 
 PCOD9157394
Probable space group: P 21/M
;
_chemical_formula_sum "Si O2"
_cell_formula_units_Z 28
_cell_length_a 9.123431
_cell_length_b 27.511076
_cell_length_c 5.230516
_cell_angle_alpha 90.000000
_cell_angle_beta 99.607850
_cell_angle_gamma 90.000000
_cell_volume 1294.420567
_symmetry_space_group_name_H-M "P 21/M"
_symmetry_group_IT_number 11
_symmetry_cell_setting 'monoclinic'
loop_
_space_group_symop_operation_xyz
x,y,z
-x,1/2+y,-z
-x,-y,-z
x,1/2-y,z
loop_
_atom_site_type_symbol
_atom_site_label
_atom_site_fract_x
_atom_site_fract_y
_atom_site_fract_z
Si Si1 0.258341 0.930955 0.632408
Si Si2 0.193012 0.146652 0.472546
Si Si3 0.106979 0.854223 0.904866
Si Si4 0.924393 0.250000 0.062341
Si Si5 0.992983 0.569690 0.248008
Si Si6 0.296363 0.480445 0.984749
Si Si7 0.124528 0.250000 0.624278
Si Si8 0.427675 0.431645 0.515848
O O1 0.112072 0.955997 0.465875
O O2 0.398867 0.927107 0.489620
O O3 0.302334 0.964836 0.884142
O O4 0.201433 0.878238 0.706482
O O5 0.343229 0.119455 0.440521
O O6 0.110253 0.107771 0.629793
O O7 0.210906 0.199550 0.602998
O O8 0.068168 0.152555 0.217271
O O9 0.160892 0.800892 0.995441
O O10 0.097930 0.896127 0.109863
O O11 0.050928 0.250000 0.881079
O O12 0.993828 0.250000 0.369395
O O13 0.875769 0.536790 0.064816
O O14 0.381658 0.450698 0.783091
O O15 0.364005 0.468169 0.279507
#
# Coordination Sequence:
#
# PCOD9157394 Si02
#       8
#     4   4   4   2   4   4   2   4
#     4  11  25  37  59  92 122 166 197 253 305 359
#     4   9  19  37  57  89 113 155 200 248 295 355
#     4  10  20  37  61  86 121 150 200 247 305 354
#     4  10  20  36  61  91 114 152 194 246 300 366
#     4  10  20  37  60  88 120 156 202 253 294 352
#     4  11  24  42  61  84 124 167 211 244 292 359
#     4  10  18  32  63  87 112 146 200 248 294 350
#     4  11  24  41  60  86 124 164 205 247 298 361
#
# _framework density 21.631302000000002
#
# number of rings (size 3 to 8) (size 9 to 14) (size 15 to 20)
#    0.000    1.714    2.857    1.286    4.000    0.571 
#    0.000    0.714    0.000    0.000    0.000    0.000 
#    0.000    0.000    0.000    0.000    0.000    0.000 
#
# Total GULP energy -156384.118151 kJ/mol
# GULP energy per Si atom -5585.147077 kJ/mol
# Density = 2.158207 g / cm^3
# Si number density = 21.631302 Si / 1000 Ang^3
#
#
#
# Elastic Constant Matrix: (Units=GPa)
#
#
# Indices 1 2 3 4 5 6 
#
# 1 118.7123 51.6526 25.4687 0.0000 -7.2030 0.0000
# 2 51.6526 85.5116 5.3417 0.0000 -11.8532 0.0000
# 3 25.4687 5.3417 73.8094 0.0000 -4.4572 0.0000
# 4 0.0000 0.0000 0.0000 28.6171 0.0000 -4.3337
# 5 -7.2030 -11.8532 -4.4572 0.0000 22.7511 0.0000
# 6 0.0000 0.0000 0.0000 -4.3337 0.0000 13.3666
#
#
#
# Elastic Compliance Matrix: (Units=1/GPa)
#
#
# Indices 1 2 3 4 5 6 
#
# 1 0.012388 -0.007335 -0.003782 0.000000 -0.000641 0.000000
# 2 -0.007335 0.016968 0.001717 0.000000 0.006854 0.000000
# 3 -0.003782 0.001717 0.014887 0.000000 0.002614 0.000000
# 4 0.000000 0.000000 0.000000 0.036748 0.000000 0.011915
# 5 -0.000641 0.006854 0.002614 0.000000 0.047834 0.000000
# 6 0.000000 0.000000 0.000000 0.011915 0.000000 0.078676
#
#
# Mechanical properties :
#
#
# Convention : Reuss Voigt Hill
#
# Bulk Modulus (GPa) = 39.30559 49.21772 44.26165
# Shear Modulus (GPa) = 21.29613 25.98497 23.64055
#
# Velocity S-wave (km/s) = 3.14109 3.46969 3.30947
# Velocity P-wave (km/s) = 5.60048 6.23330 5.92535
#
# Compressibility (1/GPa) = 0.02544168
#
# Stress axis : x y z
#
# Youngs Moduli (GPa) = 80.72302 58.93425 67.17202
#
# Poissons Ratio (x) = 0.43231 0.25407
# Poissons Ratio (y) = 0.59214 -0.11534
# Poissons Ratio (z) = 0.30533 -0.10119
#
# Static dielectric constant tensor:
#      x y z
#    x 1.778090 0.000000 0.018860 
#    y 0.000000 1.835750 0.000000 
#    z 0.018860 0.000000 1.879960 
# 
# From -- ./inp_files/3005.got.cif
#   From: 2010.05.17/outbox.cif.g08.bks.cpg/sg11_2_cif.got.tgz:3005.got - 2010.06.03 12:22:45.
