data_PCOD9157072
_publ_section_title
;
Structure prediction by ZEFSAII (Michael W. Deem and Ramdas Pophale) SiO2 
 PCOD9157072
Probable space group: P 21/M
;
_chemical_formula_sum "Si O2"
_cell_formula_units_Z 32
_cell_length_a 9.032497
_cell_length_b 14.348537
_cell_length_c 23.769273
_cell_angle_alpha 90.000000
_cell_angle_beta 153.805009
_cell_angle_gamma 90.000000
_cell_volume 1359.848865
_symmetry_space_group_name_H-M "P 21/M"
_symmetry_group_IT_number 11
_symmetry_cell_setting 'monoclinic'
loop_
_space_group_symop_operation_xyz
x,y,z
-x,1/2+y,-z
-x,-y,-z
x,1/2-y,z
loop_
_atom_site_type_symbol
_atom_site_label
_atom_site_fract_x
_atom_site_fract_y
_atom_site_fract_z
Si Si1 0.838084 0.995922 0.318427
Si Si2 0.327935 0.148958 0.524449
Si Si3 0.963012 0.395737 0.510902
Si Si4 0.292042 0.991856 0.850354
Si Si5 0.224356 0.361102 0.131988
Si Si6 0.989375 0.856745 0.181751
Si Si7 0.082395 0.140109 0.962944
Si Si8 0.173675 0.143671 0.241641
O O1 0.162000 0.063258 0.435579
O O2 0.796733 0.966579 0.240527
O O3 0.533626 0.066877 0.231027
O O4 0.876375 0.907814 0.372834
O O5 0.293260 0.250000 0.483668
O O6 0.144078 0.156970 0.522364
O O7 0.709802 0.131216 0.671884
O O8 0.000000 0.500000 0.500000
O O9 0.576403 0.366732 0.382635
O O10 0.605073 0.925711 0.944231
O O11 0.002437 0.925595 0.775992
O O12 0.305071 0.074750 0.899972
O O13 0.325491 0.250000 0.165993
O O14 0.991518 0.377751 0.997359
O O15 0.079410 0.377758 0.144396
O O16 0.877022 0.750000 0.145239
O O17 0.129978 0.875137 0.166398
O O18 0.170150 0.250000 0.992187
O O19 0.079157 0.250000 0.221556
#
# Coordination Sequence:
#
# PCOD9157072 Si02
#       8
#     4   4   4   4   4   4   4   4
#     4  10  20  33  55  82 111 146 187 222 279 334
#     4  10  19  33  55  80 109 146 185 228 275 333
#     4  10  18  31  52  77 112 145 178 223 276 332
#     4  11  22  37  58  84 115 147 186 235 282 330
#     4   9  17  32  56  82 110 140 182 237 281 322
#     4  10  22  38  58  79 109 154 195 226 275 340
#     4   9  19  38  61  83 109 145 189 233 280 335
#     4  11  21  33  54  88 118 144 182 234 289 330
#
# _framework density 23.532026999999999
#
# number of rings (size 3 to 8) (size 9 to 14) (size 15 to 20)
#    0.000    2.000    2.500    3.000    0.000    3.500 
#    0.000    3.125    2.750    0.000    0.000    0.000 
#    0.000    0.000    0.000    0.000    0.000    0.000 
#
# Total GULP energy -178688.578000 kJ/mol
# GULP energy per Si atom -5584.018062 kJ/mol
# Density = 2.347847 g / cm^3
# Si number density = 23.532027 Si / 1000 Ang^3
#
#
#
# Elastic Constant Matrix: (Units=GPa)
#
#
# Indices 1 2 3 4 5 6 
#
# 1 76.8831 11.2077 17.6043 0.0000 -13.2978 0.0000
# 2 11.2077 75.4904 5.9105 0.0000 6.3691 0.0000
# 3 17.6043 5.9105 38.8457 0.0000 -7.4333 0.0000
# 4 0.0000 0.0000 0.0000 8.9661 0.0000 -10.9706
# 5 -13.2978 6.3691 -7.4333 0.0000 40.9853 0.0000
# 6 0.0000 0.0000 0.0000 -10.9706 0.0000 27.9900
#
#
#
# Elastic Compliance Matrix: (Units=1/GPa)
#
#
# Indices 1 2 3 4 5 6 
#
# 1 0.015401 -0.002191 -0.005827 0.000000 0.004281 0.000000
# 2 -0.002191 0.013979 -0.001746 0.000000 -0.003200 0.000000
# 3 -0.005827 -0.001746 0.029358 0.000000 0.003705 0.000000
# 4 0.000000 0.000000 0.000000 0.214310 0.000000 0.083998
# 5 0.004281 -0.003200 0.003705 0.000000 0.026957 0.000000
# 6 0.000000 0.000000 0.000000 0.083998 0.000000 0.068650
#
#
# Mechanical properties :
#
#
# Convention : Reuss Voigt Hill
#
# Bulk Modulus (GPa) = 25.50437 28.96271 27.23354
# Shear Modulus (GPa) = 12.46095 26.02138 19.24117
#
# Velocity S-wave (km/s) = 2.30365 3.32894 2.86258
# Velocity P-wave (km/s) = 4.23526 5.20676 4.74593
#
# Compressibility (1/GPa) = 0.03920896
#
# Stress axis : x y z
#
# Youngs Moduli (GPa) = 64.93167 71.53714 34.06194
#
# Poissons Ratio (x) = 0.15677 0.19847
# Poissons Ratio (y) = 0.14229 0.05948
# Poissons Ratio (z) = 0.37835 0.12491
#
# Static dielectric constant tensor:
#      x y z
#    x 1.877750 0.000000 -0.036030 
#    y 0.000000 1.885890 0.000000 
#    z -0.036030 0.000000 1.943950 
# 
# From -- ./inp_files/68158.got.cif
#   From: 2010.05.17/outbox.cif.g08.bks.cpg/sg11_35_cif.got.tgz:68158.got - 2010.06.03 12:22:45.
