data_PCOD9157327
_publ_section_title
;
Structure prediction by ZEFSAII (Michael W. Deem and Ramdas Pophale) SiO2 
 PCOD9157327
Probable space group: P 21/M
;
_chemical_formula_sum "Si O2"
_cell_formula_units_Z 32
_cell_length_a 15.247236
_cell_length_b 19.450218
_cell_length_c 15.133688
_cell_angle_alpha 90.000000
_cell_angle_beta 160.504162
_cell_angle_gamma 90.000000
_cell_volume 1497.843817
_symmetry_space_group_name_H-M "P 21/M"
_symmetry_group_IT_number 11
_symmetry_cell_setting 'monoclinic'
loop_
_space_group_symop_operation_xyz
x,y,z
-x,1/2+y,-z
-x,-y,-z
x,1/2-y,z
loop_
_atom_site_type_symbol
_atom_site_label
_atom_site_fract_x
_atom_site_fract_y
_atom_site_fract_z
Si Si1 0.853168 0.870999 0.095241
Si Si2 0.316166 0.173567 0.744935
Si Si3 0.384494 0.331438 0.453968
Si Si4 0.789782 0.401927 0.279595
Si Si5 0.288535 0.100739 0.547893
Si Si6 0.318873 0.825967 0.655087
Si Si7 0.239138 0.979395 0.914855
Si Si8 0.070994 0.831283 0.119589
O O1 0.055805 0.830153 0.348899
O O2 0.968137 0.872323 0.106281
O O3 0.825158 0.945655 0.111685
O O4 0.568665 0.836122 0.829536
O O5 0.257258 0.250000 0.719340
O O6 0.299391 0.165855 0.623715
O O7 0.091328 0.122570 0.566978
O O8 0.604439 0.150436 0.048446
O O9 0.406846 0.250000 0.497844
O O10 0.369134 0.376795 0.527142
O O11 0.637438 0.349284 0.635057
O O12 0.125460 0.340587 0.148978
O O13 0.685338 0.388854 0.278785
O O14 0.762589 0.470242 0.194020
O O15 0.996766 0.069897 0.276052
O O16 0.490139 0.047111 0.784912
O O17 0.336514 0.750000 0.714520
O O18 0.066618 0.750000 0.139516
#
# Coordination Sequence:
#
# PCOD9157327 Si02
#       8
#     4   4   4   4   4   4   4   4
#     4  12  25  42  62  84 117 160 199 239 290 343
#     4  10  18  32  55  82 118 153 184 231 293 346
#     4  10  20  36  61  90 118 149 192 245 298 346
#     4  10  22  37  57  86 119 151 188 239 289 343
#     4  10  20  37  58  85 117 153 196 235 279 350
#     4  12  24  39  63  90 114 145 197 252 295 343
#     4  10  23  41  59  84 122 161 194 229 281 353
#     4  10  21  38  58  83 115 148 190 246 301 342
#
# _framework density 21.364042999999999
#
# number of rings (size 3 to 8) (size 9 to 14) (size 15 to 20)
#    0.000    1.500    0.000    5.625    0.000    2.000 
#    0.000    7.500    0.000    0.000    0.000    0.000 
#    0.000    0.000    0.000    0.000    0.000    0.000 
#
# Total GULP energy -178903.130354 kJ/mol
# GULP energy per Si atom -5590.722824 kJ/mol
# Density = 2.131542 g / cm^3
# Si number density = 21.364043 Si / 1000 Ang^3
#
#
#
# Elastic Constant Matrix: (Units=GPa)
#
#
# Indices 1 2 3 4 5 6 
#
# 1 77.5661 10.1000 -11.8417 0.0000 3.2604 0.0000
# 2 10.1000 50.2114 8.4348 0.0000 -2.4815 0.0000
# 3 -11.8417 8.4348 44.0817 0.0000 12.2843 0.0000
# 4 0.0000 0.0000 0.0000 -29.4613 0.0000 -26.0565
# 5 3.2604 -2.4815 12.2843 0.0000 27.6177 0.0000
# 6 0.0000 0.0000 0.0000 -26.0565 0.0000 8.9239
#
#
#
# Elastic Compliance Matrix: (Units=1/GPa)
#
#
# Indices 1 2 3 4 5 6 
#
# 1 0.014560 -0.004181 0.006044 0.000000 -0.004783 0.000000
# 2 -0.004181 0.022194 -0.006921 0.000000 0.005566 0.000000
# 3 0.006044 -0.006921 0.029685 0.000000 -0.014539 0.000000
# 4 0.000000 0.000000 0.000000 -0.009475 0.000000 -0.027665
# 5 -0.004783 0.005566 -0.014539 0.000000 0.043740 0.000000
# 6 0.000000 0.000000 0.000000 -0.027665 0.000000 0.031280
#
#
# Mechanical properties :
#
#
# Convention : Reuss Voigt Hill
#
# Bulk Modulus (GPa) = 17.75416 20.58283 19.16850
# Shear Modulus (GPa) = 31.08014 12.42715 21.75364
#
# Velocity S-wave (km/s) = 3.81831 2.41443 3.19444
# Velocity P-wave (km/s) = 5.26950 4.17467 4.75371
#
# Compressibility (1/GPa) = 0.05632482
#
# Stress axis : x y z
#
# Youngs Moduli (GPa) = 68.67965 45.05639 33.68747
#
# Poissons Ratio (x) = 0.18836 -0.20361
# Poissons Ratio (y) = 0.28712 0.23315
# Poissons Ratio (z) = -0.41511 0.31183
#
# Static dielectric constant tensor:
#      x y z
#    x 1.763650 0.000000 0.006240 
#    y 0.000000 1.780720 0.000000 
#    z 0.006240 0.000000 1.739740 
# 
# From -- ./inp_files/52680.got.cif
#   From: 2010.05.17/outbox.cif.g08.bks.cpg/sg11_27_cif.got.tgz:52680.got - 2010.06.03 12:22:45.
