data_PCOD9157766
_publ_section_title
;
Structure prediction by ZEFSAII (Michael W. Deem and Ramdas Pophale) SiO2 
 PCOD9157766
Probable space group: P 21/M
;
_chemical_formula_sum "Si O2"
_cell_formula_units_Z 28
_cell_length_a 11.744126
_cell_length_b 14.442834
_cell_length_c 9.168584
_cell_angle_alpha 90.000000
_cell_angle_beta 59.322734
_cell_angle_gamma 90.000000
_cell_volume 1337.523753
_symmetry_space_group_name_H-M "P 21/M"
_symmetry_group_IT_number 11
_symmetry_cell_setting 'monoclinic'
loop_
_space_group_symop_operation_xyz
x,y,z
-x,1/2+y,-z
-x,-y,-z
x,1/2-y,z
loop_
_atom_site_type_symbol
_atom_site_label
_atom_site_fract_x
_atom_site_fract_y
_atom_site_fract_z
Si Si1 0.554233 0.647424 0.586320
Si Si2 0.589180 0.861152 0.900589
Si Si3 0.823300 0.886582 0.256125
Si Si4 0.992161 0.848808 0.857328
Si Si5 0.313002 0.942165 0.070788
Si Si6 0.967190 0.465630 0.680052
Si Si7 0.725273 0.411046 0.242673
O O1 0.501214 0.750000 0.650629
O O2 0.596494 0.614576 0.721437
O O3 0.683983 0.653651 0.401822
O O4 0.424840 0.600024 0.600547
O O5 0.618837 0.750000 0.902178
O O6 0.667056 0.945630 0.928634
O O7 0.439039 0.885935 0.045694
O O8 0.778374 0.989055 0.246852
O O9 0.904215 0.851607 0.062790
O O10 0.926639 0.895601 0.321052
O O11 0.961284 0.750000 0.802546
O O12 0.963556 0.942842 0.786728
O O13 0.149448 0.849833 0.791775
O O14 0.176044 0.920159 0.235941
O O15 0.294677 0.909996 0.917098
O O16 0.000000 0.500000 0.500000
#
# Coordination Sequence:
#
# PCOD9157766 Si02
#       7
#     4   4   4   4   4   4   4
#     4  10  20  34  55  87 117 153 200 250 303 351
#     4   9  20  35  56  83 118 157 201 250 300 361
#     4  11  20  38  59  89 121 154 203 245 301 367
#     4  11  22  39  62  91 123 154 203 261 302 360
#     4  10  18  37  58  83 117 158 203 243 300 370
#     4  11  22  39  62  86 119 163 203 242 309 374
#     4  10  19  37  60  83 117 160 201 239 305 367
#
# _framework density 20.934208000000002
#
# number of rings (size 3 to 8) (size 9 to 14) (size 15 to 20)
#    0.000    1.714    2.857    3.000    0.000    1.143 
#    0.000    2.143    0.000    0.000    0.000    0.000 
#    0.000    0.000    0.000    0.000    0.000    0.000 
#
# Total GULP energy -155894.983151 kJ/mol
# GULP energy per Si atom -5567.677970 kJ/mol
# Density = 2.088656 g / cm^3
# Si number density = 20.934208 Si / 1000 Ang^3
#
#
#
# Elastic Constant Matrix: (Units=GPa)
#
#
# Indices 1 2 3 4 5 6 
#
# 1 82.5440 -5.4640 29.6073 0.0000 -32.2339 0.0000
# 2 -5.4640 70.9449 -5.3959 0.0000 -7.7508 0.0000
# 3 29.6073 -5.3959 91.3680 0.0000 -24.4320 0.0000
# 4 0.0000 0.0000 0.0000 10.7563 0.0000 0.1687
# 5 -32.2339 -7.7508 -24.4320 0.0000 36.4107 0.0000
# 6 0.0000 0.0000 0.0000 0.1687 0.0000 5.2490
#
#
#
# Elastic Compliance Matrix: (Units=1/GPa)
#
#
# Indices 1 2 3 4 5 6 
#
# 1 0.019490 0.003219 -0.001619 0.000000 0.016853 0.000000
# 2 0.003219 0.015282 0.001817 0.000000 0.007322 0.000000
# 3 -0.001619 0.001817 0.013767 0.000000 0.008192 0.000000
# 4 0.000000 0.000000 0.000000 0.093016 0.000000 -0.002990
# 5 0.016853 0.007322 0.008192 0.000000 0.049440 0.000000
# 6 0.000000 0.000000 0.000000 -0.002990 0.000000 0.190609
#
#
# Mechanical properties :
#
#
# Convention : Reuss Voigt Hill
#
# Bulk Modulus (GPa) = 18.05915 31.37239 24.71577
# Shear Modulus (GPa) = 12.71533 25.55715 19.13624
#
# Velocity S-wave (km/s) = 2.46721 3.49783 3.02671
# Velocity P-wave (km/s) = 4.09409 5.59748 4.90374
#
# Compressibility (1/GPa) = 0.05537358
#
# Stress axis : x y z
#
# Youngs Moduli (GPa) = 51.30913 65.43828 72.63684
#
# Poissons Ratio (x) = -0.21065 0.11759
# Poissons Ratio (y) = -0.16517 -0.13201
# Poissons Ratio (z) = 0.08306 -0.11892
#
# Static dielectric constant tensor:
#      x y z
#    x 1.825900 0.000000 -0.035490 
#    y 0.000000 1.890670 0.000000 
#    z -0.035490 0.000000 2.031520 
# 
# From -- ./inp_files/17933.got.cif
#   From: 2010.05.17/outbox.cif.g08.bks.cpg/sg11_9_cif.got.tgz:17933.got - 2010.06.03 12:22:45.
