data_PCOD9157736
_publ_section_title
;
Structure prediction by ZEFSAII (Michael W. Deem and Ramdas Pophale) SiO2 
 PCOD9157736
Probable space group: P 21/M
;
_chemical_formula_sum "Si O2"
_cell_formula_units_Z 26
_cell_length_a 12.896234
_cell_length_b 23.031668
_cell_length_c 7.809975
_cell_angle_alpha 90.000000
_cell_angle_beta 28.756150
_cell_angle_gamma 90.000000
_cell_volume 1115.983658
_symmetry_space_group_name_H-M "P 21/M"
_symmetry_group_IT_number 11
_symmetry_cell_setting 'monoclinic'
loop_
_space_group_symop_operation_xyz
x,y,z
-x,1/2+y,-z
-x,-y,-z
x,1/2-y,z
loop_
_atom_site_type_symbol
_atom_site_label
_atom_site_fract_x
_atom_site_fract_y
_atom_site_fract_z
Si Si1 0.104652 0.462046 0.196868
Si Si2 0.567532 0.624423 0.666808
Si Si3 0.019742 0.250000 0.236350
Si Si4 0.244330 0.117645 0.261883
Si Si5 0.215479 0.579540 0.917352
Si Si6 0.402696 0.750000 0.001011
Si Si7 0.330847 0.250000 0.056698
Si Si8 0.048969 0.625873 0.827122
O O1 0.271722 0.419171 0.049275
O O2 0.935619 0.419621 0.350045
O O3 0.000000 0.500000 0.500000
O O4 0.196164 0.509738 0.933531
O O5 0.583221 0.603060 0.840680
O O6 0.402940 0.594522 0.777578
O O7 0.503477 0.692278 0.774818
O O8 0.807965 0.616085 0.248588
O O9 0.855358 0.250000 0.636165
O O10 0.266595 0.250000 0.947723
O O11 0.961543 0.191622 0.220798
O O12 0.242458 0.186507 0.235326
O O13 0.007682 0.102054 0.675166
O O14 0.218328 0.611441 0.730311
O O15 0.458068 0.750000 0.126030
#
# Coordination Sequence:
#
# PCOD9157736 Si02
#       8
#     4   4   2   4   4   2   2   4
#     4  10  21  40  64  90 124 170 214 257 303 364
#     4  10  22  40  62  92 124 160 206 259 315 371
#     4  12  23  38  68  92 123 163 201 255 321 373
#     4   9  19  38  62  91 119 164 210 260 311 366
#     4  10  22  39  62  86 131 168 203 252 311 372
#     4  10  23  38  64  96 123 157 207 255 315 385
#     4  10  18  36  60  88 124 150 200 268 308 352
#     4  11  24  41  62  95 127 163 205 258 317 368
#
# _framework density 23.297833000000001
#
# number of rings (size 3 to 8) (size 9 to 14) (size 15 to 20)
#    0.000    1.846    1.538    1.846    2.154    4.923 
#    0.000    0.000    0.000    0.000    0.000    0.000 
#    0.000    0.000    0.000    0.000    0.000    0.000 
#
# Total GULP energy -145149.299348 kJ/mol
# GULP energy per Si atom -5582.665360 kJ/mol
# Density = 2.324481 g / cm^3
# Si number density = 23.297833 Si / 1000 Ang^3
#
#
#
# Elastic Constant Matrix: (Units=GPa)
#
#
# Indices 1 2 3 4 5 6 
#
# 1 166.9169 64.4685 21.7141 0.0000 -10.9349 0.0000
# 2 64.4685 138.3554 6.7067 0.0000 -1.3746 0.0000
# 3 21.7141 6.7067 27.8528 0.0000 -13.0821 0.0000
# 4 0.0000 0.0000 0.0000 13.6004 0.0000 27.2231
# 5 -10.9349 -1.3746 -13.0821 0.0000 32.4357 0.0000
# 6 0.0000 0.0000 0.0000 27.2231 0.0000 17.6275
#
#
#
# Elastic Compliance Matrix: (Units=1/GPa)
#
#
# Indices 1 2 3 4 5 6 
#
# 1 0.008049 -0.003493 -0.005217 0.000000 0.000461 0.000000
# 2 -0.003493 0.008835 0.000270 0.000000 -0.000694 0.000000
# 3 -0.005217 0.000270 0.048219 0.000000 0.017701 0.000000
# 4 0.000000 0.000000 0.000000 -0.035160 0.000000 0.054299
# 5 0.000461 -0.000694 0.017701 0.000000 0.038095 0.000000
# 6 0.000000 0.000000 0.000000 0.054299 0.000000 -0.027127
#
#
# Mechanical properties :
#
#
# Convention : Reuss Voigt Hill
#
# Bulk Modulus (GPa) = 20.73741 57.65595 39.19668
# Shear Modulus (GPa) = 67.68815 28.74844 48.21829
#
# Velocity S-wave (km/s) = 5.39597 3.51658 4.55427
# Velocity P-wave (km/s) = 6.90958 6.42569 6.67202
#
# Compressibility (1/GPa) = 0.04822203
#
# Stress axis : x y z
#
# Youngs Moduli (GPa) = 124.23790 113.18049 20.73861
#
# Poissons Ratio (x) = 0.39535 0.10820
# Poissons Ratio (y) = 0.43397 -0.00559
# Poissons Ratio (z) = 0.64819 -0.03051
#
# Static dielectric constant tensor:
#      x y z
#    x 1.923100 0.000000 0.056120 
#    y 0.000000 1.866450 0.000000 
#    z 0.056120 0.000000 1.930200 
# 
# From -- ./inp_files/23047.got.cif
#   From: 2010.05.17/outbox.cif.g08.bks.cpg/sg11_12_cif.got.tgz:23047.got - 2010.06.03 12:22:45.
