data_PCOD9157137
_publ_section_title
;
Structure prediction by ZEFSAII (Michael W. Deem and Ramdas Pophale) SiO2 
 PCOD9157137
Probable space group: P 21/M
;
_chemical_formula_sum "Si O2"
_cell_formula_units_Z 28
_cell_length_a 19.579964
_cell_length_b 8.830875
_cell_length_c 16.752362
_cell_angle_alpha 90.000000
_cell_angle_beta 31.078994
_cell_angle_gamma 90.000000
_cell_volume 1495.291859
_symmetry_space_group_name_H-M "P 21/M"
_symmetry_group_IT_number 11
_symmetry_cell_setting 'monoclinic'
loop_
_space_group_symop_operation_xyz
x,y,z
-x,1/2+y,-z
-x,-y,-z
x,1/2-y,z
loop_
_atom_site_type_symbol
_atom_site_label
_atom_site_fract_x
_atom_site_fract_y
_atom_site_fract_z
Si Si1 0.908992 0.567651 0.855210
Si Si2 0.439277 0.574053 0.981452
Si Si3 0.097377 0.568263 0.967495
Si Si4 0.919793 0.077974 0.462439
Si Si5 0.616695 0.066000 0.133455
Si Si6 0.406838 0.931641 0.661329
Si Si7 0.805031 0.918622 0.716953
O O1 0.899872 0.750000 0.862711
O O2 0.024149 0.524514 0.678052
O O3 0.940522 0.504127 0.910215
O O4 0.764916 0.500740 0.978260
O O5 0.471053 0.750000 0.951320
O O6 0.284007 0.542274 0.150801
O O7 0.500000 0.500000 0.000000
O O8 0.463811 0.518355 0.865728
O O9 0.087516 0.750000 0.980348
O O10 0.252660 0.530158 0.798912
O O11 0.000000 0.500000 0.000000
O O12 0.866525 0.250000 0.510343
O O13 0.052979 0.086486 0.382815
O O14 0.823504 0.967886 0.606816
O O15 0.625674 0.250000 0.123383
O O16 0.565799 0.021927 0.273209
O O17 0.419245 0.750000 0.646269
O O18 0.500000 0.000000 0.500000
O O19 0.746979 0.750000 0.782690
#
# Coordination Sequence:
#
# PCOD9157137 Si02
#       7
#     4   4   4   4   4   4   4
#     4  10  18  31  54  81 108 138 177 223 268 321
#     4  11  22  36  54  74 104 144 184 228 275 324
#     4  10  21  37  56  82 114 147 185 228 280 336
#     4   9  18  31  49  76 105 133 168 213 261 312
#     4   9  19  35  54  77 106 140 181 226 270 326
#     4   9  19  36  58  85 112 140 181 228 277 336
#     4  10  19  32  50  74 103 134 172 216 262 311
#
# _framework density 18.725439999999999
#
# number of rings (size 3 to 8) (size 9 to 14) (size 15 to 20)
#    0.000    2.286    1.429    2.571    0.000    5.143 
#    0.000    1.429    0.000    3.429    0.000    0.000 
#    0.000    0.000    0.000    0.000    0.000    0.000 
#
# Total GULP energy -156004.575451 kJ/mol
# GULP energy per Si atom -5571.591980 kJ/mol
# Density = 1.868282 g / cm^3
# Si number density = 18.725440 Si / 1000 Ang^3
#
#
#
# Elastic Constant Matrix: (Units=GPa)
#
#
# Indices 1 2 3 4 5 6 
#
# 1 131.9727 27.5360 44.7603 0.0000 40.9421 0.0000
# 2 27.5360 17.0027 15.8240 0.0000 11.5598 0.0000
# 3 44.7603 15.8240 89.3085 0.0000 42.1224 0.0000
# 4 0.0000 0.0000 0.0000 27.8330 0.0000 1.4929
# 5 40.9421 11.5598 42.1224 0.0000 28.8716 0.0000
# 6 0.0000 0.0000 0.0000 1.4929 0.0000 28.1415
#
#
#
# Elastic Compliance Matrix: (Units=1/GPa)
#
#
# Indices 1 2 3 4 5 6 
#
# 1 0.017610 -0.015109 0.008901 0.000000 -0.031910 0.000000
# 2 -0.015109 0.094031 -0.004607 0.000000 -0.009501 0.000000
# 3 0.008901 -0.004607 0.040515 0.000000 -0.069888 0.000000
# 4 0.000000 0.000000 0.000000 0.036031 0.000000 -0.001911
# 5 -0.031910 -0.009501 -0.069888 0.000000 0.185654 0.000000
# 6 0.000000 0.000000 0.000000 -0.001911 0.000000 0.035636
#
#
# Mechanical properties :
#
#
# Convention : Reuss Voigt Hill
#
# Bulk Modulus (GPa) = 7.66127 46.05828 26.85977
# Shear Modulus (GPa) = 10.53482 26.98012 18.75747
#
# Velocity S-wave (km/s) = 2.37448 3.79994 3.16841
# Velocity P-wave (km/s) = 3.40849 6.62592 5.26880
#
# Compressibility (1/GPa) = 0.13052674
#
# Stress axis : x y z
#
# Youngs Moduli (GPa) = 56.78466 10.63474 24.68247
#
# Poissons Ratio (x) = 0.16069 -0.21971
# Poissons Ratio (y) = 0.85799 0.11371
# Poissons Ratio (z) = -0.50547 0.04899
#
# Static dielectric constant tensor:
#      x y z
#    x 1.605480 0.000000 -0.011000 
#    y 0.000000 1.649650 0.000000 
#    z -0.011000 0.000000 1.655980 
# 
# From -- ./inp_files/53179.got.cif
#   From: 2010.05.17/outbox.cif.g08.bks.cpg/sg11_27_cif.got.tgz:53179.got - 2010.06.03 12:22:45.
