data_PCOD9157373
_publ_section_title
;
Structure prediction by ZEFSAII (Michael W. Deem and Ramdas Pophale) SiO2 
 PCOD9157373
Probable space group: P 21/M
;
_chemical_formula_sum "Si O2"
_cell_formula_units_Z 32
_cell_length_a 11.147662
_cell_length_b 21.374947
_cell_length_c 10.936423
_cell_angle_alpha 90.000000
_cell_angle_beta 42.690636
_cell_angle_gamma 90.000000
_cell_volume 1766.929276
_symmetry_space_group_name_H-M "P 21/M"
_symmetry_group_IT_number 11
_symmetry_cell_setting 'monoclinic'
loop_
_space_group_symop_operation_xyz
x,y,z
-x,1/2+y,-z
-x,-y,-z
x,1/2-y,z
loop_
_atom_site_type_symbol
_atom_site_label
_atom_site_fract_x
_atom_site_fract_y
_atom_site_fract_z
Si Si1 0.953721 0.324228 0.669298
Si Si2 0.441386 0.818225 0.669875
Si Si3 0.439405 0.493077 0.846921
Si Si4 0.138373 0.055980 0.890213
Si Si5 0.683661 0.678191 0.729985
Si Si6 0.592127 0.554776 0.506116
Si Si7 0.397791 0.905034 0.078715
Si Si8 0.968058 0.179069 0.948852
O O1 0.924166 0.250000 0.672132
O O2 0.120668 0.343039 0.459482
O O3 0.997250 0.330546 0.781610
O O4 0.774368 0.361988 0.779063
O O5 0.459146 0.750000 0.595498
O O6 0.570402 0.818729 0.689722
O O7 0.497205 0.879029 0.553063
O O8 0.242326 0.824494 0.868487
O O9 0.290660 0.460592 0.874059
O O10 0.565104 0.534707 0.665493
O O11 0.359931 0.542129 0.003870
O O12 0.548774 0.441789 0.839288
O O13 0.215833 0.056584 0.694751
O O14 0.056296 0.124852 0.963032
O O15 0.000000 0.000000 0.000000
O O16 0.695533 0.750000 0.767543
O O17 0.568523 0.634805 0.905488
O O18 0.500000 0.500000 0.500000
O O19 0.026637 0.250000 0.934323
#
# Coordination Sequence:
#
# PCOD9157373 Si02
#       8
#     4   4   4   4   4   4   4   4
#     4  10  19  33  58  89 111 145 194 240 294 342
#     4  10  18  32  57  86 114 144 189 246 296 336
#     4  10  23  38  53  84 111 159 195 228 293 354
#     4  11  22  37  58  83 116 152 193 243 295 345
#     4  10  19  32  57  86 111 145 190 239 293 343
#     4  10  19  35  56  78 113 147 190 238 286 349
#     4  11  20  39  58  79 126 147 190 243 285 354
#     4  10  19  32  55  85 116 147 190 245 292 343
#
# _framework density 18.110514999999999
#
# number of rings (size 3 to 8) (size 9 to 14) (size 15 to 20)
#    0.000    1.750    2.500    3.375    0.000    1.500 
#    2.250    2.500    0.000    1.500    0.000    0.000 
#    0.000    0.000    0.000    0.000    0.000    0.000 
#
# Total GULP energy -178413.956631 kJ/mol
# GULP energy per Si atom -5575.436145 kJ/mol
# Density = 1.806929 g / cm^3
# Si number density = 18.110515 Si / 1000 Ang^3
#
#
#
# Elastic Constant Matrix: (Units=GPa)
#
#
# Indices 1 2 3 4 5 6 
#
# 1 71.5111 49.5646 39.7688 0.0000 -6.3650 0.0000
# 2 49.5646 149.4912 63.1528 0.0000 -12.6878 0.0000
# 3 39.7688 63.1528 96.4807 0.0000 -22.0921 0.0000
# 4 0.0000 0.0000 0.0000 29.4733 0.0000 -5.7747
# 5 -6.3650 -12.6878 -22.0921 0.0000 16.4123 0.0000
# 6 0.0000 0.0000 0.0000 -5.7747 0.0000 34.4605
#
#
#
# Elastic Compliance Matrix: (Units=1/GPa)
#
#
# Indices 1 2 3 4 5 6 
#
# 1 0.020199 -0.004326 -0.006456 0.000000 -0.004201 0.000000
# 2 -0.004326 0.010196 -0.005016 0.000000 -0.000548 0.000000
# 3 -0.006456 -0.005016 0.021464 0.000000 0.022510 0.000000
# 4 0.000000 0.000000 0.000000 0.035081 0.000000 0.005879
# 5 -0.004201 -0.000548 0.022510 0.000000 0.089177 0.000000
# 6 0.000000 0.000000 0.000000 0.005879 0.000000 0.030004
#
#
# Mechanical properties :
#
#
# Convention : Reuss Voigt Hill
#
# Bulk Modulus (GPa) = 49.35424 69.16173 59.25798
# Shear Modulus (GPa) = 20.45225 27.06900 23.76063
#
# Velocity S-wave (km/s) = 3.36416 3.87027 3.62606
# Velocity P-wave (km/s) = 6.51160 7.63175 7.09382
#
# Compressibility (1/GPa) = 0.02026168
#
# Stress axis : x y z
#
# Youngs Moduli (GPa) = 49.50799 98.07354 46.59017
#
# Poissons Ratio (x) = 0.42429 0.30079
# Poissons Ratio (y) = 0.21418 0.23371
# Poissons Ratio (z) = 0.31963 0.49197
#
# Static dielectric constant tensor:
#      x y z
#    x 1.602440 0.000000 -0.015010 
#    y 0.000000 1.673440 0.000000 
#    z -0.015010 0.000000 1.661740 
# 
# From -- ./inp_files/36328.got.cif
#   From: 2010.05.17/outbox.cif.g08.bks.cpg/sg11_19_cif.got.tgz:36328.got - 2010.06.03 12:22:45.
