data_PCOD9157220
_publ_section_title
;
Structure prediction by ZEFSAII (Michael W. Deem and Ramdas Pophale) SiO2 
 PCOD9157220
Probable space group: P 21/M
;
_chemical_formula_sum "Si O2"
_cell_formula_units_Z 32
_cell_length_a 12.058911
_cell_length_b 20.389200
_cell_length_c 5.423961
_cell_angle_alpha 90.000000
_cell_angle_beta 102.174576
_cell_angle_gamma 90.000000
_cell_volume 1303.604502
_symmetry_space_group_name_H-M "P 21/M"
_symmetry_group_IT_number 11
_symmetry_cell_setting 'monoclinic'
loop_
_space_group_symop_operation_xyz
x,y,z
-x,1/2+y,-z
-x,-y,-z
x,1/2-y,z
loop_
_atom_site_type_symbol
_atom_site_label
_atom_site_fract_x
_atom_site_fract_y
_atom_site_fract_z
Si Si1 0.942313 0.141580 0.984439
Si Si2 0.768693 0.483088 0.911350
Si Si3 0.184361 0.326085 0.145323
Si Si4 0.447986 0.893821 0.146421
Si Si5 0.325247 0.327326 0.712696
Si Si6 0.862652 0.495067 0.451172
Si Si7 0.147870 0.838469 0.560082
Si Si8 0.595743 0.320974 0.374462
O O1 0.074894 0.128536 0.055269
O O2 0.916952 0.178404 0.224423
O O3 0.913645 0.178178 0.720299
O O4 0.859183 0.078207 0.950062
O O5 0.639367 0.455243 0.869467
O O6 0.799510 0.518027 0.669469
O O7 0.802776 0.520485 0.176303
O O8 0.144642 0.250000 0.111123
O O9 0.241584 0.333123 0.439923
O O10 0.268839 0.334071 0.954645
O O11 0.580654 0.884710 0.270628
O O12 0.402042 0.846140 0.343391
O O13 0.445540 0.869309 0.861045
O O14 0.368777 0.250000 0.723045
O O15 0.000000 0.500000 0.500000
O O16 0.840487 0.417233 0.439041
O O17 0.273689 0.813895 0.631532
O O18 0.537125 0.250000 0.329928
#
# Coordination Sequence:
#
# PCOD9157220 Si02
#       8
#     4   4   4   4   4   4   4   4
#     4  10  18  33  51  66 102 133 160 213 258 288
#     4  10  19  34  51  79 107 129 162 219 256 317
#     4  10  21  35  49  68  95 134 183 223 247 288
#     4  12  20  37  51  71 107 137 172 219 254 302
#     4  10  21  35  49  68  95 134 183 220 251 291
#     4  10  18  32  52  74 108 140 160 198 262 326
#     4  10  19  33  46  76 106 129 166 211 244 311
#     4  12  21  31  48  72 104 142 170 199 254 303
#
# _framework density 24.547322000000001
#
# number of rings (size 3 to 8) (size 9 to 14) (size 15 to 20)
#    0.000    1.500    5.000    3.000    0.000    2.000 
#    0.000    0.000    0.000    0.000    0.000    0.000 
#    0.000   80.000    0.000    0.000    0.000    0.000 
#
# Total GULP energy -178595.444556 kJ/mol
# GULP energy per Si atom -5581.107642 kJ/mol
# Density = 2.449145 g / cm^3
# Si number density = 24.547322 Si / 1000 Ang^3
#
#
#
# Elastic Constant Matrix: (Units=GPa)
#
#
# Indices 1 2 3 4 5 6 
#
# 1 85.6872 -26.9580 15.6217 0.0000 2.9917 0.0000
# 2 -26.9580 50.4661 -16.0139 0.0000 9.4710 0.0000
# 3 15.6217 -16.0139 177.1658 0.0000 -16.7162 0.0000
# 4 0.0000 0.0000 0.0000 -1.6237 0.0000 -5.6658
# 5 2.9917 9.4710 -16.7162 0.0000 48.5589 0.0000
# 6 0.0000 0.0000 0.0000 -5.6658 0.0000 -5.2721
#
#
#
# Elastic Compliance Matrix: (Units=1/GPa)
#
#
# Indices 1 2 3 4 5 6 
#
# 1 0.014415 0.007954 -0.000809 0.000000 -0.002718 0.000000
# 2 0.007954 0.025366 0.001115 0.000000 -0.005054 0.000000
# 3 -0.000809 0.001115 0.005995 0.000000 0.001896 0.000000
# 4 0.000000 0.000000 0.000000 0.223953 0.000000 -0.240678
# 5 -0.002718 -0.005054 0.001896 0.000000 0.022399 0.000000
# 6 0.000000 0.000000 0.000000 -0.240678 0.000000 0.068974
#
#
# Mechanical properties :
#
#
# Convention : Reuss Voigt Hill
#
# Bulk Modulus (GPa) = 16.05241 28.73542 22.39391
# Shear Modulus (GPa) = 13.68558 31.04389 22.36474
#
# Velocity S-wave (km/s) = 2.36374 3.56006 3.02170
# Velocity P-wave (km/s) = 3.74210 5.35072 4.61701
#
# Compressibility (1/GPa) = 0.06229596
#
# Stress axis : x y z
#
# Youngs Moduli (GPa) = 69.37245 39.42270 166.79446
#
# Poissons Ratio (x) = -0.31355 0.13486
# Poissons Ratio (y) = -0.55176 -0.18592
# Poissons Ratio (z) = 0.05609 -0.04394
#
# Static dielectric constant tensor:
#      x y z
#    x 2.012350 0.000000 0.021100 
#    y 0.000000 2.015270 0.000000 
#    z 0.021100 0.000000 2.094220 
# 
# From -- ./inp_files/5613.got.cif
#   From: 2010.05.17/outbox.cif.g08.bks.cpg/sg11_3_cif.got.tgz:5613.got - 2010.06.03 12:22:45.
