data_PCOD9157873
_publ_section_title
;
Structure prediction by ZEFSAII (Michael W. Deem and Ramdas Pophale) SiO2 
 PCOD9157873
Probable space group: P 21/M
;
_chemical_formula_sum "Si O2"
_cell_formula_units_Z 32
_cell_length_a 24.095502
_cell_length_b 7.855513
_cell_length_c 15.046727
_cell_angle_alpha 90.000000
_cell_angle_beta 35.255667
_cell_angle_gamma 90.000000
_cell_volume 1643.987178
_symmetry_space_group_name_H-M "P 21/M"
_symmetry_group_IT_number 11
_symmetry_cell_setting 'monoclinic'
loop_
_space_group_symop_operation_xyz
x,y,z
-x,1/2+y,-z
-x,-y,-z
x,1/2-y,z
loop_
_atom_site_type_symbol
_atom_site_label
_atom_site_fract_x
_atom_site_fract_y
_atom_site_fract_z
Si Si1 0.586577 0.547499 0.005207
Si Si2 0.196362 0.545936 0.601654
Si Si3 0.840382 0.050459 0.979065
Si Si4 0.953547 0.043243 0.343420
Si Si5 0.892852 0.455823 0.105596
Si Si6 0.106734 0.545776 0.391235
Si Si7 0.631169 0.952448 0.754133
Si Si8 0.265811 0.546227 0.047431
O O1 0.595872 0.750000 0.993188
O O2 0.638132 0.479179 0.847042
O O3 0.634145 0.484075 0.033800
O O4 0.474753 0.502766 0.141136
O O5 0.191184 0.750000 0.611272
O O6 0.102504 0.485902 0.670541
O O7 0.183171 0.485577 0.719737
O O8 0.288548 0.505374 0.421481
O O9 0.819577 0.250000 0.020324
O O10 0.758611 0.979745 0.019491
O O11 0.863991 0.976403 0.045680
O O12 0.940161 0.031860 0.794483
O O13 0.961670 0.250000 0.333410
O O14 0.890275 0.988977 0.510586
O O15 0.890983 0.250000 0.103352
O O16 0.000000 0.500000 0.000000
O O17 0.116194 0.750000 0.378907
O O18 0.186523 0.475539 0.220580
O O19 0.000000 0.500000 0.500000
O O20 0.635156 0.750000 0.755154
O O21 0.252892 0.750000 0.058763
#
# Coordination Sequence:
#
# PCOD9157873 Si02
#       8
#     4   4   4   4   4   4   4   4
#     4  10  21  37  58  83 109 138 173 215 264 321
#     4  10  20  34  53  77 107 141 176 220 272 318
#     4  10  20  33  50  73 103 140 181 220 259 306
#     4  10  19  30  46  70 101 138 177 215 258 309
#     4  10  20  34  53  77 106 142 183 226 270 313
#     4  10  19  29  43  66  98 136 175 211 251 303
#     4  10  21  37  58  84 109 136 172 217 267 319
#     4  10  20  34  51  73 105 145 180 216 264 314
#
# _framework density 19.464873000000001
#
# number of rings (size 3 to 8) (size 9 to 14) (size 15 to 20)
#    0.000    2.000    2.500    1.500    0.000    4.500 
#    0.000    0.000    0.000    0.750    0.000    0.000 
#    0.000    0.000    0.000    0.000    0.000    0.000 
#
# Total GULP energy -178465.689169 kJ/mol
# GULP energy per Si atom -5577.052787 kJ/mol
# Density = 1.942057 g / cm^3
# Si number density = 19.464873 Si / 1000 Ang^3
#
#
#
# Elastic Constant Matrix: (Units=GPa)
#
#
# Indices 1 2 3 4 5 6 
#
# 1 169.5594 10.2179 40.1345 0.0000 17.4661 0.0000
# 2 10.2179 21.5398 -2.9623 0.0000 9.1263 0.0000
# 3 40.1345 -2.9623 66.2523 0.0000 10.2788 0.0000
# 4 0.0000 0.0000 0.0000 20.7530 0.0000 -5.1930
# 5 17.4661 9.1263 10.2788 0.0000 28.0622 0.0000
# 6 0.0000 0.0000 0.0000 -5.1930 0.0000 19.1706
#
#
#
# Elastic Compliance Matrix: (Units=1/GPa)
#
#
# Indices 1 2 3 4 5 6 
#
# 1 0.007302 -0.003233 -0.004268 0.000000 -0.001930 0.000000
# 2 -0.003233 0.057187 0.007516 0.000000 -0.019339 0.000000
# 3 -0.004268 0.007516 0.019066 0.000000 -0.006771 0.000000
# 4 0.000000 0.000000 0.000000 0.051689 0.000000 0.014002
# 5 -0.001930 -0.019339 -0.006771 0.000000 0.045606 0.000000
# 6 0.000000 0.000000 0.000000 0.014002 0.000000 0.055956
#
#
# Mechanical properties :
#
#
# Convention : Reuss Voigt Hill
#
# Bulk Modulus (GPa) = 11.96414 39.12574 25.54494
# Shear Modulus (GPa) = 18.89378 27.59461 23.24419
#
# Velocity S-wave (km/s) = 3.11892 3.76927 3.45941
# Velocity P-wave (km/s) = 4.37380 6.25200 5.39526
#
# Compressibility (1/GPa) = 0.08358311
#
# Stress axis : x y z
#
# Youngs Moduli (GPa) = 136.95728 17.48659 52.44919
#
# Poissons Ratio (x) = 0.05654 0.22387
# Poissons Ratio (y) = 0.44279 -0.39420
# Poissons Ratio (z) = 0.58458 -0.13143
#
# Static dielectric constant tensor:
#      x y z
#    x 1.741140 0.000000 0.040920 
#    y 0.000000 1.696380 0.000000 
#    z 0.040920 0.000000 1.684150 
# 
# From -- ./inp_files/55513.got.cif
#   From: 2010.05.17/outbox.cif.g08.bks.cpg/sg11_28_cif.got.tgz:55513.got - 2010.06.03 12:22:45.
