data_PCOD9157698
_publ_section_title
;
Structure prediction by ZEFSAII (Michael W. Deem and Ramdas Pophale) SiO2 
 PCOD9157698
Probable space group: P 21/M
;
_chemical_formula_sum "Si O2"
_cell_formula_units_Z 28
_cell_length_a 16.269122
_cell_length_b 8.169166
_cell_length_c 18.006741
_cell_angle_alpha 90.000000
_cell_angle_beta 35.896159
_cell_angle_gamma 90.000000
_cell_volume 1403.169773
_symmetry_space_group_name_H-M "P 21/M"
_symmetry_group_IT_number 11
_symmetry_cell_setting 'monoclinic'
loop_
_space_group_symop_operation_xyz
x,y,z
-x,1/2+y,-z
-x,-y,-z
x,1/2-y,z
loop_
_atom_site_type_symbol
_atom_site_label
_atom_site_fract_x
_atom_site_fract_y
_atom_site_fract_z
Si Si1 0.124450 0.932350 0.458882
Si Si2 0.680086 0.049165 0.559593
Si Si3 0.683251 0.562957 0.798447
Si Si4 0.631499 0.947068 0.161560
Si Si5 0.156598 0.556388 0.866317
Si Si6 0.374950 0.053351 0.000814
Si Si7 0.657579 0.448144 0.406101
O O1 0.082922 0.750000 0.510409
O O2 0.191487 0.011977 0.483357
O O3 0.252080 0.939906 0.307403
O O4 0.000000 0.000000 0.500000
O O5 0.682203 0.250000 0.561190
O O6 0.528440 0.999178 0.703817
O O7 0.688805 0.998799 0.467518
O O8 0.725464 0.750000 0.750576
O O9 0.516855 0.545748 0.911657
O O10 0.720394 0.524695 0.856949
O O11 0.633325 0.750000 0.166658
O O12 0.673987 0.988612 0.045984
O O13 0.738302 0.015660 0.143476
O O14 0.149241 0.750000 0.862615
O O15 0.230745 0.490312 0.736770
O O16 0.000000 0.500000 0.000000
O O17 0.405065 0.250000 0.979904
O O18 0.500000 0.500000 0.500000
O O19 0.660231 0.250000 0.403837
#
# Coordination Sequence:
#
# PCOD9157698 Si02
#       7
#     4   4   4   4   4   4   4
#     4  11  22  39  58  79 112 152 195 241 292 349
#     4   9  18  35  61  85 110 147 192 236 287 351
#     4  10  19  32  53  80 110 143 182 229 279 331
#     4  10  18  35  62  85 110 149 192 235 287 348
#     4  11  24  40  59  86 121 156 192 240 297 355
#     4   9  18  33  54  81 109 143 184 226 275 334
#     4  10  20  37  62  91 116 149 195 242 291 351
#
# _framework density 19.954822
#
# number of rings (size 3 to 8) (size 9 to 14) (size 15 to 20)
#    0.000    2.000    2.857    1.286    0.000    1.714 
#    2.571    1.429    0.000    0.000    0.000    0.000 
#    0.000    0.000    0.000    0.000    0.000    0.000 
#
# Total GULP energy -156099.534099 kJ/mol
# GULP energy per Si atom -5574.983361 kJ/mol
# Density = 1.990940 g / cm^3
# Si number density = 19.954822 Si / 1000 Ang^3
#
#
#
# Elastic Constant Matrix: (Units=GPa)
#
#
# Indices 1 2 3 4 5 6 
#
# 1 180.6270 15.5488 63.3758 0.0000 13.7402 0.0000
# 2 15.5488 12.0162 6.4064 0.0000 2.2243 0.0000
# 3 63.3758 6.4064 68.6663 0.0000 11.9743 0.0000
# 4 0.0000 0.0000 0.0000 22.3071 0.0000 -3.6822
# 5 13.7402 2.2243 11.9743 0.0000 40.2348 0.0000
# 6 0.0000 0.0000 0.0000 -3.6822 0.0000 26.7521
#
#
#
# Elastic Compliance Matrix: (Units=1/GPa)
#
#
# Indices 1 2 3 4 5 6 
#
# 1 0.008778 -0.007368 -0.007344 0.000000 -0.000405 0.000000
# 2 -0.007368 0.094010 -0.001585 0.000000 -0.002209 0.000000
# 3 -0.007344 -0.001585 0.022188 0.000000 -0.004008 0.000000
# 4 0.000000 0.000000 0.000000 0.045871 0.000000 0.006314
# 5 -0.000405 -0.002209 -0.004008 0.000000 0.026307 0.000000
# 6 0.000000 0.000000 0.000000 0.006314 0.000000 0.038249
#
#
# Mechanical properties :
#
#
# Convention : Reuss Voigt Hill
#
# Bulk Modulus (GPa) = 10.82467 47.99683 29.41075
# Shear Modulus (GPa) = 16.73410 29.59068 23.16239
#
# Velocity S-wave (km/s) = 2.89900 3.85500 3.41066
# Velocity P-wave (km/s) = 4.07946 6.62719 5.50280
#
# Compressibility (1/GPa) = 0.09238154
#
# Stress axis : x y z
#
# Youngs Moduli (GPa) = 113.92146 10.63719 45.06984
#
# Poissons Ratio (x) = 0.07838 0.33098
# Poissons Ratio (y) = 0.83942 0.07143
# Poissons Ratio (z) = 0.83660 0.01686
#
# Static dielectric constant tensor:
#      x y z
#    x 1.722450 0.000000 0.006340 
#    y 0.000000 1.723610 0.000000 
#    z 0.006340 0.000000 1.754200 
# 
# From -- ./inp_files/60067.got.cif
#   From: 2010.05.17/outbox.cif.g08.bks.cpg/sg11_31_cif.got.tgz:60067.got - 2010.06.03 12:22:45.
