data_PCOD9157686
_publ_section_title
;
Structure prediction by ZEFSAII (Michael W. Deem and Ramdas Pophale) SiO2 
 PCOD9157686
Probable space group: P 21/M
;
_chemical_formula_sum "Si O2"
_cell_formula_units_Z 24
_cell_length_a 8.623244
_cell_length_b 18.364365
_cell_length_c 16.119546
_cell_angle_alpha 90.000000
_cell_angle_beta 147.485520
_cell_angle_gamma 90.000000
_cell_volume 1372.107556
_symmetry_space_group_name_H-M "P 21/M"
_symmetry_group_IT_number 11
_symmetry_cell_setting 'monoclinic'
loop_
_space_group_symop_operation_xyz
x,y,z
-x,1/2+y,-z
-x,-y,-z
x,1/2-y,z
loop_
_atom_site_type_symbol
_atom_site_label
_atom_site_fract_x
_atom_site_fract_y
_atom_site_fract_z
Si Si1 0.601486 0.941153 0.179097
Si Si2 0.137098 0.332103 0.919794
Si Si3 0.894131 0.167144 0.623213
Si Si4 0.275594 0.589960 0.864902
Si Si5 0.218793 0.962549 0.160095
Si Si6 0.641920 0.936473 0.620094
O O1 0.486651 0.949541 0.220163
O O2 0.856970 0.883489 0.300870
O O3 0.698836 0.015799 0.177727
O O4 0.368625 0.915750 0.004254
O O5 0.133244 0.250000 0.952105
O O6 0.984733 0.330885 0.761002
O O7 0.944603 0.390223 0.882302
O O8 0.470435 0.358766 0.058197
O O9 0.891166 0.250000 0.591035
O O10 0.594049 0.126096 0.474664
O O11 0.931037 0.600397 0.712623
O O12 0.280851 0.018120 0.262527
O O13 0.000000 0.000000 0.000000
O O14 0.500000 0.000000 0.500000
#
# Coordination Sequence:
#
# PCOD9157686 Si02
#       6
#     4   4   4   4   4   4
#     4  10  19  35  61  86 115 154 198 241 287 361
#     4  10  21  38  60  86 120 160 200 248 299 353
#     4  10  22  40  59  85 121 160 201 248 301 353
#     4  10  18  35  60  85 114 154 202 235 288 361
#     4  12  21  36  63  93 119 154 202 248 293 356
#     4  12  21  37  62  91 119 156 199 248 296 354
#
# _framework density 17.491340999999998
#
# number of rings (size 3 to 8) (size 9 to 14) (size 15 to 20)
#    0.000    1.333    6.667    1.000    0.000    2.000 
#    0.000    0.833    0.000    0.000    0.000    0.000 
#    0.000    0.000    0.000    0.000    0.000    0.000 
#
# Total GULP energy -133604.725311 kJ/mol
# GULP energy per Si atom -5566.863555 kJ/mol
# Density = 1.745153 g / cm^3
# Si number density = 17.491341 Si / 1000 Ang^3
#
#
#
# Elastic Constant Matrix: (Units=GPa)
#
#
# Indices 1 2 3 4 5 6 
#
# 1 84.5498 40.5904 37.8811 0.0000 13.6401 0.0000
# 2 40.5904 131.5765 56.8001 0.0000 17.4788 0.0000
# 3 37.8811 56.8001 105.0964 0.0000 22.5891 0.0000
# 4 0.0000 0.0000 0.0000 18.2395 0.0000 13.4509
# 5 13.6401 17.4788 22.5891 0.0000 29.8769 0.0000
# 6 0.0000 0.0000 0.0000 13.4509 0.0000 7.7650
#
#
#
# Elastic Compliance Matrix: (Units=1/GPa)
#
#
# Indices 1 2 3 4 5 6 
#
# 1 0.015132 -0.002876 -0.003316 0.000000 -0.002719 0.000000
# 2 -0.002876 0.010570 -0.004333 0.000000 -0.001594 0.000000
# 3 -0.003316 -0.004333 0.014546 0.000000 -0.006949 0.000000
# 4 0.000000 0.000000 0.000000 -0.197609 0.000000 0.342305
# 5 -0.002719 -0.001594 -0.006949 0.000000 0.040899 0.000000
# 6 0.000000 0.000000 0.000000 0.342305 0.000000 -0.464170
#
#
# Mechanical properties :
#
#
# Convention : Reuss Voigt Hill
#
# Bulk Modulus (GPa) = 52.08755 65.75176 58.91966
# Shear Modulus (GPa) = -9.03857 23.57304 7.26723
#
# Velocity S-wave (km/s) = -2.27567 3.67508 2.04053
# Velocity P-wave (km/s) = 4.78945 7.46197 6.26976
#
# Compressibility (1/GPa) = 0.01919845
#
# Stress axis : x y z
#
# Youngs Moduli (GPa) = 66.08489 94.61031 68.74904
#
# Poissons Ratio (x) = 0.27206 0.22795
# Poissons Ratio (y) = 0.19003 0.29791
# Poissons Ratio (z) = 0.21911 0.40997
#
# Static dielectric constant tensor:
#      x y z
#    x 1.444700 0.000000 -0.047630 
#    y 0.000000 1.583980 0.000000 
#    z -0.047630 0.000000 1.566720 
# 
# From -- ./inp_files/22658.got.cif
#   From: 2010.05.17/outbox.cif.g08.bks.cpg/sg11_12_cif.got.tgz:22658.got - 2010.06.03 12:22:45.
