data_PCOD9157276
_publ_section_title
;
Structure prediction by ZEFSAII (Michael W. Deem and Ramdas Pophale) SiO2 
 PCOD9157276
Probable space group: P 21/M
;
_chemical_formula_sum "Si O2"
_cell_formula_units_Z 28
_cell_length_a 18.193230
_cell_length_b 7.514838
_cell_length_c 17.839807
_cell_angle_alpha 90.000000
_cell_angle_beta 34.524887
_cell_angle_gamma 90.000000
_cell_volume 1382.362541
_symmetry_space_group_name_H-M "P 21/M"
_symmetry_group_IT_number 11
_symmetry_cell_setting 'monoclinic'
loop_
_space_group_symop_operation_xyz
x,y,z
-x,1/2+y,-z
-x,-y,-z
x,1/2-y,z
loop_
_atom_site_type_symbol
_atom_site_label
_atom_site_fract_x
_atom_site_fract_y
_atom_site_fract_z
Si Si1 0.662746 0.031997 0.166963
Si Si2 0.646923 0.038530 0.351067
Si Si3 0.913693 0.462029 0.681947
Si Si4 0.813763 0.542825 0.353216
Si Si5 0.620961 0.532051 0.645177
Si Si6 0.190295 0.036731 0.387006
Si Si7 0.896139 0.468091 0.864984
O O1 0.662463 0.250000 0.168196
O O2 0.669073 0.972599 0.248046
O O3 0.525568 0.975075 0.246961
O O4 0.784118 0.973000 0.015406
O O5 0.662655 0.250000 0.336864
O O6 0.500000 0.000000 0.500000
O O7 0.746143 0.968420 0.329624
O O8 0.927644 0.250000 0.676648
O O9 0.816363 0.495774 0.695273
O O10 0.874819 0.525603 0.796822
O O11 0.055399 0.531747 0.537082
O O12 0.827889 0.750000 0.361710
O O13 0.715023 0.470132 0.498674
O O14 0.959486 0.470961 0.233379
O O15 0.618322 0.750000 0.646054
O O16 0.687977 0.475187 0.666406
O O17 0.187475 0.250000 0.395906
O O18 0.893210 0.250000 0.869580
#
# Coordination Sequence:
#
# PCOD9157276 Si02
#       7
#     4   4   4   4   4   4   4
#     4   9  18  31  50  74  99 129 167 206 243 294
#     4  11  21  34  53  77 103 130 167 209 250 292
#     4   9  16  28  47  71  97 124 161 205 246 287
#     4  10  18  32  54  76  99 129 167 207 244 290
#     4   9  15  28  49  72  96 128 167 201 236 291
#     4   9  16  27  47  72  95 124 164 203 243 289
#     4   9  17  31  51  74 100 133 168 201 243 298
#
# _framework density 20.255177
#
# number of rings (size 3 to 8) (size 9 to 14) (size 15 to 20)
#    0.000    2.571    2.857    0.429    0.000    0.571 
#    0.000    2.143    0.000    2.571    0.000    0.000 
#    0.000    0.000    0.000    0.000    0.000    0.000 
#
# Total GULP energy -156250.200531 kJ/mol
# GULP energy per Si atom -5580.364305 kJ/mol
# Density = 2.020908 g / cm^3
# Si number density = 20.255177 Si / 1000 Ang^3
#
#
#
# Elastic Constant Matrix: (Units=GPa)
#
#
# Indices 1 2 3 4 5 6 
#
# 1 188.3595 -11.1740 106.6548 0.0000 2.6865 0.0000
# 2 -11.1740 48.0683 1.4395 0.0000 -2.7615 0.0000
# 3 106.6548 1.4395 171.0648 0.0000 1.3237 0.0000
# 4 0.0000 0.0000 0.0000 1.2978 0.0000 5.2496
# 5 2.6865 -2.7615 1.3237 0.0000 31.3266 0.0000
# 6 0.0000 0.0000 0.0000 5.2496 0.0000 20.5335
#
#
#
# Elastic Compliance Matrix: (Units=1/GPa)
#
#
# Indices 1 2 3 4 5 6 
#
# 1 0.008418 0.002097 -0.005264 0.000000 -0.000315 0.000000
# 2 0.002097 0.021438 -0.001501 0.000000 0.001773 0.000000
# 3 -0.005264 -0.001501 0.009141 0.000000 -0.000067 0.000000
# 4 0.000000 0.000000 0.000000-22.551423 0.000000 5.765523
# 5 -0.000315 0.001773 -0.000067 0.000000 0.032108 0.000000
# 6 0.000000 0.000000 0.000000 5.765523 0.000000 -1.425320
#
#
# Mechanical properties :
#
#
# Convention : Reuss Voigt Hill
#
# Bulk Modulus (GPa) = 33.71552 66.81480 50.26516
# Shear Modulus (GPa) = -0.20932 31.33641 15.56354
#
# Velocity S-wave (km/s) = -0.32182 3.93756 2.77496
# Velocity P-wave (km/s) = 4.06736 7.33012 5.92765
#
# Compressibility (1/GPa) = 0.02965993
#
# Stress axis : x y z
#
# Youngs Moduli (GPa) = 118.78692 46.64626 109.39954
#
# Poissons Ratio (x) = -0.09779 0.57587
# Poissons Ratio (y) = -0.24904 0.16424
# Poissons Ratio (z) = 0.62528 0.07003
#
# Static dielectric constant tensor:
#      x y z
#    x 1.702060 0.000000 0.008170 
#    y 0.000000 1.773050 0.000000 
#    z 0.008170 0.000000 1.684050 
# 
# From -- ./inp_files/26364.got.cif
#   From: 2010.05.17/outbox.cif.g08.bks.cpg/sg11_14_cif.got.tgz:26364.got - 2010.06.03 12:22:45.
