data_PCOD9157837
_publ_section_title
;
Structure prediction by ZEFSAII (Michael W. Deem and Ramdas Pophale) SiO2 
 PCOD9157837
Probable space group: P 21/M
;
_chemical_formula_sum "Si O2"
_cell_formula_units_Z 32
_cell_length_a 11.002529
_cell_length_b 29.085806
_cell_length_c 5.354180
_cell_angle_alpha 90.000000
_cell_angle_beta 100.525663
_cell_angle_gamma 90.000000
_cell_volume 1684.599307
_symmetry_space_group_name_H-M "P 21/M"
_symmetry_group_IT_number 11
_symmetry_cell_setting 'monoclinic'
loop_
_space_group_symop_operation_xyz
x,y,z
-x,1/2+y,-z
-x,-y,-z
x,1/2-y,z
loop_
_atom_site_type_symbol
_atom_site_label
_atom_site_fract_x
_atom_site_fract_y
_atom_site_fract_z
Si Si1 0.786317 0.801309 0.136691
Si Si2 0.792183 0.852565 0.641882
Si Si3 0.901462 0.935382 0.393276
Si Si4 0.542435 0.459751 0.333060
Si Si5 0.507128 0.358849 0.480570
Si Si6 0.487150 0.803221 0.015974
Si Si7 0.301605 0.016645 0.966208
Si Si8 0.898190 0.018944 0.766155
O O1 0.830794 0.750000 0.099967
O O2 0.827130 0.835115 0.929878
O O3 0.816729 0.815898 0.429845
O O4 0.636936 0.801144 0.068270
O O5 0.867366 0.896215 0.573720
O O6 0.643904 0.862080 0.579486
O O7 0.792387 0.943135 0.151789
O O8 0.036750 0.935309 0.317531
O O9 0.892145 0.982493 0.542878
O O10 0.500000 0.500000 0.500000
O O11 0.556719 0.410658 0.468018
O O12 0.658184 0.480433 0.229741
O O13 0.425994 0.457801 0.099352
O O14 0.544614 0.333113 0.750302
O O15 0.546764 0.328849 0.254201
O O16 0.443953 0.750000 0.012404
O O17 0.232342 0.985467 0.146078
O O18 0.000000 0.000000 0.000000
#
# Coordination Sequence:
#
# PCOD9157837 Si02
#       8
#     4   4   4   4   4   4   4   4
#     4   9  18  30  44  68  99 134 163 208 260 306
#     4  10  19  28  50  69 100 132 175 209 243 320
#     4  10  20  33  51  76  97 139 177 214 258 297
#     4  11  23  33  49  74 108 146 181 212 256 316
#     4  10  20  30  49  71 101 137 176 212 260 314
#     4   9  18  32  48  68  96 132 174 219 264 311
#     4  10  21  34  51  68 106 143 176 216 257 302
#     4   9  19  34  52  70 101 132 170 219 255 299
#
# _framework density 18.995616999999999
#
# number of rings (size 3 to 8) (size 9 to 14) (size 15 to 20)
#    0.000    2.250    0.000    3.000   12.250    3.000 
#    0.000    0.000    0.000    0.000    0.000    0.000 
#    0.000    6.000    0.000    0.000    0.000    0.000 
#
# Total GULP energy -178384.902191 kJ/mol
# GULP energy per Si atom -5574.528193 kJ/mol
# Density = 1.895238 g / cm^3
# Si number density = 18.995617 Si / 1000 Ang^3
#
#
#
# Elastic Constant Matrix: (Units=GPa)
#
#
# Indices 1 2 3 4 5 6 
#
# 1 39.5914 17.6614 11.3989 0.0000 -21.0511 0.0000
# 2 17.6614 122.3998 41.3829 0.0000 -24.6333 0.0000
# 3 11.3989 41.3829 88.3757 0.0000 -28.4106 0.0000
# 4 0.0000 0.0000 0.0000 32.8695 0.0000 -11.8887
# 5 -21.0511 -24.6333 -28.4106 0.0000 34.5808 0.0000
# 6 0.0000 0.0000 0.0000 -11.8887 0.0000 15.1691
#
#
#
# Elastic Compliance Matrix: (Units=1/GPa)
#
#
# Indices 1 2 3 4 5 6 
#
# 1 0.038421 -0.001797 0.004068 0.000000 0.025450 0.000000
# 2 -0.001797 0.010290 -0.003509 0.000000 0.003354 0.000000
# 3 0.004068 -0.003509 0.016886 0.000000 0.013850 0.000000
# 4 0.000000 0.000000 0.000000 0.042460 0.000000 0.033278
# 5 0.025450 0.003354 0.013850 0.000000 0.058178 0.000000
# 6 0.000000 0.000000 0.000000 0.033278 0.000000 0.092005
#
#
# Mechanical properties :
#
#
# Convention : Reuss Voigt Hill
#
# Bulk Modulus (GPa) = 15.84264 43.47259 29.65761
# Shear Modulus (GPa) = 17.74579 28.51878 23.13229
#
# Velocity S-wave (km/s) = 3.05979 3.87891 3.49344
# Velocity P-wave (km/s) = 4.56523 6.55717 5.64969
#
# Compressibility (1/GPa) = 0.06312080
#
# Stress axis : x y z
#
# Youngs Moduli (GPa) = 26.02760 97.17728 59.22044
#
# Poissons Ratio (x) = 0.17464 -0.24088
# Poissons Ratio (y) = 0.04677 0.20779
# Poissons Ratio (z) = -0.10587 0.34097
#
# Static dielectric constant tensor:
#      x y z
#    x 1.687190 0.000000 0.038170 
#    y 0.000000 1.465320 0.000000 
#    z 0.038170 0.000000 1.760090 
# 
# From -- ./inp_files/5599.got.cif
#   From: 2010.05.17/outbox.cif.g08.bks.cpg/sg11_3_cif.got.tgz:5599.got - 2010.06.03 12:22:45.
