data_PCOD9157985
_publ_section_title
;
Structure prediction by ZEFSAII (Michael W. Deem and Ramdas Pophale) SiO2 
 PCOD9157985
Probable space group: P 21/M
;
_chemical_formula_sum "Si O2"
_cell_formula_units_Z 32
_cell_length_a 16.898015
_cell_length_b 8.807916
_cell_length_c 13.949592
_cell_angle_alpha 90.000000
_cell_angle_beta 120.593996
_cell_angle_gamma 90.000000
_cell_volume 1787.188168
_symmetry_space_group_name_H-M "P 21/M"
_symmetry_group_IT_number 11
_symmetry_cell_setting 'monoclinic'
loop_
_space_group_symop_operation_xyz
x,y,z
-x,1/2+y,-z
-x,-y,-z
x,1/2-y,z
loop_
_atom_site_type_symbol
_atom_site_label
_atom_site_fract_x
_atom_site_fract_y
_atom_site_fract_z
Si Si1 0.549994 0.432723 0.937864
Si Si2 0.727392 0.068310 0.150400
Si Si3 0.399567 0.929808 0.549694
Si Si4 0.120332 0.431556 0.874163
Si Si5 0.371449 0.431678 0.724763
Si Si6 0.946224 0.432657 0.875200
Si Si7 0.602862 0.430431 0.668953
Si Si8 0.222480 0.068521 0.137262
O O1 0.549478 0.250000 0.939195
O O2 0.479122 0.477380 0.810680
O O3 0.500000 0.500000 0.000000
O O4 0.655132 0.479771 0.020978
O O5 0.725841 0.250000 0.156561
O O6 0.826823 0.011052 0.179604
O O7 0.688850 0.999492 0.225755
O O8 0.400873 0.750000 0.565726
O O9 0.363777 0.958478 0.420003
O O10 0.346965 0.007929 0.604850
O O11 0.503655 0.992732 0.614752
O O12 0.126369 0.250000 0.866294
O O13 0.013549 0.470620 0.828026
O O14 0.175228 0.470690 0.006398
O O15 0.365917 0.250000 0.724743
O O16 0.941454 0.250000 0.879709
O O17 0.845490 0.502974 0.822661
O O18 0.000000 0.500000 0.000000
O O19 0.592690 0.250000 0.677198
O O20 0.677720 0.496481 0.787339
O O21 0.227221 0.250000 0.146870
#
# Coordination Sequence:
#
# PCOD9157985 Si02
#       8
#     4   4   4   4   4   4   4   4
#     4   8  16  28  40  59  85 117 156 194 230 272
#     4  10  19  30  45  68  96 128 166 202 238 286
#     4  10  21  36  52  72  98 128 165 209 250 289
#     4   9  19  32  46  70 102 133 163 198 240 287
#     4  10  19  32  49  67  93 129 165 202 246 291
#     4   9  17  31  49  70  99 132 165 202 245 294
#     4  10  21  36  53  73  98 128 165 206 249 295
#     4  10  20  33  51  75 101 130 166 204 247 297
#
# _framework density 17.905221999999998
#
# number of rings (size 3 to 8) (size 9 to 14) (size 15 to 20)
#    0.000    2.500    0.000    3.000    1.750    5.500 
#    0.000    0.000    0.000    0.000    0.000    0.875 
#    0.000    0.000    0.000    0.000    0.000    0.000 
#
# Total GULP energy -178310.542899 kJ/mol
# GULP energy per Si atom -5572.204466 kJ/mol
# Density = 1.786447 g / cm^3
# Si number density = 17.905222 Si / 1000 Ang^3
#
#
#
# Elastic Constant Matrix: (Units=GPa)
#
#
# Indices 1 2 3 4 5 6 
#
# 1 83.6511 20.2818 2.0092 0.0000 -14.7850 0.0000
# 2 20.2818 29.2424 11.8973 0.0000 -12.6908 0.0000
# 3 2.0092 11.8973 27.1444 0.0000 -12.3957 0.0000
# 4 0.0000 0.0000 0.0000 19.5114 0.0000 -2.9931
# 5 -14.7850 -12.6908 -12.3957 0.0000 26.8823 0.0000
# 6 0.0000 0.0000 0.0000 -2.9931 0.0000 29.2520
#
#
#
# Elastic Compliance Matrix: (Units=1/GPa)
#
#
# Indices 1 2 3 4 5 6 
#
# 1 0.015512 -0.010553 0.006458 0.000000 0.006527 0.000000
# 2 -0.010553 0.053593 -0.017488 0.000000 0.011433 0.000000
# 3 0.006458 -0.017488 0.053049 0.000000 0.019758 0.000000
# 4 0.000000 0.000000 0.000000 0.052069 0.000000 0.005328
# 5 0.006527 0.011433 0.019758 0.000000 0.055297 0.000000
# 6 0.000000 0.000000 0.000000 0.005328 0.000000 0.034731
#
#
# Mechanical properties :
#
#
# Convention : Reuss Voigt Hill
#
# Bulk Modulus (GPa) = 12.66019 23.15717 17.90868
# Shear Modulus (GPa) = 14.98147 22.18578 18.58362
#
# Velocity S-wave (km/s) = 2.89573 3.52386 3.22512
# Velocity P-wave (km/s) = 4.27392 5.43305 4.88796
#
# Compressibility (1/GPa) = 0.07898774
#
# Stress axis : x y z
#
# Youngs Moduli (GPa) = 64.46764 18.65922 18.85044
#
# Poissons Ratio (x) = 0.19692 -0.12173
# Poissons Ratio (y) = 0.68034 0.32965
# Poissons Ratio (z) = -0.41633 0.32630
#
# Static dielectric constant tensor:
#      x y z
#    x 1.558830 0.000000 -0.077530 
#    y 0.000000 1.591830 0.000000 
#    z -0.077530 0.000000 1.561900 
# 
# From -- ./inp_files/51722.got.cif
#   From: 2010.05.17/outbox.cif.g08.bks.cpg/sg11_26_cif.got.tgz:51722.got - 2010.06.03 12:22:45.
