data_PCOD9157664
_publ_section_title
;
Structure prediction by ZEFSAII (Michael W. Deem and Ramdas Pophale) SiO2 
 PCOD9157664
Probable space group: P 21/M
;
_chemical_formula_sum "Si O2"
_cell_formula_units_Z 32
_cell_length_a 7.727266
_cell_length_b 20.517322
_cell_length_c 9.105330
_cell_angle_alpha 90.000000
_cell_angle_beta 84.116334
_cell_angle_gamma 90.000000
_cell_volume 1435.979869
_symmetry_space_group_name_H-M "P 21/M"
_symmetry_group_IT_number 11
_symmetry_cell_setting 'monoclinic'
loop_
_space_group_symop_operation_xyz
x,y,z
-x,1/2+y,-z
-x,-y,-z
x,1/2-y,z
loop_
_atom_site_type_symbol
_atom_site_label
_atom_site_fract_x
_atom_site_fract_y
_atom_site_fract_z
Si Si1 0.238271 0.046916 0.086120
Si Si2 0.537696 0.324216 0.782888
Si Si3 0.468768 0.050106 0.309215
Si Si4 0.782742 0.978769 0.424275
Si Si5 0.644255 0.325059 0.439465
Si Si6 0.071815 0.603340 0.730718
Si Si7 0.838835 0.622006 0.195090
Si Si8 0.804211 0.398329 0.950636
O O1 0.427138 0.049413 0.141810
O O2 0.121311 0.098584 0.188498
O O3 0.170450 0.973085 0.103037
O O4 0.216605 0.068204 0.921431
O O5 0.578239 0.250000 0.818716
O O6 0.616722 0.337885 0.614558
O O7 0.328844 0.331878 0.790154
O O8 0.631607 0.369969 0.892564
O O9 0.291984 0.028881 0.407522
O O10 0.530217 0.119842 0.366541
O O11 0.609079 0.997015 0.345857
O O12 0.855781 0.912651 0.350852
O O13 0.901260 0.040344 0.375919
O O14 0.595334 0.250000 0.414212
O O15 0.841696 0.338430 0.368051
O O16 0.183255 0.600101 0.873607
O O17 0.029727 0.642890 0.124428
#
# Coordination Sequence:
#
# PCOD9157664 Si02
#       8
#     4   4   4   4   4   4   4   4
#     4  11  22  37  61  98 127 157 195 254 326 375
#     4  11  26  44  64  89 119 170 219 251 305 365
#     4  10  22  33  57  91 121 162 202 252 304 368
#     4  10  18  35  55  88 125 153 197 244 312 363
#     4  10  23  44  60  80 121 166 211 258 299 361
#     4  10  21  39  61  90 127 158 198 251 315 376
#     4  11  21  41  63  91 128 159 199 256 309 370
#     4  11  23  40  65  96 131 158 198 261 315 371
#
# _framework density 22.284434000000001
#
# number of rings (size 3 to 8) (size 9 to 14) (size 15 to 20)
#    0.000    1.500    3.750    1.500    7.000    3.500 
#    0.000    2.500    0.000    0.000    0.000    0.000 
#    0.000    0.000    0.000    0.000    0.000    0.000 
#
# Total GULP energy -178707.773697 kJ/mol
# GULP energy per Si atom -5584.617928 kJ/mol
# Density = 2.223371 g / cm^3
# Si number density = 22.284434 Si / 1000 Ang^3
#
#
#
# Elastic Constant Matrix: (Units=GPa)
#
#
# Indices 1 2 3 4 5 6 
#
# 1 59.9045 9.3611 18.5509 0.0000 -4.3092 0.0000
# 2 9.3611 63.6065 27.2566 0.0000 -4.2250 0.0000
# 3 18.5509 27.2566 67.5506 0.0000 -11.8692 0.0000
# 4 0.0000 0.0000 0.0000 20.9219 0.0000 0.5749
# 5 -4.3092 -4.2250 -11.8692 0.0000 38.9661 0.0000
# 6 0.0000 0.0000 0.0000 0.5749 0.0000 16.3292
#
#
#
# Elastic Compliance Matrix: (Units=1/GPa)
#
#
# Indices 1 2 3 4 5 6 
#
# 1 0.018277 -0.000657 -0.004661 0.000000 0.000530 0.000000
# 2 -0.000657 0.019035 -0.007555 0.000000 -0.000310 0.000000
# 3 -0.004661 -0.007555 0.019966 0.000000 0.004747 0.000000
# 4 0.000000 0.000000 0.000000 0.047843 0.000000 -0.001684
# 5 0.000530 -0.000310 0.004747 0.000000 0.027134 0.000000
# 6 0.000000 0.000000 0.000000 -0.001684 0.000000 0.061299
#
#
# Mechanical properties :
#
#
# Convention : Reuss Voigt Hill
#
# Bulk Modulus (GPa) = 31.71298 33.48875 32.60087
# Shear Modulus (GPa) = 21.75690 24.30299 23.02994
#
# Velocity S-wave (km/s) = 3.12801 3.30598 3.21823
# Velocity P-wave (km/s) = 5.22569 5.44363 5.33578
#
# Compressibility (1/GPa) = 0.03153283
#
# Stress axis : x y z
#
# Youngs Moduli (GPa) = 54.71216 52.53453 50.08485
#
# Poissons Ratio (x) = 0.03454 0.23344
# Poissons Ratio (y) = 0.03597 0.37837
# Poissons Ratio (z) = 0.25501 0.39688
#
# Static dielectric constant tensor:
#      x y z
#    x 1.905510 0.000000 -0.017610 
#    y 0.000000 1.756190 0.000000 
#    z -0.017610 0.000000 1.795750 
# 
# From -- ./inp_files/14802.got.cif
#   From: 2010.05.17/outbox.cif.g08.bks.cpg/sg11_8_cif.got.tgz:14802.got - 2010.06.03 12:22:45.
