data_PCOD9157592
_publ_section_title
;
Structure prediction by ZEFSAII (Michael W. Deem and Ramdas Pophale) SiO2 
 PCOD9157592
Probable space group: P 21/M
;
_chemical_formula_sum "Si O2"
_cell_formula_units_Z 32
_cell_length_a 11.528182
_cell_length_b 15.926338
_cell_length_c 11.985156
_cell_angle_alpha 90.000000
_cell_angle_beta 135.028528
_cell_angle_gamma 90.000000
_cell_volume 1555.210214
_symmetry_space_group_name_H-M "P 21/M"
_symmetry_group_IT_number 11
_symmetry_cell_setting 'monoclinic'
loop_
_space_group_symop_operation_xyz
x,y,z
-x,1/2+y,-z
-x,-y,-z
x,1/2-y,z
loop_
_atom_site_type_symbol
_atom_site_label
_atom_site_fract_x
_atom_site_fract_y
_atom_site_fract_z
Si Si1 0.200015 0.154975 0.608823
Si Si2 0.165859 0.585079 0.828147
Si Si3 0.699434 0.659295 0.076242
Si Si4 0.415228 0.502408 0.139348
Si Si5 0.824485 0.000475 0.816772
Si Si6 0.958600 0.087813 0.715738
Si Si7 0.835730 0.840768 0.666865
Si Si8 0.206817 0.970535 0.611943
O O1 0.121705 0.250000 0.565134
O O2 0.310714 0.152150 0.795966
O O3 0.252317 0.153572 0.514146
O O4 0.114543 0.062284 0.559554
O O5 0.211167 0.580016 0.729915
O O6 0.064470 0.499047 0.784609
O O7 0.030331 0.653073 0.768277
O O8 0.330083 0.577757 0.011977
O O9 0.633979 0.750000 0.997167
O O10 0.896222 0.654764 0.185945
O O11 0.621526 0.581854 0.957955
O O12 0.317677 0.502413 0.189050
O O13 0.608402 0.502762 0.285516
O O14 0.800028 0.917367 0.724687
O O15 0.843332 0.078625 0.744709
O O16 0.000000 0.000000 0.000000
O O17 0.851804 0.084169 0.531910
O O18 0.799705 0.750000 0.692672
#
# Coordination Sequence:
#
# PCOD9157592 Si02
#       8
#     4   4   4   4   4   4   4   4
#     4  10  19  33  56  87 114 143 186 231 290 343
#     4  10  18  34  57  83 112 142 185 234 281 345
#     4  10  20  36  57  83 113 145 185 238 291 346
#     4  11  23  34  55  84 115 151 190 227 287 345
#     4  11  19  38  56  80 110 147 201 238 262 347
#     4  10  19  34  60  79 105 147 192 232 275 331
#     4  10  20  35  60  87 108 143 191 248 286 323
#     4  12  20  35  59  86 114 149 187 238 286 344
#
# _framework density 20.575996
#
# number of rings (size 3 to 8) (size 9 to 14) (size 15 to 20)
#    0.000    1.500    8.750    1.500    0.000    1.000 
#    0.000    1.875    0.000    0.000    0.000    0.000 
#    0.000    0.000    0.000    0.000    0.000    0.000 
#
# Total GULP energy -178182.268542 kJ/mol
# GULP energy per Si atom -5568.195892 kJ/mol
# Density = 2.052916 g / cm^3
# Si number density = 20.575996 Si / 1000 Ang^3
#
#
#
# Elastic Constant Matrix: (Units=GPa)
#
#
# Indices 1 2 3 4 5 6 
#
# 1 87.9527 -8.4780 46.9088 0.0000 -14.3000 0.0000
# 2 -8.4780 72.1113 6.2935 0.0000 -8.9495 0.0000
# 3 46.9088 6.2935 67.6590 0.0000 -16.1745 0.0000
# 4 0.0000 0.0000 0.0000 17.2275 0.0000 -2.7927
# 5 -14.3000 -8.9495 -16.1745 0.0000 34.3884 0.0000
# 6 0.0000 0.0000 0.0000 -2.7927 0.0000 12.9274
#
#
#
# Elastic Compliance Matrix: (Units=1/GPa)
#
#
# Indices 1 2 3 4 5 6 
#
# 1 0.019060 0.003717 -0.012883 0.000000 0.002834 0.000000
# 2 0.003717 0.015070 -0.003010 0.000000 0.004052 0.000000
# 3 -0.012883 -0.003010 0.025377 0.000000 0.005796 0.000000
# 4 0.000000 0.000000 0.000000 0.060153 0.000000 0.012995
# 5 0.002834 0.004052 0.005796 0.000000 0.034038 0.000000
# 6 0.000000 0.000000 0.000000 0.012995 0.000000 0.080163
#
#
# Mechanical properties :
#
#
# Convention : Reuss Voigt Hill
#
# Bulk Modulus (GPa) = 28.44545 35.24130 31.84337
# Shear Modulus (GPa) = 18.52328 25.10857 21.81592
#
# Velocity S-wave (km/s) = 3.00365 3.49705 3.25970
# Velocity P-wave (km/s) = 5.08761 5.78536 5.44767
#
# Compressibility (1/GPa) = 0.03515501
#
# Stress axis : x y z
#
# Youngs Moduli (GPa) = 52.46720 66.35709 39.40559
#
# Poissons Ratio (x) = -0.24664 0.50764
# Poissons Ratio (y) = -0.19501 0.11861
# Poissons Ratio (z) = 0.67591 0.19974
#
# Static dielectric constant tensor:
#      x y z
#    x 1.799460 0.000000 0.024540 
#    y 0.000000 1.783100 0.000000 
#    z 0.024540 0.000000 1.793350 
# 
# From -- ./inp_files/36073.got.cif
#   From: 2010.05.17/outbox.cif.g08.bks.cpg/sg11_19_cif.got.tgz:36073.got - 2010.06.03 12:22:45.
