data_PCOD9157277
_publ_section_title
;
Structure prediction by ZEFSAII (Michael W. Deem and Ramdas Pophale) SiO2 
 PCOD9157277
Probable space group: P 21/M
;
_chemical_formula_sum "Si O2"
_cell_formula_units_Z 24
_cell_length_a 8.482894
_cell_length_b 8.672579
_cell_length_c 21.812618
_cell_angle_alpha 90.000000
_cell_angle_beta 49.982281
_cell_angle_gamma 90.000000
_cell_volume 1228.970143
_symmetry_space_group_name_H-M "P 21/M"
_symmetry_group_IT_number 11
_symmetry_cell_setting 'monoclinic'
loop_
_space_group_symop_operation_xyz
x,y,z
-x,1/2+y,-z
-x,-y,-z
x,1/2-y,z
loop_
_atom_site_type_symbol
_atom_site_label
_atom_site_fract_x
_atom_site_fract_y
_atom_site_fract_z
Si Si1 0.005138 0.065045 0.900787
Si Si2 0.950347 0.068735 0.656866
Si Si3 0.660205 0.430424 0.505665
Si Si4 0.221066 0.934564 0.167560
Si Si5 0.330063 0.933539 0.909413
Si Si6 0.796117 0.567352 0.586163
O O1 0.031114 0.250000 0.890397
O O2 0.907873 0.010941 0.859938
O O3 0.829301 0.031211 0.995476
O O4 0.217557 0.997852 0.876043
O O5 0.997499 0.250000 0.636499
O O6 0.906689 0.038408 0.738191
O O7 0.765080 0.020262 0.657811
O O8 0.128091 0.965317 0.583238
O O9 0.500000 0.500000 0.500000
O O10 0.640463 0.250000 0.522087
O O11 0.632482 0.521117 0.576160
O O12 0.247676 0.750000 0.153713
O O13 0.447420 0.002690 0.125279
O O14 0.347241 0.750000 0.898744
O O15 0.812956 0.750000 0.589340
O O16 0.000000 0.500000 0.500000
#
# Coordination Sequence:
#
# PCOD9157277 Si02
#       6
#     4   4   4   4   4   4
#     4   9  19  37  58  82 113 151 195 237 281 339
#     4  10  20  36  55  79 108 143 183 225 276 333
#     4  11  21  36  57  81 107 140 181 227 274 327
#     4  10  21  37  58  82 114 155 191 231 285 343
#     4  10  20  34  57  86 114 148 191 240 288 336
#     4  10  18  32  54  77 102 135 173 216 263 318
#
# _framework density 19.528545999999999
#
# number of rings (size 3 to 8) (size 9 to 14) (size 15 to 20)
#    0.000    2.000    0.000    6.500    0.000    2.667 
#    3.000    0.000    0.000    0.000    0.000    0.000 
#    0.000    0.000    0.000    0.000    0.000    0.000 
#
# Total GULP energy -133694.378152 kJ/mol
# GULP energy per Si atom -5570.599090 kJ/mol
# Density = 1.948410 g / cm^3
# Si number density = 19.528546 Si / 1000 Ang^3
#
#
#
# Elastic Constant Matrix: (Units=GPa)
#
#
# Indices 1 2 3 4 5 6 
#
# 1 153.3802 24.0190 44.2248 0.0000 44.3190 0.0000
# 2 24.0190 59.3672 30.5057 0.0000 15.0281 0.0000
# 3 44.2248 30.5057 40.0176 0.0000 27.6460 0.0000
# 4 0.0000 0.0000 0.0000 21.1954 0.0000 0.0313
# 5 44.3190 15.0281 27.6460 0.0000 31.9605 0.0000
# 6 0.0000 0.0000 0.0000 0.0313 0.0000 33.0758
#
#
#
# Elastic Compliance Matrix: (Units=1/GPa)
#
#
# Indices 1 2 3 4 5 6 
#
# 1 0.011178 0.001082 -0.005264 0.000000 -0.011456 0.000000
# 2 0.001082 0.030162 -0.033185 0.000000 0.013022 0.000000
# 3 -0.005264 -0.033185 0.100098 0.000000 -0.063682 0.000000
# 4 0.000000 0.000000 0.000000 0.047180 0.000000 -0.000045
# 5 -0.011456 0.013022 -0.063682 0.000000 0.096137 0.000000
# 6 0.000000 0.000000 0.000000 -0.000045 0.000000 0.030234
#
#
# Mechanical properties :
#
#
# Convention : Reuss Voigt Hill
#
# Bulk Modulus (GPa) = 14.99141 50.02933 32.51037
# Shear Modulus (GPa) = 12.13715 27.51404 19.82559
#
# Velocity S-wave (km/s) = 2.49571 3.75762 3.18969
# Velocity P-wave (km/s) = 3.99976 6.67087 5.49994
#
# Compressibility (1/GPa) = 0.06670485
#
# Stress axis : x y z
#
# Youngs Moduli (GPa) = 89.45867 33.15414 9.99017
#
# Poissons Ratio (x) = -0.03589 0.05259
# Poissons Ratio (y) = -0.09683 0.33153
# Poissons Ratio (z) = 0.47094 1.10022
#
# Static dielectric constant tensor:
#      x y z
#    x 1.814310 0.000000 -0.000720 
#    y 0.000000 1.660490 0.000000 
#    z -0.000720 0.000000 1.671700 
# 
# From -- ./inp_files/63161.got.cif
#   From: 2010.05.17/outbox.cif.g08.bks.cpg/sg11_32_cif.got.tgz:63161.got - 2010.06.03 12:22:45.
