data_PCOD9157386
_publ_section_title
;
Structure prediction by ZEFSAII (Michael W. Deem and Ramdas Pophale) SiO2 
 PCOD9157386
Probable space group: P 21/M
;
_chemical_formula_sum "Si O2"
_cell_formula_units_Z 32
_cell_length_a 7.151900
_cell_length_b 23.014566
_cell_length_c 12.082181
_cell_angle_alpha 90.000000
_cell_angle_beta 140.585239
_cell_angle_gamma 90.000000
_cell_volume 1262.685269
_symmetry_space_group_name_H-M "P 21/M"
_symmetry_group_IT_number 11
_symmetry_cell_setting 'monoclinic'
loop_
_space_group_symop_operation_xyz
x,y,z
-x,1/2+y,-z
-x,-y,-z
x,1/2-y,z
loop_
_atom_site_type_symbol
_atom_site_label
_atom_site_fract_x
_atom_site_fract_y
_atom_site_fract_z
Si Si1 0.832805 0.616215 0.767459
Si Si2 0.726030 0.463931 0.486818
Si Si3 0.757716 0.480101 0.980454
Si Si4 0.919261 0.902805 0.159238
Si Si5 0.635798 0.817306 0.892609
Si Si6 0.029484 0.814300 0.489030
Si Si7 0.606310 0.318234 0.577145
Si Si8 0.250575 0.071654 0.597656
O O1 0.574213 0.569216 0.659895
O O2 0.821233 0.651903 0.878100
O O3 0.710383 0.658279 0.613597
O O4 0.116122 0.574600 0.892118
O O5 0.674756 0.532678 0.475079
O O6 0.937116 0.436910 0.673868
O O7 0.909719 0.446765 0.461522
O O8 0.732957 0.542386 0.026500
O O9 0.474533 0.455878 0.788105
O O10 0.000000 0.500000 0.000000
O O11 0.222382 0.864997 0.266092
O O12 0.694142 0.850396 0.033889
O O13 0.717263 0.750000 0.938353
O O14 0.298950 0.820496 0.698013
O O15 0.908064 0.750000 0.440660
O O16 0.777567 0.860379 0.398391
O O17 0.185128 0.820219 0.439405
O O18 0.595267 0.250000 0.604391
#
# Coordination Sequence:
#
# PCOD9157386 Si02
#       8
#     4   4   4   4   4   4   4   4
#     4  10  18  39  54  84 112 149 191 224 286 336
#     4  10  21  34  60  84 110 148 188 238 277 342
#     4  12  24  37  55  82 123 154 184 239 279 341
#     4  11  21  35  54  90 118 141 190 234 296 324
#     4  10  18  32  59  84 111 144 190 241 277 334
#     4   9  18  36  59  81 107 150 189 231 288 338
#     4   9  18  35  60  85 111 141 190 240 281 336
#     4  11  20  39  57  82 116 150 189 230 283 344
#
# _framework density 25.342817
#
# number of rings (size 3 to 8) (size 9 to 14) (size 15 to 20)
#    0.000    1.750    6.250    1.500    1.750    2.500 
#    0.000    1.250    0.000    0.000    0.000    0.000 
#    0.000    0.000    0.000    0.000    0.000    0.000 
#
# Total GULP energy -178400.481977 kJ/mol
# GULP energy per Si atom -5575.015062 kJ/mol
# Density = 2.528514 g / cm^3
# Si number density = 25.342817 Si / 1000 Ang^3
#
#
#
# Elastic Constant Matrix: (Units=GPa)
#
#
# Indices 1 2 3 4 5 6 
#
# 1 41.4057 26.3482 17.3841 0.0000 9.3975 0.0000
# 2 26.3482 257.1639 76.8101 0.0000 -2.0550 0.0000
# 3 17.3841 76.8101 128.5350 0.0000 -7.6560 0.0000
# 4 0.0000 0.0000 0.0000 56.2466 0.0000 3.9809
# 5 9.3975 -2.0550 -7.6560 0.0000 21.3780 0.0000
# 6 0.0000 0.0000 0.0000 3.9809 0.0000 21.0918
#
#
#
# Elastic Compliance Matrix: (Units=1/GPa)
#
#
# Indices 1 2 3 4 5 6 
#
# 1 0.030463 -0.002123 -0.003741 0.000000 -0.014935 0.000000
# 2 -0.002123 0.004888 -0.002606 0.000000 0.000470 0.000000
# 3 -0.003741 -0.002606 0.010143 0.000000 0.005026 0.000000
# 4 0.000000 0.000000 0.000000 0.018020 0.000000 -0.003401
# 5 -0.014935 0.000470 0.005026 0.000000 0.055188 0.000000
# 6 0.000000 0.000000 0.000000 -0.003401 0.000000 0.048054
#
#
# Mechanical properties :
#
#
# Convention : Reuss Voigt Hill
#
# Bulk Modulus (GPa) = 35.02198 74.24327 54.63263
# Shear Modulus (GPa) = 25.87836 40.18075 33.02956
#
# Velocity S-wave (km/s) = 3.19898 3.98614 3.61406
# Velocity P-wave (km/s) = 5.24347 7.10950 6.24655
#
# Compressibility (1/GPa) = 0.02855350
#
# Stress axis : x y z
#
# Youngs Moduli (GPa) = 32.82722 204.57390 98.59429
#
# Poissons Ratio (x) = 0.43434 0.36882
# Poissons Ratio (y) = 0.06970 0.25693
# Poissons Ratio (z) = 0.12280 0.53311
#
# Static dielectric constant tensor:
#      x y z
#    x 2.252010 0.000000 -0.077840 
#    y 0.000000 2.062000 0.000000 
#    z -0.077840 0.000000 1.991140 
# 
# From -- ./inp_files/48484.got.cif
#   From: 2010.05.17/outbox.cif.g08.bks.cpg/sg11_25_cif.got.tgz:48484.got - 2010.06.03 12:22:45.
