data_PCOD9157480
_publ_section_title
;
Structure prediction by ZEFSAII (Michael W. Deem and Ramdas Pophale) SiO2 
 PCOD9157480
Probable space group: P 21/M
;
_chemical_formula_sum "Si O2"
_cell_formula_units_Z 24
_cell_length_a 18.703896
_cell_length_b 8.507617
_cell_length_c 8.170632
_cell_angle_alpha 90.000000
_cell_angle_beta 68.369542
_cell_angle_gamma 90.000000
_cell_volume 1208.600420
_symmetry_space_group_name_H-M "P 21/M"
_symmetry_group_IT_number 11
_symmetry_cell_setting 'monoclinic'
loop_
_space_group_symop_operation_xyz
x,y,z
-x,1/2+y,-z
-x,-y,-z
x,1/2-y,z
loop_
_atom_site_type_symbol
_atom_site_label
_atom_site_fract_x
_atom_site_fract_y
_atom_site_fract_z
Si Si1 0.681784 0.438094 0.598737
Si Si2 0.157774 0.066077 0.642592
Si Si3 0.086127 0.564924 0.977713
Si Si4 0.994130 0.566297 0.682402
Si Si5 0.583556 0.939586 0.372326
Si Si6 0.583504 0.939350 0.988597
O O1 0.680282 0.250000 0.601202
O O2 0.768262 0.502479 0.509928
O O3 0.640021 0.496977 0.466864
O O4 0.641727 0.499292 0.799206
O O5 0.145969 0.250000 0.622019
O O6 0.080955 0.968649 0.669634
O O7 0.155968 0.030886 0.838990
O O8 0.091806 0.750000 0.944374
O O9 0.075811 0.527648 0.175985
O O10 0.000000 0.500000 0.000000
O O11 0.978454 0.750000 0.709780
O O12 0.000000 0.500000 0.500000
O O13 0.585386 0.750000 0.375552
O O14 0.500000 0.000000 0.500000
O O15 0.597461 0.986562 0.168718
O O16 0.583753 0.750000 0.984856
O O17 0.500000 0.000000 0.000000
#
# Coordination Sequence:
#
# PCOD9157480 Si02
#       6
#     4   4   4   4   4   4
#     4  12  25  42  64  92 128 168 209 262 319 375
#     4  11  22  40  62  87 120 158 200 251 307 366
#     4  10  18  33  57  84 112 149 193 235 286 351
#     4  11  21  37  60  89 121 157 201 248 299 361
#     4  11  23  40  65  94 124 163 212 260 312 375
#     4  11  23  40  65  94 125 164 211 260 313 374
#
# _framework density 19.857678
#
# number of rings (size 3 to 8) (size 9 to 14) (size 15 to 20)
#    0.000    1.000    1.667    9.000    0.000    2.000 
#    3.000    0.000    0.000    0.000    0.000    0.000 
#    0.000    0.000    0.000    0.000    0.000    0.000 
#
# Total GULP energy -133762.750031 kJ/mol
# GULP energy per Si atom -5573.447918 kJ/mol
# Density = 1.981248 g / cm^3
# Si number density = 19.857678 Si / 1000 Ang^3
#
#
#
# Elastic Constant Matrix: (Units=GPa)
#
#
# Indices 1 2 3 4 5 6 
#
# 1 27.1774 10.6181 27.9610 0.0000 -11.8582 0.0000
# 2 10.6181 130.8760 34.4249 0.0000 -3.4298 0.0000
# 3 27.9610 34.4249 175.0437 0.0000 -15.8571 0.0000
# 4 0.0000 0.0000 0.0000 40.0182 0.0000 -2.2867
# 5 -11.8582 -3.4298 -15.8571 0.0000 36.6192 0.0000
# 6 0.0000 0.0000 0.0000 -2.2867 0.0000 26.9583
#
#
#
# Elastic Compliance Matrix: (Units=1/GPa)
#
#
# Indices 1 2 3 4 5 6 
#
# 1 0.049913 -0.002026 -0.006378 0.000000 0.013211 0.000000
# 2 -0.002026 0.008140 -0.001319 0.000000 -0.000465 0.000000
# 3 -0.006378 -0.001319 0.007070 0.000000 0.000873 0.000000
# 4 0.000000 0.000000 0.000000 0.025110 0.000000 0.002130
# 5 0.013211 -0.000465 0.000873 0.000000 0.031921 0.000000
# 6 0.000000 0.000000 0.000000 0.002130 0.000000 0.037275
#
#
# Mechanical properties :
#
#
# Convention : Reuss Voigt Hill
#
# Bulk Modulus (GPa) = 21.89268 53.23389 37.56329
# Shear Modulus (GPa) = 25.75987 38.05867 31.90927
#
# Velocity S-wave (km/s) = 3.60561 4.38262 4.01296
# Velocity P-wave (km/s) = 5.32753 7.24401 6.35839
#
# Compressibility (1/GPa) = 0.04567736
#
# Stress axis : x y z
#
# Youngs Moduli (GPa) = 20.03495 122.84962 141.43961
#
# Poissons Ratio (x) = 0.24886 0.90206
# Poissons Ratio (y) = 0.04058 0.18661
# Poissons Ratio (z) = 0.12778 0.16209
#
# Static dielectric constant tensor:
#      x y z
#    x 1.810170 0.000000 0.214250 
#    y 0.000000 1.675390 0.000000 
#    z 0.214250 0.000000 2.006080 
# 
# From -- ./inp_files/25517.got.cif
#   From: 2010.05.17/outbox.cif.g08.bks.cpg/sg11_13_cif.got.tgz:25517.got - 2010.06.03 12:22:45.
