data_PCOD9157827
_publ_section_title
;
Structure prediction by ZEFSAII (Michael W. Deem and Ramdas Pophale) SiO2 
 PCOD9157827
Probable space group: P 21/M
;
_chemical_formula_sum "Si O2"
_cell_formula_units_Z 32
_cell_length_a 28.289236
_cell_length_b 7.531846
_cell_length_c 14.988741
_cell_angle_alpha 90.000000
_cell_angle_beta 152.300277
_cell_angle_gamma 90.000000
_cell_volume 1484.530792
_symmetry_space_group_name_H-M "P 21/M"
_symmetry_group_IT_number 11
_symmetry_cell_setting 'monoclinic'
loop_
_space_group_symop_operation_xyz
x,y,z
-x,1/2+y,-z
-x,-y,-z
x,1/2-y,z
loop_
_atom_site_type_symbol
_atom_site_label
_atom_site_fract_x
_atom_site_fract_y
_atom_site_fract_z
Si Si1 0.155278 0.462522 0.936481
Si Si2 0.374858 0.545626 0.986358
Si Si3 0.920851 0.539236 0.576322
Si Si4 0.880566 0.537779 0.316625
Si Si5 0.355570 0.047239 0.338729
Si Si6 0.737051 0.461131 0.373977
Si Si7 0.437525 0.960533 0.804411
Si Si8 0.425278 0.968153 0.257202
O O1 0.170058 0.250000 0.956237
O O2 0.167984 0.534353 0.856076
O O3 0.039262 0.489153 0.772890
O O4 0.242652 0.533365 0.148389
O O5 0.343437 0.750000 0.939984
O O6 0.494139 0.543448 0.158456
O O7 0.365098 0.470016 0.068973
O O8 0.316654 0.461690 0.805284
O O9 0.917882 0.750000 0.564991
O O10 0.867000 0.467868 0.394880
O O11 0.855543 0.487103 0.553417
O O12 0.864457 0.750000 0.291002
O O13 0.000000 0.500000 0.500000
O O14 0.348323 0.250000 0.358551
O O15 0.456652 0.971617 0.552782
O O16 0.384029 0.041837 0.280890
O O17 0.717529 0.250000 0.341007
O O18 0.675898 0.525116 0.358943
O O19 0.436753 0.750000 0.786350
O O20 0.500000 0.000000 0.000000
O O21 0.423917 0.750000 0.259383
#
# Coordination Sequence:
#
# PCOD9157827 Si02
#       8
#     4   4   4   4   4   4   4   4
#     4   9  17  30  45  59  84 120 152 185 224 265
#     4   9  18  31  47  67  93 123 153 184 226 273
#     4  10  19  28  41  64  88 114 151 187 219 262
#     4   8  15  26  37  53  78 107 142 179 210 245
#     4   9  18  31  48  67  90 121 156 191 229 269
#     4   9  18  30  43  63  92 122 147 176 219 268
#     4   9  17  30  47  67  92 120 151 184 223 271
#     4   9  18  32  47  68  94 119 151 192 231 269
#
# _framework density 21.555631000000002
#
# number of rings (size 3 to 8) (size 9 to 14) (size 15 to 20)
#    0.000    3.000    0.000    1.500    1.750    4.000 
#    0.000    0.000    0.000    0.000    0.000    0.875 
#    0.000    0.000    0.000    0.000    0.000    0.000 
#
# Total GULP energy -178249.798807 kJ/mol
# GULP energy per Si atom -5570.306213 kJ/mol
# Density = 2.150657 g / cm^3
# Si number density = 21.555631 Si / 1000 Ang^3
#
#
#
# Elastic Constant Matrix: (Units=GPa)
#
#
# Indices 1 2 3 4 5 6 
#
# 1 59.5178 -7.2971 1.7270 0.0000 26.7063 0.0000
# 2 -7.2971 72.5241 2.4282 0.0000 -0.6674 0.0000
# 3 1.7270 2.4282 66.9835 0.0000 21.1081 0.0000
# 4 0.0000 0.0000 0.0000 10.0718 0.0000 6.1095
# 5 26.7063 -0.6674 21.1081 0.0000 34.6757 0.0000
# 6 0.0000 0.0000 0.0000 6.1095 0.0000 14.8390
#
#
#
# Elastic Compliance Matrix: (Units=1/GPa)
#
#
# Indices 1 2 3 4 5 6 
#
# 1 0.028945 0.002409 0.007643 0.000000 -0.026899 0.000000
# 2 0.002409 0.014020 -0.000087 0.000000 -0.001532 0.000000
# 3 0.007643 -0.000087 0.020529 0.000000 -0.018384 0.000000
# 4 0.000000 0.000000 0.000000 0.132338 0.000000 -0.054486
# 5 -0.026899 -0.001532 -0.018384 0.000000 0.060717 0.000000
# 6 0.000000 0.000000 0.000000 -0.054486 0.000000 0.089823
#
#
# Mechanical properties :
#
#
# Convention : Reuss Voigt Hill
#
# Bulk Modulus (GPa) = 11.98725 21.41571 16.70148
# Shear Modulus (GPa) = 14.11430 25.39511 19.75471
#
# Velocity S-wave (km/s) = 2.56165 3.43610 3.03058
# Velocity P-wave (km/s) = 3.78452 5.06942 4.47334
#
# Compressibility (1/GPa) = 0.08342200
#
# Stress axis : x y z
#
# Youngs Moduli (GPa) = 34.54816 71.32801 48.71271
#
# Poissons Ratio (x) = -0.17182 -0.37231
# Poissons Ratio (y) = -0.08322 0.00426
# Poissons Ratio (z) = -0.26405 0.00624
#
# Static dielectric constant tensor:
#      x y z
#    x 1.791970 0.000000 0.013200 
#    y 0.000000 1.835410 0.000000 
#    z 0.013200 0.000000 1.813430 
# 
# From -- ./inp_files/56191.got.cif
#   From: 2010.05.17/outbox.cif.g08.bks.cpg/sg11_29_cif.got.tgz:56191.got - 2010.06.03 12:22:45.
