data_PCOD9157853
_publ_section_title
;
Structure prediction by ZEFSAII (Michael W. Deem and Ramdas Pophale) SiO2 
 PCOD9157853
Probable space group: P 21/M
;
_chemical_formula_sum "Si O2"
_cell_formula_units_Z 32
_cell_length_a 18.642518
_cell_length_b 9.118296
_cell_length_c 13.569737
_cell_angle_alpha 90.000000
_cell_angle_beta 110.968622
_cell_angle_gamma 90.000000
_cell_volume 2153.935279
_symmetry_space_group_name_H-M "P 21/M"
_symmetry_group_IT_number 11
_symmetry_cell_setting 'monoclinic'
loop_
_space_group_symop_operation_xyz
x,y,z
-x,1/2+y,-z
-x,-y,-z
x,1/2-y,z
loop_
_atom_site_type_symbol
_atom_site_label
_atom_site_fract_x
_atom_site_fract_y
_atom_site_fract_z
Si Si1 0.382531 0.076270 0.398528
Si Si2 0.231386 0.923378 0.982044
Si Si3 0.451356 0.576383 0.619611
Si Si4 0.926598 0.580763 0.088234
Si Si5 0.918196 0.919239 0.844527
Si Si6 0.524280 0.577039 0.165735
Si Si7 0.384004 0.422954 0.991887
Si Si8 0.760144 0.076540 0.777298
O O1 0.370390 0.250000 0.404587
O O2 0.399001 0.999829 0.511238
O O3 0.460459 0.055919 0.373305
O O4 0.311340 0.002609 0.308522
O O5 0.230690 0.750000 0.961657
O O6 0.243549 0.942911 0.105959
O O7 0.149616 0.995617 0.916232
O O8 0.301581 0.002944 0.963081
O O9 0.563649 0.250000 0.382901
O O10 0.444056 0.500665 0.721649
O O11 0.926135 0.750000 0.119756
O O12 0.005221 0.499481 0.155318
O O13 0.923891 0.580460 0.967024
O O14 0.914886 0.750000 0.811352
O O15 0.840328 0.005349 0.782064
O O16 0.512101 0.750000 0.177102
O O17 0.581173 0.560351 0.100576
O O18 0.444435 0.501618 0.094247
O O19 0.380080 0.250000 0.012965
O O20 0.759098 0.250000 0.756802
#
# Coordination Sequence:
#
# PCOD9157853 Si02
#       8
#     4   4   4   4   4   4   4   4
#     4  10  20  32  46  65  88 114 146 182 219 260
#     4  10  19  29  43  63  88 118 150 184 219 257
#     4  10  20  33  49  66  86 114 146 181 221 263
#     4   9  16  26  40  58  83 114 146 179 215 257
#     4   9  16  26  40  58  82 113 147 179 214 257
#     4  10  20  33  48  65  87 115 146 182 222 262
#     4  10  20  32  46  65  88 115 148 183 219 260
#     4  10  19  29  42  62  88 117 149 183 219 258
#
# _framework density 14.856527
#
# number of rings (size 3 to 8) (size 9 to 14) (size 15 to 20)
#    0.000    2.250    0.000    3.750    0.000    9.500 
#    0.000    0.000    0.000    0.000    0.000    0.000 
#    0.000    1.000    0.000    3.750    0.000    5.750 
#
# Total GULP energy -178527.676756 kJ/mol
# GULP energy per Si atom -5578.989899 kJ/mol
# Density = 1.482271 g / cm^3
# Si number density = 14.856527 Si / 1000 Ang^3
#
#
#
# Elastic Constant Matrix: (Units=GPa)
#
#
# Indices 1 2 3 4 5 6 
#
# 1 83.5406 60.8988 9.6998 0.0000 18.6744 0.0000
# 2 60.8988 127.9839 40.7564 0.0000 12.4882 0.0000
# 3 9.6998 40.7564 41.3127 0.0000 7.6399 0.0000
# 4 0.0000 0.0000 0.0000 24.1674 0.0000 4.4397
# 5 18.6744 12.4882 7.6399 0.0000 19.5352 0.0000
# 6 0.0000 0.0000 0.0000 4.4397 0.0000 29.4547
#
#
#
# Elastic Compliance Matrix: (Units=1/GPa)
#
#
# Indices 1 2 3 4 5 6 
#
# 1 0.024823 -0.013418 0.011008 0.000000 -0.019456 0.000000
# 2 -0.013418 0.018824 -0.016781 0.000000 0.007356 0.000000
# 3 0.011008 -0.016781 0.041111 0.000000 -0.015873 0.000000
# 4 0.000000 0.000000 0.000000 0.042557 0.000000 -0.006414
# 5 -0.019456 0.007356 -0.015873 0.000000 0.071294 0.000000
# 6 0.000000 0.000000 0.000000 -0.006414 0.000000 0.034917
#
#
# Mechanical properties :
#
#
# Convention : Reuss Voigt Hill
#
# Bulk Modulus (GPa) = 21.56309 52.83857 37.20083
# Shear Modulus (GPa) = 17.39928 24.06361 20.73145
#
# Velocity S-wave (km/s) = 3.42593 4.02896 3.73962
# Velocity P-wave (km/s) = 5.49500 7.56878 6.61368
#
# Compressibility (1/GPa) = 0.04637555
#
# Stress axis : x y z
#
# Youngs Moduli (GPa) = 40.28521 53.12238 24.32413
#
# Poissons Ratio (x) = 0.71282 -0.26775
# Poissons Ratio (y) = 0.54057 0.40818
# Poissons Ratio (z) = -0.44344 0.89144
#
# Static dielectric constant tensor:
#      x y z
#    x 1.479420 0.000000 -0.001070 
#    y 0.000000 1.493630 0.000000 
#    z -0.001070 0.000000 1.463110 
# 
# From -- ./inp_files/52971.got.cif
#   From: 2010.05.17/outbox.cif.g08.bks.cpg/sg11_27_cif.got.tgz:52971.got - 2010.06.03 12:22:45.
