data_PCOD9157015
_publ_section_title
;
Structure prediction by ZEFSAII (Michael W. Deem and Ramdas Pophale) SiO2 
 PCOD9157015
Probable space group: P 21/M
;
_chemical_formula_sum "Si O2"
_cell_formula_units_Z 28
_cell_length_a 20.859354
_cell_length_b 8.885860
_cell_length_c 18.944059
_cell_angle_alpha 90.000000
_cell_angle_beta 158.858832
_cell_angle_gamma 90.000000
_cell_volume 1266.426053
_symmetry_space_group_name_H-M "P 21/M"
_symmetry_group_IT_number 11
_symmetry_cell_setting 'monoclinic'
loop_
_space_group_symop_operation_xyz
x,y,z
-x,1/2+y,-z
-x,-y,-z
x,1/2-y,z
loop_
_atom_site_type_symbol
_atom_site_label
_atom_site_fract_x
_atom_site_fract_y
_atom_site_fract_z
Si Si1 0.280765 0.079481 0.204995
Si Si2 0.798405 0.430719 0.292613
Si Si3 0.283910 0.579227 0.351085
Si Si4 0.792125 0.930693 0.428898
Si Si5 0.710551 0.918420 0.503157
Si Si6 0.816826 0.571778 0.171900
Si Si7 0.709335 0.416432 0.923096
O O1 0.223662 0.250000 0.134287
O O2 0.498410 0.078407 0.426637
O O3 0.226902 0.021952 0.226640
O O4 0.217382 0.974930 0.075849
O O5 0.804678 0.250000 0.297463
O O6 0.713916 0.490509 0.278607
O O7 0.719017 0.497207 0.138669
O O8 0.000000 0.500000 0.500000
O O9 0.227200 0.750000 0.281600
O O10 0.221415 0.519736 0.362971
O O11 0.778222 0.750000 0.406972
O O12 0.724042 0.974694 0.436605
O O13 0.994715 0.987071 0.638361
O O14 0.789772 0.750000 0.586911
O O15 0.501452 0.903677 0.302666
O O16 0.837267 0.750000 0.203854
O O17 0.734256 0.533455 0.011801
O O18 0.778244 0.250000 0.013289
#
# Coordination Sequence:
#
# PCOD9157015 Si02
#       7
#     4   4   4   4   4   4   4
#     4   9  16  27  44  68  97 129 165 203 242 286
#     4  10  18  31  51  74  97 126 164 205 244 286
#     4   9  16  26  44  69  97 129 165 203 241 284
#     4  10  19  34  54  76 100 129 164 203 246 292
#     4   9  19  33  51  74 102 132 163 202 248 294
#     4  11  21  34  52  75 100 130 166 203 244 292
#     4  10  19  33  51  74 102 131 164 204 248 292
#
# _framework density 22.109465
#
# number of rings (size 3 to 8) (size 9 to 14) (size 15 to 20)
#    0.000    2.286    0.000    6.000    0.000    5.143 
#    0.000    0.714    0.000    0.857    0.000    0.000 
#    0.000    0.000    0.000    0.000    0.000    0.000 
#
# Total GULP energy -156272.456388 kJ/mol
# GULP energy per Si atom -5581.159157 kJ/mol
# Density = 2.205914 g / cm^3
# Si number density = 22.109465 Si / 1000 Ang^3
#
#
#
# Elastic Constant Matrix: (Units=GPa)
#
#
# Indices 1 2 3 4 5 6 
#
# 1 167.8392 75.7750 16.3855 0.0000 -39.4784 0.0000
# 2 75.7750 97.3680 0.9258 0.0000 -24.4308 0.0000
# 3 16.3855 0.9258 22.7210 0.0000 -4.6520 0.0000
# 4 0.0000 0.0000 0.0000 10.8796 0.0000 -0.8705
# 5 -39.4784 -24.4308 -4.6520 0.0000 40.7943 0.0000
# 6 0.0000 0.0000 0.0000 -0.8705 0.0000 2.3077
#
#
#
# Elastic Compliance Matrix: (Units=1/GPa)
#
#
# Indices 1 2 3 4 5 6 
#
# 1 0.011225 -0.007221 -0.006616 0.000000 0.005783 0.000000
# 2 -0.007221 0.016755 0.005272 0.000000 0.003647 0.000000
# 3 -0.006616 0.005272 0.049050 0.000000 0.002348 0.000000
# 4 0.000000 0.000000 0.000000 0.094775 0.000000 0.035750
# 5 0.005783 0.003647 0.002348 0.000000 0.032562 0.000000
# 6 0.000000 0.000000 0.000000 0.035750 0.000000 0.446812
#
#
# Mechanical properties :
#
#
# Convention : Reuss Voigt Hill
#
# Bulk Modulus (GPa) = 16.69523 52.67787 34.68655
# Shear Modulus (GPa) = 7.26453 23.78578 15.52516
#
# Velocity S-wave (km/s) = 1.81462 3.28353 2.65277
# Velocity P-wave (km/s) = 3.45804 6.18491 5.01054
#
# Compressibility (1/GPa) = 0.05989733
#
# Stress axis : x y z
#
# Youngs Moduli (GPa) = 89.09019 59.68312 20.38755
#
# Poissons Ratio (x) = 0.43099 0.13489
# Poissons Ratio (y) = 0.64335 -0.10748
# Poissons Ratio (z) = 0.58945 -0.31463
#
# Static dielectric constant tensor:
#      x y z
#    x 1.866270 0.000000 0.000060 
#    y 0.000000 1.756260 0.000000 
#    z 0.000060 0.000000 1.874650 
# 
# From -- ./inp_files/61287.got.cif
#   From: 2010.05.17/outbox.cif.g08.bks.cpg/sg11_31_cif.got.tgz:61287.got - 2010.06.03 12:22:45.
