data_PCOD9157170
_publ_section_title
;
Structure prediction by ZEFSAII (Michael W. Deem and Ramdas Pophale) SiO2 
 PCOD9157170
Probable space group: P 21/M
;
_chemical_formula_sum "Si O2"
_cell_formula_units_Z 32
_cell_length_a 8.166465
_cell_length_b 15.409918
_cell_length_c 12.014413
_cell_angle_alpha 90.000000
_cell_angle_beta 82.692200
_cell_angle_gamma 90.000000
_cell_volume 1499.667117
_symmetry_space_group_name_H-M "P 21/M"
_symmetry_group_IT_number 11
_symmetry_cell_setting 'monoclinic'
loop_
_space_group_symop_operation_xyz
x,y,z
-x,1/2+y,-z
-x,-y,-z
x,1/2-y,z
loop_
_atom_site_type_symbol
_atom_site_label
_atom_site_fract_x
_atom_site_fract_y
_atom_site_fract_z
Si Si1 0.451457 0.550274 0.281232
Si Si2 0.756286 0.653832 0.972736
Si Si3 0.928625 0.589867 0.170495
Si Si4 0.843404 0.534315 0.579713
Si Si5 0.300811 0.549050 0.062956
Si Si6 0.999667 0.157488 0.254086
Si Si7 0.299595 0.919394 0.815229
Si Si8 0.735985 0.851599 0.387768
O O1 0.284248 0.536809 0.363878
O O2 0.413053 0.577000 0.157420
O O3 0.539297 0.455934 0.259515
O O4 0.580067 0.612031 0.331586
O O5 0.671362 0.750000 0.967897
O O6 0.681274 0.556170 0.957744
O O7 0.905007 0.655552 0.870981
O O8 0.836778 0.648891 0.087636
O O9 0.829692 0.499636 0.172887
O O10 0.895001 0.627408 0.295656
O O11 0.114319 0.571017 0.117100
O O12 0.750100 0.596986 0.501595
O O13 0.000000 0.500000 0.500000
O O14 0.919469 0.584351 0.677820
O O15 0.330513 0.596974 0.942879
O O16 0.031943 0.250000 0.306892
O O17 0.805789 0.148717 0.244859
O O18 0.722822 0.750000 0.406659
#
# Coordination Sequence:
#
# PCOD9157170 Si02
#       8
#     4   4   4   4   4   4   4   4
#     4  11  23  40  63  89 121 168 205 252 305 371
#     4  10  18  31  58  91 123 154 198 261 309 350
#     4  10  18  36  62  88 122 163 209 245 300 371
#     4  12  24  45  68  88 116 161 222 261 306 370
#     4  11  18  36  60  93 124 168 206 241 298 380
#     4  11  21  38  62  94 123 154 204 265 314 358
#     4  10  19  36  59  91 128 159 199 245 313 382
#     4  11  25  43  62  91 126 164 206 256 308 360
#
# _framework density 21.338068
#
# number of rings (size 3 to 8) (size 9 to 14) (size 15 to 20)
#    0.000    1.250    3.750    4.500    0.000    0.000 
#    0.000    7.500    0.000    0.000    0.000    0.000 
#    0.000    0.000    0.000    0.000    0.000    0.000 
#
# Total GULP energy -178687.832748 kJ/mol
# GULP energy per Si atom -5583.994773 kJ/mol
# Density = 2.128950 g / cm^3
# Si number density = 21.338068 Si / 1000 Ang^3
#
#
#
# Elastic Constant Matrix: (Units=GPa)
#
#
# Indices 1 2 3 4 5 6 
#
# 1 80.5532 -0.5855 12.5079 0.0000 0.0125 0.0000
# 2 -0.5855 60.8507 6.9539 0.0000 12.2540 0.0000
# 3 12.5079 6.9539 75.9677 0.0000 13.9460 0.0000
# 4 0.0000 0.0000 0.0000 10.8990 0.0000 -0.2882
# 5 0.0125 12.2540 13.9460 0.0000 43.3850 0.0000
# 6 0.0000 0.0000 0.0000 -0.2882 0.0000 18.1028
#
#
#
# Elastic Compliance Matrix: (Units=1/GPa)
#
#
# Indices 1 2 3 4 5 6 
#
# 1 0.012764 0.000249 -0.002243 0.000000 0.000647 0.000000
# 2 0.000249 0.017468 -0.000780 0.000000 -0.004683 0.000000
# 3 -0.002243 -0.000780 0.014414 0.000000 -0.004412 0.000000
# 4 0.000000 0.000000 0.000000 0.091790 0.000000 0.001461
# 5 0.000647 -0.004683 -0.004412 0.000000 0.025790 0.000000
# 6 0.000000 0.000000 0.000000 0.001461 0.000000 0.055263
#
#
# Mechanical properties :
#
#
# Convention : Reuss Voigt Hill
#
# Bulk Modulus (GPa) = 25.57702 28.34713 26.96207
# Shear Modulus (GPa) = 21.17995 27.71037 24.44516
#
# Velocity S-wave (km/s) = 3.15396 3.60757 3.38836
# Velocity P-wave (km/s) = 5.02751 5.53772 5.28877
#
# Compressibility (1/GPa) = 0.03909760
#
# Stress axis : x y z
#
# Youngs Moduli (GPa) = 78.34426 57.24658 69.37569
#
# Poissons Ratio (x) = -0.01425 0.15562
# Poissons Ratio (y) = -0.01950 0.05413
# Poissons Ratio (z) = 0.17574 0.04467
#
# Static dielectric constant tensor:
#      x y z
#    x 1.798510 0.000000 0.002790 
#    y 0.000000 1.759100 0.000000 
#    z 0.002790 0.000000 1.811050 
# 
# From -- ./inp_files/31857.got.cif
#   From: 2010.05.17/outbox.cif.g08.bks.cpg/sg11_16_cif.got.tgz:31857.got - 2010.06.03 12:22:45.
