data_PCOD9157687
_publ_section_title
;
Structure prediction by ZEFSAII (Michael W. Deem and Ramdas Pophale) SiO2 
 PCOD9157687
Probable space group: P 21/M
;
_chemical_formula_sum "Si O2"
_cell_formula_units_Z 32
_cell_length_a 16.559094
_cell_length_b 16.666482
_cell_length_c 10.948056
_cell_angle_alpha 90.000000
_cell_angle_beta 145.897237
_cell_angle_gamma 90.000000
_cell_volume 1694.071561
_symmetry_space_group_name_H-M "P 21/M"
_symmetry_group_IT_number 11
_symmetry_cell_setting 'monoclinic'
loop_
_space_group_symop_operation_xyz
x,y,z
-x,1/2+y,-z
-x,-y,-z
x,1/2-y,z
loop_
_atom_site_type_symbol
_atom_site_label
_atom_site_fract_x
_atom_site_fract_y
_atom_site_fract_z
Si Si1 0.427324 0.441331 0.508254
Si Si2 0.045729 0.845076 0.590652
Si Si3 0.276573 0.380655 0.104829
Si Si4 0.050035 0.838928 0.310331
Si Si5 0.517706 0.659221 0.864622
Si Si6 0.259113 0.536077 0.491291
Si Si7 0.290657 0.952034 0.996003
Si Si8 0.253971 0.067207 0.723315
O O1 0.500000 0.500000 0.500000
O O2 0.354713 0.374392 0.332946
O O3 0.306108 0.490581 0.428581
O O4 0.555162 0.420568 0.763114
O O5 0.026629 0.750000 0.588612
O O6 0.087475 0.854740 0.499889
O O7 0.897058 0.893085 0.425797
O O8 0.169468 0.884768 0.828493
O O9 0.380591 0.348543 0.128252
O O10 0.122028 0.340646 0.910551
O O11 0.249297 0.474602 0.035068
O O12 0.101871 0.750000 0.341923
O O13 0.119349 0.907851 0.315145
O O14 0.467502 0.750000 0.815170
O O15 0.389042 0.596662 0.688134
O O16 0.620243 0.632420 0.104032
O O17 0.242531 0.470960 0.576885
O O18 0.297601 0.997381 0.874183
#
# Coordination Sequence:
#
# PCOD9157687 Si02
#       8
#     4   4   4   4   4   4   4   4
#     4  10  21  40  61  84 113 155 212 247 288 354
#     4  11  21  36  57  89 128 161 193 242 313 375
#     4  10  20  39  65  84 114 163 214 243 285 367
#     4  11  22  36  59  94 126 155 198 255 308 355
#     4  11  21  36  60  90 122 160 198 249 307 358
#     4  12  22  36  61  93 123 154 200 264 301 351
#     4  10  18  35  60  85 117 152 201 245 292 360
#     4  11  20  34  60  92 120 159 199 245 301 372
#
# _framework density 18.889403000000001
#
# number of rings (size 3 to 8) (size 9 to 14) (size 15 to 20)
#    0.000    1.250    7.500    2.625    0.000    0.500 
#    0.000    1.250    0.000    6.000    0.000    0.000 
#    0.000    0.000    0.000    0.000    0.000    0.000 
#
# Total GULP energy -178587.120606 kJ/mol
# GULP energy per Si atom -5580.847519 kJ/mol
# Density = 1.884641 g / cm^3
# Si number density = 18.889403 Si / 1000 Ang^3
#
#
#
# Elastic Constant Matrix: (Units=GPa)
#
#
# Indices 1 2 3 4 5 6 
#
# 1 58.1420 10.2816 -0.4164 0.0000 -3.6131 0.0000
# 2 10.2816 53.7650 16.6096 0.0000 -5.9489 0.0000
# 3 -0.4164 16.6096 67.8633 0.0000 -1.0577 0.0000
# 4 0.0000 0.0000 0.0000 10.2611 0.0000 -1.4649
# 5 -3.6131 -5.9489 -1.0577 0.0000 25.3978 0.0000
# 6 0.0000 0.0000 0.0000 -1.4649 0.0000 5.4915
#
#
#
# Elastic Compliance Matrix: (Units=1/GPa)
#
#
# Indices 1 2 3 4 5 6 
#
# 1 0.017943 -0.003547 0.001006 0.000000 0.001764 0.000000
# 2 -0.003547 0.021352 -0.005181 0.000000 0.004281 0.000000
# 3 0.001006 -0.005181 0.016003 0.000000 -0.000404 0.000000
# 4 0.000000 0.000000 0.000000 0.101314 0.000000 0.027026
# 5 0.001764 0.004281 -0.000404 0.000000 0.040610 0.000000
# 6 0.000000 0.000000 0.000000 0.027026 0.000000 0.189307
#
#
# Mechanical properties :
#
#
# Convention : Reuss Voigt Hill
#
# Bulk Modulus (GPa) = 25.09133 25.85776 25.47454
# Shear Modulus (GPa) = 12.04067 18.44977 15.24522
#
# Velocity S-wave (km/s) = 2.52748 3.12865 2.84399
# Velocity P-wave (km/s) = 4.67222 5.17398 4.92949
#
# Compressibility (1/GPa) = 0.03985440
#
# Stress axis : x y z
#
# Youngs Moduli (GPa) = 55.73112 46.83414 62.48662
#
# Poissons Ratio (x) = 0.16611 -0.06284
# Poissons Ratio (y) = 0.19767 0.32374
# Poissons Ratio (z) = -0.05605 0.24265
#
# Static dielectric constant tensor:
#      x y z
#    x 1.647960 0.000000 0.004550 
#    y 0.000000 1.666530 0.000000 
#    z 0.004550 0.000000 1.694970 
# 
# From -- ./inp_files/41864.got.cif
#   From: 2010.05.17/outbox.cif.g08.bks.cpg/sg11_21_cif.got.tgz:41864.got - 2010.06.03 12:22:45.
