data_PCOD9157584
_publ_section_title
;
Structure prediction by ZEFSAII (Michael W. Deem and Ramdas Pophale) SiO2 
 PCOD9157584
Probable space group: P 21/M
;
_chemical_formula_sum "Si O2"
_cell_formula_units_Z 30
_cell_length_a 17.382465
_cell_length_b 7.560878
_cell_length_c 12.477193
_cell_angle_alpha 90.000000
_cell_angle_beta 111.855426
_cell_angle_gamma 90.000000
_cell_volume 1521.974910
_symmetry_space_group_name_H-M "P 21/M"
_symmetry_group_IT_number 11
_symmetry_cell_setting 'monoclinic'
loop_
_space_group_symop_operation_xyz
x,y,z
-x,1/2+y,-z
-x,-y,-z
x,1/2-y,z
loop_
_atom_site_type_symbol
_atom_site_label
_atom_site_fract_x
_atom_site_fract_y
_atom_site_fract_z
Si Si1 0.375449 0.463739 0.399070
Si Si2 0.218224 0.545494 0.636646
Si Si3 0.529695 0.448775 0.336262
Si Si4 0.089575 0.959246 0.995925
Si Si5 0.919043 0.534979 0.606908
Si Si6 0.641076 0.750000 0.318863
Si Si7 0.900232 0.034411 0.241322
Si Si8 0.808419 0.959409 0.746842
O O1 0.374572 0.250000 0.419910
O O2 0.437915 0.493455 0.333118
O O3 0.414833 0.545485 0.525866
O O4 0.283150 0.528312 0.326679
O O5 0.247498 0.750000 0.655023
O O6 0.139884 0.536510 0.516034
O O7 0.286945 0.406314 0.636918
O O8 0.180398 0.489143 0.731940
O O9 0.529477 0.250000 0.292949
O O10 0.569000 0.595058 0.281970
O O11 0.094006 0.750000 0.988215
O O12 0.159278 0.013421 0.116799
O O13 0.099420 0.030940 0.880812
O O14 0.000000 0.000000 0.000000
O O15 0.917961 0.750000 0.600419
O O16 0.876923 0.478058 0.697497
O O17 0.014383 0.476517 0.657449
O O18 0.903029 0.250000 0.241743
O O19 0.802504 0.750000 0.726949
#
# Coordination Sequence:
#
# PCOD9157584 Si02
#       8
#     4   4   4   4   4   2   4   4
#     4   9  18  33  54  82 123 155 186 227 290 353
#     4  11  23  38  56  82 114 155 200 243 289 340
#     4  10  20  34  56  82 118 160 186 230 291 356
#     4  11  21  38  56  80 112 151 197 239 286 339
#     4  10  18  34  57  79 117 158 188 236 287 336
#     4  12  22  38  54  82 112 146 196 242 284 342
#     4   9  20  38  57  75 114 155 194 244 294 330
#     4  10  20  34  55  83 118 153 184 233 284 340
#
# _framework density 19.711231999999999
#
# number of rings (size 3 to 8) (size 9 to 14) (size 15 to 20)
#    0.000    1.867    2.667    2.000    2.800    1.067 
#    3.600    0.000    0.000    0.000    0.000    0.933 
#    0.000    0.000    0.000    0.000    0.000    0.000 
#
# Total GULP energy -167022.497695 kJ/mol
# GULP energy per Si atom -5567.416590 kJ/mol
# Density = 1.966637 g / cm^3
# Si number density = 19.711232 Si / 1000 Ang^3
#
#
#
# Elastic Constant Matrix: (Units=GPa)
#
#
# Indices 1 2 3 4 5 6 
#
# 1 45.6122 37.4055 -9.6926 0.0000 7.8948 0.0000
# 2 37.4055 75.6198 -1.8156 0.0000 -3.5778 0.0000
# 3 -9.6926 -1.8156 30.3106 0.0000 -12.5289 0.0000
# 4 0.0000 0.0000 0.0000 17.7493 0.0000 2.5725
# 5 7.8948 -3.5778 -12.5289 0.0000 19.9020 0.0000
# 6 0.0000 0.0000 0.0000 2.5725 0.0000 21.4392
#
#
#
# Elastic Compliance Matrix: (Units=1/GPa)
#
#
# Indices 1 2 3 4 5 6 
#
# 1 0.045315 -0.023175 0.005339 0.000000 -0.018781 0.000000
# 2 -0.023175 0.025323 -0.000287 0.000000 0.013565 0.000000
# 3 0.005339 -0.000287 0.045669 0.000000 0.026580 0.000000
# 4 0.000000 0.000000 0.000000 0.057337 0.000000 -0.006880
# 5 -0.018781 0.013565 0.026580 0.000000 0.076868 0.000000
# 6 0.000000 0.000000 0.000000 -0.006880 0.000000 0.047469
#
#
# Mechanical properties :
#
#
# Convention : Reuss Voigt Hill
#
# Bulk Modulus (GPa) = 12.49060 22.59302 17.54181
# Shear Modulus (GPa) = 13.85371 20.19445 17.02408
#
# Velocity S-wave (km/s) = 2.65398 3.20428 2.94202
# Velocity P-wave (km/s) = 3.96762 5.01764 4.52320
#
# Compressibility (1/GPa) = 0.08006023
#
# Stress axis : x y z
#
# Youngs Moduli (GPa) = 22.06778 39.49020 21.89675
#
# Poissons Ratio (x) = 0.91520 -0.11691
# Poissons Ratio (y) = 0.51143 0.00628
# Poissons Ratio (z) = -0.11783 0.01133
#
# Static dielectric constant tensor:
#      x y z
#    x 1.709030 0.000000 -0.043620 
#    y 0.000000 1.907550 0.000000 
#    z -0.043620 0.000000 1.688110 
# 
# From -- ./inp_files/40784.got.cif
#   From: 2010.05.17/outbox.cif.g08.bks.cpg/sg11_21_cif.got.tgz:40784.got - 2010.06.03 12:22:45.
