data_PCOD9157642
_publ_section_title
;
Structure prediction by ZEFSAII (Michael W. Deem and Ramdas Pophale) SiO2 
 PCOD9157642
Probable space group: P 21/M
;
_chemical_formula_sum "Si O2"
_cell_formula_units_Z 32
_cell_length_a 8.872242
_cell_length_b 20.609996
_cell_length_c 11.786281
_cell_angle_alpha 90.000000
_cell_angle_beta 47.012260
_cell_angle_gamma 90.000000
_cell_volume 1576.529787
_symmetry_space_group_name_H-M "P 21/M"
_symmetry_group_IT_number 11
_symmetry_cell_setting 'monoclinic'
loop_
_space_group_symop_operation_xyz
x,y,z
-x,1/2+y,-z
-x,-y,-z
x,1/2-y,z
loop_
_atom_site_type_symbol
_atom_site_label
_atom_site_fract_x
_atom_site_fract_y
_atom_site_fract_z
Si Si1 0.989933 0.980479 0.333606
Si Si2 0.107055 0.447825 0.862712
Si Si3 0.528435 0.178814 0.946923
Si Si4 0.329272 0.410048 0.213932
Si Si5 0.899514 0.674861 0.971666
Si Si6 0.555990 0.006081 0.662662
Si Si7 0.036193 0.673366 0.659850
Si Si8 0.773925 0.116041 0.647116
O O1 0.996313 0.948700 0.207335
O O2 0.036305 0.927648 0.407693
O O3 0.761294 0.007000 0.479483
O O4 0.168993 0.034994 0.250028
O O5 0.338445 0.475163 0.722968
O O6 0.098534 0.378093 0.929811
O O7 0.000000 0.500000 0.000000
O O8 0.534011 0.250000 0.999755
O O9 0.722747 0.169141 0.766077
O O10 0.504674 0.116896 0.040523
O O11 0.327823 0.177705 0.968066
O O12 0.431629 0.439059 0.273869
O O13 0.176322 0.348288 0.292220
O O14 0.952476 0.750000 0.975776
O O15 0.034757 0.651841 0.792437
O O16 0.591625 0.063507 0.735815
O O17 0.047404 0.750000 0.658406
O O18 0.204481 0.645659 0.488242
#
# Coordination Sequence:
#
# PCOD9157642 Si02
#       8
#     4   4   4   4   4   4   4   4
#     4  11  23  39  59  90 123 157 194 252 305 362
#     4  12  25  39  63  91 119 161 207 244 301 365
#     4  10  20  34  58  91 121 153 201 248 293 357
#     4  10  19  37  61  88 121 153 197 247 309 341
#     4   9  20  40  60  85 119 160 202 247 297 357
#     4  11  22  39  60  86 122 155 195 257 294 361
#     4  10  18  34  61  88 118 153 200 246 291 359
#     4  11  20  36  62  92 119 149 200 248 312 341
#
# _framework density 20.297744999999999
#
# number of rings (size 3 to 8) (size 9 to 14) (size 15 to 20)
#    0.000    1.500    3.750    4.125    1.750    1.000 
#    0.000    1.250    0.000    0.000    0.000    0.000 
#    0.000    0.000    0.000    0.000    0.000    0.000 
#
# Total GULP energy -178316.694893 kJ/mol
# GULP energy per Si atom -5572.396715 kJ/mol
# Density = 2.025155 g / cm^3
# Si number density = 20.297745 Si / 1000 Ang^3
#
#
#
# Elastic Constant Matrix: (Units=GPa)
#
#
# Indices 1 2 3 4 5 6 
#
# 1 46.9959 25.1995 15.9709 0.0000 9.3023 0.0000
# 2 25.1995 101.3310 49.0050 0.0000 17.7798 0.0000
# 3 15.9709 49.0050 91.6490 0.0000 9.9987 0.0000
# 4 0.0000 0.0000 0.0000 32.8861 0.0000 6.3844
# 5 9.3023 17.7798 9.9987 0.0000 30.0531 0.0000
# 6 0.0000 0.0000 0.0000 6.3844 0.0000 17.7928
#
#
#
# Elastic Compliance Matrix: (Units=1/GPa)
#
#
# Indices 1 2 3 4 5 6 
#
# 1 0.025214 -0.004846 -0.001311 0.000000 -0.004501 0.000000
# 2 -0.004846 0.015260 -0.006738 0.000000 -0.005286 0.000000
# 3 -0.001311 -0.006738 0.014801 0.000000 -0.000532 0.000000
# 4 0.000000 0.000000 0.000000 0.032685 0.000000 -0.011728
# 5 -0.004501 -0.005286 -0.000532 0.000000 0.037972 0.000000
# 6 0.000000 0.000000 0.000000 -0.011728 0.000000 0.060410
#
#
# Mechanical properties :
#
#
# Convention : Reuss Voigt Hill
#
# Bulk Modulus (GPa) = 33.91859 46.70298 40.31079
# Shear Modulus (GPa) = 22.52643 26.13310 24.32977
#
# Velocity S-wave (km/s) = 3.33498 3.59205 3.46590
# Velocity P-wave (km/s) = 5.61927 6.34529 5.99328
#
# Compressibility (1/GPa) = 0.02948236
#
# Stress axis : x y z
#
# Youngs Moduli (GPa) = 39.66102 65.53012 67.56396
#
# Poissons Ratio (x) = 0.31758 0.08860
# Poissons Ratio (y) = 0.19221 0.45527
# Poissons Ratio (z) = 0.05201 0.44157
#
# Static dielectric constant tensor:
#      x y z
#    x 1.714810 0.000000 -0.022180 
#    y 0.000000 1.752730 0.000000 
#    z -0.022180 0.000000 1.835130 
# 
# From -- ./inp_files/32802.got.cif
#   From: 2010.05.17/outbox.cif.g08.bks.cpg/sg11_17_cif.got.tgz:32802.got - 2010.06.03 12:22:45.
