data_PCOD9157586
_publ_section_title
;
Structure prediction by ZEFSAII (Michael W. Deem and Ramdas Pophale) SiO2 
 PCOD9157586
Probable space group: P 21/M
;
_chemical_formula_sum "Si O2"
_cell_formula_units_Z 32
_cell_length_a 16.801424
_cell_length_b 8.589096
_cell_length_c 21.166659
_cell_angle_alpha 90.000000
_cell_angle_beta 36.392835
_cell_angle_gamma 90.000000
_cell_volume 1812.314448
_symmetry_space_group_name_H-M "P 21/M"
_symmetry_group_IT_number 11
_symmetry_cell_setting 'monoclinic'
loop_
_space_group_symop_operation_xyz
x,y,z
-x,1/2+y,-z
-x,-y,-z
x,1/2-y,z
loop_
_atom_site_type_symbol
_atom_site_label
_atom_site_fract_x
_atom_site_fract_y
_atom_site_fract_z
Si Si1 0.633859 0.563757 0.491330
Si Si2 0.364610 0.062404 0.009252
Si Si3 0.066950 0.563242 0.893880
Si Si4 0.083753 0.439741 0.136737
Si Si5 0.097119 0.561784 0.627961
Si Si6 0.650095 0.937478 0.833987
Si Si7 0.656050 0.563721 0.330128
Si Si8 0.938064 0.561757 0.603907
O O1 0.626948 0.750000 0.497456
O O2 0.754457 0.503637 0.457272
O O3 0.665094 0.515620 0.398510
O O4 0.488701 0.494695 0.600509
O O5 0.368301 0.250000 0.005451
O O6 0.236851 0.009608 0.050377
O O7 0.341455 0.015508 0.097399
O O8 0.509798 0.999739 0.897242
O O9 0.065335 0.750000 0.895855
O O10 0.218844 0.506085 0.787073
O O11 0.982800 0.509064 0.886065
O O12 0.000000 0.500000 0.000000
O O13 0.084106 0.250000 0.136615
O O14 0.993481 0.488044 0.254253
O O15 0.102491 0.750000 0.625437
O O16 0.025603 0.513410 0.608842
O O17 0.646974 0.750000 0.834838
O O18 0.784426 0.990037 0.712983
O O19 0.660983 0.750000 0.324130
O O20 0.937898 0.750000 0.602992
O O21 0.000000 0.500000 0.500000
#
# Coordination Sequence:
#
# PCOD9157586 Si02
#       8
#     4   4   4   4   4   4   4   4
#     4  10  20  33  54  85 114 139 175 229 280 323
#     4   9  16  30  53  79 103 131 173 219 259 310
#     4  11  22  37  57  80 110 147 184 226 277 331
#     4   9  17  32  56  80 103 137 182 224 265 317
#     4  10  18  34  57  80 105 141 186 228 271 322
#     4   9  17  31  50  76 107 137 168 212 266 312
#     4  10  20  35  55  81 112 145 181 221 272 333
#     4  10  21  36  55  77 109 147 182 221 271 327
#
# _framework density 17.656980000000001
#
# number of rings (size 3 to 8) (size 9 to 14) (size 15 to 20)
#    0.000    2.250    2.500    1.125    0.000    2.000 
#    0.000    3.125    0.000    4.500    0.000    0.000 
#    0.000    0.000    0.000    0.000    0.000    0.000 
#
# Total GULP energy -178547.943510 kJ/mol
# GULP energy per Si atom -5579.623235 kJ/mol
# Density = 1.761679 g / cm^3
# Si number density = 17.656980 Si / 1000 Ang^3
#
#
#
# Elastic Constant Matrix: (Units=GPa)
#
#
# Indices 1 2 3 4 5 6 
#
# 1 125.0227 25.6682 98.2182 0.0000 -13.8598 0.0000
# 2 25.6682 21.3914 35.7921 0.0000 -2.7964 0.0000
# 3 98.2182 35.7921 181.7342 0.0000 -19.5133 0.0000
# 4 0.0000 0.0000 0.0000 30.9725 0.0000 -2.7496
# 5 -13.8598 -2.7964 -19.5133 0.0000 33.3586 0.0000
# 6 0.0000 0.0000 0.0000 -2.7496 0.0000 24.5068
#
#
#
# Elastic Compliance Matrix: (Units=1/GPa)
#
#
# Indices 1 2 3 4 5 6 
#
# 1 0.014557 -0.006548 -0.006389 0.000000 0.001762 0.000000
# 2 -0.006548 0.072840 -0.011143 0.000000 -0.003133 0.000000
# 3 -0.006389 -0.011143 0.011486 0.000000 0.003130 0.000000
# 4 0.000000 0.000000 0.000000 0.032612 0.000000 0.003659
# 5 0.001762 -0.003133 0.003130 0.000000 0.032278 0.000000
# 6 0.000000 0.000000 0.000000 0.003659 0.000000 0.041216
#
#
# Mechanical properties :
#
#
# Convention : Reuss Voigt Hill
#
# Bulk Modulus (GPa) = 19.71457 71.94503 45.82980
# Shear Modulus (GPa) = 18.51470 28.99887 23.75679
#
# Velocity S-wave (km/s) = 3.24169 4.05698 3.67203
# Velocity P-wave (km/s) = 5.02005 7.92338 6.63253
#
# Compressibility (1/GPa) = 0.05072392
#
# Stress axis : x y z
#
# Youngs Moduli (GPa) = 68.69484 13.72871 87.06217
#
# Poissons Ratio (x) = 0.08989 0.55621
# Poissons Ratio (y) = 0.44979 0.97016
# Poissons Ratio (z) = 0.43887 0.15298
#
# Static dielectric constant tensor:
#      x y z
#    x 1.594540 0.000000 -0.010270 
#    y 0.000000 1.601830 0.000000 
#    z -0.010270 0.000000 1.585020 
# 
# From -- ./inp_files/69417.got.cif
#   From: 2010.05.17/outbox.cif.g08.bks.cpg/sg11_35_cif.got.tgz:69417.got - 2010.06.03 12:22:45.
