data_PCOD9157636
_publ_section_title
;
Structure prediction by ZEFSAII (Michael W. Deem and Ramdas Pophale) SiO2 
 PCOD9157636
Probable space group: P 21/M
;
_chemical_formula_sum "Si O2"
_cell_formula_units_Z 30
_cell_length_a 11.929958
_cell_length_b 14.536996
_cell_length_c 15.766653
_cell_angle_alpha 90.000000
_cell_angle_beta 151.564015
_cell_angle_gamma 90.000000
_cell_volume 1302.030419
_symmetry_space_group_name_H-M "P 21/M"
_symmetry_group_IT_number 11
_symmetry_cell_setting 'monoclinic'
loop_
_space_group_symop_operation_xyz
x,y,z
-x,1/2+y,-z
-x,-y,-z
x,1/2-y,z
loop_
_atom_site_type_symbol
_atom_site_label
_atom_site_fract_x
_atom_site_fract_y
_atom_site_fract_z
Si Si1 0.963854 0.862487 0.988504
Si Si2 0.907294 0.113147 0.497838
Si Si3 0.723631 0.860596 0.662036
Si Si4 0.494890 0.641376 0.347302
Si Si5 0.206609 0.646953 0.389611
Si Si6 0.367473 0.434852 0.737051
Si Si7 0.601068 0.250000 0.192876
Si Si8 0.740958 0.919900 0.009373
O O1 0.945402 0.750000 0.979730
O O2 0.907762 0.893466 0.855019
O O3 0.781123 0.902125 0.935238
O O4 0.229046 0.891492 0.187876
O O5 0.804638 0.151105 0.516734
O O6 0.189955 0.113838 0.683689
O O7 0.800699 0.170908 0.349816
O O8 0.798970 0.012017 0.416719
O O9 0.765868 0.750000 0.685412
O O10 0.687229 0.896143 0.542052
O O11 0.467309 0.876555 0.533083
O O12 0.486374 0.750000 0.356919
O O13 0.550798 0.626266 0.286701
O O14 0.157952 0.750000 0.322313
O O15 0.999067 0.581472 0.220924
O O16 0.589221 0.488636 0.922867
O O17 0.402201 0.332017 0.051767
#
# Coordination Sequence:
#
# PCOD9157636 Si02
#       8
#     4   4   4   4   4   4   2   4
#     4  10  18  34  60  89 122 153 197 249 297 353
#     4  10  22  40  61  87 114 154 206 252 294 349
#     4   9  18  32  57  90 119 149 198 251 292 351
#     4  10  21  39  61  86 120 165 200 239 298 368
#     4  11  19  34  62  94 115 149 202 248 295 352
#     4  10  24  41  57  84 123 160 197 246 305 354
#     4  10  18  34  64  84 108 150 198 248 294 342
#     4  11  20  35  59  91 123 151 193 251 303 348
#
# _framework density 23.040937
#
# number of rings (size 3 to 8) (size 9 to 14) (size 15 to 20)
#    0.000    1.867    3.333    1.600    2.800    1.067 
#    2.400    1.333    0.000    0.000    0.000    0.000 
#    0.000    0.000    0.000    0.000    0.000    0.000 
#
# Total GULP energy -167100.217071 kJ/mol
# GULP energy per Si atom -5570.007236 kJ/mol
# Density = 2.298849 g / cm^3
# Si number density = 23.040937 Si / 1000 Ang^3
#
#
#
# Elastic Constant Matrix: (Units=GPa)
#
#
# Indices 1 2 3 4 5 6 
#
# 1 22.3755 -4.7475 -16.6818 0.0000 7.8877 0.0000
# 2 -4.7475 37.2444 12.2624 0.0000 -4.4761 0.0000
# 3 -16.6818 12.2624 79.1534 0.0000 3.3785 0.0000
# 4 0.0000 0.0000 0.0000 29.3992 0.0000 7.4444
# 5 7.8877 -4.4761 3.3785 0.0000 17.3618 0.0000
# 6 0.0000 0.0000 0.0000 7.4444 0.0000 23.3522
#
#
#
# Elastic Compliance Matrix: (Units=1/GPa)
#
#
# Indices 1 2 3 4 5 6 
#
# 1 0.068676 -0.000677 0.016051 0.000000 -0.034498 0.000000
# 2 -0.000677 0.029511 -0.005095 0.000000 0.008907 0.000000
# 3 0.016051 -0.005095 0.017317 0.000000 -0.011975 0.000000
# 4 0.000000 0.000000 0.000000 0.037001 0.000000 -0.011796
# 5 -0.034498 0.008907 -0.011975 0.000000 0.077898 0.000000
# 6 0.000000 0.000000 0.000000 -0.011796 0.000000 0.046583
#
#
# Mechanical properties :
#
#
# Convention : Reuss Voigt Hill
#
# Bulk Modulus (GPa) = 7.34950 13.38215 10.36583
# Shear Modulus (GPa) = 16.56832 23.88530 20.22681
#
# Velocity S-wave (km/s) = 2.68448 3.22319 2.96609
# Velocity P-wave (km/s) = 3.57844 4.43538 4.02975
#
# Compressibility (1/GPa) = 0.13606365
#
# Stress axis : x y z
#
# Youngs Moduli (GPa) = 14.56114 33.88541 57.74715
#
# Poissons Ratio (x) = 0.02292 -0.92690
# Poissons Ratio (y) = 0.00985 0.29420
# Poissons Ratio (z) = -0.23372 0.17263
#
# Static dielectric constant tensor:
#      x y z
#    x 1.875490 0.000000 -0.014140 
#    y 0.000000 1.893930 0.000000 
#    z -0.014140 0.000000 1.879990 
# 
# From -- ./inp_files/50609.got.cif
#   From: 2010.05.17/outbox.cif.g08.bks.cpg/sg11_26_cif.got.tgz:50609.got - 2010.06.03 12:22:45.
