data_PCOD9157306
_publ_section_title
;
Structure prediction by ZEFSAII (Michael W. Deem and Ramdas Pophale) SiO2 
 PCOD9157306
Probable space group: P 21/M
;
_chemical_formula_sum "Si O2"
_cell_formula_units_Z 26
_cell_length_a 9.767048
_cell_length_b 18.428522
_cell_length_c 13.165634
_cell_angle_alpha 90.000000
_cell_angle_beta 30.703768
_cell_angle_gamma 90.000000
_cell_volume 1209.973782
_symmetry_space_group_name_H-M "P 21/M"
_symmetry_group_IT_number 11
_symmetry_cell_setting 'monoclinic'
loop_
_space_group_symop_operation_xyz
x,y,z
-x,1/2+y,-z
-x,-y,-z
x,1/2-y,z
loop_
_atom_site_type_symbol
_atom_site_label
_atom_site_fract_x
_atom_site_fract_y
_atom_site_fract_z
Si Si1 0.803149 0.250000 0.269464
Si Si2 0.701613 0.405010 0.055317
Si Si3 0.106044 0.750000 0.005458
Si Si4 0.932858 0.594691 0.378495
Si Si5 0.751304 0.528587 0.773082
Si Si6 0.780836 0.094636 0.388292
Si Si7 0.198650 0.250000 0.584201
Si Si8 0.371412 0.989418 0.711394
O O1 0.997168 0.250000 0.045905
O O2 0.812961 0.177038 0.330339
O O3 0.514331 0.250000 0.399349
O O4 0.735262 0.325394 0.080371
O O5 0.399531 0.421541 0.211461
O O6 0.770171 0.465940 0.094780
O O7 0.898493 0.410289 0.834079
O O8 0.910545 0.750000 0.229089
O O9 0.099402 0.546383 0.352316
O O10 0.898063 0.679571 0.414335
O O11 0.646003 0.558664 0.542250
O O12 0.973177 0.571736 0.696448
O O13 0.500000 0.500000 0.000000
O O14 0.776074 0.043758 0.291414
O O15 0.492645 0.070610 0.622439
#
# Coordination Sequence:
#
# PCOD9157306 Si02
#       8
#     2   4   2   4   4   4   2   4
#     4  12  20  39  57  83 121 149 182 254 296 330
#     4  10  19  35  60  82 114 154 191 237 282 350
#     4  10  20  33  57  87 109 149 202 230 292 350
#     4   9  18  33  55  82 113 147 192 236 289 337
#     4   9  20  38  55  83 118 148 188 233 282 342
#     4  10  21  34  59  84 116 152 191 236 295 343
#     4  10  18  32  54  82 112 148 190 242 290 350
#     4  10  19  37  56  86 112 147 197 236 282 341
#
# _framework density 21.488067999999998
#
# number of rings (size 3 to 8) (size 9 to 14) (size 15 to 20)
#    0.000    2.154    3.077    0.000    0.000    3.077 
#    0.000   17.692    0.000    2.769    0.000    3.231 
#    0.000    0.000    0.000    0.000    0.000    0.000 
#
# Total GULP energy -145039.912291 kJ/mol
# GULP energy per Si atom -5578.458165 kJ/mol
# Density = 2.143916 g / cm^3
# Si number density = 21.488068 Si / 1000 Ang^3
#
#
#
# Elastic Constant Matrix: (Units=GPa)
#
#
# Indices 1 2 3 4 5 6 
#
# 1 91.4800 31.3205 -7.4714 0.0000 -3.0928 0.0000
# 2 31.3205 139.5313 14.8574 0.0000 -1.5892 0.0000
# 3 -7.4714 14.8574 52.4928 0.0000 10.3219 0.0000
# 4 0.0000 0.0000 0.0000 27.8931 0.0000 8.7543
# 5 -3.0928 -1.5892 10.3219 0.0000 25.0959 0.0000
# 6 0.0000 0.0000 0.0000 8.7543 0.0000 33.0619
#
#
#
# Elastic Compliance Matrix: (Units=1/GPa)
#
#
# Indices 1 2 3 4 5 6 
#
# 1 0.012174 -0.002999 0.002528 0.000000 0.000271 0.000000
# 2 -0.002999 0.008177 -0.003014 0.000000 0.001388 0.000000
# 3 0.002528 -0.003014 0.022020 0.000000 -0.008936 0.000000
# 4 0.000000 0.000000 0.000000 0.039100 0.000000 -0.010353
# 5 0.000271 0.001388 -0.008936 0.000000 0.043644 0.000000
# 6 0.000000 0.000000 0.000000 -0.010353 0.000000 0.032988
#
#
# Mechanical properties :
#
#
# Convention : Reuss Voigt Hill
#
# Bulk Modulus (GPa) = 28.24722 40.10189 34.17456
# Shear Modulus (GPa) = 28.26898 33.53003 30.89950
#
# Velocity S-wave (km/s) = 3.63101 3.95448 3.79619
# Velocity P-wave (km/s) = 5.54554 6.28915 5.92902
#
# Compressibility (1/GPa) = 0.03540171
#
# Stress axis : x y z
#
# Youngs Moduli (GPa) = 82.14437 122.29833 45.41257
#
# Poissons Ratio (x) = 0.36674 -0.11482
# Poissons Ratio (y) = 0.24633 0.13688
# Poissons Ratio (z) = -0.20768 0.36861
#
# Static dielectric constant tensor:
#      x y z
#    x 1.784970 0.000000 0.053720 
#    y 0.000000 1.786350 0.000000 
#    z 0.053720 0.000000 1.934580 
# 
# From -- ./inp_files/32782.got.cif
#   From: 2010.05.17/outbox.cif.g08.bks.cpg/sg11_17_cif.got.tgz:32782.got - 2010.06.03 12:22:45.
