data_PCOD9157247
_publ_section_title
;
Structure prediction by ZEFSAII (Michael W. Deem and Ramdas Pophale) SiO2 
 PCOD9157247
Probable space group: P 21/M
;
_chemical_formula_sum "Si O2"
_cell_formula_units_Z 24
_cell_length_a 9.423440
_cell_length_b 8.606760
_cell_length_c 24.892549
_cell_angle_alpha 90.000000
_cell_angle_beta 40.738924
_cell_angle_gamma 90.000000
_cell_volume 1317.572279
_symmetry_space_group_name_H-M "P 21/M"
_symmetry_group_IT_number 11
_symmetry_cell_setting 'monoclinic'
loop_
_space_group_symop_operation_xyz
x,y,z
-x,1/2+y,-z
-x,-y,-z
x,1/2-y,z
loop_
_atom_site_type_symbol
_atom_site_label
_atom_site_fract_x
_atom_site_fract_y
_atom_site_fract_z
Si Si1 0.526537 0.563653 0.826491
Si Si2 0.645415 0.436355 0.005795
Si Si3 0.151349 0.935845 0.503773
Si Si4 0.907082 0.936972 0.083266
Si Si5 0.996625 0.435243 0.663342
Si Si6 0.579846 0.435845 0.419149
O O1 0.544559 0.750000 0.819009
O O2 0.331779 0.508366 0.843289
O O3 0.754737 0.486183 0.747581
O O4 0.453056 0.517670 0.907992
O O5 0.640718 0.250000 0.005608
O O6 0.900520 0.482319 0.930863
O O7 0.500000 0.500000 0.000000
O O8 0.156066 0.750000 0.501828
O O9 0.398573 0.000370 0.430368
O O10 0.000000 0.000000 0.500000
O O11 0.054825 0.994283 0.588303
O O12 0.892249 0.750000 0.085638
O O13 0.000000 0.000000 0.000000
O O14 0.017471 0.250000 0.654888
O O15 0.174693 0.501637 0.654288
O O16 0.500000 0.500000 0.500000
O O17 0.577648 0.250000 0.420166
#
# Coordination Sequence:
#
# PCOD9157247 Si02
#       6
#     4   4   4   4   4   4
#     4  10  20  35  53  77 104 135 173 216 260 309
#     4   9  19  33  52  76 104 133 169 210 254 305
#     4  11  21  36  56  80 108 139 174 216 261 311
#     4   9  17  31  50  74 100 133 172 211 253 308
#     4  11  21  35  55  80 106 138 176 217 262 312
#     4  10  18  32  53  77 104 138 176 214 255 309
#
# _framework density 18.215319000000001
#
# number of rings (size 3 to 8) (size 9 to 14) (size 15 to 20)
#    0.000    2.000    0.000    8.500    0.000    4.000 
#    0.000    1.667    0.000    4.000    0.000    0.000 
#    0.000    0.000    0.000    0.000    0.000    0.000 
#
# Total GULP energy -133863.757001 kJ/mol
# GULP energy per Si atom -5577.656542 kJ/mol
# Density = 1.817386 g / cm^3
# Si number density = 18.215319 Si / 1000 Ang^3
#
#
#
# Elastic Constant Matrix: (Units=GPa)
#
#
# Indices 1 2 3 4 5 6 
#
# 1 198.5853 65.9380 54.6074 0.0000 -33.4248 0.0000
# 2 65.9380 141.1220 31.1130 0.0000 -17.2885 0.0000
# 3 54.6074 31.1130 53.2121 0.0000 -28.8871 0.0000
# 4 0.0000 0.0000 0.0000 24.9821 0.0000 -4.8522
# 5 -33.4248 -17.2885 -28.8871 0.0000 34.6419 0.0000
# 6 0.0000 0.0000 0.0000 -4.8522 0.0000 37.7722
#
#
#
# Elastic Compliance Matrix: (Units=1/GPa)
#
#
# Indices 1 2 3 4 5 6 
#
# 1 0.007551 -0.002084 -0.005737 0.000000 0.001462 0.000000
# 2 -0.002084 0.008711 -0.003080 0.000000 -0.000233 0.000000
# 3 -0.005737 -0.003080 0.041369 0.000000 0.027424 0.000000
# 4 0.000000 0.000000 0.000000 0.041053 0.000000 0.005274
# 5 0.001462 -0.000233 0.027424 0.000000 0.053029 0.000000
# 6 0.000000 0.000000 0.000000 0.005274 0.000000 0.027152
#
#
# Mechanical properties :
#
#
# Convention : Reuss Voigt Hill
#
# Bulk Modulus (GPa) = 27.91178 77.35960 52.63569
# Shear Modulus (GPa) = 23.51715 35.56328 29.54022
#
# Velocity S-wave (km/s) = 3.59704 4.42337 4.03143
# Velocity P-wave (km/s) = 5.71035 8.28553 7.11541
#
# Compressibility (1/GPa) = 0.03582716
#
# Stress axis : x y z
#
# Youngs Moduli (GPa) = 132.42673 114.80283 24.17283
#
# Poissons Ratio (x) = 0.23929 0.13868
# Poissons Ratio (y) = 0.27603 0.07446
# Poissons Ratio (z) = 0.75974 0.35363
#
# Static dielectric constant tensor:
#      x y z
#    x 1.667010 0.000000 -0.028980 
#    y 0.000000 1.601780 0.000000 
#    z -0.028980 0.000000 1.604020 
# 
# From -- ./inp_files/63099.got.cif
#   From: 2010.05.17/outbox.cif.g08.bks.cpg/sg11_32_cif.got.tgz:63099.got - 2010.06.03 12:22:45.
