data_PCOD9157179
_publ_section_title
;
Structure prediction by ZEFSAII (Michael W. Deem and Ramdas Pophale) SiO2 
 PCOD9157179
Probable space group: P 21/M
;
_chemical_formula_sum "Si O2"
_cell_formula_units_Z 28
_cell_length_a 22.216906
_cell_length_b 11.953145
_cell_length_c 12.826941
_cell_angle_alpha 90.000000
_cell_angle_beta 29.999891
_cell_angle_gamma 90.000000
_cell_volume 1703.167792
_symmetry_space_group_name_H-M "P 21/M"
_symmetry_group_IT_number 11
_symmetry_cell_setting 'monoclinic'
loop_
_space_group_symop_operation_xyz
x,y,z
-x,1/2+y,-z
-x,-y,-z
x,1/2-y,z
loop_
_atom_site_type_symbol
_atom_site_label
_atom_site_fract_x
_atom_site_fract_y
_atom_site_fract_z
Si Si1 0.080932 0.623037 0.499699
Si Si2 0.419370 0.376962 0.742191
Si Si3 0.037439 0.968047 0.789870
Si Si4 0.635254 0.968047 0.402183
Si Si5 0.827309 0.531953 0.807944
Si Si6 0.833334 0.118235 0.999998
Si Si7 0.161561 0.123038 0.757508
O O1 0.119880 0.750000 0.420272
O O2 0.077956 0.599410 0.627552
O O3 0.157322 0.528074 0.325867
O O4 0.945038 0.605429 0.658871
O O5 0.459849 0.250000 0.700183
O O6 0.396092 0.394571 0.652853
O O7 0.516811 0.471927 0.623700
O O8 0.294491 0.400590 0.988972
O O9 0.140512 0.028074 0.702166
O O10 0.951195 0.067296 0.877514
O O11 0.951055 0.894571 0.993982
O O12 0.716537 0.900589 0.361417
O O13 0.720096 0.067296 0.231098
O O14 0.828710 0.432703 0.891384
O O15 0.833335 0.250000 0.999998
O O16 0.160031 0.250000 0.720089
#
# Coordination Sequence:
#
# PCOD9157179 Si02
#       7
#     4   4   4   4   4   4   4
#     4  10  18  32  48  69  98 126 153 194 233 274
#     4  10  18  32  48  69  98 126 153 194 233 274
#     4   9  19  29  47  72  94 124 163 187 227 287
#     4   9  19  29  47  72  94 124 163 187 227 287
#     4   9  19  29  47  72  94 124 163 187 227 287
#     4   9  15  27  43  68 100 126 150 192 232 266
#     4  10  18  32  48  69  98 126 153 194 233 274
#
# _framework density 16.439955000000001
#
# number of rings (size 3 to 8) (size 9 to 14) (size 15 to 20)
#    0.000    2.571    0.000    3.429    0.000    0.000 
#    0.000    6.429    0.000    0.857    0.000    0.000 
#    0.000    0.000    0.000    0.000    0.000    0.000 
#
# Total GULP energy -156076.419618 kJ/mol
# GULP energy per Si atom -5574.157843 kJ/mol
# Density = 1.640254 g / cm^3
# Si number density = 16.439955 Si / 1000 Ang^3
#
#
#
# Elastic Constant Matrix: (Units=GPa)
#
#
# Indices 1 2 3 4 5 6 
#
# 1 48.4852 2.0315 6.7976 0.0000 0.0001 0.0000
# 2 2.0315 69.7933 2.0315 0.0000 0.0001 0.0000
# 3 6.7976 2.0315 48.4833 0.0000 0.0005 0.0000
# 4 0.0000 0.0000 0.0000 6.8289 0.0000 0.0000
# 5 0.0001 0.0001 0.0005 0.0000 20.8434 0.0000
# 6 0.0000 0.0000 0.0000 0.0000 0.0000 6.8296
#
#
#
# Elastic Compliance Matrix: (Units=1/GPa)
#
#
# Indices 1 2 3 4 5 6 
#
# 1 0.021058 -0.000528 -0.002930 0.000000 0.000000 0.000000
# 2 -0.000528 0.014359 -0.000528 0.000000 0.000000 0.000000
# 3 -0.002930 -0.000528 0.021059 0.000000 0.000000 0.000000
# 4 0.000000 0.000000 0.000000 0.146436 0.000000 -0.000001
# 5 0.000000 0.000000 0.000000 0.000000 0.047977 0.000000
# 6 0.000000 0.000000 0.000000 -0.000001 0.000000 0.146422
#
#
# Mechanical properties :
#
#
# Convention : Reuss Voigt Hill
#
# Bulk Modulus (GPa) = 20.61691 20.94257 20.77974
# Shear Modulus (GPa) = 11.86384 17.29380 14.57882
#
# Velocity S-wave (km/s) = 2.68926 3.24688 2.98114
# Velocity P-wave (km/s) = 4.71283 5.17907 4.95144
#
# Compressibility (1/GPa) = 0.04850387
#
# Stress axis : x y z
#
# Youngs Moduli (GPa) = 47.48840 69.64402 47.48656
#
# Poissons Ratio (x) = 0.03675 0.13915
# Poissons Ratio (y) = 0.02506 0.02506
# Poissons Ratio (z) = 0.13916 0.03675
#
# Static dielectric constant tensor:
#      x y z
#    x 1.561280 0.000000 0.000000 
#    y 0.000000 1.526260 0.000000 
#    z 0.000000 0.000000 1.561270 
# 
# From -- ./inp_files/43205.got.cif
#   From: 2010.05.17/outbox.cif.g08.bks.cpg/sg11_22_cif.got.tgz:43205.got - 2010.06.03 12:22:45.
