data_PCOD9157826
_publ_section_title
;
Structure prediction by ZEFSAII (Michael W. Deem and Ramdas Pophale) SiO2 
 PCOD9157826
Probable space group: P 21/M
;
_chemical_formula_sum "Si O2"
_cell_formula_units_Z 32
_cell_length_a 16.312890
_cell_length_b 9.014151
_cell_length_c 31.119143
_cell_angle_alpha 90.000000
_cell_angle_beta 150.498256
_cell_angle_gamma 90.000000
_cell_volume 2253.437684
_symmetry_space_group_name_H-M "P 21/M"
_symmetry_group_IT_number 11
_symmetry_cell_setting 'monoclinic'
loop_
_space_group_symop_operation_xyz
x,y,z
-x,1/2+y,-z
-x,-y,-z
x,1/2-y,z
loop_
_atom_site_type_symbol
_atom_site_label
_atom_site_fract_x
_atom_site_fract_y
_atom_site_fract_z
Si Si1 0.706742 0.426354 0.686297
Si Si2 0.244262 0.573845 0.862812
Si Si3 0.849858 0.926612 0.836220
Si Si4 0.756070 0.426727 0.974221
Si Si5 0.900379 0.427123 0.685191
Si Si6 0.179990 0.927573 0.090730
Si Si7 0.396601 0.072505 0.491800
Si Si8 0.602521 0.925609 0.984965
O O1 0.723438 0.250000 0.701906
O O2 0.772818 0.515693 0.756921
O O3 0.814899 0.459742 0.692743
O O4 0.513668 0.457426 0.586295
O O5 0.215944 0.750000 0.852578
O O6 0.411187 0.547121 0.911175
O O7 0.084273 0.493321 0.770536
O O8 0.284351 0.509434 0.928301
O O9 0.834307 0.750000 0.833171
O O10 0.048305 0.961399 0.927883
O O11 0.766030 0.004760 0.839278
O O12 0.735477 0.250000 0.971250
O O13 0.720494 0.460130 0.907810
O O14 0.646715 0.515018 0.958246
O O15 0.901020 0.250000 0.680381
O O16 0.784713 0.501603 0.596042
O O17 0.163909 0.750000 0.086614
O O18 0.000000 0.000000 0.000000
O O19 0.388605 0.250000 0.482643
O O20 0.500000 0.000000 0.500000
O O21 0.633736 0.750000 0.002360
#
# Coordination Sequence:
#
# PCOD9157826 Si02
#       8
#     4   4   4   4   4   4   4   4
#     4   9  18  29  41  60  85 112 141 171 205 246
#     4  10  20  32  44  60  84 112 142 177 214 249
#     4  10  19  28  41  62  85 111 142 173 207 245
#     4   9  18  30  43  60  82 111 143 173 209 249
#     4  10  19  30  45  63  82 110 146 178 212 251
#     4   9  17  29  43  59  81 108 138 171 207 247
#     4   9  17  29  43  60  84 112 141 174 210 248
#     4  10  20  31  44  62  83 110 143 178 213 247
#
# _framework density 14.200525000000001
#
# number of rings (size 3 to 8) (size 9 to 14) (size 15 to 20)
#    0.000    2.500    0.000    4.500    0.000    9.500 
#    0.000    0.000    0.000    0.000    0.000    0.000 
#    0.000    1.000    0.000    3.250    0.000    4.000 
#
# Total GULP energy -178305.722958 kJ/mol
# GULP energy per Si atom -5572.053842 kJ/mol
# Density = 1.416820 g / cm^3
# Si number density = 14.200525 Si / 1000 Ang^3
#
#
#
# Elastic Constant Matrix: (Units=GPa)
#
#
# Indices 1 2 3 4 5 6 
#
# 1 67.3520 38.1624 16.0960 0.0000 -9.8493 0.0000
# 2 38.1624 56.9711 38.6947 0.0000 -5.1890 0.0000
# 3 16.0960 38.6947 69.6263 0.0000 -3.4008 0.0000
# 4 0.0000 0.0000 0.0000 25.6896 0.0000 -2.4913
# 5 -9.8493 -5.1890 -3.4008 0.0000 16.0209 0.0000
# 6 0.0000 0.0000 0.0000 -2.4913 0.0000 24.2436
#
#
#
# Elastic Compliance Matrix: (Units=1/GPa)
#
#
# Indices 1 2 3 4 5 6 
#
# 1 0.027047 -0.021254 0.006099 0.000000 0.011038 0.000000
# 2 -0.021254 0.045454 -0.020479 0.000000 -0.002692 0.000000
# 3 0.006099 -0.020479 0.024446 0.000000 0.002306 0.000000
# 4 0.000000 0.000000 0.000000 0.039318 0.000000 0.004040
# 5 0.011038 -0.002692 0.002306 0.000000 0.068822 0.000000
# 6 0.000000 0.000000 0.000000 0.004040 0.000000 0.041663
#
#
# Mechanical properties :
#
#
# Convention : Reuss Voigt Hill
#
# Bulk Modulus (GPa) = 38.94388 42.20616 40.57502
# Shear Modulus (GPa) = 15.31016 19.92390 17.61703
#
# Velocity S-wave (km/s) = 3.28707 3.74978 3.52602
# Velocity P-wave (km/s) = 6.47226 6.96663 6.72399
#
# Compressibility (1/GPa) = 0.02567797
#
# Stress axis : x y z
#
# Youngs Moduli (GPa) = 36.97261 22.00013 40.90589
#
# Poissons Ratio (x) = 0.46760 -0.24947
# Poissons Ratio (y) = 0.78583 0.83771
# Poissons Ratio (z) = -0.22548 0.45054
#
# Static dielectric constant tensor:
#      x y z
#    x 1.467540 0.000000 -0.004660 
#    y 0.000000 1.469860 0.000000 
#    z -0.004660 0.000000 1.475860 
# 
# From -- ./inp_files/51222.got.cif
#   From: 2010.05.17/outbox.cif.g08.bks.cpg/sg11_26_cif.got.tgz:51222.got - 2010.06.03 12:22:45.
