data_PCOD9157178
_publ_section_title
;
Structure prediction by ZEFSAII (Michael W. Deem and Ramdas Pophale) SiO2 
 PCOD9157178
Probable space group: P 21/M
;
_chemical_formula_sum "Si O2"
_cell_formula_units_Z 28
_cell_length_a 14.911103
_cell_length_b 8.658733
_cell_length_c 13.807557
_cell_angle_alpha 90.000000
_cell_angle_beta 101.888116
_cell_angle_gamma 90.000000
_cell_volume 1744.475015
_symmetry_space_group_name_H-M "P 21/M"
_symmetry_group_IT_number 11
_symmetry_cell_setting 'monoclinic'
loop_
_space_group_symop_operation_xyz
x,y,z
-x,1/2+y,-z
-x,-y,-z
x,1/2-y,z
loop_
_atom_site_type_symbol
_atom_site_label
_atom_site_fract_x
_atom_site_fract_y
_atom_site_fract_z
Si Si1 0.895568 0.931005 0.574283
Si Si2 0.935958 0.933707 0.276188
Si Si3 0.214056 0.566872 0.630971
Si Si4 0.602051 0.565385 0.408871
Si Si5 0.785344 0.931424 0.751383
Si Si6 0.403623 0.062780 0.364722
Si Si7 0.966169 0.936536 0.890531
O O1 0.909442 0.750000 0.554308
O O2 0.831549 0.939734 0.655392
O O3 0.844089 0.013405 0.475726
O O4 0.990663 0.007761 0.627339
O O5 0.939486 0.750000 0.270908
O O6 0.836980 0.990090 0.289424
O O7 0.969167 0.006659 0.182567
O O8 0.211002 0.750000 0.639382
O O9 0.316936 0.509768 0.634574
O O10 0.608272 0.750000 0.403273
O O11 0.613496 0.523717 0.525622
O O12 0.501089 0.507596 0.358098
O O13 0.774963 0.750000 0.772345
O O14 0.682876 0.994758 0.717223
O O15 0.862846 0.993518 0.841062
O O16 0.408239 0.250000 0.360641
O O17 0.965584 0.750000 0.890145
O O18 0.000000 0.000000 0.000000
#
# Coordination Sequence:
#
# PCOD9157178 Si02
#       7
#     4   4   4   4   4   4   4
#     4  10  18  32  48  68  98 133 168 205 243 290
#     4  11  22  35  50  71  97 129 166 206 248 299
#     4  12  22  32  46  68  97 135 173 206 244 292
#     4  10  19  30  45  67  97 133 170 209 247 284
#     4   8  15  29  50  71  96 130 165 201 244 290
#     4   9  16  30  47  67  95 131 170 206 245 288
#     4  10  20  36  56  78 102 129 162 206 253 299
#
# _framework density 16.050673
#
# number of rings (size 3 to 8) (size 9 to 14) (size 15 to 20)
#    0.000    2.000    1.429    5.143    0.000    0.571 
#    0.000    1.429    0.000    0.000    0.000    1.000 
#    0.000    0.000    0.000    0.000    0.000    0.000 
#
# Total GULP energy -156216.526951 kJ/mol
# GULP energy per Si atom -5579.161677 kJ/mol
# Density = 1.601414 g / cm^3
# Si number density = 16.050673 Si / 1000 Ang^3
#
#
#
# Elastic Constant Matrix: (Units=GPa)
#
#
# Indices 1 2 3 4 5 6 
#
# 1 138.8192 41.0661 52.5688 0.0000 9.0289 0.0000
# 2 41.0661 72.5648 18.3650 0.0000 1.8923 0.0000
# 3 52.5688 18.3650 70.5255 0.0000 14.4516 0.0000
# 4 0.0000 0.0000 0.0000 21.4567 0.0000 -0.7459
# 5 9.0289 1.8923 14.4516 0.0000 15.5239 0.0000
# 6 0.0000 0.0000 0.0000 -0.7459 0.0000 25.5830
#
#
#
# Elastic Compliance Matrix: (Units=1/GPa)
#
#
# Indices 1 2 3 4 5 6 
#
# 1 0.011299 -0.004539 -0.007423 0.000000 0.000892 0.000000
# 2 -0.004539 0.016637 -0.001328 0.000000 0.001848 0.000000
# 3 -0.007423 -0.001328 0.023652 0.000000 -0.017539 0.000000
# 4 0.000000 0.000000 0.000000 0.046653 0.000000 0.001360
# 5 0.000892 0.001848 -0.017539 0.000000 0.080001 0.000000
# 6 0.000000 0.000000 0.000000 0.001360 0.000000 0.039128
#
#
# Mechanical properties :
#
#
# Convention : Reuss Voigt Hill
#
# Bulk Modulus (GPa) = 39.98568 56.21215 48.09891
# Shear Modulus (GPa) = 19.81871 23.84003 21.82937
#
# Velocity S-wave (km/s) = 3.51773 3.85814 3.69186
# Velocity P-wave (km/s) = 6.43937 7.41247 6.94299
#
# Compressibility (1/GPa) = 0.02500895
#
# Stress axis : x y z
#
# Youngs Moduli (GPa) = 88.49961 60.10542 42.27945
#
# Poissons Ratio (x) = 0.27283 0.31385
# Poissons Ratio (y) = 0.40172 0.05613
# Poissons Ratio (z) = 0.65695 0.07980
#
# Static dielectric constant tensor:
#      x y z
#    x 1.563010 0.000000 0.008340 
#    y 0.000000 1.537880 0.000000 
#    z 0.008340 0.000000 1.518980 
# 
# From -- ./inp_files/51032.got.cif
#   From: 2010.05.17/outbox.cif.g08.bks.cpg/sg11_26_cif.got.tgz:51032.got - 2010.06.03 12:22:45.
