data_PCOD9157711
_publ_section_title
;
Structure prediction by ZEFSAII (Michael W. Deem and Ramdas Pophale) SiO2 
 PCOD9157711
Probable space group: P 21/M
;
_chemical_formula_sum "Si O2"
_cell_formula_units_Z 28
_cell_length_a 5.311851
_cell_length_b 16.222816
_cell_length_c 16.085398
_cell_angle_alpha 90.000000
_cell_angle_beta 112.384165
_cell_angle_gamma 90.000000
_cell_volume 1281.686854
_symmetry_space_group_name_H-M "P 21/M"
_symmetry_group_IT_number 11
_symmetry_cell_setting 'monoclinic'
loop_
_space_group_symop_operation_xyz
x,y,z
-x,1/2+y,-z
-x,-y,-z
x,1/2-y,z
loop_
_atom_site_type_symbol
_atom_site_label
_atom_site_fract_x
_atom_site_fract_y
_atom_site_fract_z
Si Si1 0.495140 0.420071 0.557990
Si Si2 0.110107 0.460565 0.136615
Si Si3 0.876181 0.250000 0.899476
Si Si4 0.718245 0.414245 0.965868
Si Si5 0.246265 0.250000 0.784973
Si Si6 0.568684 0.039522 0.305094
Si Si7 0.177816 0.420503 0.795073
Si Si8 0.887015 0.153284 0.477328
O O1 0.500000 0.500000 0.500000
O O2 0.540123 0.463382 0.652211
O O3 0.717658 0.363081 0.541050
O O4 0.196904 0.379087 0.521943
O O5 0.236795 0.493270 0.066491
O O6 0.321525 0.416816 0.223985
O O7 0.058762 0.547307 0.176258
O O8 0.823778 0.421182 0.073977
O O9 0.881894 0.333752 0.953861
O O10 0.573738 0.250000 0.819754
O O11 0.109596 0.250000 0.859890
O O12 0.418873 0.399998 0.891381
O O13 0.141417 0.337232 0.738437
O O14 0.737364 0.100334 0.385612
O O15 0.747730 0.995092 0.256762
O O16 0.884885 0.250000 0.458117
#
# Coordination Sequence:
#
# PCOD9157711 Si02
#       8
#     4   4   2   4   2   4   4   4
#     4  10  22  43  71  95 124 172 216 257 321 401
#     4  10  19  34  58  85 120 163 212 260 304 380
#     4  10  18  36  56  76 112 160 208 266 306 360
#     4   9  19  34  54  84 116 165 220 250 309 372
#     4  10  20  36  56  82 116 160 208 264 320 352
#     4  10  23  38  63  95 124 167 209 261 326 381
#     4  10  20  35  59  87 125 169 211 266 317 376
#     4  11  24  45  71  97 133 170 212 264 328 400
#
# _framework density 21.846209000000002
#
# number of rings (size 3 to 8) (size 9 to 14) (size 15 to 20)
#    0.000    2.000    1.429    2.571    6.000    0.000 
#    3.857    0.000    1.571    0.000    0.000    0.000 
#    0.000    0.000    0.000    0.000    0.000    0.000 
#
# Total GULP energy -155874.339231 kJ/mol
# GULP energy per Si atom -5566.940687 kJ/mol
# Density = 2.179649 g / cm^3
# Si number density = 21.846209 Si / 1000 Ang^3
#
#
#
# Elastic Constant Matrix: (Units=GPa)
#
#
# Indices 1 2 3 4 5 6 
#
# 1 85.6370 27.9603 38.7457 0.0000 9.2181 0.0000
# 2 27.9603 99.9828 42.0884 0.0000 5.7893 0.0000
# 3 38.7457 42.0884 143.4711 0.0000 26.4184 0.0000
# 4 0.0000 0.0000 0.0000 20.1378 0.0000 -1.9030
# 5 9.2181 5.7893 26.4184 0.0000 21.9174 0.0000
# 6 0.0000 0.0000 0.0000 -1.9030 0.0000 24.8555
#
#
#
# Elastic Compliance Matrix: (Units=1/GPa)
#
#
# Indices 1 2 3 4 5 6 
#
# 1 0.013951 -0.002687 -0.002609 0.000000 -0.002014 0.000000
# 2 -0.002687 0.011958 -0.003096 0.000000 0.001703 0.000000
# 3 -0.002609 -0.003096 0.010578 0.000000 -0.010835 0.000000
# 4 0.000000 0.000000 0.000000 0.050020 0.000000 0.003830
# 5 -0.002014 0.001703 -0.010835 0.000000 0.059083 0.000000
# 6 0.000000 0.000000 0.000000 0.003830 0.000000 0.040526
#
#
# Mechanical properties :
#
#
# Convention : Reuss Voigt Hill
#
# Bulk Modulus (GPa) = 50.75055 60.74221 55.74638
# Shear Modulus (GPa) = 23.87010 28.06857 25.96934
#
# Velocity S-wave (km/s) = 3.30910 3.58834 3.45154
# Velocity P-wave (km/s) = 6.15479 6.71066 6.43873
#
# Compressibility (1/GPa) = 0.01970422
#
# Stress axis : x y z
#
# Youngs Moduli (GPa) = 71.67701 83.62808 94.53615
#
# Poissons Ratio (x) = 0.22469 0.24662
# Poissons Ratio (y) = 0.19258 0.29268
# Poissons Ratio (z) = 0.18699 0.25891
#
# Static dielectric constant tensor:
#      x y z
#    x 1.926500 0.000000 -0.029860 
#    y 0.000000 1.831190 0.000000 
#    z -0.029860 0.000000 1.882760 
# 
# From -- ./inp_files/46099.got.cif
#   From: 2010.05.17/outbox.cif.g08.bks.cpg/sg11_24_cif.got.tgz:46099.got - 2010.06.03 12:22:45.
