data_PCOD9157999
_publ_section_title
;
Structure prediction by ZEFSAII (Michael W. Deem and Ramdas Pophale) SiO2 
 PCOD9157999
Probable space group: P 21/M
;
_chemical_formula_sum "Si O2"
_cell_formula_units_Z 32
_cell_length_a 11.048808
_cell_length_b 17.049175
_cell_length_c 13.714798
_cell_angle_alpha 90.000000
_cell_angle_beta 51.636677
_cell_angle_gamma 90.000000
_cell_volume 2025.697688
_symmetry_space_group_name_H-M "P 21/M"
_symmetry_group_IT_number 11
_symmetry_cell_setting 'monoclinic'
loop_
_space_group_symop_operation_xyz
x,y,z
-x,1/2+y,-z
-x,-y,-z
x,1/2-y,z
loop_
_atom_site_type_symbol
_atom_site_label
_atom_site_fract_x
_atom_site_fract_y
_atom_site_fract_z
Si Si1 0.988894 0.164836 0.118622
Si Si2 0.349939 0.658586 0.209115
Si Si3 0.159353 0.539832 0.171688
Si Si4 0.159353 0.960168 0.668959
Si Si5 0.312581 0.413792 0.730360
Si Si6 0.011106 0.835164 0.107516
Si Si7 0.349939 0.841414 0.440946
Si Si8 0.687419 0.913792 0.042941
O O1 0.954818 0.250000 0.178440
O O2 0.901199 0.096457 0.215959
O O3 0.170822 0.147010 0.032816
O O4 0.946020 0.164570 0.026990
O O5 0.331832 0.750000 0.187073
O O6 0.243900 0.595558 0.206605
O O7 0.318909 0.655876 0.340546
O O8 0.526125 0.629582 0.106572
O O9 0.271158 0.477754 0.060853
O O10 1.000000 0.500000 0.290023
O O11 0.098801 0.596457 0.117158
O O12 0.243900 0.904442 0.549496
O O13 0.271158 0.022246 0.667989
O O14 0.170822 0.352990 0.796362
O O15 0.473875 0.370418 0.632697
O O16 0.312989 0.444632 0.843506
O O17 0.045182 0.750000 0.133257
O O18 0.331832 0.750000 0.481094
#
# Coordination Sequence:
#
# PCOD9157999 Si02
#       8
#     4   4   4   4   4   4   4   4
#     4   9  16  27  45  69  95 120 145 177 220 266
#     4  10  20  33  48  65  87 118 154 187 216 253
#     4  10  19  30  46  68  93 118 145 181 224 266
#     4  10  19  30  46  68  93 118 145 181 224 266
#     4   9  17  30  48  69  91 115 146 183 222 263
#     4   9  16  27  45  69  95 120 145 177 220 266
#     4  10  20  33  48  65  87 118 154 187 216 253
#     4   9  17  30  48  69  91 115 146 183 222 263
#
# _framework density 15.797026000000001
#
# number of rings (size 3 to 8) (size 9 to 14) (size 15 to 20)
#    0.000    2.500    0.000    3.000    0.000    6.500 
#    0.000    0.000    0.000    0.000    0.000    0.000 
#    0.000    8.000    0.000    0.000    0.000    0.000 
#
# Total GULP energy -178143.950625 kJ/mol
# GULP energy per Si atom -5566.998457 kJ/mol
# Density = 1.576107 g / cm^3
# Si number density = 15.797026 Si / 1000 Ang^3
#
#
#
# Elastic Constant Matrix: (Units=GPa)
#
#
# Indices 1 2 3 4 5 6 
#
# 1 60.2792 33.9707 26.4010 0.0000 0.4775 0.0000
# 2 33.9707 95.7013 35.0631 0.0000 1.3749 0.0000
# 3 26.4010 35.0631 56.6729 0.0000 -5.0165 0.0000
# 4 0.0000 0.0000 0.0000 20.1113 0.0000 6.9574
# 5 0.4775 1.3749 -5.0165 0.0000 10.2140 0.0000
# 6 0.0000 0.0000 0.0000 6.9574 0.0000 14.5834
#
#
#
# Elastic Compliance Matrix: (Units=1/GPa)
#
#
# Indices 1 2 3 4 5 6 
#
# 1 0.023012 -0.005228 -0.007860 0.000000 -0.004233 0.000000
# 2 -0.005228 0.015085 -0.007377 0.000000 -0.005409 0.000000
# 3 -0.007860 -0.007377 0.027172 0.000000 0.014706 0.000000
# 4 0.000000 0.000000 0.000000 0.059552 0.000000 -0.028411
# 5 -0.004233 -0.005409 0.014706 0.000000 0.106053 0.000000
# 6 0.000000 0.000000 0.000000 -0.028411 0.000000 0.082125
#
#
# Mechanical properties :
#
#
# Convention : Reuss Voigt Hill
#
# Bulk Modulus (GPa) = 41.08441 44.83589 42.96015
# Shear Modulus (GPa) = 13.81054 16.79631 15.30343
#
# Velocity S-wave (km/s) = 2.95998 3.26430 3.11586
# Velocity P-wave (km/s) = 6.14379 6.53082 6.34026
#
# Compressibility (1/GPa) = 0.02434013
#
# Stress axis : x y z
#
# Youngs Moduli (GPa) = 43.45599 66.29024 36.80212
#
# Poissons Ratio (x) = 0.34655 0.28928
# Poissons Ratio (y) = 0.22718 0.27147
# Poissons Ratio (z) = 0.34158 0.48899
#
# Static dielectric constant tensor:
#      x y z
#    x 1.521310 0.000000 -0.003110 
#    y 0.000000 1.534990 0.000000 
#    z -0.003110 0.000000 1.518840 
# 
# From -- ./inp_files/36021.got.cif
#   From: 2010.05.17/outbox.cif.g08.bks.cpg/sg11_19_cif.got.tgz:36021.got - 2010.06.03 12:22:45.
