data_PCOD9157865
_publ_section_title
;
Structure prediction by ZEFSAII (Michael W. Deem and Ramdas Pophale) SiO2 
 PCOD9157865
Probable space group: P 21/M
;
_chemical_formula_sum "Si O2"
_cell_formula_units_Z 28
_cell_length_a 12.126264
_cell_length_b 9.273936
_cell_length_c 22.473103
_cell_angle_alpha 90.000000
_cell_angle_beta 45.664482
_cell_angle_gamma 90.000000
_cell_volume 1807.664704
_symmetry_space_group_name_H-M "P 21/M"
_symmetry_group_IT_number 11
_symmetry_cell_setting 'monoclinic'
loop_
_space_group_symop_operation_xyz
x,y,z
-x,1/2+y,-z
-x,-y,-z
x,1/2-y,z
loop_
_atom_site_type_symbol
_atom_site_label
_atom_site_fract_x
_atom_site_fract_y
_atom_site_fract_z
Si Si1 0.164254 0.420462 0.264408
Si Si2 0.283658 0.915569 0.041998
Si Si3 0.349251 0.081030 0.627881
Si Si4 0.048626 0.921157 0.541792
Si Si5 0.993609 0.923561 0.220479
Si Si6 0.339310 0.080688 0.488598
Si Si7 0.446350 0.915626 0.111424
O O1 0.175497 0.250000 0.247924
O O2 0.331928 0.492751 0.195670
O O3 0.082360 0.441659 0.358433
O O4 0.058355 0.495060 0.253934
O O5 0.287671 0.750000 0.019793
O O6 0.365525 0.918401 0.076376
O O7 0.108317 0.959413 0.122844
O O8 0.386146 0.015058 0.961246
O O9 0.384362 0.250000 0.625511
O O10 0.186299 0.043884 0.719479
O O11 0.324552 0.065331 0.565879
O O12 0.493431 0.982992 0.590719
O O13 0.068384 0.750000 0.525268
O O14 0.204727 0.991398 0.508195
O O15 0.000000 0.000000 0.500000
O O16 0.007372 0.750000 0.225308
O O17 0.327325 0.250000 0.478981
O O18 0.454383 0.750000 0.127369
#
# Coordination Sequence:
#
# PCOD9157865 Si02
#       7
#     4   4   4   4   4   4   4
#     4  10  19  29  43  62  84 112 149 188 225 267
#     4   8  14  23  36  56  83 113 146 179 214 256
#     4   9  17  29  46  67  93 121 152 187 224 271
#     4  11  23  36  50  67  89 118 154 195 235 274
#     4   9  16  27  43  63  88 120 151 182 220 264
#     4  10  19  31  48  67  90 119 152 190 230 270
#     4   9  16  25  38  55  80 114 147 178 217 263
#
# _framework density 15.489599
#
# number of rings (size 3 to 8) (size 9 to 14) (size 15 to 20)
#    0.000    2.571    1.429    2.571    0.000    6.286 
#    0.000    0.000    0.000    0.000    0.000    0.000 
#    0.000    1.143    0.000    3.429    0.000    4.857 
#
# Total GULP energy -156015.375571 kJ/mol
# GULP energy per Si atom -5571.977699 kJ/mol
# Density = 1.545434 g / cm^3
# Si number density = 15.489599 Si / 1000 Ang^3
#
#
#
# Elastic Constant Matrix: (Units=GPa)
#
#
# Indices 1 2 3 4 5 6 
#
# 1 47.5091 50.1736 50.9378 0.0000 -15.5344 0.0000
# 2 50.1736 103.3367 75.8234 0.0000 -16.5594 0.0000
# 3 50.9378 75.8234 106.3813 0.0000 -38.8614 0.0000
# 4 0.0000 0.0000 0.0000 24.3627 0.0000 -6.3573
# 5 -15.5344 -16.5594 -38.8614 0.0000 27.1471 0.0000
# 6 0.0000 0.0000 0.0000 -6.3573 0.0000 21.2338
#
#
#
# Elastic Compliance Matrix: (Units=1/GPa)
#
#
# Indices 1 2 3 4 5 6 
#
# 1 0.052037 -0.014708 -0.014324 0.000000 0.000301 0.000000
# 2 -0.014708 0.029338 -0.021811 0.000000 -0.021743 0.000000
# 3 -0.014324 -0.021811 0.050203 0.000000 0.050365 0.000000
# 4 0.000000 0.000000 0.000000 0.044525 0.000000 0.013331
# 5 0.000301 -0.021743 0.050365 0.000000 0.095844 0.000000
# 6 0.000000 0.000000 0.000000 0.013331 0.000000 0.051086
#
#
# Mechanical properties :
#
#
# Convention : Reuss Voigt Hill
#
# Bulk Modulus (GPa) = 33.45225 67.89966 50.67595
# Shear Modulus (GPa) = 11.50268 19.90152 15.70210
#
# Velocity S-wave (km/s) = 2.72804 3.58834 3.18735
# Velocity P-wave (km/s) = 5.61840 7.81659 6.80682
#
# Compressibility (1/GPa) = 0.02989336
#
# Stress axis : x y z
#
# Youngs Moduli (GPa) = 19.21717 34.08580 19.91909
#
# Poissons Ratio (x) = 0.50132 0.28531
# Poissons Ratio (y) = 0.28264 0.43446
# Poissons Ratio (z) = 0.27526 0.74345
#
# Static dielectric constant tensor:
#      x y z
#    x 1.486070 0.000000 -0.028030 
#    y 0.000000 1.517080 0.000000 
#    z -0.028030 0.000000 1.529180 
# 
# From -- ./inp_files/64149.got.cif
#   From: 2010.05.17/outbox.cif.g08.bks.cpg/sg11_33_cif.got.tgz:64149.got - 2010.06.03 12:22:45.
