data_PCOD9157725
_publ_section_title
;
Structure prediction by ZEFSAII (Michael W. Deem and Ramdas Pophale) SiO2 
 PCOD9157725
Probable space group: P 21/M
;
_chemical_formula_sum "Si O2"
_cell_formula_units_Z 32
_cell_length_a 9.570735
_cell_length_b 19.545958
_cell_length_c 11.863491
_cell_angle_alpha 90.000000
_cell_angle_beta 57.328671
_cell_angle_gamma 90.000000
_cell_volume 1868.159206
_symmetry_space_group_name_H-M "P 21/M"
_symmetry_group_IT_number 11
_symmetry_cell_setting 'monoclinic'
loop_
_space_group_symop_operation_xyz
x,y,z
-x,1/2+y,-z
-x,-y,-z
x,1/2-y,z
loop_
_atom_site_type_symbol
_atom_site_label
_atom_site_fract_x
_atom_site_fract_y
_atom_site_fract_z
Si Si1 0.424138 0.967384 0.354039
Si Si2 0.228577 0.456655 0.879698
Si Si3 0.895736 0.671733 0.367428
Si Si4 0.911885 0.048295 0.625981
Si Si5 0.995720 0.032401 0.190236
Si Si6 0.187697 0.831649 0.772897
Si Si7 0.532760 0.608430 0.533952
Si Si8 0.027901 0.172493 0.921932
O O1 0.578831 0.967759 0.202530
O O2 0.269310 0.943973 0.347761
O O3 0.466305 0.918393 0.441871
O O4 0.412008 0.042631 0.415635
O O5 0.164307 0.494951 0.794690
O O6 0.172958 0.378601 0.892629
O O7 0.130709 0.479058 0.033029
O O8 0.908463 0.750000 0.398317
O O9 0.700970 0.651887 0.443270
O O10 0.990961 0.619146 0.404933
O O11 0.985944 0.664964 0.206051
O O12 0.935370 0.006771 0.732271
O O13 0.000000 0.000000 0.500000
O O14 0.935168 0.111432 0.232129
O O15 0.164389 0.750000 0.756988
O O16 0.376654 0.853287 0.661401
O O17 0.132189 0.841289 0.929015
O O18 0.077258 0.250000 0.923377
#
# Coordination Sequence:
#
# PCOD9157725 Si02
#       8
#     4   4   4   4   4   4   4   4
#     4  11  22  34  59  86 117 149 190 246 289 337
#     4  10  18  36  59  87 108 151 199 246 275 342
#     4  11  22  39  61  84 115 153 195 236 292 356
#     4  12  23  38  55  83 121 161 187 238 297 349
#     4  10  20  35  60  82 118 152 197 236 289 348
#     4  10  20  34  58  89 114 145 195 249 292 334
#     4  11  20  37  59  87 115 146 196 241 289 340
#     4   9  18  34  58  85 113 147 189 241 290 335
#
# _framework density 17.129161
#
# number of rings (size 3 to 8) (size 9 to 14) (size 15 to 20)
#    0.000    1.500    5.000    1.125    0.000    0.500 
#    0.000    3.750    0.000    0.000    0.000    0.000 
#    0.000    0.000    0.000    0.000    0.000    0.000 
#
# Total GULP energy -178260.761244 kJ/mol
# GULP energy per Si atom -5570.648789 kJ/mol
# Density = 1.709017 g / cm^3
# Si number density = 17.129161 Si / 1000 Ang^3
#
#
#
# Elastic Constant Matrix: (Units=GPa)
#
#
# Indices 1 2 3 4 5 6 
#
# 1 116.9483 52.9596 42.3246 0.0000 -6.8386 0.0000
# 2 52.9596 117.3491 35.9629 0.0000 5.7342 0.0000
# 3 42.3246 35.9629 73.7778 0.0000 -7.4549 0.0000
# 4 0.0000 0.0000 0.0000 24.4601 0.0000 -0.0248
# 5 -6.8386 5.7342 -7.4549 0.0000 25.4749 0.0000
# 6 0.0000 0.0000 0.0000 -0.0248 0.0000 21.2459
#
#
#
# Elastic Compliance Matrix: (Units=1/GPa)
#
#
# Indices 1 2 3 4 5 6 
#
# 1 0.012363 -0.004276 -0.004715 0.000000 0.002902 0.000000
# 2 -0.004276 0.011867 -0.003830 0.000000 -0.004940 0.000000
# 3 -0.004715 -0.003830 0.018636 0.000000 0.005050 0.000000
# 4 0.000000 0.000000 0.000000 0.040883 0.000000 0.000048
# 5 0.002902 -0.004940 0.005050 0.000000 0.042623 0.000000
# 6 0.000000 0.000000 0.000000 0.000048 0.000000 0.047068
#
#
# Mechanical properties :
#
#
# Convention : Reuss Voigt Hill
#
# Bulk Modulus (GPa) = 58.06068 63.39659 60.72863
# Shear Modulus (GPa) = 24.41110 26.02472 25.21791
#
# Velocity S-wave (km/s) = 3.77917 3.90208 3.84112
# Velocity P-wave (km/s) = 7.28095 7.57581 7.42984
#
# Compressibility (1/GPa) = 0.01722336
#
# Stress axis : x y z
#
# Youngs Moduli (GPa) = 80.88398 84.26878 53.65850
#
# Poissons Ratio (x) = 0.36037 0.25299
# Poissons Ratio (y) = 0.34590 0.20553
# Poissons Ratio (z) = 0.38135 0.32277
#
# Static dielectric constant tensor:
#      x y z
#    x 1.252820 0.000000 0.021720 
#    y 0.000000 1.614960 0.000000 
#    z 0.021720 0.000000 1.627890 
# 
# From -- ./inp_files/32665.got.cif
#   From: 2010.05.17/outbox.cif.g08.bks.cpg/sg11_17_cif.got.tgz:32665.got - 2010.06.03 12:22:45.
