data_PCOD9157989
_publ_section_title
;
Structure prediction by ZEFSAII (Michael W. Deem and Ramdas Pophale) SiO2 
 PCOD9157989
Probable space group: P 21/M
;
_chemical_formula_sum "Si O2"
_cell_formula_units_Z 28
_cell_length_a 31.177747
_cell_length_b 7.831092
_cell_length_c 10.001201
_cell_angle_alpha 90.000000
_cell_angle_beta 142.619917
_cell_angle_gamma 90.000000
_cell_volume 1482.447061
_symmetry_space_group_name_H-M "P 21/M"
_symmetry_group_IT_number 11
_symmetry_cell_setting 'monoclinic'
loop_
_space_group_symop_operation_xyz
x,y,z
-x,1/2+y,-z
-x,-y,-z
x,1/2-y,z
loop_
_atom_site_type_symbol
_atom_site_label
_atom_site_fract_x
_atom_site_fract_y
_atom_site_fract_z
Si Si1 0.846005 0.547474 0.755069
Si Si2 0.278536 0.541039 0.047770
Si Si3 0.847763 0.453237 0.450188
Si Si4 0.001398 0.044784 0.846308
Si Si5 0.562610 0.044769 0.254154
Si Si6 0.720440 0.044089 0.641202
Si Si7 0.563028 0.455162 0.557788
O O1 0.853177 0.750000 0.756663
O O2 0.836791 0.477292 0.581984
O O3 0.780432 0.511994 0.688007
O O4 0.920692 0.482948 0.002981
O O5 0.278306 0.750000 0.043707
O O6 0.266317 0.490983 0.172128
O O7 0.358110 0.485924 0.206325
O O8 0.217077 0.478033 0.797630
O O9 0.849575 0.250000 0.431037
O O10 0.926097 0.522082 0.606635
O O11 0.999728 0.250000 0.825600
O O12 0.000000 0.000000 0.000000
O O13 0.566036 0.250000 0.268172
O O14 0.641144 0.985029 0.407288
O O15 0.549332 0.982527 0.372595
O O16 0.500000 0.000000 0.000000
O O17 0.720215 0.250000 0.639916
O O18 0.500000 0.500000 0.500000
O O19 0.566411 0.250000 0.560765
#
# Coordination Sequence:
#
# PCOD9157989 Si02
#       7
#     4   4   4   4   4   4   4
#     4  10  19  30  45  70 100 125 151 191 235 274
#     4   8  16  32  52  69  89 119 157 194 226 266
#     4   9  16  30  52  72  89 119 160 196 229 273
#     4   8  15  27  44  66  93 121 151 188 231 272
#     4   9  19  34  51  70  94 122 155 192 230 273
#     4   9  18  34  51  67  91 126 160 189 225 275
#     4   9  18  33  50  70  94 120 150 188 231 275
#
# _framework density 18.887689999999999
#
# number of rings (size 3 to 8) (size 9 to 14) (size 15 to 20)
#    0.000    3.143    0.000    2.143    0.000    2.857 
#    0.000    8.571    0.000    0.000    0.000    0.000 
#    0.000    0.000    0.000    0.000    0.000    0.000 
#
# Total GULP energy -155912.579385 kJ/mol
# GULP energy per Si atom -5568.306407 kJ/mol
# Density = 1.884470 g / cm^3
# Si number density = 18.887690 Si / 1000 Ang^3
#
#
#
# Elastic Constant Matrix: (Units=GPa)
#
#
# Indices 1 2 3 4 5 6 
#
# 1 130.8109 -4.5843 91.7081 0.0000 36.9642 0.0000
# 2 -4.5843 17.7278 7.8976 0.0000 2.4222 0.0000
# 3 91.7081 7.8976 201.0667 0.0000 35.8865 0.0000
# 4 0.0000 0.0000 0.0000 16.3487 0.0000 0.2649
# 5 36.9642 2.4222 35.8865 0.0000 20.7194 0.0000
# 6 0.0000 0.0000 0.0000 0.2649 0.0000 14.2831
#
#
#
# Elastic Compliance Matrix: (Units=1/GPa)
#
#
# Indices 1 2 3 4 5 6 
#
# 1 0.018523 0.010298 -0.003966 0.000000 -0.027381 0.000000
# 2 0.010298 0.063376 -0.003741 0.000000 -0.019301 0.000000
# 3 -0.003966 -0.003741 0.008089 0.000000 -0.006497 0.000000
# 4 0.000000 0.000000 0.000000 0.061185 0.000000 -0.001135
# 5 -0.027381 -0.019301 -0.006497 0.000000 0.110622 0.000000
# 6 0.000000 0.000000 0.000000 -0.001135 0.000000 0.070034
#
#
# Mechanical properties :
#
#
# Convention : Reuss Voigt Hill
#
# Bulk Modulus (GPa) = 10.50764 59.96090 35.23427
# Shear Modulus (GPa) = 13.95200 27.24249 20.59725
#
# Velocity S-wave (km/s) = 2.72082 3.80194 3.30587
# Velocity P-wave (km/s) = 3.93011 7.14758 5.76774
#
# Compressibility (1/GPa) = 0.09516885
#
# Stress axis : x y z
#
# Youngs Moduli (GPa) = 53.98615 15.77892 123.62342
#
# Poissons Ratio (x) = -0.16249 0.49031
# Poissons Ratio (y) = -0.55595 0.46254
# Poissons Ratio (z) = 0.21412 0.05904
#
# Static dielectric constant tensor:
#      x y z
#    x 1.641220 0.000000 0.041890 
#    y 0.000000 1.707640 0.000000 
#    z 0.041890 0.000000 1.680320 
# 
# From -- ./inp_files/28980.got.cif
#   From: 2010.05.17/outbox.cif.g08.bks.cpg/sg11_15_cif.got.tgz:28980.got - 2010.06.03 12:22:45.
