data_PCOD9157391
_publ_section_title
;
Structure prediction by ZEFSAII (Michael W. Deem and Ramdas Pophale) SiO2 
 PCOD9157391
Probable space group: P 21/M
;
_chemical_formula_sum "Si O2"
_cell_formula_units_Z 24
_cell_length_a 16.479662
_cell_length_b 13.223588
_cell_length_c 9.642433
_cell_angle_alpha 90.000000
_cell_angle_beta 148.770981
_cell_angle_gamma 90.000000
_cell_volume 1089.430761
_symmetry_space_group_name_H-M "P 21/M"
_symmetry_group_IT_number 11
_symmetry_cell_setting 'monoclinic'
loop_
_space_group_symop_operation_xyz
x,y,z
-x,1/2+y,-z
-x,-y,-z
x,1/2-y,z
loop_
_atom_site_type_symbol
_atom_site_label
_atom_site_fract_x
_atom_site_fract_y
_atom_site_fract_z
Si Si1 0.360899 0.067188 0.571241
Si Si2 0.132057 0.030574 0.988664
Si Si3 0.101916 0.142617 0.358910
Si Si4 0.519218 0.632716 0.765750
Si Si5 0.378679 0.635808 0.253622
Si Si6 0.884360 0.904990 0.314207
O O1 0.283729 0.123708 0.587125
O O2 0.513794 0.114489 0.722384
O O3 0.228162 0.072313 0.257794
O O4 0.403016 0.950009 0.661576
O O5 0.247272 0.948835 0.081593
O O6 0.988320 0.958544 0.819741
O O7 0.090655 0.115519 0.813643
O O8 0.051237 0.250000 0.220643
O O9 0.075706 0.150154 0.484830
O O10 0.499887 0.750000 0.779325
O O11 0.482394 0.628258 0.546022
O O12 0.695740 0.596544 0.048029
O O13 0.315522 0.750000 0.155426
O O14 0.000000 0.000000 0.500000
#
# Coordination Sequence:
#
# PCOD9157391 Si02
#       6
#     4   4   4   4   4   4
#     4  11  20  37  60  88 115 149 189 246 294 331
#     4  10  19  39  59  82 111 155 199 234 278 341
#     4  11  24  37  55  86 125 155 185 234 295 345
#     4  10  19  35  60  86 113 152 198 238 280 341
#     4  10  18  32  61  89 112 145 196 244 284 335
#     4  10  20  37  59  79 113 155 193 225 282 346
#
# _framework density 22.029852999999999
#
# number of rings (size 3 to 8) (size 9 to 14) (size 15 to 20)
#    0.000    1.667    3.333    3.000    0.000    1.333 
#    0.000    0.000    0.000   13.000    0.000    0.000 
#    0.000    0.000    0.000    0.000    0.000    0.000 
#
# Total GULP energy -133643.542132 kJ/mol
# GULP energy per Si atom -5568.480922 kJ/mol
# Density = 2.197971 g / cm^3
# Si number density = 22.029853 Si / 1000 Ang^3
#
#
#
# Elastic Constant Matrix: (Units=GPa)
#
#
# Indices 1 2 3 4 5 6 
#
# 1 87.3655 33.9933 -8.8035 0.0000 10.5936 0.0000
# 2 33.9933 86.7869 1.9175 0.0000 -8.9179 0.0000
# 3 -8.8035 1.9175 59.4154 0.0000 -1.9702 0.0000
# 4 0.0000 0.0000 0.0000 -1.1378 0.0000 -5.4119
# 5 10.5936 -8.9179 -1.9702 0.0000 19.1980 0.0000
# 6 0.0000 0.0000 0.0000 -5.4119 0.0000 5.3436
#
#
#
# Elastic Compliance Matrix: (Units=1/GPa)
#
#
# Indices 1 2 3 4 5 6 
#
# 1 0.016112 -0.007614 0.002229 0.000000 -0.012199 0.000000
# 2 -0.007614 0.015700 -0.001258 0.000000 0.011365 0.000000
# 3 0.002229 -0.001258 0.017200 0.000000 -0.000049 0.000000
# 4 0.000000 0.000000 0.000000 -0.151086 0.000000 -0.153016
# 5 -0.012199 0.011365 -0.000049 0.000000 0.064095 0.000000
# 6 0.000000 0.000000 0.000000 -0.153016 0.000000 0.032169
#
#
# Mechanical properties :
#
#
# Convention : Reuss Voigt Hill
#
# Bulk Modulus (GPa) = 27.99061 31.97581 29.98321
# Shear Modulus (GPa) = 257.91531 18.44479 138.18005
#
# Velocity S-wave (km/s) = 10.83188 2.89669 7.92844
# Velocity P-wave (km/s) = 13.00664 5.07287 9.87185
#
# Compressibility (1/GPa) = 0.03572627
#
# Stress axis : x y z
#
# Youngs Moduli (GPa) = 62.06395 63.69278 58.14007
#
# Poissons Ratio (x) = 0.48494 -0.12957
# Poissons Ratio (y) = 0.47254 0.07314
# Poissons Ratio (z) = -0.13831 0.08012
#
# Static dielectric constant tensor:
#      x y z
#    x 1.822320 0.000000 -0.037750 
#    y 0.000000 1.844740 0.000000 
#    z -0.037750 0.000000 1.837260 
# 
# From -- ./inp_files/22328.got.cif
#   From: 2010.05.17/outbox.cif.g08.bks.cpg/sg11_12_cif.got.tgz:22328.got - 2010.06.03 12:22:45.
