data_PCOD9157370
_publ_section_title
;
Structure prediction by ZEFSAII (Michael W. Deem and Ramdas Pophale) SiO2 
 PCOD9157370
Probable space group: P 21/M
;
_chemical_formula_sum "Si O2"
_cell_formula_units_Z 32
_cell_length_a 13.267765
_cell_length_b 13.690579
_cell_length_c 10.983099
_cell_angle_alpha 90.000000
_cell_angle_beta 41.407363
_cell_angle_gamma 90.000000
_cell_volume 1319.514284
_symmetry_space_group_name_H-M "P 21/M"
_symmetry_group_IT_number 11
_symmetry_cell_setting 'monoclinic'
loop_
_space_group_symop_operation_xyz
x,y,z
-x,1/2+y,-z
-x,-y,-z
x,1/2-y,z
loop_
_atom_site_type_symbol
_atom_site_label
_atom_site_fract_x
_atom_site_fract_y
_atom_site_fract_z
Si Si1 0.175830 0.362078 0.522221
Si Si2 0.165319 0.869212 0.246085
Si Si3 0.441340 0.904372 0.429175
Si Si4 0.499739 0.367738 0.118650
Si Si5 0.096139 0.134490 0.088405
Si Si6 0.276086 0.412548 0.692641
Si Si7 0.834605 0.141159 0.477690
Si Si8 0.393964 0.134816 0.941370
O O1 0.175820 0.250000 0.477922
O O2 0.195239 0.366602 0.649975
O O3 0.006048 0.398808 0.639413
O O4 0.341110 0.403641 0.326509
O O5 0.170010 0.750000 0.237308
O O6 0.320886 0.899880 0.033669
O O7 0.183520 0.900421 0.371405
O O8 0.568929 0.858465 0.401388
O O9 0.317537 0.849190 0.461717
O O10 0.545488 0.935681 0.219776
O O11 0.347566 0.984003 0.588763
O O12 0.503312 0.250000 0.140406
O O13 0.463502 0.383327 0.008693
O O14 0.080398 0.250000 0.069351
O O15 0.162062 0.084195 0.909233
O O16 0.213348 0.127722 0.094640
O O17 0.944512 0.090651 0.281462
O O18 0.899182 0.250000 0.439674
O O19 0.424351 0.250000 0.883989
#
# Coordination Sequence:
#
# PCOD9157370 Si02
#       8
#     4   4   4   4   4   4   4   4
#     4  10  20  35  55  77 109 149 179 210 264 332
#     4   9  17  31  54  83 110 131 167 226 276 320
#     4  10  20  35  56  74 104 140 180 227 265 309
#     4   9  16  29  53  82 105 134 173 217 273 319
#     4   9  18  31  52  79 103 133 177 223 268 318
#     4  10  22  38  50  71 108 150 183 210 261 322
#     4  10  18  32  57  86 103 124 172 232 280 310
#     4   9  15  29  55  80 102 130 170 224 275 315
#
# _framework density 24.251348
#
# number of rings (size 3 to 8) (size 9 to 14) (size 15 to 20)
#    0.000    2.500    1.250    1.500    0.000    5.000 
#    2.250    1.250    0.000    0.000    0.000    0.000 
#    0.000    0.000    0.000    0.000    0.000    0.000 
#
# Total GULP energy -178251.019297 kJ/mol
# GULP energy per Si atom -5570.344353 kJ/mol
# Density = 2.419615 g / cm^3
# Si number density = 24.251348 Si / 1000 Ang^3
#
#
#
# Elastic Constant Matrix: (Units=GPa)
#
#
# Indices 1 2 3 4 5 6 
#
# 1 144.8310 23.3678 79.0810 0.0000 -32.1077 0.0000
# 2 23.3678 56.9868 19.7587 0.0000 -2.4663 0.0000
# 3 79.0810 19.7587 182.3943 0.0000 -35.1926 0.0000
# 4 0.0000 0.0000 0.0000 26.4139 0.0000 2.5146
# 5 -32.1077 -2.4663 -35.1926 0.0000 35.8730 0.0000
# 6 0.0000 0.0000 0.0000 2.5146 0.0000 17.1157
#
#
#
# Elastic Compliance Matrix: (Units=1/GPa)
#
#
# Indices 1 2 3 4 5 6 
#
# 1 0.010379 -0.002952 -0.002994 0.000000 0.006150 0.000000
# 2 -0.002952 0.019093 -0.001289 0.000000 -0.002594 0.000000
# 3 -0.002994 -0.001289 0.007877 0.000000 0.004960 0.000000
# 4 0.000000 0.000000 0.000000 0.038396 0.000000 -0.005641
# 5 0.006150 -0.002594 0.004960 0.000000 0.038068 0.000000
# 6 0.000000 0.000000 0.000000 -0.005641 0.000000 0.059255
#
#
# Mechanical properties :
#
#
# Convention : Reuss Voigt Hill
#
# Bulk Modulus (GPa) = 43.70605 69.84745 56.77675
# Shear Modulus (GPa) = 25.61965 33.34749 29.48357
#
# Velocity S-wave (km/s) = 3.25379 3.71223 3.49054
# Velocity P-wave (km/s) = 5.67252 6.87300 6.30141
#
# Compressibility (1/GPa) = 0.02288013
#
# Stress axis : x y z
#
# Youngs Moduli (GPa) = 96.35077 52.37526 126.94895
#
# Poissons Ratio (x) = 0.15460 0.38004
# Poissons Ratio (y) = 0.28441 0.16364
# Poissons Ratio (z) = 0.28844 0.06751
#
# Static dielectric constant tensor:
#      x y z
#    x 1.931660 0.000000 -0.040580 
#    y 0.000000 2.018600 0.000000 
#    z -0.040580 0.000000 1.970190 
# 
# From -- ./inp_files/36339.got.cif
#   From: 2010.05.17/outbox.cif.g08.bks.cpg/sg11_19_cif.got.tgz:36339.got - 2010.06.03 12:22:45.
