data_PCOD9157640
_publ_section_title
;
Structure prediction by ZEFSAII (Michael W. Deem and Ramdas Pophale) SiO2 
 PCOD9157640
Probable space group: P 21/M
;
_chemical_formula_sum "Si O2"
_cell_formula_units_Z 32
_cell_length_a 10.306391
_cell_length_b 17.432163
_cell_length_c 16.562104
_cell_angle_alpha 90.000000
_cell_angle_beta 36.182280
_cell_angle_gamma 90.000000
_cell_volume 1756.658867
_symmetry_space_group_name_H-M "P 21/M"
_symmetry_group_IT_number 11
_symmetry_cell_setting 'monoclinic'
loop_
_space_group_symop_operation_xyz
x,y,z
-x,1/2+y,-z
-x,-y,-z
x,1/2-y,z
loop_
_atom_site_type_symbol
_atom_site_label
_atom_site_fract_x
_atom_site_fract_y
_atom_site_fract_z
Si Si1 0.068309 0.929267 0.521533
Si Si2 0.269939 0.656478 0.109179
Si Si3 0.852729 0.843300 0.039037
Si Si4 0.643486 0.342350 0.751362
Si Si5 0.845523 0.657371 0.224339
Si Si6 0.591857 0.430502 0.506154
Si Si7 0.069981 0.839365 0.771246
Si Si8 0.278201 0.340335 0.195601
O O1 0.188754 0.870340 0.400710
O O2 0.245666 0.951593 0.501552
O O3 0.860681 0.889859 0.670793
O O4 0.000000 0.000000 0.500000
O O5 0.276204 0.750000 0.106656
O O6 0.298949 0.630550 0.187004
O O7 0.036503 0.633048 0.189837
O O8 0.475110 0.633331 0.949549
O O9 0.852877 0.750000 0.033204
O O10 0.602739 0.867900 0.147591
O O11 0.917011 0.862978 0.097441
O O12 0.010007 0.871783 0.889015
O O13 0.643916 0.250000 0.752334
O O14 0.821423 0.750000 0.240629
O O15 0.613637 0.618398 0.358525
O O16 0.500000 0.500000 0.500000
O O17 0.737338 0.380523 0.372226
O O18 0.126823 0.750000 0.750761
O O19 0.854953 0.843832 0.822187
O O20 0.281304 0.250000 0.218363
#
# Coordination Sequence:
#
# PCOD9157640 Si02
#       8
#     4   4   4   4   4   4   4   4
#     4  11  24  39  56  80 112 149 190 232 270 322
#     4   9  18  33  57  88 115 136 172 232 287 326
#     4   9  16  31  57  87 109 131 180 235 273 318
#     4  10  18  34  61  86 107 139 185 232 273 321
#     4  10  20  36  59  85 112 144 181 224 277 332
#     4  11  24  40  55  77 115 154 186 224 274 331
#     4   9  17  34  62  87 106 138 185 231 271 322
#     4   9  17  35  61  86 109 139 181 229 278 323
#
# _framework density 18.216398999999999
#
# number of rings (size 3 to 8) (size 9 to 14) (size 15 to 20)
#    0.000    2.250    2.500    0.750    1.750    1.000 
#    2.250    2.500    0.000    0.000    0.000    0.000 
#    0.000    0.000    0.000    0.000    0.000    0.000 
#
# Total GULP energy -178484.729156 kJ/mol
# GULP energy per Si atom -5577.647786 kJ/mol
# Density = 1.817494 g / cm^3
# Si number density = 18.216399 Si / 1000 Ang^3
#
#
#
# Elastic Constant Matrix: (Units=GPa)
#
#
# Indices 1 2 3 4 5 6 
#
# 1 104.4004 23.6012 38.5602 0.0000 9.4693 0.0000
# 2 23.6012 24.1356 14.8981 0.0000 2.7895 0.0000
# 3 38.5602 14.8981 98.8542 0.0000 11.9145 0.0000
# 4 0.0000 0.0000 0.0000 -10.8735 0.0000 2.5182
# 5 9.4693 2.7895 11.9145 0.0000 30.5741 0.0000
# 6 0.0000 0.0000 0.0000 2.5182 0.0000 21.9231
#
#
#
# Elastic Compliance Matrix: (Units=1/GPa)
#
#
# Indices 1 2 3 4 5 6 
#
# 1 0.013450 -0.010847 -0.003388 0.000000 -0.001856 0.000000
# 2 -0.010847 0.054500 -0.003975 0.000000 -0.000064 0.000000
# 3 -0.003388 -0.003975 0.012451 0.000000 -0.003440 0.000000
# 4 0.000000 0.000000 0.000000 -0.089584 0.000000 0.010290
# 5 -0.001856 -0.000064 -0.003440 0.000000 0.034629 0.000000
# 6 0.000000 0.000000 0.000000 0.010290 0.000000 0.044432
#
#
# Mechanical properties :
#
#
# Convention : Reuss Voigt Hill
#
# Bulk Modulus (GPa) = 22.73655 42.38993 32.56324
# Shear Modulus (GPa) = 41.33646 18.34678 29.84162
#
# Velocity S-wave (km/s) = 4.76877 3.17702 4.05183
# Velocity P-wave (km/s) = 6.54446 6.06454 6.30907
#
# Compressibility (1/GPa) = 0.04398204
#
# Stress axis : x y z
#
# Youngs Moduli (GPa) = 74.34769 18.34862 80.31327
#
# Poissons Ratio (x) = 0.19902 0.27212
# Poissons Ratio (y) = 0.80642 0.31924
# Poissons Ratio (z) = 0.25191 0.07293
#
# Static dielectric constant tensor:
#      x y z
#    x 1.619150 0.000000 0.001060 
#    y 0.000000 1.624470 0.000000 
#    z 0.001060 0.000000 1.618890 
# 
# From -- ./inp_files/43559.got.cif
#   From: 2010.05.17/outbox.cif.g08.bks.cpg/sg11_22_cif.got.tgz:43559.got - 2010.06.03 12:22:45.
