data_PCOD9157513
_publ_section_title
;
Structure prediction by ZEFSAII (Michael W. Deem and Ramdas Pophale) SiO2 
 PCOD9157513
Probable space group: P 21/M
;
_chemical_formula_sum "Si O2"
_cell_formula_units_Z 26
_cell_length_a 15.600793
_cell_length_b 8.381982
_cell_length_c 18.850499
_cell_angle_alpha 90.000000
_cell_angle_beta 154.577232
_cell_angle_gamma 90.000000
_cell_volume 1058.208224
_symmetry_space_group_name_H-M "P 21/M"
_symmetry_group_IT_number 11
_symmetry_cell_setting 'monoclinic'
loop_
_space_group_symop_operation_xyz
x,y,z
-x,1/2+y,-z
-x,-y,-z
x,1/2-y,z
loop_
_atom_site_type_symbol
_atom_site_label
_atom_site_fract_x
_atom_site_fract_y
_atom_site_fract_z
Si Si1 0.721744 0.434222 0.676898
Si Si2 0.744750 0.928216 0.839833
Si Si3 0.737431 0.070701 0.529134
Si Si4 0.383621 0.938341 0.841593
Si Si5 0.734783 0.561165 0.994763
Si Si6 0.141678 0.250000 0.461985
Si Si7 0.277180 0.250000 0.724023
Si Si8 0.763736 0.250000 0.098658
O O1 0.500000 0.500000 0.500000
O O2 0.700367 0.250000 0.676397
O O3 0.821137 0.504616 0.821707
O O4 0.814033 0.449873 0.667699
O O5 0.824997 0.750000 0.904264
O O6 0.504063 0.922677 0.648817
O O7 0.757489 0.990569 0.929768
O O8 0.801857 0.250000 0.552420
O O9 0.783633 0.914001 0.518591
O O10 0.348892 0.750000 0.820972
O O11 0.216658 0.077542 0.710501
O O12 0.511878 0.942468 0.863439
O O13 0.500000 0.000000 0.000000
O O14 0.793239 0.750000 0.045563
O O15 0.823357 0.414799 0.105427
O O16 0.213291 0.250000 0.595545
O O17 0.905976 0.250000 0.272587
O O18 0.521008 0.250000 0.917642
#
# Coordination Sequence:
#
# PCOD9157513 Si02
#       8
#     4   4   4   4   4   2   2   2
#     4   9  17  26  42  72 108 148 189 240 298 343
#     4   9  17  29  50  80 110 145 193 242 288 350
#     4   9  19  32  47  78 116 148 192 245 293 345
#     4  10  18  33  59  92 123 157 192 232 288 344
#     4   9  19  34  54  82 114 150 190 238 290 343
#     4  12  24  36  64  88 113 159 197 243 288 346
#     4  10  22  40  60  92 125 151 197 243 280 344
#     4  10  22  38  58  88 118 152 198 238 288 350
#
# _framework density 24.569834
#
# number of rings (size 3 to 8) (size 9 to 14) (size 15 to 20)
#    0.000    2.462    0.769    3.231    6.462    2.462 
#    0.000    0.000    0.000    4.615    0.000    0.000 
#    0.000    0.000    0.000    0.000    0.000    0.000 
#
# Total GULP energy -144806.616858 kJ/mol
# GULP energy per Si atom -5569.485264 kJ/mol
# Density = 2.451391 g / cm^3
# Si number density = 24.569834 Si / 1000 Ang^3
#
#
#
# Elastic Constant Matrix: (Units=GPa)
#
#
# Indices 1 2 3 4 5 6 
#
# 1 75.2396 39.0420 20.8410 0.0000 -25.9324 0.0000
# 2 39.0420 179.2952 29.0043 0.0000 -27.8696 0.0000
# 3 20.8410 29.0043 99.4929 0.0000 -30.2514 0.0000
# 4 0.0000 0.0000 0.0000 28.3990 0.0000 -71.0868
# 5 -25.9324 -27.8696 -30.2514 0.0000 48.2368 0.0000
# 6 0.0000 0.0000 0.0000 -71.0868 0.0000 -484.9408
#
#
#
# Elastic Compliance Matrix: (Units=1/GPa)
#
#
# Indices 1 2 3 4 5 6 
#
# 1 0.017347 -0.002513 -0.000626 0.000000 0.007481 0.000000
# 2 -0.002513 0.006554 -0.000795 0.000000 0.001937 0.000000
# 3 -0.000626 -0.000795 0.012569 0.000000 0.007086 0.000000
# 4 0.000000 0.000000 0.000000 0.025760 0.000000 -0.003776
# 5 0.007481 0.001937 0.007086 0.000000 0.030316 0.000000
# 6 0.000000 0.000000 0.000000 -0.003776 0.000000 -0.001509
#
#
# Mechanical properties :
#
#
# Convention : Reuss Voigt Hill
#
# Bulk Modulus (GPa) = 34.96506 59.08914 47.02710
# Shear Modulus (GPa) = 46.10819 -63.98496 -8.93839
#
# Velocity S-wave (km/s) = 4.33669 -5.10868 -1.90941
# Velocity P-wave (km/s) = 6.27198 3.27055 3.78426
#
# Compressibility (1/GPa) = 0.02859998
#
# Stress axis : x y z
#
# Youngs Moduli (GPa) = 57.64729 152.56948 79.56342
#
# Poissons Ratio (x) = 0.38343 0.04984
# Poissons Ratio (y) = 0.14488 0.06328
# Poissons Ratio (z) = 0.03611 0.12135
#
# Static dielectric constant tensor:
#      x y z
#    x 2.004640 0.000000 0.073610 
#    y 0.000000 1.918400 0.000000 
#    z 0.073610 0.000000 2.068030 
# 
# From -- ./inp_files/60876.got.cif
#   From: 2010.05.17/outbox.cif.g08.bks.cpg/sg11_31_cif.got.tgz:60876.got - 2010.06.03 12:22:45.
