data_PCOD9157589
_publ_section_title
;
Structure prediction by ZEFSAII (Michael W. Deem and Ramdas Pophale) SiO2 
 PCOD9157589
Probable space group: P 21/M
;
_chemical_formula_sum "Si O2"
_cell_formula_units_Z 24
_cell_length_a 13.048419
_cell_length_b 18.499994
_cell_length_c 10.695782
_cell_angle_alpha 90.000000
_cell_angle_beta 35.133213
_cell_angle_gamma 90.000000
_cell_volume 1485.839225
_symmetry_space_group_name_H-M "P 21/M"
_symmetry_group_IT_number 11
_symmetry_cell_setting 'monoclinic'
loop_
_space_group_symop_operation_xyz
x,y,z
-x,1/2+y,-z
-x,-y,-z
x,1/2-y,z
loop_
_atom_site_type_symbol
_atom_site_label
_atom_site_fract_x
_atom_site_fract_y
_atom_site_fract_z
Si Si1 0.119084 0.605495 0.223681
Si Si2 0.451979 0.481578 0.405816
Si Si3 0.245936 0.455105 0.072802
Si Si4 0.515324 0.331241 0.222266
Si Si5 0.038310 0.495558 0.815128
Si Si6 0.222039 0.333607 0.296454
O O1 0.192374 0.528308 0.202697
O O2 0.033565 0.578809 0.176705
O O3 0.966706 0.640576 0.458591
O O4 0.287869 0.655662 0.030096
O O5 0.500000 0.500000 0.500000
O O6 0.481078 0.396298 0.352310
O O7 0.247535 0.500979 0.584054
O O8 0.584315 0.522907 0.179537
O O9 0.271042 0.387611 0.136192
O O10 0.080135 0.446368 0.142452
O O11 0.501006 0.250000 0.287741
O O12 0.369932 0.339346 0.257581
O O13 0.000000 0.500000 0.000000
O O14 0.212260 0.250000 0.267483
#
# Coordination Sequence:
#
# PCOD9157589 Si02
#       6
#     4   4   4   4   4   4
#     4   9  19  33  55  79 106 140 180 220 262 316
#     4  11  19  36  59  79 104 141 182 228 267 314
#     4   9  21  32  54  81 104 139 181 223 262 314
#     4  10  20  34  53  81 109 141 179 220 268 318
#     4  10  18  34  57  82 104 131 183 226 266 311
#     4  11  21  35  52  78 115 147 177 217 267 322
#
# _framework density 16.152488999999999
#
# number of rings (size 3 to 8) (size 9 to 14) (size 15 to 20)
#    1.000    1.000    3.333    1.000    0.000    4.000 
#    0.000    0.833    0.000    5.000    0.000    0.000 
#    0.000    0.000    0.000    0.000    0.000    0.000 
#
# Total GULP energy -133635.795705 kJ/mol
# GULP energy per Si atom -5568.158154 kJ/mol
# Density = 1.611573 g / cm^3
# Si number density = 16.152489 Si / 1000 Ang^3
#
#
#
# Elastic Constant Matrix: (Units=GPa)
#
#
# Indices 1 2 3 4 5 6 
#
# 1 52.7408 52.7626 44.1832 0.0000 -10.9463 0.0000
# 2 52.7626 133.1267 62.4252 0.0000 14.4142 0.0000
# 3 44.1832 62.4252 107.8780 0.0000 -21.4534 0.0000
# 4 0.0000 0.0000 0.0000 14.9237 0.0000 1.5512
# 5 -10.9463 14.4142 -21.4534 0.0000 33.8981 0.0000
# 6 0.0000 0.0000 0.0000 1.5512 0.0000 23.9540
#
#
#
# Elastic Compliance Matrix: (Units=1/GPa)
#
#
# Indices 1 2 3 4 5 6 
#
# 1 0.043858 -0.017583 -0.003987 0.000000 0.019116 0.000000
# 2 -0.017583 0.020802 -0.008836 0.000000 -0.020115 0.000000
# 3 -0.003987 -0.008836 0.018884 0.000000 0.014421 0.000000
# 4 0.000000 0.000000 0.000000 0.067462 0.000000 -0.004369
# 5 0.019116 -0.020115 0.014421 0.000000 0.053353 0.000000
# 6 0.000000 0.000000 0.000000 -0.004369 0.000000 0.042030
#
#
# Mechanical properties :
#
#
# Convention : Reuss Voigt Hill
#
# Bulk Modulus (GPa) = 43.99085 68.05417 56.02251
# Shear Modulus (GPa) = 15.88430 23.51347 19.69888
#
# Velocity S-wave (km/s) = 3.13932 3.81953 3.49600
# Velocity P-wave (km/s) = 6.35879 7.85337 7.14527
#
# Compressibility (1/GPa) = 0.02273200
#
# Stress axis : x y z
#
# Youngs Moduli (GPa) = 22.80090 48.07303 52.95593
#
# Poissons Ratio (x) = 0.84525 0.21112
# Poissons Ratio (y) = 0.40090 0.46793
# Poissons Ratio (z) = 0.09090 0.42478
#
# Static dielectric constant tensor:
#      x y z
#    x 1.546140 0.000000 -0.018660 
#    y 0.000000 1.540850 0.000000 
#    z -0.018660 0.000000 1.529500 
# 
# From -- ./inp_files/19079.got.cif
#   From: 2010.05.17/outbox.cif.g08.bks.cpg/sg11_10_cif.got.tgz:19079.got - 2010.06.03 12:22:45.
