data_PCOD9157987
_publ_section_title
;
Structure prediction by ZEFSAII (Michael W. Deem and Ramdas Pophale) SiO2 
 PCOD9157987
Probable space group: P 21/M
;
_chemical_formula_sum "Si O2"
_cell_formula_units_Z 28
_cell_length_a 16.689085
_cell_length_b 9.171543
_cell_length_c 18.631572
_cell_angle_alpha 90.000000
_cell_angle_beta 143.665684
_cell_angle_gamma 90.000000
_cell_volume 1689.700306
_symmetry_space_group_name_H-M "P 21/M"
_symmetry_group_IT_number 11
_symmetry_cell_setting 'monoclinic'
loop_
_space_group_symop_operation_xyz
x,y,z
-x,1/2+y,-z
-x,-y,-z
x,1/2-y,z
loop_
_atom_site_type_symbol
_atom_site_label
_atom_site_fract_x
_atom_site_fract_y
_atom_site_fract_z
Si Si1 0.803409 0.581768 0.901772
Si Si2 0.964117 0.578421 0.739345
Si Si3 0.275729 0.921894 0.014607
Si Si4 0.504622 0.923369 0.926187
Si Si5 0.118302 0.918189 0.180064
Si Si6 0.197135 0.921196 0.667362
Si Si7 0.022882 0.922931 0.400875
O O1 0.759866 0.750000 0.866508
O O2 0.726475 0.493703 0.908175
O O3 0.800020 0.503112 0.822498
O O4 0.961483 0.581763 0.040192
O O5 0.933632 0.750000 0.715708
O O6 0.883662 0.499629 0.745348
O O7 0.941100 0.504028 0.646276
O O8 0.123864 0.562677 0.873456
O O9 0.305967 0.750000 0.040155
O O10 0.380327 0.004150 0.039144
O O11 0.527821 0.750000 0.950362
O O12 0.356678 0.945121 0.784648
O O13 0.500000 0.000000 0.000000
O O14 0.160421 0.750000 0.216656
O O15 0.171682 0.750000 0.665404
O O16 0.131425 0.951456 0.542438
O O17 0.117999 0.016164 0.668972
O O18 0.014073 0.750000 0.382564
#
# Coordination Sequence:
#
# PCOD9157987 Si02
#       7
#     4   4   4   4   4   4   4
#     4   9  16  27  43  64  92 125 158 191 231 277
#     4  10  19  30  45  68  98 127 155 192 236 277
#     4  10  20  32  46  67  96 128 160 193 231 276
#     4  11  22  35  50  69  95 125 157 193 233 277
#     4   9  16  26  42  65  93 124 157 192 230 275
#     4   9  20  36  50  67  93 123 154 192 237 279
#     4  10  19  32  51  71  91 119 156 195 234 278
#
# _framework density 16.570986000000001
#
# number of rings (size 3 to 8) (size 9 to 14) (size 15 to 20)
#    0.000    2.286    0.000    3.429    0.000   10.286 
#    0.000    0.000    0.000    0.000    0.000    1.000 
#    0.000    0.000    0.000    0.000    0.000    0.000 
#
# Total GULP energy -156229.823252 kJ/mol
# GULP energy per Si atom -5579.636545 kJ/mol
# Density = 1.653327 g / cm^3
# Si number density = 16.570986 Si / 1000 Ang^3
#
#
#
# Elastic Constant Matrix: (Units=GPa)
#
#
# Indices 1 2 3 4 5 6 
#
# 1 144.9528 87.3834 32.2904 0.0000 -27.0544 0.0000
# 2 87.3834 130.3036 39.7497 0.0000 -18.6208 0.0000
# 3 32.2904 39.7497 26.7294 0.0000 -9.8738 0.0000
# 4 0.0000 0.0000 0.0000 20.1942 0.0000 -5.4455
# 5 -27.0544 -18.6208 -9.8738 0.0000 25.1045 0.0000
# 6 0.0000 0.0000 0.0000 -5.4455 0.0000 37.0406
#
#
#
# Elastic Compliance Matrix: (Units=1/GPa)
#
#
# Indices 1 2 3 4 5 6 
#
# 1 0.013109 -0.006806 -0.002762 0.000000 0.007992 0.000000
# 2 -0.006806 0.017725 -0.018707 0.000000 -0.001546 0.000000
# 3 -0.002762 -0.018707 0.072941 0.000000 0.011836 0.000000
# 4 0.000000 0.000000 0.000000 0.051563 0.000000 0.007581
# 5 0.007992 -0.001546 0.011836 0.000000 0.051955 0.000000
# 6 0.000000 0.000000 0.000000 0.007581 0.000000 0.028112
#
#
# Mechanical properties :
#
#
# Convention : Reuss Voigt Hill
#
# Bulk Modulus (GPa) = 21.17612 68.98141 45.07877
# Shear Modulus (GPa) = 16.24975 25.97200 21.11088
#
# Velocity S-wave (km/s) = 3.13487 3.96323 3.57314
# Velocity P-wave (km/s) = 5.09019 7.91588 6.65474
#
# Compressibility (1/GPa) = 0.04722299
#
# Stress axis : x y z
#
# Youngs Moduli (GPa) = 76.28394 56.41875 13.70976
#
# Poissons Ratio (x) = 0.38400 0.03787
# Poissons Ratio (y) = 0.51921 0.25647
# Poissons Ratio (z) = 0.21070 1.05544
#
# Static dielectric constant tensor:
#      x y z
#    x 1.533080 0.000000 -0.006220 
#    y 0.000000 1.554060 0.000000 
#    z -0.006220 0.000000 1.545460 
# 
# From -- ./inp_files/42326.got.cif
#   From: 2010.05.17/outbox.cif.g08.bks.cpg/sg11_22_cif.got.tgz:42326.got - 2010.06.03 12:22:45.
