data_PCOD9157299
_publ_section_title
;
Structure prediction by ZEFSAII (Michael W. Deem and Ramdas Pophale) SiO2 
 PCOD9157299
Probable space group: P 21/M
;
_chemical_formula_sum "Si O2"
_cell_formula_units_Z 28
_cell_length_a 9.844216
_cell_length_b 8.697566
_cell_length_c 28.912685
_cell_angle_alpha 90.000000
_cell_angle_beta 39.275505
_cell_angle_gamma 90.000000
_cell_volume 1567.130973
_symmetry_space_group_name_H-M "P 21/M"
_symmetry_group_IT_number 11
_symmetry_cell_setting 'monoclinic'
loop_
_space_group_symop_operation_xyz
x,y,z
-x,1/2+y,-z
-x,-y,-z
x,1/2-y,z
loop_
_atom_site_type_symbol
_atom_site_label
_atom_site_fract_x
_atom_site_fract_y
_atom_site_fract_z
Si Si1 0.321619 0.934068 0.198757
Si Si2 0.945593 0.431680 0.238439
Si Si3 0.193152 0.934601 0.554811
Si Si4 0.281384 0.433153 0.311525
Si Si5 0.261894 0.433935 0.795988
Si Si6 0.368317 0.432577 0.604477
Si Si7 0.195595 0.065858 0.919575
O O1 0.309053 0.750000 0.209175
O O2 0.568851 0.974719 0.122827
O O3 0.265730 0.016451 0.261875
O O4 0.154694 0.986164 0.204255
O O5 0.976489 0.250000 0.231429
O O6 0.885823 0.488965 0.203352
O O7 0.749155 0.478624 0.323774
O O8 0.201352 0.750000 0.561646
O O9 0.379876 0.968901 0.468803
O O10 0.949449 0.972999 0.605780
O O11 0.257435 0.020076 0.585218
O O12 0.312797 0.250000 0.306118
O O13 0.490445 0.516463 0.276273
O O14 0.247192 0.250000 0.796711
O O15 0.198991 0.482319 0.864755
O O16 0.343143 0.250000 0.618343
O O17 0.180165 0.250000 0.924097
O O18 0.000000 0.000000 0.000000
#
# Coordination Sequence:
#
# PCOD9157299 Si02
#       7
#     4   4   4   4   4   4   4
#     4  10  20  35  56  83 111 146 184 221 266 323
#     4  12  23  36  54  81 111 144 187 233 277 326
#     4   9  18  31  49  77 108 140 186 233 275 321
#     4  10  18  32  54  81 109 140 184 234 272 319
#     4  10  22  39  57  80 111 147 182 221 272 330
#     4  10  19  31  50  75 108 147 182 228 281 328
#     4   9  20  38  62  88 113 139 175 216 262 321
#
# _framework density 17.867042999999999
#
# number of rings (size 3 to 8) (size 9 to 14) (size 15 to 20)
#    0.000    2.000    1.429    3.857    0.000    4.571 
#    0.000    1.429    0.000    0.000    0.000    0.000 
#    0.000    0.000    0.000    0.000    0.000    0.000 
#
# Total GULP energy -156285.403439 kJ/mol
# GULP energy per Si atom -5581.621551 kJ/mol
# Density = 1.782638 g / cm^3
# Si number density = 17.867043 Si / 1000 Ang^3
#
#
#
# Elastic Constant Matrix: (Units=GPa)
#
#
# Indices 1 2 3 4 5 6 
#
# 1 78.2724 3.4661 31.6292 0.0000 -5.2396 0.0000
# 2 3.4661 36.6756 20.6698 0.0000 1.0486 0.0000
# 3 31.6292 20.6698 103.3863 0.0000 -16.9037 0.0000
# 4 0.0000 0.0000 0.0000 30.7474 0.0000 -1.5643
# 5 -5.2396 1.0486 -16.9037 0.0000 17.5535 0.0000
# 6 0.0000 0.0000 0.0000 -1.5643 0.0000 29.7693
#
#
#
# Elastic Compliance Matrix: (Units=1/GPa)
#
#
# Indices 1 2 3 4 5 6 
#
# 1 0.014633 0.001330 -0.004797 0.000000 -0.000331 0.000000
# 2 0.001330 0.032154 -0.008408 0.000000 -0.009621 0.000000
# 3 -0.004797 -0.008408 0.015037 0.000000 0.013550 0.000000
# 4 0.000000 0.000000 0.000000 0.032610 0.000000 0.001714
# 5 -0.000331 -0.009621 0.013550 0.000000 0.070494 0.000000
# 6 0.000000 0.000000 0.000000 0.001714 0.000000 0.033682
#
#
# Mechanical properties :
#
#
# Convention : Reuss Voigt Hill
#
# Bulk Modulus (GPa) = 26.26500 36.65160 31.45830
# Shear Modulus (GPa) = 21.27192 26.45197 23.86195
#
# Velocity S-wave (km/s) = 3.45420 3.85189 3.65845
# Velocity P-wave (km/s) = 5.53542 6.35144 5.95742
#
# Compressibility (1/GPa) = 0.03807348
#
# Stress axis : x y z
#
# Youngs Moduli (GPa) = 68.33785 31.09994 66.50473
#
# Poissons Ratio (x) = -0.04136 0.31900
# Poissons Ratio (y) = -0.09088 0.55920
# Poissons Ratio (z) = 0.32780 0.26150
#
# Static dielectric constant tensor:
#      x y z
#    x 1.597270 0.000000 -0.020050 
#    y 0.000000 1.594450 0.000000 
#    z -0.020050 0.000000 1.614110 
# 
# From -- ./inp_files/28139.got.cif
#   From: 2010.05.17/outbox.cif.g08.bks.cpg/sg11_15_cif.got.tgz:28139.got - 2010.06.03 12:22:45.
