data_PCOD9157446
_publ_section_title
;
Structure prediction by ZEFSAII (Michael W. Deem and Ramdas Pophale) SiO2 
 PCOD9157446
Probable space group: P 21/M
;
_chemical_formula_sum "Si O2"
_cell_formula_units_Z 32
_cell_length_a 17.232961
_cell_length_b 8.692004
_cell_length_c 23.250820
_cell_angle_alpha 90.000000
_cell_angle_beta 30.381440
_cell_angle_gamma 90.000000
_cell_volume 1761.398879
_symmetry_space_group_name_H-M "P 21/M"
_symmetry_group_IT_number 11
_symmetry_cell_setting 'monoclinic'
loop_
_space_group_symop_operation_xyz
x,y,z
-x,1/2+y,-z
-x,-y,-z
x,1/2-y,z
loop_
_atom_site_type_symbol
_atom_site_label
_atom_site_fract_x
_atom_site_fract_y
_atom_site_fract_z
Si Si1 0.844212 0.428574 0.662515
Si Si2 0.027673 0.935162 0.242616
Si Si3 0.990377 0.433647 0.142631
Si Si4 0.334130 0.573248 0.102771
Si Si5 0.845599 0.565795 0.128433
Si Si6 0.878710 0.432020 0.451113
Si Si7 0.622963 0.435596 0.700541
Si Si8 0.296687 0.566735 0.887520
O O1 0.888712 0.250000 0.623768
O O2 0.742395 0.432086 0.785424
O O3 0.994127 0.525945 0.581841
O O4 0.736702 0.481418 0.679473
O O5 0.030716 0.750000 0.235678
O O6 0.202044 0.991460 0.145207
O O7 0.971868 0.010396 0.219566
O O8 0.926270 0.980420 0.362785
O O9 0.989088 0.250000 0.139034
O O10 0.860816 0.504048 0.183344
O O11 0.154968 0.495864 0.014195
O O12 0.355842 0.750000 0.072058
O O13 0.500000 0.500000 0.000000
O O14 0.845911 0.750000 0.127144
O O15 0.715527 0.500191 0.169617
O O16 0.000000 0.500000 0.000000
O O17 0.884676 0.250000 0.436560
O O18 0.714109 0.471339 0.583445
O O19 0.602531 0.250000 0.716996
O O20 0.459669 0.516556 0.808463
O O21 0.278965 0.750000 0.897942
#
# Coordination Sequence:
#
# PCOD9157446 Si02
#       8
#     4   4   4   4   4   4   4   4
#     4   9  19  35  52  72 101 140 182 224 271 319
#     4  10  21  37  54  76 105 140 182 222 264 319
#     4  11  21  35  57  83 111 142 177 218 264 319
#     4   9  19  32  47  69 101 138 174 216 264 311
#     4  10  18  33  55  79 110 144 175 212 262 317
#     4  10  20  35  55  78 104 139 184 229 272 317
#     4  10  21  36  54  78 108 141 182 228 271 318
#     4  11  22  35  53  82 114 143 178 217 267 321
#
# _framework density 18.167376999999998
#
# number of rings (size 3 to 8) (size 9 to 14) (size 15 to 20)
#    0.000    2.000    0.000    6.750    1.750    4.000 
#    0.000    0.000    0.000    0.750    0.000    0.000 
#    0.000    0.000    0.000    0.000    0.000    0.000 
#
# Total GULP energy -178571.566323 kJ/mol
# GULP energy per Si atom -5580.361448 kJ/mol
# Density = 1.812603 g / cm^3
# Si number density = 18.167377 Si / 1000 Ang^3
#
#
#
# Elastic Constant Matrix: (Units=GPa)
#
#
# Indices 1 2 3 4 5 6 
#
# 1 96.1972 23.6091 6.8788 0.0000 21.2010 0.0000
# 2 23.6091 91.7989 12.8333 0.0000 5.6273 0.0000
# 3 6.8788 12.8333 21.6034 0.0000 -2.3175 0.0000
# 4 0.0000 0.0000 0.0000 18.4122 0.0000 -0.5737
# 5 21.2010 5.6273 -2.3175 0.0000 13.5146 0.0000
# 6 0.0000 0.0000 0.0000 -0.5737 0.0000 32.6834
#
#
#
# Elastic Compliance Matrix: (Units=1/GPa)
#
#
# Indices 1 2 3 4 5 6 
#
# 1 0.017562 -0.001733 -0.007580 0.000000 -0.028129 0.000000
# 2 -0.001733 0.012597 -0.007337 0.000000 -0.003785 0.000000
# 3 -0.007580 -0.007337 0.055689 0.000000 0.024496 0.000000
# 4 0.000000 0.000000 0.000000 0.054342 0.000000 0.000954
# 5 -0.028129 -0.003785 0.024496 0.000000 0.123898 0.000000
# 6 0.000000 0.000000 0.000000 0.000954 0.000000 0.030613
#
#
# Mechanical properties :
#
#
# Convention : Reuss Voigt Hill
#
# Bulk Modulus (GPa) = 19.03039 32.91578 25.97308
# Shear Modulus (GPa) = 14.47106 24.00724 19.23915
#
# Velocity S-wave (km/s) = 2.82537 3.63912 3.25775
# Velocity P-wave (km/s) = 4.59798 5.98456 5.33649
#
# Compressibility (1/GPa) = 0.05254754
#
# Stress axis : x y z
#
# Youngs Moduli (GPa) = 56.94146 79.38542 17.95678
#
# Poissons Ratio (x) = 0.13754 0.13612
# Poissons Ratio (y) = 0.09866 0.13176
# Poissons Ratio (z) = 0.43163 0.58248
#
# Static dielectric constant tensor:
#      x y z
#    x 1.658360 0.000000 0.008240 
#    y 0.000000 1.615850 0.000000 
#    z 0.008240 0.000000 1.613270 
# 
# From -- ./inp_files/69441.got.cif
#   From: 2010.05.17/outbox.cif.g08.bks.cpg/sg11_35_cif.got.tgz:69441.got - 2010.06.03 12:22:45.
