data_PCOD9157267
_publ_section_title
;
Structure prediction by ZEFSAII (Michael W. Deem and Ramdas Pophale) SiO2 
 PCOD9157267
Probable space group: P 21/M
;
_chemical_formula_sum "Si O2"
_cell_formula_units_Z 32
_cell_length_a 7.956001
_cell_length_b 17.076609
_cell_length_c 13.409174
_cell_angle_alpha 90.000000
_cell_angle_beta 45.403607
_cell_angle_gamma 90.000000
_cell_volume 1297.242983
_symmetry_space_group_name_H-M "P 21/M"
_symmetry_group_IT_number 11
_symmetry_cell_setting 'monoclinic'
loop_
_space_group_symop_operation_xyz
x,y,z
-x,1/2+y,-z
-x,-y,-z
x,1/2-y,z
loop_
_atom_site_type_symbol
_atom_site_label
_atom_site_fract_x
_atom_site_fract_y
_atom_site_fract_z
Si Si1 0.486818 0.839808 0.640052
Si Si2 0.632476 0.341235 0.547441
Si Si3 0.142190 0.413349 0.767736
Si Si4 0.599793 0.441362 0.800985
Si Si5 0.980299 0.442746 0.304514
Si Si6 0.991336 0.842368 0.385952
Si Si7 0.713717 0.415995 0.097088
Si Si8 0.619094 0.658359 0.928961
O O1 0.505066 0.750000 0.664166
O O2 0.426865 0.840897 0.548517
O O3 0.752613 0.875525 0.536380
O O4 0.296237 0.878203 0.790832
O O5 0.687070 0.250000 0.548941
O O6 0.386991 0.372703 0.694975
O O7 0.834706 0.407264 0.456104
O O8 0.033445 0.361140 0.722060
O O9 0.168149 0.498404 0.704114
O O10 0.955687 0.418453 0.935044
O O11 0.803122 0.501809 0.752018
O O12 0.398488 0.497872 0.843788
O O13 0.760329 0.376255 0.680205
O O14 0.483974 0.395468 0.940870
O O15 0.113093 0.369365 0.199422
O O16 0.988143 0.750000 0.398884
O O17 0.534874 0.364212 0.103924
O O18 0.601345 0.750000 0.957785
#
# Coordination Sequence:
#
# PCOD9157267 Si02
#       8
#     4   4   4   4   4   4   4   4
#     4   9  20  34  49  74 107 137 174 220 258 307
#     4  10  21  36  54  77 102 139 184 216 256 311
#     4  10  18  32  54  74 106 136 172 224 255 303
#     4  10  19  32  54  77 113 133 170 220 261 314
#     4  10  18  34  51  79 106 135 166 223 266 302
#     4   9  17  31  50  76 105 140 179 212 254 308
#     4  11  19  33  52  82 108 134 172 218 268 310
#     4  11  19  30  54  82 107 136 170 218 264 308
#
# _framework density 24.667698999999999
#
# number of rings (size 3 to 8) (size 9 to 14) (size 15 to 20)
#    0.000    2.000    3.750    3.375    0.000    2.000 
#    0.000    0.625    0.000    0.000    0.000    0.000 
#    0.000    2.250    0.000    0.000    0.000    0.000 
#
# Total GULP energy -178982.927974 kJ/mol
# GULP energy per Si atom -5593.216499 kJ/mol
# Density = 2.461155 g / cm^3
# Si number density = 24.667699 Si / 1000 Ang^3
#
#
#
# Elastic Constant Matrix: (Units=GPa)
#
#
# Indices 1 2 3 4 5 6 
#
# 1 51.9785 17.7591 6.9543 0.0000 -13.1711 0.0000
# 2 17.7591 131.8099 38.5829 0.0000 -3.4675 0.0000
# 3 6.9543 38.5829 127.5910 0.0000 -0.1152 0.0000
# 4 0.0000 0.0000 0.0000 43.9380 0.0000 -5.3969
# 5 -13.1711 -3.4675 -0.1152 0.0000 30.4509 0.0000
# 6 0.0000 0.0000 0.0000 -5.3969 0.0000 29.8096
#
#
#
# Elastic Compliance Matrix: (Units=1/GPa)
#
#
# Indices 1 2 3 4 5 6 
#
# 1 0.022609 -0.002676 -0.000415 0.000000 0.009473 0.000000
# 2 -0.002676 0.008667 -0.002475 0.000000 -0.000180 0.000000
# 3 -0.000415 -0.002475 0.008608 0.000000 -0.000429 0.000000
# 4 0.000000 0.000000 0.000000 0.023277 0.000000 0.004214
# 5 0.009473 -0.000180 -0.000429 0.000000 0.036915 0.000000
# 6 0.000000 0.000000 0.000000 0.004214 0.000000 0.034309
#
#
# Mechanical properties :
#
#
# Convention : Reuss Voigt Hill
#
# Bulk Modulus (GPa) = 34.77879 48.66353 41.72116
# Shear Modulus (GPa) = 32.23722 37.37857 34.80789
#
# Velocity S-wave (km/s) = 3.61897 3.89689 3.76050
# Velocity P-wave (km/s) = 5.62069 6.32599 5.98374
#
# Compressibility (1/GPa) = 0.02875315
#
# Stress axis : x y z
#
# Youngs Moduli (GPa) = 44.23074 115.38064 116.16775
#
# Poissons Ratio (x) = 0.30871 0.04817
# Poissons Ratio (y) = 0.11834 0.28754
# Poissons Ratio (z) = 0.01834 0.28559
#
# Static dielectric constant tensor:
#      x y z
#    x 2.101950 0.000000 0.001000 
#    y 0.000000 1.933500 0.000000 
#    z 0.001000 0.000000 1.956720 
# 
# From -- ./inp_files/59623.got.cif
#   From: 2010.05.17/outbox.cif.g08.bks.cpg/sg11_30_cif.got.tgz:59623.got - 2010.06.03 12:22:45.
