data_PCOD9157975
_publ_section_title
;
Structure prediction by ZEFSAII (Michael W. Deem and Ramdas Pophale) SiO2 
 PCOD9157975
Probable space group: P 21/M
;
_chemical_formula_sum "Si O2"
_cell_formula_units_Z 32
_cell_length_a 22.729440
_cell_length_b 7.770931
_cell_length_c 12.257564
_cell_angle_alpha 90.000000
_cell_angle_beta 129.844599
_cell_angle_gamma 90.000000
_cell_volume 1662.285430
_symmetry_space_group_name_H-M "P 21/M"
_symmetry_group_IT_number 11
_symmetry_cell_setting 'monoclinic'
loop_
_space_group_symop_operation_xyz
x,y,z
-x,1/2+y,-z
-x,-y,-z
x,1/2-y,z
loop_
_atom_site_type_symbol
_atom_site_label
_atom_site_fract_x
_atom_site_fract_y
_atom_site_fract_z
Si Si1 0.741129 0.543000 0.638489
Si Si2 0.820298 0.539578 0.524935
Si Si3 0.710975 0.543697 0.841825
Si Si4 0.918482 0.547601 0.451976
Si Si5 0.332462 0.951132 0.790582
Si Si6 0.412891 0.957831 0.678717
Si Si7 0.767010 0.045178 0.138751
Si Si8 0.538572 0.957476 0.661807
O O1 0.745957 0.750000 0.648958
O O2 0.807643 0.484413 0.634561
O O3 0.741055 0.476061 0.761595
O O4 0.660256 0.499958 0.484516
O O5 0.816097 0.750000 0.516886
O O6 0.893227 0.479283 0.541584
O O7 0.746208 0.468767 0.372439
O O8 0.704970 0.750000 0.823994
O O9 0.625243 0.476513 0.762655
O O10 0.761195 0.506850 0.006933
O O11 0.920633 0.750000 0.466820
O O12 0.847524 0.505539 0.288244
O O13 0.000000 0.500000 0.500000
O O14 0.351243 0.750000 0.829052
O O15 0.395484 0.024309 0.780914
O O16 0.304800 0.026305 0.873941
O O17 0.417044 0.750000 0.691045
O O18 0.487170 0.021747 0.701755
O O19 0.761915 0.250000 0.139957
O O20 0.540411 0.750000 0.672584
O O21 0.500000 0.000000 0.500000
#
# Coordination Sequence:
#
# PCOD9157975 Si02
#       8
#     4   4   4   4   4   4   4   4
#     4   9  16  28  46  68  95 126 161 199 239 282
#     4   8  15  27  46  72  97 122 154 192 231 277
#     4  10  20  32  46  67  98 133 164 200 246 290
#     4  10  19  33  55  81 105 126 152 189 235 285
#     4   8  15  28  45  65  90 121 157 200 244 282
#     4   9  16  27  45  67  91 120 159 207 251 287
#     4  10  20  34  51  71  97 129 165 200 236 285
#     4  10  19  30  45  67  95 127 164 207 250 290
#
# _framework density 19.250603999999999
#
# number of rings (size 3 to 8) (size 9 to 14) (size 15 to 20)
#    0.000    2.750    1.250    0.750    0.000    2.000 
#    0.000    0.625    0.000    0.750    0.000    0.000 
#    0.000    0.000    0.000    0.000    0.000    0.000 
#
# Total GULP energy -178210.636539 kJ/mol
# GULP energy per Si atom -5569.082392 kJ/mol
# Density = 1.920679 g / cm^3
# Si number density = 19.250604 Si / 1000 Ang^3
#
#
#
# Elastic Constant Matrix: (Units=GPa)
#
#
# Indices 1 2 3 4 5 6 
#
# 1 189.1956 15.7214 55.4701 0.0000 -20.1775 0.0000
# 2 15.7214 23.3850 -3.0093 0.0000 -1.8203 0.0000
# 3 55.4701 -3.0093 63.2215 0.0000 -24.0432 0.0000
# 4 0.0000 0.0000 0.0000 17.1315 0.0000 0.0502
# 5 -20.1775 -1.8203 -24.0432 0.0000 29.8676 0.0000
# 6 0.0000 0.0000 0.0000 0.0502 0.0000 12.2145
#
#
#
# Elastic Compliance Matrix: (Units=1/GPa)
#
#
# Indices 1 2 3 4 5 6 
#
# 1 0.007968 -0.006458 -0.007784 0.000000 -0.001277 0.000000
# 2 -0.006458 0.049060 0.010779 0.000000 0.007304 0.000000
# 3 -0.007784 0.010779 0.030857 0.000000 0.020238 0.000000
# 4 0.000000 0.000000 0.000000 0.058373 0.000000 -0.000240
# 5 -0.001277 0.007304 0.020238 0.000000 0.049355 0.000000
# 6 0.000000 0.000000 0.000000 -0.000240 0.000000 0.081871
#
#
# Mechanical properties :
#
#
# Convention : Reuss Voigt Hill
#
# Bulk Modulus (GPa) = 12.35197 45.79628 29.07412
# Shear Modulus (GPa) = 16.05673 25.68404 20.87038
#
# Velocity S-wave (km/s) = 2.89119 3.65662 3.29620
# Velocity P-wave (km/s) = 4.19234 6.45516 5.44264
#
# Compressibility (1/GPa) = 0.08095876
#
# Stress axis : x y z
#
# Youngs Moduli (GPa) = 125.49792 20.38333 32.40781
#
# Poissons Ratio (x) = 0.13164 0.25227
# Poissons Ratio (y) = 0.81047 -0.34933
# Poissons Ratio (z) = 0.97691 -0.21972
#
# Static dielectric constant tensor:
#      x y z
#    x 1.769780 0.000000 -0.051660 
#    y 0.000000 1.700280 0.000000 
#    z -0.051660 0.000000 1.629720 
# 
# From -- ./inp_files/40680.got.cif
#   From: 2010.05.17/outbox.cif.g08.bks.cpg/sg11_21_cif.got.tgz:40680.got - 2010.06.03 12:22:45.
