data_PCOD9157847
_publ_section_title
;
Structure prediction by ZEFSAII (Michael W. Deem and Ramdas Pophale) SiO2 
 PCOD9157847
Probable space group: P 21/M
;
_chemical_formula_sum "Si O2"
_cell_formula_units_Z 32
_cell_length_a 5.639926
_cell_length_b 22.225872
_cell_length_c 11.569961
_cell_angle_alpha 90.000000
_cell_angle_beta 120.232276
_cell_angle_gamma 90.000000
_cell_volume 1253.064655
_symmetry_space_group_name_H-M "P 21/M"
_symmetry_group_IT_number 11
_symmetry_cell_setting 'monoclinic'
loop_
_space_group_symop_operation_xyz
x,y,z
-x,1/2+y,-z
-x,-y,-z
x,1/2-y,z
loop_
_atom_site_type_symbol
_atom_site_label
_atom_site_fract_x
_atom_site_fract_y
_atom_site_fract_z
Si Si1 0.559646 0.820539 0.602650
Si Si2 0.219033 0.186328 0.048579
Si Si3 0.388364 0.654912 0.058313
Si Si4 0.951189 0.319132 0.400926
Si Si5 0.621327 0.439925 0.587958
Si Si6 0.793105 0.900537 0.335043
Si Si7 0.161613 0.533220 0.881165
Si Si8 0.357177 0.051207 0.135961
O O1 0.509318 0.750000 0.551317
O O2 0.371085 0.826965 0.668424
O O3 0.461080 0.876287 0.497847
O O4 0.889139 0.828268 0.680018
O O5 0.247055 0.250000 0.121505
O O6 0.884612 0.182356 0.948730
O O7 0.443320 0.188924 0.000347
O O8 0.283441 0.120430 0.109668
O O9 0.632167 0.641221 0.207049
O O10 0.278293 0.592372 0.975775
O O11 0.004222 0.250000 0.446902
O O12 0.075065 0.362063 0.528520
O O13 0.500000 0.500000 0.500000
O O14 0.456834 0.436331 0.667660
O O15 0.953195 0.435231 0.663061
O O16 0.321044 0.537197 0.798595
O O17 0.832867 0.532009 0.803483
O O18 0.244771 0.479659 0.989513
#
# Coordination Sequence:
#
# PCOD9157847 Si02
#       8
#     4   4   4   4   4   4   4   4
#     4   8  14  25  39  55  74  95 122 155 192 238
#     4  10  19  29  41  61  90 121 151 177 207 248
#     4  10  19  30  42  59  85 117 149 183 215 255
#     4   8  14  23  35  50  70  98 127 153 183 226
#     4  10  19  31  46  62  82 108 139 179 224 262
#     4  10  19  30  42  59  82 109 140 175 213 256
#     4   8  14  25  41  57  75 104 141 178 213 241
#     4   8  14  25  40  57  78 106 141 178 208 238
#
# _framework density 25.537391
#
# number of rings (size 3 to 8) (size 9 to 14) (size 15 to 20)
#    0.000    3.000    0.000    1.500    0.000    1.000 
#    0.000    5.000    0.000    0.000    0.000    0.000 
#    0.000    2.000    0.000    0.000    0.000    7.750 
#
# Total GULP energy -178332.053634 kJ/mol
# GULP energy per Si atom -5572.876676 kJ/mol
# Density = 2.547927 g / cm^3
# Si number density = 25.537391 Si / 1000 Ang^3
#
#
#
# Elastic Constant Matrix: (Units=GPa)
#
#
# Indices 1 2 3 4 5 6 
#
# 1 290.5719 52.8159 39.3227 0.0000 65.4493 0.0000
# 2 52.8159 153.5028 40.8513 0.0000 16.1511 0.0000
# 3 39.3227 40.8513 47.8226 0.0000 23.6155 0.0000
# 4 0.0000 0.0000 0.0000 -3.5043 0.0000 -48.1775
# 5 65.4493 16.1511 23.6155 0.0000 34.1246 0.0000
# 6 0.0000 0.0000 0.0000 -48.1775 0.0000 -29.7202
#
#
#
# Elastic Compliance Matrix: (Units=1/GPa)
#
#
# Indices 1 2 3 4 5 6 
#
# 1 0.006349 -0.001479 0.002599 0.000000 -0.013275 0.000000
# 2 -0.001479 0.008827 -0.008602 0.000000 0.004612 0.000000
# 3 0.002599 -0.008602 0.040368 0.000000 -0.028849 0.000000
# 4 0.000000 0.000000 0.000000 0.013406 0.000000 -0.021732
# 5 -0.013275 0.004612 -0.028849 0.000000 0.072546 0.000000
# 6 0.000000 0.000000 0.000000 -0.021732 0.000000 0.001581
#
#
# Mechanical properties :
#
#
# Convention : Reuss Voigt Hill
#
# Bulk Modulus (GPa) = 24.64323 84.20858 54.42590
# Shear Modulus (GPa) = 29.14299 24.10719 26.62509
#
# Velocity S-wave (km/s) = 3.38181 3.07578 3.23242
# Velocity P-wave (km/s) = 4.99196 6.75723 5.94053
#
# Compressibility (1/GPa) = 0.04057909
#
# Stress axis : x y z
#
# Youngs Moduli (GPa) = 157.51121 113.28367 24.77236
#
# Poissons Ratio (x) = 0.16757 -0.06437
# Poissons Ratio (y) = 0.23300 0.21308
# Poissons Ratio (z) = -0.40930 0.97443
#
# Static dielectric constant tensor:
#      x y z
#    x 2.101650 0.000000 0.001370 
#    y 0.000000 2.030850 0.000000 
#    z 0.001370 0.000000 1.981160 
# 
# From -- ./inp_files/57197.got.cif
#   From: 2010.05.17/outbox.cif.g08.bks.cpg/sg11_29_cif.got.tgz:57197.got - 2010.06.03 12:22:45.
