data_PCOD9157764
_publ_section_title
;
Structure prediction by ZEFSAII (Michael W. Deem and Ramdas Pophale) SiO2 
 PCOD9157764
Probable space group: P 21/M
;
_chemical_formula_sum "Si O2"
_cell_formula_units_Z 32
_cell_length_a 18.946201
_cell_length_b 15.819304
_cell_length_c 13.573300
_cell_angle_alpha 90.000000
_cell_angle_beta 20.140313
_cell_angle_gamma 90.000000
_cell_volume 1400.740394
_symmetry_space_group_name_H-M "P 21/M"
_symmetry_group_IT_number 11
_symmetry_cell_setting 'monoclinic'
loop_
_space_group_symop_operation_xyz
x,y,z
-x,1/2+y,-z
-x,-y,-z
x,1/2-y,z
loop_
_atom_site_type_symbol
_atom_site_label
_atom_site_fract_x
_atom_site_fract_y
_atom_site_fract_z
Si Si1 0.668309 0.339150 0.613106
Si Si2 0.853325 0.483347 0.493092
Si Si3 0.095712 0.559566 0.020321
Si Si4 0.587902 0.910339 0.204515
Si Si5 0.998636 0.348392 0.440919
Si Si6 0.490674 0.655659 0.530102
Si Si7 0.735679 0.843607 0.720706
Si Si8 0.307034 0.057181 0.573881
O O1 0.778602 0.250000 0.482093
O O2 0.791305 0.418824 0.488462
O O3 0.592225 0.349667 0.601947
O O4 0.464164 0.339450 0.947831
O O5 0.723155 0.568417 0.679154
O O6 0.063650 0.518814 0.170878
O O7 0.854983 0.423474 0.587906
O O8 0.870012 0.579930 0.271824
O O9 0.249797 0.636175 0.838483
O O10 0.196992 0.500017 0.803493
O O11 0.588152 0.905520 0.320767
O O12 0.498761 0.000185 0.284889
O O13 0.794679 0.872207 0.889789
O O14 0.937139 0.250000 0.502871
O O15 0.068150 0.353943 0.463407
O O16 0.539539 0.750000 0.437013
O O17 0.589441 0.634589 0.505320
O O18 0.750163 0.750000 0.653285
#
# Coordination Sequence:
#
# PCOD9157764 Si02
#       8
#     4   4   4   4   4   4   4   4
#     4  10  20  35  57  84 111 137 180 238 292 349
#     4  12  20  35  57  86 110 151 185 233 291 350
#     4  10  22  36  57  84 116 149 198 238 286 342
#     4  10  18  37  58  78 109 148 185 229 295 344
#     4  10  20  34  56  87 115 140 184 242 292 343
#     4  11  22  36  57  82 114 158 196 237 288 341
#     4   9  21  38  55  77 110 152 188 227 281 345
#     4  10  20  39  56  82 115 156 195 238 285 349
#
# _framework density 22.845061000000001
#
# number of rings (size 3 to 8) (size 9 to 14) (size 15 to 20)
#    0.000    1.750    1.250    6.000    0.000    1.000 
#    0.000    0.625    0.000    0.000    0.000    0.000 
#    0.000    0.000    0.000    0.000    0.000    0.000 
#
# Total GULP energy -178374.765633 kJ/mol
# GULP energy per Si atom -5574.211426 kJ/mol
# Density = 2.279306 g / cm^3
# Si number density = 22.845061 Si / 1000 Ang^3
#
#
#
# Elastic Constant Matrix: (Units=GPa)
#
#
# Indices 1 2 3 4 5 6 
#
# 1 57.0116 17.3823 1.3807 0.0000 -16.6180 0.0000
# 2 17.3823 79.2745 23.5052 0.0000 -7.7301 0.0000
# 3 1.3807 23.5052 31.0782 0.0000 -5.0274 0.0000
# 4 0.0000 0.0000 0.0000 18.0497 0.0000 1.4452
# 5 -16.6180 -7.7301 -5.0274 0.0000 28.6786 0.0000
# 6 0.0000 0.0000 0.0000 1.4452 0.0000 25.3239
#
#
#
# Elastic Compliance Matrix: (Units=1/GPa)
#
#
# Indices 1 2 3 4 5 6 
#
# 1 0.022688 -0.005222 0.004982 0.000000 0.012613 0.000000
# 2 -0.005222 0.017611 -0.013183 0.000000 -0.000590 0.000000
# 3 0.004982 -0.013183 0.043039 0.000000 0.006878 0.000000
# 4 0.000000 0.000000 0.000000 0.055657 0.000000 -0.003176
# 5 0.012613 -0.000590 0.006878 0.000000 0.043224 0.000000
# 6 0.000000 0.000000 0.000000 -0.003176 0.000000 0.039670
#
#
# Mechanical properties :
#
#
# Convention : Reuss Voigt Hill
#
# Bulk Modulus (GPa) = 17.70174 27.98898 22.84536
# Shear Modulus (GPa) = 18.68703 22.75016 20.71860
#
# Velocity S-wave (km/s) = 2.86316 3.15913 3.01477
# Velocity P-wave (km/s) = 4.32385 5.05816 4.70535
#
# Compressibility (1/GPa) = 0.05649161
#
# Stress axis : x y z
#
# Youngs Moduli (GPa) = 44.07582 56.78382 23.23489
#
# Poissons Ratio (x) = 0.29653 -0.11576
# Poissons Ratio (y) = 0.23017 0.30630
# Poissons Ratio (z) = -0.21958 0.74857
#
# Static dielectric constant tensor:
#      x y z
#    x 1.891500 0.000000 -0.031880 
#    y 0.000000 1.860160 0.000000 
#    z -0.031880 0.000000 1.871010 
# 
# From -- ./inp_files/22189.got.cif
#   From: 2010.05.17/outbox.cif.g08.bks.cpg/sg11_12_cif.got.tgz:22189.got - 2010.06.03 12:22:45.
