data_PCOD9157479
_publ_section_title
;
Structure prediction by ZEFSAII (Michael W. Deem and Ramdas Pophale) SiO2 
 PCOD9157479
Probable space group: P 21/M
;
_chemical_formula_sum "Si O2"
_cell_formula_units_Z 24
_cell_length_a 8.377543
_cell_length_b 16.736806
_cell_length_c 9.005529
_cell_angle_alpha 90.000000
_cell_angle_beta 88.162012
_cell_angle_gamma 90.000000
_cell_volume 1262.045409
_symmetry_space_group_name_H-M "P 21/M"
_symmetry_group_IT_number 11
_symmetry_cell_setting 'monoclinic'
loop_
_space_group_symop_operation_xyz
x,y,z
-x,1/2+y,-z
-x,-y,-z
x,1/2-y,z
loop_
_atom_site_type_symbol
_atom_site_label
_atom_site_fract_x
_atom_site_fract_y
_atom_site_fract_z
Si Si1 0.155698 0.938064 0.844234
Si Si2 0.723883 0.838720 0.207313
Si Si3 0.104302 0.660128 0.130924
Si Si4 0.167632 0.499031 0.293420
Si Si5 0.651022 0.944559 0.966155
Si Si6 0.666967 0.507497 0.410677
O O1 0.202283 0.010144 0.954831
O O2 0.294621 0.940666 0.715988
O O3 0.132245 0.864938 0.957659
O O4 0.997642 0.961757 0.759209
O O5 0.679339 0.750000 0.257744
O O6 0.639829 0.862077 0.053748
O O7 0.678570 0.908196 0.323847
O O8 0.914839 0.839855 0.172696
O O9 0.164412 0.750000 0.156434
O O10 0.178180 0.589950 0.230777
O O11 0.198696 0.496411 0.466113
O O12 0.303522 0.447061 0.206073
O O13 0.500000 0.000000 0.000000
O O14 0.500000 0.500000 0.500000
#
# Coordination Sequence:
#
# PCOD9157479 Si02
#       6
#     4   4   4   4   4   4
#     4  10  19  36  55  82 110 147 192 230 277 338
#     4  10  20  38  59  84 113 146 192 241 285 335
#     4  10  19  35  59  89 111 142 193 250 287 318
#     4  11  18  35  59  83 112 148 193 232 276 341
#     4  10  18  33  57  84 111 147 187 228 278 341
#     4  11  23  37  57  85 116 157 190 224 284 352
#
# _framework density 19.016749000000001
#
# number of rings (size 3 to 8) (size 9 to 14) (size 15 to 20)
#    0.000    1.667    5.000    3.500    0.000    0.000 
#    0.000   10.833    0.000    0.000    0.000    0.000 
#    0.000    0.000    0.000    0.000    0.000    0.000 
#
# Total GULP energy -133771.531849 kJ/mol
# GULP energy per Si atom -5573.813827 kJ/mol
# Density = 1.897347 g / cm^3
# Si number density = 19.016749 Si / 1000 Ang^3
#
#
#
# Elastic Constant Matrix: (Units=GPa)
#
#
# Indices 1 2 3 4 5 6 
#
# 1 59.4985 12.3036 13.1368 0.0000 -18.7789 0.0000
# 2 12.3036 110.5060 36.7007 0.0000 -7.1258 0.0000
# 3 13.1368 36.7007 101.1393 0.0000 -20.8055 0.0000
# 4 0.0000 0.0000 0.0000 20.2583 0.0000 -3.0657
# 5 -18.7789 -7.1258 -20.8055 0.0000 38.7218 0.0000
# 6 0.0000 0.0000 0.0000 -3.0657 0.0000 15.1864
#
#
#
# Elastic Compliance Matrix: (Units=1/GPa)
#
#
# Indices 1 2 3 4 5 6 
#
# 1 0.020132 -0.001602 -0.000096 0.000000 0.009417 0.000000
# 2 -0.001602 0.010417 -0.003752 0.000000 -0.000876 0.000000
# 3 -0.000096 -0.003752 0.012490 0.000000 0.005974 0.000000
# 4 0.000000 0.000000 0.000000 0.050918 0.000000 0.010279
# 5 0.009417 -0.000876 0.005974 0.000000 0.033441 0.000000
# 6 0.000000 0.000000 0.000000 0.010279 0.000000 0.067923
#
#
# Mechanical properties :
#
#
# Convention : Reuss Voigt Hill
#
# Bulk Modulus (GPa) = 31.11593 43.93621 37.52607
# Shear Modulus (GPa) = 23.04828 28.76681 25.90755
#
# Velocity S-wave (km/s) = 3.48515 3.89358 3.69501
# Velocity P-wave (km/s) = 5.70903 6.58539 6.16280
#
# Compressibility (1/GPa) = 0.03213788
#
# Stress axis : x y z
#
# Youngs Moduli (GPa) = 49.67252 95.99355 80.06158
#
# Poissons Ratio (x) = 0.15380 0.00771
# Poissons Ratio (y) = 0.07959 0.30041
# Poissons Ratio (z) = 0.00479 0.36020
#
# Static dielectric constant tensor:
#      x y z
#    x 1.748670 0.000000 -0.011980 
#    y 0.000000 1.676410 0.000000 
#    z -0.011980 0.000000 1.680820 
# 
# From -- ./inp_files/13191.got.cif
#   From: 2010.05.17/outbox.cif.g08.bks.cpg/sg11_7_cif.got.tgz:13191.got - 2010.06.03 12:22:45.
