data_PCOD9157082
_publ_section_title
;
Structure prediction by ZEFSAII (Michael W. Deem and Ramdas Pophale) SiO2 
 PCOD9157082
Probable space group: P 21/M
;
_chemical_formula_sum "Si O2"
_cell_formula_units_Z 32
_cell_length_a 26.653614
_cell_length_b 9.161583
_cell_length_c 21.706847
_cell_angle_alpha 90.000000
_cell_angle_beta 159.532125
_cell_angle_gamma 90.000000
_cell_volume 1853.518089
_symmetry_space_group_name_H-M "P 21/M"
_symmetry_group_IT_number 11
_symmetry_cell_setting 'monoclinic'
loop_
_space_group_symop_operation_xyz
x,y,z
-x,1/2+y,-z
-x,-y,-z
x,1/2-y,z
loop_
_atom_site_type_symbol
_atom_site_label
_atom_site_fract_x
_atom_site_fract_y
_atom_site_fract_z
Si Si1 0.370945 0.575503 0.815038
Si Si2 0.951863 0.075948 0.507563
Si Si3 0.724605 0.581817 0.415368
Si Si4 0.822485 0.423137 0.646529
Si Si5 0.644345 0.580406 0.683125
Si Si6 0.142583 0.420201 0.187124
Si Si7 0.052825 0.582686 0.742836
Si Si8 0.147065 0.076011 0.969519
O O1 0.390372 0.750000 0.833907
O O2 0.216553 0.548245 0.670419
O O3 0.360097 0.505621 0.734549
O O4 0.500000 0.500000 0.000000
O O5 0.971394 0.250000 0.526691
O O6 0.000000 0.000000 0.500000
O O7 0.042775 0.009130 0.668707
O O8 0.677145 0.750000 0.366199
O O9 0.730149 0.499125 0.486748
O O10 0.889817 0.583803 0.581713
O O11 0.795937 0.250000 0.618575
O O12 0.800752 0.499212 0.686999
O O13 0.990761 0.443569 0.821673
O O14 0.500000 0.500000 0.500000
O O15 0.612715 0.750000 0.658721
O O16 0.747695 0.572486 0.743083
O O17 0.731750 0.524965 0.843261
O O18 0.113494 0.250000 0.167516
O O19 0.000000 0.500000 0.000000
O O20 0.095456 0.750000 0.780456
O O21 0.145100 0.507892 0.902676
O O22 0.162091 0.250000 0.976383
#
# Coordination Sequence:
#
# PCOD9157082 Si02
#       8
#     4   4   4   4   4   4   4   4
#     4  10  20  34  54  80 109 144 180 217 261 313
#     4  10  20  34  54  80 109 141 175 216 264 310
#     4   9  17  30  49  77 108 139 175 217 261 310
#     4  10  18  31  52  79 108 136 171 220 268 311
#     4  10  22  38  54  76 106 141 177 216 262 316
#     4  11  21  35  54  80 108 136 175 220 265 313
#     4   9  17  29  49  78 105 133 174 217 259 309
#     4   9  17  32  51  74 105 136 170 215 263 310
#
# _framework density 17.264465999999999
#
# number of rings (size 3 to 8) (size 9 to 14) (size 15 to 20)
#    0.000    2.250    1.250    2.250    0.000    6.500 
#    0.000    0.000    2.750    0.000    0.000    0.000 
#    0.000    0.000    0.000    0.000    0.000    0.000 
#
# Total GULP energy -178508.895632 kJ/mol
# GULP energy per Si atom -5578.402988 kJ/mol
# Density = 1.722517 g / cm^3
# Si number density = 17.264466 Si / 1000 Ang^3
#
#
#
# Elastic Constant Matrix: (Units=GPa)
#
#
# Indices 1 2 3 4 5 6 
#
# 1 81.6552 61.4398 50.7676 0.0000 -44.4875 0.0000
# 2 61.4398 120.4969 72.4218 0.0000 -27.9370 0.0000
# 3 50.7676 72.4218 122.5622 0.0000 -42.3654 0.0000
# 4 0.0000 0.0000 0.0000 31.1691 0.0000 -7.9814
# 5 -44.4875 -27.9370 -42.3654 0.0000 36.5450 0.0000
# 6 0.0000 0.0000 0.0000 -7.9814 0.0000 31.8905
#
#
#
# Elastic Compliance Matrix: (Units=1/GPa)
#
#
# Indices 1 2 3 4 5 6 
#
# 1 0.057326 -0.020664 0.011892 0.000000 0.067774 0.000000
# 2 -0.020664 0.020382 -0.011336 0.000000 -0.022715 0.000000
# 3 0.011892 -0.011336 0.019924 0.000000 0.028908 0.000000
# 4 0.000000 0.000000 0.000000 0.034280 0.000000 0.008579
# 5 0.067774 -0.022715 0.028908 0.000000 0.126013 0.000000
# 6 0.000000 0.000000 0.000000 0.008579 0.000000 0.033505
#
#
# Mechanical properties :
#
#
# Convention : Reuss Voigt Hill
#
# Bulk Modulus (GPa) = 17.41690 77.10807 47.26248
# Shear Modulus (GPa) = 14.25377 29.25994 21.75685
#
# Velocity S-wave (km/s) = 2.87647 4.12127 3.55379
# Velocity P-wave (km/s) = 4.59807 8.21014 6.65389
#
# Compressibility (1/GPa) = 0.05741550
#
# Stress axis : x y z
#
# Youngs Moduli (GPa) = 17.44422 49.06303 50.19016
#
# Poissons Ratio (x) = 1.01382 -0.59684
# Poissons Ratio (y) = 0.36046 0.56897
# Poissons Ratio (z) = -0.20744 0.55619
#
# Static dielectric constant tensor:
#      x y z
#    x 1.567780 0.000000 -0.004860 
#    y 0.000000 1.581430 0.000000 
#    z -0.004860 0.000000 1.571950 
# 
# From -- ./inp_files/67004.got.cif
#   From: 2010.05.17/outbox.cif.g08.bks.cpg/sg11_34_cif.got.tgz:67004.got - 2010.06.03 12:22:45.
