data_PCOD9157349
_publ_section_title
;
Structure prediction by ZEFSAII (Michael W. Deem and Ramdas Pophale) SiO2 
 PCOD9157349
Probable space group: P 21/M
;
_chemical_formula_sum "Si O2"
_cell_formula_units_Z 32
_cell_length_a 11.925757
_cell_length_b 14.253867
_cell_length_c 16.356534
_cell_angle_alpha 90.000000
_cell_angle_beta 28.793910
_cell_angle_gamma 90.000000
_cell_volume 1339.217132
_symmetry_space_group_name_H-M "P 21/M"
_symmetry_group_IT_number 11
_symmetry_cell_setting 'monoclinic'
loop_
_space_group_symop_operation_xyz
x,y,z
-x,1/2+y,-z
-x,-y,-z
x,1/2-y,z
loop_
_atom_site_type_symbol
_atom_site_label
_atom_site_fract_x
_atom_site_fract_y
_atom_site_fract_z
Si Si1 0.754320 0.851743 0.725263
Si Si2 0.382410 0.566379 0.171915
Si Si3 0.260542 0.601990 0.438255
Si Si4 0.775189 0.853437 0.147855
Si Si5 0.804944 0.501000 0.252101
Si Si6 0.884586 0.609967 0.453536
Si Si7 0.867806 0.858238 0.893008
Si Si8 0.452839 0.146800 0.468840
O O1 0.639773 0.750000 0.814363
O O2 0.819556 0.856158 0.586425
O O3 0.006588 0.852158 0.609175
O O4 0.627458 0.952055 0.823081
O O5 0.321940 0.600194 0.302670
O O6 0.162119 0.605968 0.263381
O O7 0.633903 0.610553 0.995577
O O8 0.492042 0.637465 0.334739
O O9 0.211200 0.495136 0.489731
O O10 0.845711 0.750000 0.130440
O O11 0.905036 0.932357 0.117490
O O12 0.821189 0.861090 0.021395
O O13 0.650159 0.579229 0.396423
O O14 0.663202 0.416177 0.300780
O O15 0.950549 0.444092 0.227388
O O16 0.744097 0.658249 0.472542
O O17 0.929336 0.750000 0.834810
O O18 0.529351 0.250000 0.447752
#
# Coordination Sequence:
#
# PCOD9157349 Si02
#       8
#     4   4   4   4   4   4   4   4
#     4   9  15  25  46  80 117 146 172 210 267 324
#     4   8  17  30  52  79 109 137 175 219 268 319
#     4   8  14  27  47  77 112 144 172 216 263 314
#     4  10  18  32  56  83 110 141 178 217 271 325
#     4  11  23  39  55  76 111 141 184 232 263 310
#     4   9  16  31  51  78 109 141 179 222 262 311
#     4  10  21  38  59  79 103 142 180 220 275 335
#     4  11  23  38  58  79 104 144 185 225 272 316
#
# _framework density 23.894556000000001
#
# number of rings (size 3 to 8) (size 9 to 14) (size 15 to 20)
#    0.000    2.500    1.250    3.375    0.000    3.500 
#    0.000    1.875    0.000    0.000    0.000    0.000 
#    0.000    0.000    0.000    0.000    0.000    0.000 
#
# Total GULP energy -178548.312763 kJ/mol
# GULP energy per Si atom -5579.634774 kJ/mol
# Density = 2.384017 g / cm^3
# Si number density = 23.894556 Si / 1000 Ang^3
#
#
#
# Elastic Constant Matrix: (Units=GPa)
#
#
# Indices 1 2 3 4 5 6 
#
# 1 83.0310 16.5901 17.2420 0.0000 -11.6675 0.0000
# 2 16.5901 161.6696 26.8739 0.0000 -6.0317 0.0000
# 3 17.2420 26.8739 40.8802 0.0000 -9.6464 0.0000
# 4 0.0000 0.0000 0.0000 1.4258 0.0000 -1.5962
# 5 -11.6675 -6.0317 -9.6464 0.0000 29.7260 0.0000
# 6 0.0000 0.0000 0.0000 -1.5962 0.0000 27.6992
#
#
#
# Elastic Compliance Matrix: (Units=1/GPa)
#
#
# Indices 1 2 3 4 5 6 
#
# 1 0.013613 -0.000505 -0.004519 0.000000 0.003774 0.000000
# 2 -0.000505 0.006963 -0.004416 0.000000 -0.000218 0.000000
# 3 -0.004519 -0.004416 0.031016 0.000000 0.007395 0.000000
# 4 0.000000 0.000000 0.000000 0.749713 0.000000 0.043204
# 5 0.003774 -0.000218 0.007395 0.000000 0.037477 0.000000
# 6 0.000000 0.000000 0.000000 0.043204 0.000000 0.038592
#
#
# Mechanical properties :
#
#
# Convention : Reuss Voigt Hill
#
# Bulk Modulus (GPa) = 30.56976 45.22143 37.89559
# Shear Modulus (GPa) = 5.51171 26.76187 16.13679
#
# Velocity S-wave (km/s) = 1.52042 3.35027 2.60154
# Velocity P-wave (km/s) = 3.98794 5.82514 4.99179
#
# Compressibility (1/GPa) = 0.03271207
#
# Stress axis : x y z
#
# Youngs Moduli (GPa) = 73.45710 143.61237 32.24169
#
# Poissons Ratio (x) = 0.07252 0.14571
# Poissons Ratio (y) = 0.03709 0.14238
# Poissons Ratio (z) = 0.33196 0.63420
#
# Static dielectric constant tensor:
#      x y z
#    x 1.939260 0.000000 0.031090 
#    y 0.000000 1.912520 0.000000 
#    z 0.031090 0.000000 2.010800 
# 
# From -- ./inp_files/59465.got.cif
#   From: 2010.05.17/outbox.cif.g08.bks.cpg/sg11_30_cif.got.tgz:59465.got - 2010.06.03 12:22:45.
