data_PCOD9157517
_publ_section_title
;
Structure prediction by ZEFSAII (Michael W. Deem and Ramdas Pophale) SiO2 
 PCOD9157517
Probable space group: P 21/M
;
_chemical_formula_sum "Si O2"
_cell_formula_units_Z 28
_cell_length_a 14.740930
_cell_length_b 13.414137
_cell_length_c 9.748699
_cell_angle_alpha 90.000000
_cell_angle_beta 139.277580
_cell_angle_gamma 90.000000
_cell_volume 1257.606913
_symmetry_space_group_name_H-M "P 21/M"
_symmetry_group_IT_number 11
_symmetry_cell_setting 'monoclinic'
loop_
_space_group_symop_operation_xyz
x,y,z
-x,1/2+y,-z
-x,-y,-z
x,1/2-y,z
loop_
_atom_site_type_symbol
_atom_site_label
_atom_site_fract_x
_atom_site_fract_y
_atom_site_fract_z
Si Si1 0.311734 0.077138 0.365318
Si Si2 0.278135 0.429564 0.641682
Si Si3 0.030438 0.860795 0.710151
Si Si4 0.374182 0.365979 0.023854
Si Si5 0.881554 0.567484 0.090105
Si Si6 0.420409 0.637795 0.497737
Si Si7 0.845367 0.140134 0.451339
O O1 0.323547 0.956884 0.361646
O O2 0.308895 0.100350 0.521842
O O3 0.448569 0.125291 0.455117
O O4 0.177398 0.105725 0.122135
O O5 0.387248 0.398947 0.882281
O O6 0.248775 0.547062 0.617792
O O7 0.131641 0.377031 0.511181
O O8 0.052557 0.750000 0.791682
O O9 0.112503 0.869140 0.660377
O O10 0.072168 0.951967 0.855291
O O11 0.335962 0.250000 0.984439
O O12 0.248303 0.423684 0.953998
O O13 0.508582 0.377588 0.272419
O O14 0.012314 0.627189 0.299200
O O15 0.363464 0.750000 0.421748
O O16 0.785382 0.250000 0.406553
#
# Coordination Sequence:
#
# PCOD9157517 Si02
#       7
#     4   4   4   4   4   4   4
#     4  10  23  37  57  82 110 140 179 227 279 321
#     4  11  20  34  54  85 113 139 177 230 267 311
#     4  10  19  32  53  83 113 145 183 221 258 312
#     4  10  18  33  60  81 101 143 187 222 266 319
#     4  10  18  35  54  78 110 151 181 213 262 328
#     4   9  21  42  60  76 103 143 185 224 275 333
#     4  10  19  33  54  82 113 149 184 215 257 319
#
# _framework density 22.264509
#
# number of rings (size 3 to 8) (size 9 to 14) (size 15 to 20)
#    0.000    2.000    2.857    1.714    0.000    5.714 
#    0.000    1.429    0.000    0.000    0.000    0.000 
#    0.000    0.000    0.000    0.000    0.000    0.000 
#
# Total GULP energy -156548.095785 kJ/mol
# GULP energy per Si atom -5591.003421 kJ/mol
# Density = 2.221383 g / cm^3
# Si number density = 22.264509 Si / 1000 Ang^3
#
#
#
# Elastic Constant Matrix: (Units=GPa)
#
#
# Indices 1 2 3 4 5 6 
#
# 1 53.4134 -4.0099 10.6109 0.0000 -22.9669 0.0000
# 2 -4.0099 71.5258 3.4060 0.0000 5.5060 0.0000
# 3 10.6109 3.4060 59.8351 0.0000 -28.0334 0.0000
# 4 0.0000 0.0000 0.0000 16.1863 0.0000 -0.5419
# 5 -22.9669 5.5060 -28.0334 0.0000 31.1987 0.0000
# 6 0.0000 0.0000 0.0000 -0.5419 0.0000 1.9365
#
#
#
# Elastic Compliance Matrix: (Units=1/GPa)
#
#
# Indices 1 2 3 4 5 6 
#
# 1 0.029836 -0.001071 0.008892 0.000000 0.030143 0.000000
# 2 -0.001071 0.014628 -0.003837 0.000000 -0.006818 0.000000
# 3 0.008892 -0.003837 0.032362 0.000000 0.036302 0.000000
# 4 0.000000 0.000000 0.000000 0.062365 0.000000 0.017452
# 5 0.030143 -0.006818 0.036302 0.000000 0.088065 0.000000
# 6 0.000000 0.000000 0.000000 0.017452 0.000000 0.521290
#
#
# Mechanical properties :
#
#
# Convention : Reuss Voigt Hill
#
# Bulk Modulus (GPa) = 11.79319 22.75427 17.27373
# Shear Modulus (GPa) = 6.50328 21.51544 14.00936
#
# Velocity S-wave (km/s) = 1.71092 3.11200 2.51116
# Velocity P-wave (km/s) = 3.03502 4.81195 4.02283
#
# Compressibility (1/GPa) = 0.08479467
#
# Stress axis : x y z
#
# Youngs Moduli (GPa) = 33.51657 68.35988 30.90053
#
# Poissons Ratio (x) = 0.07322 -0.27478
# Poissons Ratio (y) = 0.03590 0.11857
# Poissons Ratio (z) = -0.29804 0.26230
#
# Static dielectric constant tensor:
#      x y z
#    x 1.833940 0.000000 -0.000180 
#    y 0.000000 1.822250 0.000000 
#    z -0.000180 0.000000 1.808230 
# 
# From -- ./inp_files/21960.got.cif
#   From: 2010.05.17/outbox.cif.g08.bks.cpg/sg11_11_cif.got.tgz:21960.got - 2010.06.03 12:22:45.
