data_PCOD9157808
_publ_section_title
;
Structure prediction by ZEFSAII (Michael W. Deem and Ramdas Pophale) SiO2 
 PCOD9157808
Probable space group: P 21/M
;
_chemical_formula_sum "Si O2"
_cell_formula_units_Z 28
_cell_length_a 11.366089
_cell_length_b 21.910313
_cell_length_c 5.145338
_cell_angle_alpha 90.000000
_cell_angle_beta 83.602275
_cell_angle_gamma 90.000000
_cell_volume 1273.387111
_symmetry_space_group_name_H-M "P 21/M"
_symmetry_group_IT_number 11
_symmetry_cell_setting 'monoclinic'
loop_
_space_group_symop_operation_xyz
x,y,z
-x,1/2+y,-z
-x,-y,-z
x,1/2-y,z
loop_
_atom_site_type_symbol
_atom_site_label
_atom_site_fract_x
_atom_site_fract_y
_atom_site_fract_z
Si Si1 0.602660 0.924423 0.673439
Si Si2 0.222470 0.606778 0.367529
Si Si3 0.162312 0.821471 0.898875
Si Si4 0.237100 0.321884 0.474624
Si Si5 0.903678 0.633804 0.993506
Si Si6 0.174346 0.492201 0.113645
Si Si7 0.634505 0.468060 0.309005
O O1 0.638692 0.855095 0.617669
O O2 0.714119 0.954236 0.794551
O O3 0.473989 0.938664 0.820800
O O4 0.601035 0.964155 0.409251
O O5 0.175332 0.648232 0.612663
O O6 0.140990 0.547842 0.311101
O O7 0.340472 0.575287 0.450701
O O8 0.239103 0.646546 0.105013
O O9 0.185590 0.750000 0.878677
O O10 0.028033 0.834894 0.019694
O O11 0.246570 0.250000 0.515688
O O12 0.152330 0.335596 0.249543
O O13 0.181731 0.354572 0.741022
O O14 0.915884 0.560948 0.939127
O O15 0.238688 0.525282 0.858465
#
# Coordination Sequence:
#
# PCOD9157808 Si02
#       7
#     4   4   4   4   4   4   4
#     4   9  20  33  65  93 125 163 203 247 315 373
#     4  11  24  41  65  90 124 160 208 263 306 364
#     4  12  25  44  62  86 120 172 217 253 305 377
#     4  11  21  39  59  91 126 160 203 256 308 380
#     4  11  24  40  66  91 121 160 206 260 325 367
#     4  10  20  39  65  96 131 153 203 264 324 368
#     4  10  18  40  61  96 123 162 201 260 306 371
#
# _framework density 21.988603000000001
#
# number of rings (size 3 to 8) (size 9 to 14) (size 15 to 20)
#    0.000    1.429    2.857    3.000    0.000    1.143 
#    0.000    1.429    0.000    0.000    0.000    0.000 
#    0.000    0.000    0.000    0.000    0.000    0.000 
#
# Total GULP energy -156344.667346 kJ/mol
# GULP energy per Si atom -5583.738120 kJ/mol
# Density = 2.193856 g / cm^3
# Si number density = 21.988603 Si / 1000 Ang^3
#
#
#
# Elastic Constant Matrix: (Units=GPa)
#
#
# Indices 1 2 3 4 5 6 
#
# 1 31.0396 14.9494 -0.0944 0.0000 8.0328 0.0000
# 2 14.9494 158.9665 37.6377 0.0000 6.2316 0.0000
# 3 -0.0944 37.6377 100.5111 0.0000 3.0976 0.0000
# 4 0.0000 0.0000 0.0000 32.0348 0.0000 1.6877
# 5 8.0328 6.2316 3.0976 0.0000 22.6660 0.0000
# 6 0.0000 0.0000 0.0000 1.6877 0.0000 21.9837
#
#
#
# Elastic Compliance Matrix: (Units=1/GPa)
#
#
# Indices 1 2 3 4 5 6 
#
# 1 0.037078 -0.003400 0.001691 0.000000 -0.012437 0.000000
# 2 -0.003400 0.007269 -0.002712 0.000000 -0.000423 0.000000
# 3 0.001691 -0.002712 0.011008 0.000000 -0.001358 0.000000
# 4 0.000000 0.000000 0.000000 0.031343 0.000000 -0.002406
# 5 -0.012437 -0.000423 -0.001358 0.000000 0.048828 0.000000
# 6 0.000000 0.000000 0.000000 -0.002406 0.000000 0.045673
#
#
# Mechanical properties :
#
#
# Convention : Reuss Voigt Hill
#
# Bulk Modulus (GPa) = 21.49898 43.94472 32.72185
# Shear Modulus (GPa) = 24.32552 31.20520 27.76536
#
# Velocity S-wave (km/s) = 3.32969 3.77125 3.55733
# Velocity P-wave (km/s) = 4.95792 6.24434 5.63794
#
# Compressibility (1/GPa) = 0.04651383
#
# Stress axis : x y z
#
# Youngs Moduli (GPa) = 26.97020 137.56908 90.84139
#
# Poissons Ratio (x) = 0.46770 -0.15363
# Poissons Ratio (y) = 0.09169 0.24638
# Poissons Ratio (z) = -0.04561 0.37311
#
# Static dielectric constant tensor:
#      x y z
#    x 1.873070 0.000000 0.001890 
#    y 0.000000 1.815830 0.000000 
#    z 0.001890 0.000000 1.869670 
# 
# From -- ./inp_files/4900.got.cif
#   From: 2010.05.17/outbox.cif.g08.bks.cpg/sg11_3_cif.got.tgz:4900.got - 2010.06.03 12:22:45.
