data_PCOD9157515
_publ_section_title
;
Structure prediction by ZEFSAII (Michael W. Deem and Ramdas Pophale) SiO2 
 PCOD9157515
Probable space group: P 21/M
;
_chemical_formula_sum "Si O2"
_cell_formula_units_Z 24
_cell_length_a 10.140930
_cell_length_b 7.688790
_cell_length_c 21.802634
_cell_angle_alpha 90.000000
_cell_angle_beta 53.384691
_cell_angle_gamma 90.000000
_cell_volume 1364.505727
_symmetry_space_group_name_H-M "P 21/M"
_symmetry_group_IT_number 11
_symmetry_cell_setting 'monoclinic'
loop_
_space_group_symop_operation_xyz
x,y,z
-x,1/2+y,-z
-x,-y,-z
x,1/2-y,z
loop_
_atom_site_type_symbol
_atom_site_label
_atom_site_fract_x
_atom_site_fract_y
_atom_site_fract_z
Si Si1 0.738158 0.250000 0.808020
Si Si2 0.838933 0.750000 0.201841
Si Si3 0.100576 0.250000 0.671502
Si Si4 0.589858 0.451627 0.284160
Si Si5 0.814046 0.955818 0.028657
Si Si6 0.518793 0.547369 0.812864
Si Si7 0.363235 0.954946 0.588084
Si Si8 0.808710 0.250000 0.934463
O O1 0.634384 0.419255 0.818221
O O2 0.762547 0.250000 0.875369
O O3 0.904229 0.250000 0.719918
O O4 0.891420 0.750000 0.257450
O O5 0.733880 0.578542 0.224779
O O6 0.994069 0.750000 0.116614
O O7 0.205709 0.419561 0.622494
O O8 0.637897 0.250000 0.266518
O O9 0.457065 0.479619 0.267391
O O10 0.562134 0.488123 0.364021
O O11 0.807571 0.750000 0.017413
O O12 0.764356 0.075965 0.984093
O O13 0.669920 0.003136 0.116873
O O14 0.000000 0.000000 0.000000
O O15 0.548218 0.750000 0.818265
O O16 0.321233 0.750000 0.596468
O O17 0.500000 0.000000 0.500000
#
# Coordination Sequence:
#
# PCOD9157515 Si02
#       8
#     2   2   2   4   4   4   4   2
#     4  11  25  42  60  80 117 162 208 238 275 353
#     4   9  17  32  54  78 113 141 183 232 294 346
#     4   9  20  36  54  85 117 152 184 225 281 347
#     4   9  19  32  56  85 112 147 188 235 286 349
#     4  12  23  39  60  87 117 146 191 259 312 351
#     4  11  22  40  59  82 110 158 206 243 288 346
#     4  10  18  33  59  96 124 144 176 235 300 349
#     4  11  24  38  56  85 111 155 195 243 302 352
#
# _framework density 17.588787
#
# number of rings (size 3 to 8) (size 9 to 14) (size 15 to 20)
#    0.000    1.667    3.333    1.500    0.000    4.000 
#    0.000    3.333    0.000    1.000    0.000    0.000 
#    0.000    0.000    0.000    0.000    0.000    0.000 
#
# Total GULP energy -133627.614776 kJ/mol
# GULP energy per Si atom -5567.817282 kJ/mol
# Density = 1.754875 g / cm^3
# Si number density = 17.588787 Si / 1000 Ang^3
#
#
#
# Elastic Constant Matrix: (Units=GPa)
#
#
# Indices 1 2 3 4 5 6 
#
# 1 87.5943 55.5402 47.9829 0.0000 8.1552 0.0000
# 2 55.5402 117.2701 46.3845 0.0000 12.5848 0.0000
# 3 47.9829 46.3845 111.6724 0.0000 7.6949 0.0000
# 4 0.0000 0.0000 0.0000 30.2474 0.0000 5.3994
# 5 8.1552 12.5848 7.6949 0.0000 25.8460 0.0000
# 6 0.0000 0.0000 0.0000 5.3994 0.0000 19.3592
#
#
#
# Elastic Compliance Matrix: (Units=1/GPa)
#
#
# Indices 1 2 3 4 5 6 
#
# 1 0.018534 -0.006630 -0.005135 0.000000 -0.001091 0.000000
# 2 -0.006630 0.012951 -0.002287 0.000000 -0.003533 0.000000
# 3 -0.005135 -0.002287 0.012172 0.000000 -0.000890 0.000000
# 4 0.000000 0.000000 0.000000 0.034793 0.000000 -0.009704
# 5 -0.001091 -0.003533 -0.000890 0.000000 0.041020 0.000000
# 6 0.000000 0.000000 0.000000 -0.009704 0.000000 0.054362
#
#
# Mechanical properties :
#
#
# Convention : Reuss Voigt Hill
#
# Bulk Modulus (GPa) = 64.29184 68.48355 66.38769
# Shear Modulus (GPa) = 24.14043 26.19915 25.16979
#
# Velocity S-wave (km/s) = 3.70873 3.86364 3.78698
# Velocity P-wave (km/s) = 7.41429 7.67620 7.54638
#
# Compressibility (1/GPa) = 0.01555407
#
# Stress axis : x y z
#
# Youngs Moduli (GPa) = 53.95372 77.21297 82.15301
#
# Poissons Ratio (x) = 0.51192 0.42183
# Poissons Ratio (y) = 0.35771 0.18790
# Poissons Ratio (z) = 0.27704 0.17660
#
# Static dielectric constant tensor:
#      x y z
#    x 1.638000 0.000000 0.010410 
#    y 0.000000 1.642710 0.000000 
#    z 0.010410 0.000000 1.594160 
# 
# From -- ./inp_files/63188.got.cif
#   From: 2010.05.17/outbox.cif.g08.bks.cpg/sg11_32_cif.got.tgz:63188.got - 2010.06.03 12:22:45.
