data_PCOD9157230
_publ_section_title
;
Structure prediction by ZEFSAII (Michael W. Deem and Ramdas Pophale) SiO2 
 PCOD9157230
Probable space group: P 21/M
;
_chemical_formula_sum "Si O2"
_cell_formula_units_Z 32
_cell_length_a 11.392438
_cell_length_b 19.438864
_cell_length_c 20.976724
_cell_angle_alpha 90.000000
_cell_angle_beta 24.405974
_cell_angle_gamma 90.000000
_cell_volume 1919.485701
_symmetry_space_group_name_H-M "P 21/M"
_symmetry_group_IT_number 11
_symmetry_cell_setting 'monoclinic'
loop_
_space_group_symop_operation_xyz
x,y,z
-x,1/2+y,-z
-x,-y,-z
x,1/2-y,z
loop_
_atom_site_type_symbol
_atom_site_label
_atom_site_fract_x
_atom_site_fract_y
_atom_site_fract_z
Si Si1 0.843118 0.172368 0.251002
Si Si2 0.241713 0.508805 0.214459
Si Si3 0.511671 0.828670 0.449811
Si Si4 0.597134 0.888023 0.962499
Si Si5 0.611178 0.478264 0.515693
Si Si6 0.154470 0.829242 0.082442
Si Si7 0.676017 0.451765 0.095513
Si Si8 0.213163 0.548243 0.814003
O O1 0.863417 0.250000 0.218560
O O2 0.580612 0.167254 0.430527
O O3 0.811059 0.120133 0.209622
O O4 0.131141 0.152260 0.146092
O O5 0.406278 0.577565 0.112156
O O6 0.388253 0.476744 0.204133
O O7 0.905961 0.516171 0.383907
O O8 0.289985 0.452663 0.134529
O O9 0.434463 0.750000 0.467533
O O10 0.355613 0.895360 0.497904
O O11 0.843824 0.838663 0.268607
O O12 0.393486 0.844209 0.017448
O O13 0.500000 0.500000 0.500000
O O14 0.391112 0.500463 0.678300
O O15 0.171988 0.750000 0.052040
O O16 0.209770 0.884558 0.999020
O O17 0.654703 0.442367 0.181560
O O18 0.907992 0.511932 0.971207
#
# Coordination Sequence:
#
# PCOD9157230 Si02
#       8
#     4   4   4   4   4   4   4   4
#     4  11  21  35  55  82 112 142 177 226 289 336
#     4  10  20  32  55  81 112 141 182 226 277 320
#     4  10  20  33  51  82 113 138 177 224 279 335
#     4  10  18  32  52  84 111 136 176 230 273 330
#     4  12  20  34  58  85 109 146 179 231 289 330
#     4  10  20  34  55  81 111 144 179 223 278 332
#     4  10  22  38  54  79 108 146 188 233 259 326
#     4  11  22  37  57  78 108 143 192 228 272 324
#
# _framework density 16.671130999999999
#
# number of rings (size 3 to 8) (size 9 to 14) (size 15 to 20)
#    0.000    1.500    5.000    1.125    1.750    1.000 
#    0.000    0.000    0.000    0.000    0.000    0.000 
#    0.000    0.000    0.000    0.000    0.000    0.000 
#
# Total GULP energy -178438.747418 kJ/mol
# GULP energy per Si atom -5576.210857 kJ/mol
# Density = 1.663319 g / cm^3
# Si number density = 16.671131 Si / 1000 Ang^3
#
#
#
# Elastic Constant Matrix: (Units=GPa)
#
#
# Indices 1 2 3 4 5 6 
#
# 1 95.8508 36.7638 34.9164 0.0000 13.5064 0.0000
# 2 36.7638 99.8684 9.8094 0.0000 17.6576 0.0000
# 3 34.9164 9.8094 58.0748 0.0000 4.6404 0.0000
# 4 0.0000 0.0000 0.0000 20.3647 0.0000 -3.0105
# 5 13.5064 17.6576 4.6404 0.0000 20.7774 0.0000
# 6 0.0000 0.0000 0.0000 -3.0105 0.0000 15.4322
#
#
#
# Elastic Compliance Matrix: (Units=1/GPa)
#
#
# Indices 1 2 3 4 5 6 
#
# 1 0.015752 -0.004114 -0.008387 0.000000 -0.004870 0.000000
# 2 -0.004114 0.012943 0.000970 0.000000 -0.008542 0.000000
# 3 -0.008387 0.000970 0.022123 0.000000 -0.000313 0.000000
# 4 0.000000 0.000000 0.000000 0.050563 0.000000 0.009864
# 5 -0.004870 -0.008542 -0.000313 0.000000 0.058624 0.000000
# 6 0.000000 0.000000 0.000000 0.009864 0.000000 0.066724
#
#
# Mechanical properties :
#
#
# Convention : Reuss Voigt Hill
#
# Bulk Modulus (GPa) = 36.02828 46.30811 41.16820
# Shear Modulus (GPa) = 19.30193 22.80182 21.05187
#
# Velocity S-wave (km/s) = 3.40635 3.70231 3.55741
# Velocity P-wave (km/s) = 6.09336 6.79072 6.45147
#
# Compressibility (1/GPa) = 0.02775597
#
# Stress axis : x y z
#
# Youngs Moduli (GPa) = 63.48355 77.26461 45.20240
#
# Poissons Ratio (x) = 0.31785 0.37910
# Poissons Ratio (y) = 0.26116 -0.04383
# Poissons Ratio (z) = 0.53241 -0.07493
#
# Static dielectric constant tensor:
#      x y z
#    x 1.536280 0.000000 -0.002310 
#    y 0.000000 1.575550 0.000000 
#    z -0.002310 0.000000 1.580130 
# 
# From -- ./inp_files/64921.got.cif
#   From: 2010.05.17/outbox.cif.g08.bks.cpg/sg11_33_cif.got.tgz:64921.got - 2010.06.03 12:22:45.
