data_PCOD9157006
_publ_section_title
;
Structure prediction by ZEFSAII (Michael W. Deem and Ramdas Pophale) SiO2 
 PCOD9157006
Probable space group: P 21/M
;
_chemical_formula_sum "Si O2"
_cell_formula_units_Z 32
_cell_length_a 5.254150
_cell_length_b 28.920617
_cell_length_c 11.559479
_cell_angle_alpha 90.000000
_cell_angle_beta 88.806325
_cell_angle_gamma 90.000000
_cell_volume 1756.119336
_symmetry_space_group_name_H-M "P 21/M"
_symmetry_group_IT_number 11
_symmetry_cell_setting 'monoclinic'
loop_
_space_group_symop_operation_xyz
x,y,z
-x,1/2+y,-z
-x,-y,-z
x,1/2-y,z
loop_
_atom_site_type_symbol
_atom_site_label
_atom_site_fract_x
_atom_site_fract_y
_atom_site_fract_z
Si Si1 0.326584 0.851931 0.179308
Si Si2 0.283068 0.949725 0.080348
Si Si3 0.154343 0.697545 0.863984
Si Si4 0.658404 0.851551 0.833227
Si Si5 0.093278 0.802790 0.381270
Si Si6 0.169001 0.197532 0.851337
Si Si7 0.791240 0.551131 0.925490
Si Si8 0.892104 0.802760 0.631206
O O1 0.268822 0.905514 0.162657
O O2 0.600626 0.837086 0.130647
O O3 0.290985 0.835533 0.312411
O O4 0.110071 0.821974 0.114737
O O5 0.227910 0.000542 0.132409
O O6 0.565712 0.949540 0.023238
O O7 0.066034 0.944051 0.983589
O O8 0.205702 0.750000 0.902224
O O9 0.382924 0.662353 0.881822
O O10 0.872965 0.679015 0.897855
O O11 0.118320 0.699136 0.723857
O O12 0.730668 0.904622 0.848526
O O13 0.692755 0.835159 0.700034
O O14 0.193222 0.750000 0.390678
O O15 0.866732 0.800788 0.288816
O O16 0.992934 0.817984 0.506286
O O17 0.216515 0.250000 0.889834
O O18 0.792776 0.750000 0.621341
#
# Coordination Sequence:
#
# PCOD9157006 Si02
#       8
#     4   4   4   4   4   4   4   4
#     4  10  18  31  51  73 101 131 162 207 251 288
#     4  10  21  37  57  77  94 121 168 218 258 296
#     4   9  17  29  48  72 103 135 163 195 235 287
#     4  10  18  31  51  73 101 131 162 207 251 288
#     4   8  16  29  48  74 103 135 168 197 231 285
#     4   9  17  29  48  72 103 135 163 195 235 287
#     4  10  21  37  57  77  94 121 168 218 258 296
#     4   8  16  29  48  74 103 135 168 197 231 285
#
# _framework density 18.221995
#
# number of rings (size 3 to 8) (size 9 to 14) (size 15 to 20)
#    1.500    1.250    0.000    3.000    0.000    1.000 
#    0.000    3.750    0.000   26.250    0.000    1.750 
#    0.000    0.000    0.000    0.000    0.000    0.000 
#
# Total GULP energy -178145.110379 kJ/mol
# GULP energy per Si atom -5567.034699 kJ/mol
# Density = 1.818052 g / cm^3
# Si number density = 18.221995 Si / 1000 Ang^3
#
#
#
# Elastic Constant Matrix: (Units=GPa)
#
#
# Indices 1 2 3 4 5 6 
#
# 1 84.9683 24.8172 1.1094 0.0000 -1.6401 0.0000
# 2 24.8172 129.9552 10.7080 0.0000 -8.9843 0.0000
# 3 1.1094 10.7080 54.9136 0.0000 -13.3185 0.0000
# 4 0.0000 0.0000 0.0000 11.1868 0.0000 0.5625
# 5 -1.6401 -8.9843 -13.3185 0.0000 16.2703 0.0000
# 6 0.0000 0.0000 0.0000 0.5625 0.0000 24.9218
#
#
#
# Elastic Compliance Matrix: (Units=1/GPa)
#
#
# Indices 1 2 3 4 5 6 
#
# 1 0.012467 -0.002392 0.000248 0.000000 0.000139 0.000000
# 2 -0.002392 0.008476 -0.000659 0.000000 0.003900 0.000000
# 3 0.000248 -0.000659 0.022773 0.000000 0.018303 0.000000
# 4 0.000000 0.000000 0.000000 0.089493 0.000000 -0.002020
# 5 0.000139 0.003900 0.018303 0.000000 0.078611 0.000000
# 6 0.000000 0.000000 0.000000 -0.002020 0.000000 0.040171
#
#
# Mechanical properties :
#
#
# Convention : Reuss Voigt Hill
#
# Bulk Modulus (GPa) = 26.23860 38.12293 32.18077
# Shear Modulus (GPa) = 18.49807 26.02261 22.26034
#
# Velocity S-wave (km/s) = 3.18960 3.78310 3.49896
# Velocity P-wave (km/s) = 5.29107 6.32845 5.83287
#
# Compressibility (1/GPa) = 0.03811179
#
# Stress axis : x y z
#
# Youngs Moduli (GPa) = 80.21127 117.98620 43.91193
#
# Poissons Ratio (x) = 0.28218 -0.01090
# Poissons Ratio (y) = 0.19184 0.02892
# Poissons Ratio (z) = -0.01991 0.07769
#
# Static dielectric constant tensor:
#      x y z
#    x 1.653010 0.000000 -0.001760 
#    y 0.000000 1.624710 0.000000 
#    z -0.001760 0.000000 1.690560 
# 
# From -- ./inp_files/30361.got.cif
#   From: 2010.05.17/outbox.cif.g08.bks.cpg/sg11_16_cif.got.tgz:30361.got - 2010.06.03 12:22:45.
