data_PCOD9157250
_publ_section_title
;
Structure prediction by ZEFSAII (Michael W. Deem and Ramdas Pophale) SiO2 
 PCOD9157250
Probable space group: P 21/M
;
_chemical_formula_sum "Si O2"
_cell_formula_units_Z 32
_cell_length_a 12.122072
_cell_length_b 13.365043
_cell_length_c 7.769847
_cell_angle_alpha 90.000000
_cell_angle_beta 96.770292
_cell_angle_gamma 90.000000
_cell_volume 1250.030592
_symmetry_space_group_name_H-M "P 21/M"
_symmetry_group_IT_number 11
_symmetry_cell_setting 'monoclinic'
loop_
_space_group_symop_operation_xyz
x,y,z
-x,1/2+y,-z
-x,-y,-z
x,1/2-y,z
loop_
_atom_site_type_symbol
_atom_site_label
_atom_site_fract_x
_atom_site_fract_y
_atom_site_fract_z
Si Si1 0.960348 0.137099 0.161540
Si Si2 0.829354 0.075973 0.540417
Si Si3 0.607914 0.419936 0.390959
Si Si4 0.570120 0.859568 0.372296
Si Si5 0.807726 0.641519 0.000380
Si Si6 0.750437 0.423487 0.906008
Si Si7 0.926877 0.576567 0.348242
Si Si8 0.477605 0.859924 0.977224
O O1 0.952593 0.250000 0.236035
O O2 0.946415 0.034015 0.265470
O O3 0.078943 0.131959 0.089087
O O4 0.861272 0.123246 0.007355
O O5 0.735830 0.116523 0.389918
O O6 0.952610 0.122216 0.590641
O O7 0.766679 0.085393 0.707493
O O8 0.860183 0.960478 0.501648
O O9 0.542264 0.365069 0.531686
O O10 0.624370 0.536801 0.439622
O O11 0.533416 0.420742 0.203100
O O12 0.621007 0.750000 0.413714
O O13 0.553651 0.868643 0.161785
O O14 0.756736 0.750000 0.955088
O O15 0.850738 0.636333 0.204414
O O16 0.739906 0.541404 0.950870
O O17 0.643487 0.370623 0.960520
O O18 0.495683 0.750000 0.910783
#
# Coordination Sequence:
#
# PCOD9157250 Si02
#       8
#     4   4   4   4   4   4   4   4
#     4  10  18  32  53  77 107 155 207 253 303 362
#     4  11  21  36  59  85 122 166 200 257 315 367
#     4  11  22  42  67  97 133 164 207 264 319 378
#     4  10  23  43  69  97 127 165 209 261 321 385
#     4  10  19  34  55  76 109 161 213 255 304 364
#     4  11  19  37  56  85 123 159 206 260 313 363
#     4  10  20  38  55  80 122 162 207 255 308 368
#     4  11  23  41  67  95 125 164 207 258 320 382
#
# _framework density 25.599375999999999
#
# number of rings (size 3 to 8) (size 9 to 14) (size 15 to 20)
#    0.000    1.500    3.750    3.375    0.000    0.000 
#    0.000   10.000    0.000    0.000    0.000    0.000 
#    0.000    0.000    0.000    0.000    0.000    0.000 
#
# Total GULP energy -178664.633618 kJ/mol
# GULP energy per Si atom -5583.269801 kJ/mol
# Density = 2.554111 g / cm^3
# Si number density = 25.599376 Si / 1000 Ang^3
#
#
#
# Elastic Constant Matrix: (Units=GPa)
#
#
# Indices 1 2 3 4 5 6 
#
# 1 77.5309 -4.5170 1.1682 0.0000 -5.2727 0.0000
# 2 -4.5170 138.5239 -7.2647 0.0000 2.5119 0.0000
# 3 1.1682 -7.2647 76.5374 0.0000 -14.4899 0.0000
# 4 0.0000 0.0000 0.0000 22.1807 0.0000 -10.6970
# 5 -5.2727 2.5119 -14.4899 0.0000 20.6445 0.0000
# 6 0.0000 0.0000 0.0000 -10.6970 0.0000 10.2416
#
#
#
# Elastic Compliance Matrix: (Units=1/GPa)
#
#
# Indices 1 2 3 4 5 6 
#
# 1 0.013164 0.000390 0.000535 0.000000 0.003690 0.000000
# 2 0.000390 0.007270 0.000618 0.000000 -0.000351 0.000000
# 3 0.000535 0.000618 0.015139 0.000000 0.010687 0.000000
# 4 0.000000 0.000000 0.000000 0.090844 0.000000 0.094884
# 5 0.003690 -0.000351 0.010687 0.000000 0.056925 0.000000
# 6 0.000000 0.000000 0.000000 0.094884 0.000000 0.196745
#
#
# Mechanical properties :
#
#
# Convention : Reuss Voigt Hill
#
# Bulk Modulus (GPa) = 25.86734 30.15167 28.00950
# Shear Modulus (GPa) = 12.82420 30.82706 21.82563
#
# Velocity S-wave (km/s) = 2.24064 3.47394 2.92307
# Velocity P-wave (km/s) = 4.10129 5.28156 4.72839
#
# Compressibility (1/GPa) = 0.03865879
#
# Stress axis : x y z
#
# Youngs Moduli (GPa) = 75.96640 137.54278 66.05344
#
# Poissons Ratio (x) = -0.05369 -0.03532
# Poissons Ratio (y) = -0.02966 -0.04079
# Poissons Ratio (z) = -0.04062 -0.08495
#
# Static dielectric constant tensor:
#      x y z
#    x 2.067700 0.000000 0.008660 
#    y 0.000000 1.998160 0.000000 
#    z 0.008660 0.000000 2.062530 
# 
# From -- ./inp_files/21908.got.cif
#   From: 2010.05.17/outbox.cif.g08.bks.cpg/sg11_11_cif.got.tgz:21908.got - 2010.06.03 12:22:45.
