data_PCOD9157333
_publ_section_title
;
Structure prediction by ZEFSAII (Michael W. Deem and Ramdas Pophale) SiO2 
 PCOD9157333
Probable space group: P 21/M
;
_chemical_formula_sum "Si O2"
_cell_formula_units_Z 24
_cell_length_a 8.134195
_cell_length_b 8.250867
_cell_length_c 14.815390
_cell_angle_alpha 90.000000
_cell_angle_beta 101.359024
_cell_angle_gamma 90.000000
_cell_volume 974.845963
_symmetry_space_group_name_H-M "P 21/M"
_symmetry_group_IT_number 11
_symmetry_cell_setting 'monoclinic'
loop_
_space_group_symop_operation_xyz
x,y,z
-x,1/2+y,-z
-x,-y,-z
x,1/2-y,z
loop_
_atom_site_type_symbol
_atom_site_label
_atom_site_fract_x
_atom_site_fract_y
_atom_site_fract_z
Si Si1 0.316788 0.945651 0.951985
Si Si2 0.679809 0.059461 0.558617
Si Si3 0.436673 0.438475 0.274975
Si Si4 0.907924 0.439293 0.228952
Si Si5 0.791914 0.938994 0.391938
Si Si6 0.823956 0.061020 0.880168
O O1 0.311806 0.750000 0.950760
O O2 0.193480 0.999979 0.019508
O O3 0.251296 0.999718 0.847509
O O4 0.500000 0.000000 0.000000
O O5 0.674130 0.250000 0.578299
O O6 0.500000 0.000000 0.500000
O O7 0.688285 0.962495 0.652799
O O8 0.806284 0.027858 0.489696
O O9 0.446449 0.250000 0.251306
O O10 0.617264 0.498077 0.328737
O O11 0.358795 0.539822 0.185288
O O12 0.887923 0.250000 0.248104
O O13 0.922761 0.530073 0.325521
O O14 0.055011 0.463097 0.172576
O O15 0.779439 0.750000 0.410164
O O16 0.871529 0.250000 0.884010
#
# Coordination Sequence:
#
# PCOD9157333 Si02
#       6
#     4   4   4   4   4   4
#     4  10  23  40  62  88 116 148 191 238 285 338
#     4  10  18  32  55  84 115 150 191 240 288 338
#     4  11  21  36  58  86 117 153 194 241 288 340
#     4  11  23  40  59  85 117 154 193 236 288 345
#     4  11  21  36  58  86 117 153 194 241 288 340
#     4  11  23  40  59  85 117 154 193 236 288 345
#
# _framework density 24.619274000000001
#
# number of rings (size 3 to 8) (size 9 to 14) (size 15 to 20)
#    0.000    1.333    0.000    9.000    0.000    5.333 
#    0.000    0.833    0.000    0.000    0.000    0.000 
#    0.000    0.000    0.000    0.000    0.000    0.000 
#
# Total GULP energy -134371.961394 kJ/mol
# GULP energy per Si atom -5598.831725 kJ/mol
# Density = 2.456324 g / cm^3
# Si number density = 24.619274 Si / 1000 Ang^3
#
#
#
# Elastic Constant Matrix: (Units=GPa)
#
#
# Indices 1 2 3 4 5 6 
#
# 1 76.2155 -15.2883 8.2470 0.0000 -16.1249 0.0000
# 2 -15.2883 76.2406 -3.1748 0.0000 -2.8678 0.0000
# 3 8.2470 -3.1748 138.9136 0.0000 -20.9556 0.0000
# 4 0.0000 0.0000 0.0000 25.6352 0.0000 -6.8991
# 5 -16.1249 -2.8678 -20.9556 0.0000 44.8752 0.0000
# 6 0.0000 0.0000 0.0000 -6.8991 0.0000 30.6218
#
#
#
# Elastic Compliance Matrix: (Units=1/GPa)
#
#
# Indices 1 2 3 4 5 6 
#
# 1 0.014943 0.003208 0.000029 0.000000 0.005588 0.000000
# 2 0.003208 0.013864 0.000467 0.000000 0.002257 0.000000
# 3 0.000029 0.000467 0.007760 0.000000 0.003664 0.000000
# 4 0.000000 0.000000 0.000000 0.041527 0.000000 0.009356
# 5 0.005588 0.002257 0.003664 0.000000 0.026147 0.000000
# 6 0.000000 0.000000 0.000000 0.009356 0.000000 0.034764
#
#
# Mechanical properties :
#
#
# Convention : Reuss Voigt Hill
#
# Bulk Modulus (GPa) = 22.73990 30.10418 26.42204
# Shear Modulus (GPa) = 34.18647 40.33217 37.25932
#
# Velocity S-wave (km/s) = 3.73044 4.05190 3.89449
# Velocity P-wave (km/s) = 5.27367 5.84337 5.56582
#
# Compressibility (1/GPa) = 0.04397557
#
# Stress axis : x y z
#
# Youngs Moduli (GPa) = 66.91960 72.12940 128.85900
#
# Poissons Ratio (x) = -0.23139 -0.00376
# Poissons Ratio (y) = -0.21467 -0.06016
# Poissons Ratio (z) = -0.00195 -0.03367
#
# Static dielectric constant tensor:
#      x y z
#    x 2.281050 0.000000 0.042970 
#    y 0.000000 1.824580 0.000000 
#    z 0.042970 0.000000 1.963920 
# 
# From -- ./inp_files/46590.got.cif
#   From: 2010.05.17/outbox.cif.g08.bks.cpg/sg11_24_cif.got.tgz:46590.got - 2010.06.03 12:22:45.
