data_PCOD9157229
_publ_section_title
;
Structure prediction by ZEFSAII (Michael W. Deem and Ramdas Pophale) SiO2 
 PCOD9157229
Probable space group: P 21/M
;
_chemical_formula_sum "Si O2"
_cell_formula_units_Z 28
_cell_length_a 11.410592
_cell_length_b 16.402788
_cell_length_c 7.891854
_cell_angle_alpha 90.000000
_cell_angle_beta 122.285758
_cell_angle_gamma 90.000000
_cell_volume 1248.718012
_symmetry_space_group_name_H-M "P 21/M"
_symmetry_group_IT_number 11
_symmetry_cell_setting 'monoclinic'
loop_
_space_group_symop_operation_xyz
x,y,z
-x,1/2+y,-z
-x,-y,-z
x,1/2-y,z
loop_
_atom_site_type_symbol
_atom_site_label
_atom_site_fract_x
_atom_site_fract_y
_atom_site_fract_z
Si Si1 0.586993 0.845305 0.299815
Si Si2 0.300918 0.618089 0.225573
Si Si3 0.973495 0.342371 0.180737
Si Si4 0.207875 0.464018 0.350453
Si Si5 0.811003 0.431601 0.326674
Si Si6 0.376012 0.054328 0.984196
Si Si7 0.565372 0.341426 0.317263
O O1 0.602586 0.750000 0.349111
O O2 0.426432 0.870598 0.192371
O O3 0.671855 0.904668 0.488765
O O4 0.640125 0.869147 0.155014
O O5 0.262645 0.527110 0.254710
O O6 0.363620 0.656715 0.444708
O O7 0.163394 0.656279 0.041097
O O8 0.026065 0.250000 0.234695
O O9 0.928592 0.377842 0.329845
O O10 0.085240 0.405593 0.195711
O O11 0.159804 0.518323 0.477739
O O12 0.757234 0.497299 0.145460
O O13 0.684918 0.371972 0.281769
O O14 0.440212 0.094057 0.201902
O O15 0.500000 0.000000 0.000000
O O16 0.520571 0.250000 0.243779
#
# Coordination Sequence:
#
# PCOD9157229 Si02
#       7
#     4   4   4   4   4   4   4
#     4  11  21  37  60  89 115 146 192 243 283 330
#     4  11  23  37  56  84 117 154 193 229 276 342
#     4  12  23  39  61  87 113 148 193 240 282 332
#     4  10  23  41  60  83 117 153 187 232 290 343
#     4   9  20  36  57  82 109 147 191 231 280 346
#     4   9  18  32  52  81 115 146 183 231 284 335
#     4  10  18  32  52  82 116 148 184 234 284 330
#
# _framework density 22.422995
#
# number of rings (size 3 to 8) (size 9 to 14) (size 15 to 20)
#    0.000    1.714    0.000    6.429    0.000    1.143 
#    0.000    0.000    0.000    0.000    0.000   10.000 
#    0.000    0.000    0.000    0.000    0.000    0.000 
#
# Total GULP energy -156498.301673 kJ/mol
# GULP energy per Si atom -5589.225060 kJ/mol
# Density = 2.237196 g / cm^3
# Si number density = 22.422995 Si / 1000 Ang^3
#
#
#
# Elastic Constant Matrix: (Units=GPa)
#
#
# Indices 1 2 3 4 5 6 
#
# 1 13.2727 24.4047 0.7128 0.0000 -1.9541 0.0000
# 2 24.4047 157.1070 17.2975 0.0000 -8.1909 0.0000
# 3 0.7128 17.2975 71.8692 0.0000 -4.3748 0.0000
# 4 0.0000 0.0000 0.0000 27.9856 0.0000 8.1063
# 5 -1.9541 -8.1909 -4.3748 0.0000 28.0730 0.0000
# 6 0.0000 0.0000 0.0000 8.1063 0.0000 18.6753
#
#
#
# Elastic Compliance Matrix: (Units=1/GPa)
#
#
# Indices 1 2 3 4 5 6 
#
# 1 0.106339 -0.016708 0.003150 0.000000 0.003018 0.000000
# 2 -0.016708 0.009243 -0.001984 0.000000 0.001225 0.000000
# 3 0.003150 -0.001984 0.014476 0.000000 0.001896 0.000000
# 4 0.000000 0.000000 0.000000 0.040872 0.000000 -0.017741
# 5 0.003018 0.001225 0.001896 0.000000 0.036484 0.000000
# 6 0.000000 0.000000 0.000000 -0.017741 0.000000 0.061247
#
#
# Mechanical properties :
#
#
# Convention : Reuss Voigt Hill
#
# Bulk Modulus (GPa) = 10.10366 36.34210 23.22288
# Shear Modulus (GPa) = 15.02690 28.26903 21.64796
#
# Velocity S-wave (km/s) = 2.59154 3.55451 3.11052
# Velocity P-wave (km/s) = 3.67022 5.75228 4.82490
#
# Compressibility (1/GPa) = 0.09897401
#
# Stress axis : x y z
#
# Youngs Moduli (GPa) = 9.40386 108.19219 69.08021
#
# Poissons Ratio (x) = 1.80768 -0.21763
# Poissons Ratio (y) = 0.15712 0.13708
# Poissons Ratio (z) = -0.02963 0.21469
#
# Static dielectric constant tensor:
#      x y z
#    x 1.846810 0.000000 -0.033950 
#    y 0.000000 1.844160 0.000000 
#    z -0.033950 0.000000 1.886850 
# 
# From -- ./inp_files/18138.got.cif
#   From: 2010.05.17/outbox.cif.g08.bks.cpg/sg11_10_cif.got.tgz:18138.got - 2010.06.03 12:22:45.
