data_PCOD9157648
_publ_section_title
;
Structure prediction by ZEFSAII (Michael W. Deem and Ramdas Pophale) SiO2 
 PCOD9157648
Probable space group: P 21/M
;
_chemical_formula_sum "Si O2"
_cell_formula_units_Z 28
_cell_length_a 8.981567
_cell_length_b 14.438422
_cell_length_c 12.378787
_cell_angle_alpha 90.000000
_cell_angle_beta 124.420383
_cell_angle_gamma 90.000000
_cell_volume 1324.212850
_symmetry_space_group_name_H-M "P 21/M"
_symmetry_group_IT_number 11
_symmetry_cell_setting 'monoclinic'
loop_
_space_group_symop_operation_xyz
x,y,z
-x,1/2+y,-z
-x,-y,-z
x,1/2-y,z
loop_
_atom_site_type_symbol
_atom_site_label
_atom_site_fract_x
_atom_site_fract_y
_atom_site_fract_z
Si Si1 0.253203 0.561164 0.812227
Si Si2 0.852967 0.486480 0.617922
Si Si3 0.214981 0.857737 0.207128
Si Si4 0.396522 0.960265 0.093443
Si Si5 0.180031 0.143679 0.060989
Si Si6 0.277177 0.647066 0.599215
Si Si7 0.332046 0.354838 0.352649
O O1 0.394321 0.478796 0.842987
O O2 0.284635 0.634968 0.730559
O O3 0.050085 0.525853 0.722730
O O4 0.306793 0.591217 0.954757
O O5 0.801387 0.410860 0.687230
O O6 0.841516 0.434117 0.500068
O O7 0.711777 0.570052 0.575421
O O8 0.255893 0.750000 0.240016
O O9 0.357104 0.907496 0.187512
O O10 0.021399 0.865870 0.067092
O O11 0.300963 0.061609 0.061817
O O12 0.242004 0.250000 0.064126
O O13 0.191900 0.132121 0.195501
O O14 0.211886 0.750000 0.544979
O O15 0.474428 0.635079 0.626081
O O16 0.317252 0.250000 0.387288
#
# Coordination Sequence:
#
# PCOD9157648 Si02
#       7
#     4   4   4   4   4   4   4
#     4  11  24  38  63  87 126 165 203 245 307 369
#     4  12  22  40  63  89 125 161 204 255 303 358
#     4  11  22  37  61  91 121 156 201 254 309 364
#     4  11  21  40  62  93 124 161 196 254 314 370
#     4  10  18  34  62  91 118 150 194 250 308 363
#     4  11  24  42  61  86 122 168 211 246 298 366
#     4  10  21  38  65  92 115 153 207 261 307 356
#
# _framework density 21.144635999999998
#
# number of rings (size 3 to 8) (size 9 to 14) (size 15 to 20)
#    0.000    1.143    4.286    2.571    0.000    1.143 
#    0.000    3.571    0.000    0.857    0.000    0.000 
#    0.000    0.000    0.000    0.000    0.000    0.000 
#
# Total GULP energy -156584.093000 kJ/mol
# GULP energy per Si atom -5592.289036 kJ/mol
# Density = 2.109651 g / cm^3
# Si number density = 21.144636 Si / 1000 Ang^3
#
#
#
# Elastic Constant Matrix: (Units=GPa)
#
#
# Indices 1 2 3 4 5 6 
#
# 1 71.6156 31.7565 -0.6667 0.0000 -7.9096 0.0000
# 2 31.7565 98.2591 10.7988 0.0000 -8.0600 0.0000
# 3 -0.6667 10.7988 38.5461 0.0000 -7.4856 0.0000
# 4 0.0000 0.0000 0.0000 19.6294 0.0000 -0.7668
# 5 -7.9096 -8.0600 -7.4856 0.0000 21.4012 0.0000
# 6 0.0000 0.0000 0.0000 -0.7668 0.0000 14.9660
#
#
#
# Elastic Compliance Matrix: (Units=1/GPa)
#
#
# Indices 1 2 3 4 5 6 
#
# 1 0.016942 -0.005355 0.002808 0.000000 0.005227 0.000000
# 2 -0.005355 0.012394 -0.003264 0.000000 0.001547 0.000000
# 3 0.002808 -0.003264 0.028827 0.000000 0.009891 0.000000
# 4 0.000000 0.000000 0.000000 0.051046 0.000000 0.002615
# 5 0.005227 0.001547 0.009891 0.000000 0.052700 0.000000
# 6 0.000000 0.000000 0.000000 0.002615 0.000000 0.066952
#
#
# Mechanical properties :
#
#
# Convention : Reuss Voigt Hill
#
# Bulk Modulus (GPa) = 21.48714 32.46646 26.97680
# Shear Modulus (GPa) = 19.53153 22.30148 20.91650
#
# Velocity S-wave (km/s) = 3.04256 3.25115 3.14858
# Velocity P-wave (km/s) = 4.74625 5.42965 5.09941
#
# Compressibility (1/GPa) = 0.04653947
#
# Stress axis : x y z
#
# Youngs Moduli (GPa) = 59.02654 80.68701 34.68977
#
# Poissons Ratio (x) = 0.43210 -0.09742
# Poissons Ratio (y) = 0.31610 0.11324
# Poissons Ratio (z) = -0.16577 0.26339
#
# Static dielectric constant tensor:
#      x y z
#    x 1.746400 0.000000 0.001760 
#    y 0.000000 1.752180 0.000000 
#    z 0.001760 0.000000 1.780180 
# 
# From -- ./inp_files/31964.got.cif
#   From: 2010.05.17/outbox.cif.g08.bks.cpg/sg11_16_cif.got.tgz:31964.got - 2010.06.03 12:22:45.
