data_PCOD9157613
_publ_section_title
;
Structure prediction by ZEFSAII (Michael W. Deem and Ramdas Pophale) SiO2 
 PCOD9157613
Probable space group: P 21/M
;
_chemical_formula_sum "Si O2"
_cell_formula_units_Z 32
_cell_length_a 29.006994
_cell_length_b 8.020128
_cell_length_c 22.376984
_cell_angle_alpha 90.000000
_cell_angle_beta 161.327666
_cell_angle_gamma 90.000000
_cell_volume 1666.658619
_symmetry_space_group_name_H-M "P 21/M"
_symmetry_group_IT_number 11
_symmetry_cell_setting 'monoclinic'
loop_
_space_group_symop_operation_xyz
x,y,z
-x,1/2+y,-z
-x,-y,-z
x,1/2-y,z
loop_
_atom_site_type_symbol
_atom_site_label
_atom_site_fract_x
_atom_site_fract_y
_atom_site_fract_z
Si Si1 0.655125 0.048582 0.582749
Si Si2 0.550657 0.048874 0.996453
Si Si3 0.326358 0.453557 0.167291
Si Si4 0.829627 0.052020 0.682183
Si Si5 0.388533 0.055529 0.681580
Si Si6 0.846670 0.951719 0.930852
Si Si7 0.675150 0.552290 0.968898
Si Si8 0.839346 0.449632 0.285113
O O1 0.650431 0.250000 0.573999
O O2 0.489943 0.991212 0.381021
O O3 0.735997 0.984991 0.622604
O O4 0.744001 0.998975 0.750090
O O5 0.551257 0.250000 0.994046
O O6 0.711409 0.993277 0.173413
O O7 0.439749 0.987774 0.808898
O O8 0.500000 0.000000 0.000000
O O9 0.324805 0.250000 0.166830
O O10 0.286820 0.502942 0.051257
O O11 0.221218 0.512136 0.090285
O O12 0.840903 0.250000 0.705638
O O13 0.991341 0.984039 0.879579
O O14 0.743997 0.025518 0.515578
O O15 0.355926 0.250000 0.648204
O O16 0.529649 0.034018 0.813363
O O17 0.852379 0.750000 0.940378
O O18 0.644640 0.750000 0.929627
O O19 0.795480 0.517695 0.166191
O O20 0.831986 0.250000 0.273711
O O21 0.000000 0.500000 0.500000
#
# Coordination Sequence:
#
# PCOD9157613 Si02
#       8
#     4   4   4   4   4   4   4   4
#     4  10  19  34  54  75 102 139 180 221 265 322
#     4   9  20  37  57  83 113 143 181 225 270 324
#     4   9  18  34  54  76 107 139 175 220 266 319
#     4  10  20  35  54  76 105 141 181 217 267 327
#     4  10  20  35  56  82 110 138 182 229 263 315
#     4  10  21  35  51  77 107 138 176 221 270 322
#     4  10  18  34  59  81 108 146 182 222 271 319
#     4  10  21  38  58  86 117 147 186 228 270 325
#
# _framework density 19.200092000000001
#
# number of rings (size 3 to 8) (size 9 to 14) (size 15 to 20)
#    0.000    2.250    1.250    2.625    0.000    4.000 
#    2.250    1.250    0.000    0.000    0.000    0.000 
#    0.000    0.000    0.000    0.000    0.000    0.000 
#
# Total GULP energy -178572.540843 kJ/mol
# GULP energy per Si atom -5580.391901 kJ/mol
# Density = 1.915639 g / cm^3
# Si number density = 19.200092 Si / 1000 Ang^3
#
#
#
# Elastic Constant Matrix: (Units=GPa)
#
#
# Indices 1 2 3 4 5 6 
#
# 1 107.6099 -3.5374 21.3997 0.0000 -10.9881 0.0000
# 2 -3.5374 6.7168 -13.7417 0.0000 4.7488 0.0000
# 3 21.3997 -13.7417 66.8587 0.0000 -7.8487 0.0000
# 4 0.0000 0.0000 0.0000 26.0759 0.0000 -8.4913
# 5 -10.9881 4.7488 -7.8487 0.0000 26.9048 0.0000
# 6 0.0000 0.0000 0.0000 -8.4913 0.0000 19.1401
#
#
#
# Elastic Compliance Matrix: (Units=1/GPa)
#
#
# Indices 1 2 3 4 5 6 
#
# 1 0.010311 -0.005528 -0.003963 0.000000 0.004031 0.000000
# 2 -0.005528 0.287536 0.056582 0.000000 -0.036503 0.000000
# 3 -0.003963 0.056582 0.027432 0.000000 -0.003603 0.000000
# 4 0.000000 0.000000 0.000000 0.044825 0.000000 0.019886
# 5 0.004031 -0.036503 -0.003603 0.000000 0.044206 0.000000
# 6 0.000000 0.000000 0.000000 0.019886 0.000000 0.061069
#
#
# Mechanical properties :
#
#
# Convention : Reuss Voigt Hill
#
# Bulk Modulus (GPa) = 2.38401 21.04742 11.71571
# Shear Modulus (GPa) = 9.59663 26.22848 17.91256
#
# Velocity S-wave (km/s) = 2.23810 3.70004 3.05772
# Velocity P-wave (km/s) = 2.81480 5.40737 4.31061
#
# Compressibility (1/GPa) = 0.41946131
#
# Stress axis : x y z
#
# Youngs Moduli (GPa) = 96.98556 3.47783 36.45388
#
# Poissons Ratio (x) = 0.01922 0.14447
# Poissons Ratio (y) = 0.53609 -2.06264
# Poissons Ratio (z) = 0.38437 -0.19678
#
# Static dielectric constant tensor:
#      x y z
#    x 1.684700 0.000000 0.023330 
#    y 0.000000 1.686230 0.000000 
#    z 0.023330 0.000000 1.669290 
# 
# From -- ./inp_files/67255.got.cif
#   From: 2010.05.17/outbox.cif.g08.bks.cpg/sg11_34_cif.got.tgz:67255.got - 2010.06.03 12:22:45.
