data_PCOD9157714
_publ_section_title
;
Structure prediction by ZEFSAII (Michael W. Deem and Ramdas Pophale) SiO2 
 PCOD9157714
Probable space group: P 21/M
;
_chemical_formula_sum "Si O2"
_cell_formula_units_Z 28
_cell_length_a 18.548968
_cell_length_b 13.545895
_cell_length_c 9.769933
_cell_angle_alpha 90.000000
_cell_angle_beta 39.931601
_cell_angle_gamma 90.000000
_cell_volume 1575.679621
_symmetry_space_group_name_H-M "P 21/M"
_symmetry_group_IT_number 11
_symmetry_cell_setting 'monoclinic'
loop_
_space_group_symop_operation_xyz
x,y,z
-x,1/2+y,-z
-x,-y,-z
x,1/2-y,z
loop_
_atom_site_type_symbol
_atom_site_label
_atom_site_fract_x
_atom_site_fract_y
_atom_site_fract_z
Si Si1 0.786071 0.956728 0.126212
Si Si2 0.241524 0.635082 0.622766
Si Si3 0.176051 0.137985 0.461936
Si Si4 0.312319 0.365128 0.991448
Si Si5 0.353394 0.359280 0.444328
Si Si6 0.035320 0.964887 0.796976
Si Si7 0.529545 0.458961 0.806385
O O1 0.715591 0.937458 0.092750
O O2 0.739378 0.879638 0.305704
O O3 0.771041 0.062299 0.226272
O O4 0.916694 0.935102 0.905414
O O5 0.246981 0.750000 0.651262
O O6 0.133955 0.613271 0.682390
O O7 0.353703 0.600971 0.378619
O O8 0.132995 0.250000 0.543356
O O9 0.285429 0.129149 0.401021
O O10 0.089385 0.055860 0.636709
O O11 0.218309 0.125241 0.246286
O O12 0.315263 0.250000 0.943332
O O13 0.429434 0.394863 0.890908
O O14 0.399750 0.250000 0.385736
O O15 0.446995 0.442734 0.316558
O O16 0.000000 0.000000 0.000000
O O17 0.500000 0.500000 0.000000
#
# Coordination Sequence:
#
# PCOD9157714 Si02
#       7
#     4   4   4   4   4   4   4
#     4  10  22  38  56  85 117 152 190 236 283 333
#     4  10  21  35  56  86 114 149 193 237 287 338
#     4  10  19  35  58  87 114 146 191 230 277 344
#     4  11  23  38  59  85 116 155 190 230 287 341
#     4  10  19  34  57  85 112 144 191 231 273 337
#     4  10  18  36  57  85 113 148 190 239 282 331
#     4  11  20  37  58  82 114 145 187 236 281 335
#
# _framework density 17.770109999999999
#
# number of rings (size 3 to 8) (size 9 to 14) (size 15 to 20)
#    0.000    1.714    5.714    0.857    0.000    6.857 
#    0.000    2.143    0.000    0.857    0.000    0.000 
#    0.000    0.000    0.000    0.000    0.000    0.000 
#
# Total GULP energy -156051.145834 kJ/mol
# GULP energy per Si atom -5573.255208 kJ/mol
# Density = 1.772966 g / cm^3
# Si number density = 17.770110 Si / 1000 Ang^3
#
#
#
# Elastic Constant Matrix: (Units=GPa)
#
#
# Indices 1 2 3 4 5 6 
#
# 1 70.1946 21.3261 34.6404 0.0000 -2.2485 0.0000
# 2 21.3261 87.6649 44.1355 0.0000 3.5615 0.0000
# 3 34.6404 44.1355 83.3839 0.0000 -12.3037 0.0000
# 4 0.0000 0.0000 0.0000 17.5195 0.0000 2.2010
# 5 -2.2485 3.5615 -12.3037 0.0000 24.7987 0.0000
# 6 0.0000 0.0000 0.0000 2.2010 0.0000 16.5283
#
#
#
# Elastic Compliance Matrix: (Units=1/GPa)
#
#
# Indices 1 2 3 4 5 6 
#
# 1 0.018052 -0.000523 -0.007520 0.000000 -0.002019 0.000000
# 2 -0.000523 0.016713 -0.009700 0.000000 -0.007260 0.000000
# 3 -0.007520 -0.009700 0.021964 0.000000 0.011609 0.000000
# 4 0.000000 0.000000 0.000000 0.058050 0.000000 -0.007730
# 5 -0.002019 -0.007260 0.011609 0.000000 0.046944 0.000000
# 6 0.000000 0.000000 0.000000 -0.007730 0.000000 0.061532
#
#
# Mechanical properties :
#
#
# Convention : Reuss Voigt Hill
#
# Bulk Modulus (GPa) = 47.07790 49.04971 48.06380
# Shear Modulus (GPa) = 18.80955 21.17872 19.99414
#
# Velocity S-wave (km/s) = 3.25698 3.45602 3.35797
# Velocity P-wave (km/s) = 6.37920 6.60210 6.49160
#
# Compressibility (1/GPa) = 0.02124139
#
# Stress axis : x y z
#
# Youngs Moduli (GPa) = 55.39692 59.83381 45.52879
#
# Poissons Ratio (x) = 0.03131 0.34238
# Poissons Ratio (y) = 0.02899 0.44164
# Poissons Ratio (z) = 0.41660 0.58040
#
# Static dielectric constant tensor:
#      x y z
#    x 1.622500 0.000000 -0.010250 
#    y 0.000000 1.619460 0.000000 
#    z -0.010250 0.000000 1.622800 
# 
# From -- ./inp_files/24933.got.cif
#   From: 2010.05.17/outbox.cif.g08.bks.cpg/sg11_13_cif.got.tgz:24933.got - 2010.06.03 12:22:45.
