data_PCOD9157523
_publ_section_title
;
Structure prediction by ZEFSAII (Michael W. Deem and Ramdas Pophale) SiO2 
 PCOD9157523
Probable space group: P 21/M
;
_chemical_formula_sum "Si O2"
_cell_formula_units_Z 28
_cell_length_a 11.769927
_cell_length_b 14.985413
_cell_length_c 9.570630
_cell_angle_alpha 90.000000
_cell_angle_beta 119.691901
_cell_angle_gamma 90.000000
_cell_volume 1466.403892
_symmetry_space_group_name_H-M "P 21/M"
_symmetry_group_IT_number 11
_symmetry_cell_setting 'monoclinic'
loop_
_space_group_symop_operation_xyz
x,y,z
-x,1/2+y,-z
-x,-y,-z
x,1/2-y,z
loop_
_atom_site_type_symbol
_atom_site_label
_atom_site_fract_x
_atom_site_fract_y
_atom_site_fract_z
Si Si1 0.521066 0.653934 0.914902
Si Si2 0.256548 0.600605 0.876185
Si Si3 0.418276 0.987076 0.220848
Si Si4 0.643881 0.854798 0.287984
Si Si5 0.149604 0.005595 0.549889
Si Si6 0.171143 0.984448 0.245527
Si Si7 0.027246 0.645188 0.940083
O O1 0.558216 0.750000 0.879464
O O2 0.378967 0.658377 0.900328
O O3 0.522608 0.579458 0.797465
O O4 0.615246 0.633184 0.104348
O O5 0.220065 0.546466 0.716791
O O6 0.319893 0.540079 0.035460
O O7 0.129305 0.642553 0.871704
O O8 0.531482 0.912935 0.295725
O O9 0.322379 0.993244 0.293142
O O10 0.633964 0.750000 0.312504
O O11 0.783213 0.897056 0.410713
O O12 0.164080 0.965685 0.404973
O O13 0.000000 0.000000 0.500000
O O14 0.101986 0.905144 0.114030
O O15 0.092874 0.077409 0.166539
O O16 0.995345 0.750000 0.948061
#
# Coordination Sequence:
#
# PCOD9157523 Si02
#       7
#     4   4   4   4   4   4   4
#     4  10  18  33  61  92 116 157 213 260 297 350
#     4  10  18  37  63  87 117 158 205 252 299 355
#     4  10  19  38  62  86 119 160 209 252 298 359
#     4  10  21  38  65  92 121 162 207 252 305 361
#     4  12  22  40  62  89 127 159 199 253 310 365
#     4  10  24  37  62  91 122 165 202 248 314 358
#     4  10  21  41  62  86 122 165 211 249 292 366
#
# _framework density 19.094329999999999
#
# number of rings (size 3 to 8) (size 9 to 14) (size 15 to 20)
#    0.000    1.714    4.286    1.286    0.000    5.143 
#    0.000    3.571    0.000    0.000    0.000    0.000 
#    0.000    0.000    0.000    0.000    0.000    0.000 
#
# Total GULP energy -156078.940400 kJ/mol
# GULP energy per Si atom -5574.247871 kJ/mol
# Density = 1.905087 g / cm^3
# Si number density = 19.094330 Si / 1000 Ang^3
#
#
#
# Elastic Constant Matrix: (Units=GPa)
#
#
# Indices 1 2 3 4 5 6 
#
# 1 130.6412 50.5521 35.2435 0.0000 -8.3292 0.0000
# 2 50.5521 113.6757 26.7361 0.0000 -1.8673 0.0000
# 3 35.2435 26.7361 58.0617 0.0000 -10.5497 0.0000
# 4 0.0000 0.0000 0.0000 12.4483 0.0000 -2.3445
# 5 -8.3292 -1.8673 -10.5497 0.0000 33.4399 0.0000
# 6 0.0000 0.0000 0.0000 -2.3445 0.0000 2.9559
#
#
#
# Elastic Compliance Matrix: (Units=1/GPa)
#
#
# Indices 1 2 3 4 5 6 
#
# 1 0.010272 -0.003507 -0.004446 0.000000 0.000960 0.000000
# 2 -0.003507 0.011090 -0.003208 0.000000 -0.001266 0.000000
# 3 -0.004446 -0.003208 0.022452 0.000000 0.005797 0.000000
# 4 0.000000 0.000000 0.000000 0.094441 0.000000 0.074908
# 5 0.000960 -0.001266 0.005797 0.000000 0.031902 0.000000
# 6 0.000000 0.000000 0.000000 0.074908 0.000000 0.397722
#
#
# Mechanical properties :
#
#
# Convention : Reuss Voigt Hill
#
# Bulk Modulus (GPa) = 46.52725 58.60467 52.56596
# Shear Modulus (GPa) = 8.37009 22.42527 15.39768
#
# Velocity S-wave (km/s) = 2.09596 3.43074 2.84280
# Velocity P-wave (km/s) = 5.50249 6.81558 6.19393
#
# Compressibility (1/GPa) = 0.02149278
#
# Stress axis : x y z
#
# Youngs Moduli (GPa) = 97.35147 90.17023 44.53859
#
# Poissons Ratio (x) = 0.31619 0.19802
# Poissons Ratio (y) = 0.34137 0.14290
# Poissons Ratio (z) = 0.43282 0.28930
#
# Static dielectric constant tensor:
#      x y z
#    x 1.701830 0.000000 0.052250 
#    y 0.000000 1.670850 0.000000 
#    z 0.052250 0.000000 1.728900 
# 
# From -- ./inp_files/17725.got.cif
#   From: 2010.05.17/outbox.cif.g08.bks.cpg/sg11_9_cif.got.tgz:17725.got - 2010.06.03 12:22:45.
