data_PCOD9157442
_publ_section_title
;
Structure prediction by ZEFSAII (Michael W. Deem and Ramdas Pophale) SiO2 
 PCOD9157442
Probable space group: P 21/M
;
_chemical_formula_sum "Si O2"
_cell_formula_units_Z 28
_cell_length_a 7.473863
_cell_length_b 21.148641
_cell_length_c 15.180994
_cell_angle_alpha 90.000000
_cell_angle_beta 139.690568
_cell_angle_gamma 90.000000
_cell_volume 1552.298519
_symmetry_space_group_name_H-M "P 21/M"
_symmetry_group_IT_number 11
_symmetry_cell_setting 'monoclinic'
loop_
_space_group_symop_operation_xyz
x,y,z
-x,1/2+y,-z
-x,-y,-z
x,1/2-y,z
loop_
_atom_site_type_symbol
_atom_site_label
_atom_site_fract_x
_atom_site_fract_y
_atom_site_fract_z
Si Si1 0.290172 0.012200 0.653541
Si Si2 0.900555 0.323302 0.722880
Si Si3 0.137550 0.983618 0.909233
Si Si4 0.330213 0.544147 0.369079
Si Si5 0.567050 0.605318 0.138809
Si Si6 0.085448 0.821429 0.061460
Si Si7 0.705764 0.921422 0.874705
O O1 0.501565 0.039401 0.659602
O O2 0.291806 0.061003 0.734532
O O3 0.407896 0.945970 0.735271
O O4 0.000000 0.000000 0.500000
O O5 0.849440 0.250000 0.675202
O O6 0.211857 0.345542 0.815871
O O7 0.870094 0.324891 0.817150
O O8 0.711186 0.382446 0.618691
O O9 0.903005 0.940645 0.867557
O O10 0.410428 0.939342 0.007735
O O11 0.975267 0.015221 0.767230
O O12 0.200756 0.036894 0.006217
O O13 0.500000 0.500000 0.500000
O O14 0.321653 0.639923 0.099780
O O15 0.100626 0.750000 0.037770
O O16 0.785282 0.850801 0.928041
#
# Coordination Sequence:
#
# PCOD9157442 Si02
#       7
#     4   4   4   4   4   4   4
#     4  10  19  34  54  81 110 142 182 229 278 325
#     4  11  22  35  54  84 113 141 185 228 274 339
#     4   8  15  30  52  77 103 136 174 221 276 308
#     4  11  20  35  55  82 115 146 186 232 280 327
#     4  10  19  35  56  79 108 139 182 228 267 330
#     4  10  18  33  55  77 110 145 175 222 278 330
#     4   8  14  30  52  74 108 134 173 227 261 317
#
# _framework density 18.037769000000001
#
# number of rings (size 3 to 8) (size 9 to 14) (size 15 to 20)
#    0.000    2.286    2.857    3.000    0.000    0.571 
#    2.571    0.000    0.000   16.286    0.000    0.000 
#    0.000    0.000    0.000    0.000    0.000    0.000 
#
# Total GULP energy -156032.541558 kJ/mol
# GULP energy per Si atom -5572.590770 kJ/mol
# Density = 1.799671 g / cm^3
# Si number density = 18.037769 Si / 1000 Ang^3
#
#
#
# Elastic Constant Matrix: (Units=GPa)
#
#
# Indices 1 2 3 4 5 6 
#
# 1 65.8868 22.5884 3.0720 0.0000 2.1466 0.0000
# 2 22.5884 127.8564 57.4491 0.0000 3.6209 0.0000
# 3 3.0720 57.4491 117.6988 0.0000 8.8020 0.0000
# 4 0.0000 0.0000 0.0000 23.1160 0.0000 1.4994
# 5 2.1466 3.6209 8.8020 0.0000 21.4125 0.0000
# 6 0.0000 0.0000 0.0000 1.4994 0.0000 26.1872
#
#
#
# Elastic Compliance Matrix: (Units=1/GPa)
#
#
# Indices 1 2 3 4 5 6 
#
# 1 0.016354 -0.003466 0.001386 0.000000 -0.001623 0.000000
# 2 -0.003466 0.010755 -0.005209 0.000000 0.000670 0.000000
# 3 0.001386 -0.005209 0.011295 0.000000 -0.003901 0.000000
# 4 0.000000 0.000000 0.000000 0.043421 0.000000 -0.002486
# 5 -0.001623 0.000670 -0.003901 0.000000 0.048355 0.000000
# 6 0.000000 0.000000 0.000000 -0.002486 0.000000 0.038329
#
#
# Mechanical properties :
#
#
# Convention : Reuss Voigt Hill
#
# Bulk Modulus (GPa) = 41.97161 53.07342 47.52251
# Shear Modulus (GPa) = 26.17398 29.36529 27.76964
#
# Velocity S-wave (km/s) = 3.81342 4.03921 3.92794
# Velocity P-wave (km/s) = 6.53520 7.15828 6.85382
#
# Compressibility (1/GPa) = 0.02382563
#
# Stress axis : x y z
#
# Youngs Moduli (GPa) = 61.14652 92.97664 88.53858
#
# Poissons Ratio (x) = 0.32228 -0.12275
# Poissons Ratio (y) = 0.21195 0.46123
# Poissons Ratio (z) = -0.08478 0.48435
#
# Static dielectric constant tensor:
#      x y z
#    x 1.672660 0.000000 0.024610 
#    y 0.000000 1.643330 0.000000 
#    z 0.024610 0.000000 1.620280 
# 
# From -- ./inp_files/36249.got.cif
#   From: 2010.05.17/outbox.cif.g08.bks.cpg/sg11_19_cif.got.tgz:36249.got - 2010.06.03 12:22:45.
