data_PCOD9157840
_publ_section_title
;
Structure prediction by ZEFSAII (Michael W. Deem and Ramdas Pophale) SiO2 
 PCOD9157840
Probable space group: P 21/M
;
_chemical_formula_sum "Si O2"
_cell_formula_units_Z 32
_cell_length_a 20.408850
_cell_length_b 8.553582
_cell_length_c 30.167120
_cell_angle_alpha 90.000000
_cell_angle_beta 156.557171
_cell_angle_gamma 90.000000
_cell_volume 2095.087155
_symmetry_space_group_name_H-M "P 21/M"
_symmetry_group_IT_number 11
_symmetry_cell_setting 'monoclinic'
loop_
_space_group_symop_operation_xyz
x,y,z
-x,1/2+y,-z
-x,-y,-z
x,1/2-y,z
loop_
_atom_site_type_symbol
_atom_site_label
_atom_site_fract_x
_atom_site_fract_y
_atom_site_fract_z
Si Si1 0.260283 0.939639 0.171100
Si Si2 0.758868 0.062727 0.941377
Si Si3 0.898621 0.438809 0.837494
Si Si4 0.598607 0.062905 0.263299
Si Si5 0.819689 0.437825 0.485312
Si Si6 0.391102 0.437889 0.569902
Si Si7 0.886629 0.937615 0.389615
Si Si8 0.448202 0.561255 0.420230
O O1 0.251823 0.750000 0.165230
O O2 0.230861 0.996449 0.103350
O O3 0.140971 0.992979 0.136537
O O4 0.444055 0.982037 0.300582
O O5 0.755190 0.250000 0.938958
O O6 0.585924 0.001244 0.852367
O O7 0.925963 0.005013 0.068080
O O8 0.905587 0.250000 0.841801
O O9 0.737890 0.485366 0.709336
O O10 0.596366 0.250000 0.262896
O O11 0.693829 0.008556 0.367721
O O12 0.708625 0.006833 0.290092
O O13 0.812641 0.250000 0.480824
O O14 0.759655 0.497745 0.495370
O O15 0.005233 0.483357 0.586149
O O16 0.381421 0.250000 0.563548
O O17 0.428226 0.490108 0.542667
O O18 0.877933 0.750000 0.385955
O O19 0.000000 0.000000 0.500000
O O20 0.500000 0.500000 0.500000
O O21 0.450202 0.750000 0.421709
#
# Coordination Sequence:
#
# PCOD9157840 Si02
#       8
#     4   4   4   4   4   4   4   4
#     4   8  15  27  41  58  83 114 146 178 214 253
#     4  11  19  27  42  63  86 116 151 184 217 255
#     4   9  18  32  45  60  85 114 144 181 222 263
#     4  10  19  29  40  58  85 120 156 185 220 257
#     4   9  17  27  40  61  86 112 147 187 220 253
#     4   9  16  28  45  64  86 115 147 180 220 264
#     4   9  17  28  40  57  83 115 152 188 221 256
#     4   9  19  34  51  67  87 114 144 182 228 269
#
# _framework density 15.273828
#
# number of rings (size 3 to 8) (size 9 to 14) (size 15 to 20)
#    0.000    2.750    1.250    3.750    0.000    3.500 
#    0.000    2.500    0.000    0.000    0.000    0.000 
#    0.000    1.000    0.000    3.250    0.000    4.750 
#
# Total GULP energy -178183.087563 kJ/mol
# GULP energy per Si atom -5568.221486 kJ/mol
# Density = 1.523906 g / cm^3
# Si number density = 15.273828 Si / 1000 Ang^3
#
#
#
# Elastic Constant Matrix: (Units=GPa)
#
#
# Indices 1 2 3 4 5 6 
#
# 1 117.2436 25.3135 70.4993 0.0000 22.5936 0.0000
# 2 25.3135 23.0187 23.2958 0.0000 7.9045 0.0000
# 3 70.4993 23.2958 76.5147 0.0000 24.5509 0.0000
# 4 0.0000 0.0000 0.0000 19.3577 0.0000 3.9836
# 5 22.5936 7.9045 24.5509 0.0000 26.6894 0.0000
# 6 0.0000 0.0000 0.0000 3.9836 0.0000 22.8575
#
#
#
# Elastic Compliance Matrix: (Units=1/GPa)
#
#
# Indices 1 2 3 4 5 6 
#
# 1 0.019472 -0.004710 -0.016551 0.000000 0.000136 0.000000
# 2 -0.004710 0.063968 -0.014665 0.000000 -0.001468 0.000000
# 3 -0.016551 -0.014665 0.038157 0.000000 -0.016745 0.000000
# 4 0.000000 0.000000 0.000000 0.053581 0.000000 -0.009338
# 5 0.000136 -0.001468 -0.016745 0.000000 0.053192 0.000000
# 6 0.000000 0.000000 0.000000 -0.009338 0.000000 0.045377
#
#
# Mechanical properties :
#
#
# Convention : Reuss Voigt Hill
#
# Bulk Modulus (GPa) = 20.10234 50.55494 35.32864
# Shear Modulus (GPa) = 13.80528 20.29214 17.04871
#
# Velocity S-wave (km/s) = 3.00967 3.64889 3.34459
# Velocity P-wave (km/s) = 5.02667 7.13607 6.17215
#
# Compressibility (1/GPa) = 0.04974546
#
# Stress axis : x y z
#
# Youngs Moduli (GPa) = 51.35555 15.63275 26.20749
#
# Poissons Ratio (x) = 0.07363 0.43376
# Poissons Ratio (y) = 0.24188 0.38434
# Poissons Ratio (z) = 0.84998 0.22926
#
# Static dielectric constant tensor:
#      x y z
#    x 1.530060 0.000000 0.028320 
#    y 0.000000 1.519980 0.000000 
#    z 0.028320 0.000000 1.496050 
# 
# From -- ./inp_files/52921.got.cif
#   From: 2010.05.17/outbox.cif.g08.bks.cpg/sg11_27_cif.got.tgz:52921.got - 2010.06.03 12:22:45.
