data_PCOD9157510
_publ_section_title
;
Structure prediction by ZEFSAII (Michael W. Deem and Ramdas Pophale) SiO2 
 PCOD9157510
Probable space group: P 21/M
;
_chemical_formula_sum "Si O2"
_cell_formula_units_Z 28
_cell_length_a 11.973389
_cell_length_b 14.284800
_cell_length_c 9.073530
_cell_angle_alpha 90.000000
_cell_angle_beta 113.119451
_cell_angle_gamma 90.000000
_cell_volume 1427.276697
_symmetry_space_group_name_H-M "P 21/M"
_symmetry_group_IT_number 11
_symmetry_cell_setting 'monoclinic'
loop_
_space_group_symop_operation_xyz
x,y,z
-x,1/2+y,-z
-x,-y,-z
x,1/2-y,z
loop_
_atom_site_type_symbol
_atom_site_label
_atom_site_fract_x
_atom_site_fract_y
_atom_site_fract_z
Si Si1 0.736557 0.978449 0.186407
Si Si2 0.007335 0.966922 0.335588
Si Si3 0.771793 0.358667 0.431294
Si Si4 0.127400 0.143365 0.261029
Si Si5 0.682499 0.642297 0.894750
Si Si6 0.482062 0.894100 0.543253
Si Si7 0.346802 0.349282 0.610541
O O1 0.659990 0.929886 0.275374
O O2 0.871168 0.933314 0.235112
O O3 0.759816 0.080653 0.272392
O O4 0.673894 0.944301 0.003735
O O5 0.117438 0.894158 0.407320
O O6 0.040310 0.056350 0.251352
O O7 0.000000 0.000000 0.500000
O O8 0.787379 0.250000 0.403502
O O9 0.651123 0.373434 0.466512
O O10 0.076917 0.250000 0.246488
O O11 0.195175 0.134010 0.140146
O O12 0.234954 0.136483 0.439023
O O13 0.678993 0.750000 0.952794
O O14 0.572691 0.632723 0.722093
O O15 0.532159 0.845097 0.422690
O O16 0.500000 0.000000 0.500000
O O17 0.326935 0.250000 0.676147
#
# Coordination Sequence:
#
# PCOD9157510 Si02
#       7
#     4   4   4   4   4   4   4
#     4  11  22  38  57  91 122 158 198 248 296 351
#     4  10  20  36  57  88 119 154 202 241 295 353
#     4  11  22  37  58  87 122 161 200 246 302 357
#     4   9  17  34  58  84 114 153 199 242 290 351
#     4  10  22  38  61  90 119 153 198 249 298 346
#     4  11  20  40  64  85 117 153 199 244 296 361
#     4  10  18  33  59  86 112 149 200 246 284 341
#
# _framework density 19.61778
#
# number of rings (size 3 to 8) (size 9 to 14) (size 15 to 20)
#    0.000    1.714    4.286    3.429    0.000    4.571 
#    0.000    0.000    0.000    4.286    0.000    0.000 
#    0.000    0.000    0.000    0.000    0.000    0.000 
#
# Total GULP energy -155887.073164 kJ/mol
# GULP energy per Si atom -5567.395470 kJ/mol
# Density = 1.957313 g / cm^3
# Si number density = 19.617780 Si / 1000 Ang^3
#
#
#
# Elastic Constant Matrix: (Units=GPa)
#
#
# Indices 1 2 3 4 5 6 
#
# 1 102.3901 22.4843 26.1091 0.0000 1.2860 0.0000
# 2 22.4843 122.0466 21.7505 0.0000 -16.4776 0.0000
# 3 26.1091 21.7505 45.9058 0.0000 -16.8610 0.0000
# 4 0.0000 0.0000 0.0000 16.7453 0.0000 -6.4633
# 5 1.2860 -16.4776 -16.8610 0.0000 20.2547 0.0000
# 6 0.0000 0.0000 0.0000 -6.4633 0.0000 1.9021
#
#
#
# Elastic Compliance Matrix: (Units=1/GPa)
#
#
# Indices 1 2 3 4 5 6 
#
# 1 0.013069 -0.002044 -0.010630 0.000000 -0.011342 0.000000
# 2 -0.002044 0.009699 -0.000701 0.000000 0.007436 0.000000
# 3 -0.010630 -0.000701 0.040620 0.000000 0.033918 0.000000
# 4 0.000000 0.000000 0.000000 -0.191656 0.000000 -0.651263
# 5 -0.011342 0.007436 0.033918 0.000000 0.084377 0.000000
# 6 0.000000 0.000000 0.000000 -0.651263 0.000000 -1.687299
#
#
# Mechanical properties :
#
#
# Convention : Reuss Voigt Hill
#
# Bulk Modulus (GPa) = 27.29540 45.67005 36.48272
# Shear Modulus (GPa) = -2.95469 21.11364 9.07948
#
# Velocity S-wave (km/s) = -1.22858 3.28418 2.15366
# Velocity P-wave (km/s) = 3.45417 6.14098 4.98211
#
# Compressibility (1/GPa) = 0.03663621
#
# Stress axis : x y z
#
# Youngs Moduli (GPa) = 76.51947 103.10098 24.61844
#
# Poissons Ratio (x) = 0.21078 0.26169
# Poissons Ratio (y) = 0.15644 0.01727
# Poissons Ratio (z) = 0.81340 0.07231
#
# Static dielectric constant tensor:
#      x y z
#    x 1.685430 0.000000 -0.009440 
#    y 0.000000 1.767050 0.000000 
#    z -0.009440 0.000000 1.673770 
# 
# From -- ./inp_files/18147.got.cif
#   From: 2010.05.17/outbox.cif.g08.bks.cpg/sg11_10_cif.got.tgz:18147.got - 2010.06.03 12:22:45.
