data_PCOD9157857
_publ_section_title
;
Structure prediction by ZEFSAII (Michael W. Deem and Ramdas Pophale) SiO2 
 PCOD9157857
Probable space group: P 21/M
;
_chemical_formula_sum "Si O2"
_cell_formula_units_Z 32
_cell_length_a 17.120031
_cell_length_b 9.076053
_cell_length_c 24.123634
_cell_angle_alpha 90.000000
_cell_angle_beta 29.494197
_cell_angle_gamma 90.000000
_cell_volume 1845.463119
_symmetry_space_group_name_H-M "P 21/M"
_symmetry_group_IT_number 11
_symmetry_cell_setting 'monoclinic'
loop_
_space_group_symop_operation_xyz
x,y,z
-x,1/2+y,-z
-x,-y,-z
x,1/2-y,z
loop_
_atom_site_type_symbol
_atom_site_label
_atom_site_fract_x
_atom_site_fract_y
_atom_site_fract_z
Si Si1 0.493236 0.076882 0.647566
Si Si2 0.515362 0.072456 0.760409
Si Si3 0.885702 0.072768 0.526171
Si Si4 0.125631 0.923211 0.592252
Si Si5 0.959329 0.574103 0.244002
Si Si6 0.037752 0.083361 0.032211
Si Si7 0.731695 0.415906 0.299205
Si Si8 0.251705 0.925137 0.987149
O O1 0.451089 0.250000 0.669971
O O2 0.457766 0.027558 0.733335
O O3 0.682940 0.063444 0.524320
O O4 0.405700 0.993098 0.651761
O O5 0.502485 0.250000 0.770104
O O6 0.701041 0.033013 0.649382
O O7 0.418399 0.003073 0.871263
O O8 0.895599 0.250000 0.523661
O O9 0.926179 0.032543 0.437599
O O10 0.000000 0.000000 0.500000
O O11 0.088982 0.750000 0.623218
O O12 0.052349 0.018246 0.686357
O O13 0.946672 0.750000 0.247491
O O14 0.812462 0.502900 0.300302
O O15 0.130491 0.531107 0.111489
O O16 0.100610 0.250000 0.985645
O O17 0.877116 0.094389 0.166392
O O18 0.153967 0.979887 0.994450
O O19 0.000000 0.000000 0.000000
O O20 0.685388 0.250000 0.345170
O O21 0.272075 0.750000 0.976392
#
# Coordination Sequence:
#
# PCOD9157857 Si02
#       8
#     4   4   4   4   4   4   4   4
#     4   9  18  32  49  70  98 131 168 214 260 298
#     4   9  18  33  53  77 105 135 166 203 252 304
#     4   9  19  36  59  87 112 132 157 195 247 304
#     4   9  19  36  55  75 101 132 166 204 249 301
#     4  10  21  35  50  70  98 135 177 215 251 292
#     4  10  19  29  42  62  90 127 171 216 259 300
#     4  10  20  31  44  65  94 131 175 216 253 297
#     4  10  20  32  47  70  99 131 169 211 252 296
#
# _framework density 17.339821000000001
#
# number of rings (size 3 to 8) (size 9 to 14) (size 15 to 20)
#    0.000    2.500    0.000    3.750    0.000    7.500 
#    0.000    2.500    0.000    0.750    0.000    0.000 
#    0.000    0.000    0.000    0.000    0.000    0.000 
#
# Total GULP energy -178339.203490 kJ/mol
# GULP energy per Si atom -5573.100109 kJ/mol
# Density = 1.730036 g / cm^3
# Si number density = 17.339821 Si / 1000 Ang^3
#
#
#
# Elastic Constant Matrix: (Units=GPa)
#
#
# Indices 1 2 3 4 5 6 
#
# 1 114.8279 40.1108 50.3841 0.0000 9.7285 0.0000
# 2 40.1108 42.2117 32.2458 0.0000 8.8354 0.0000
# 3 50.3841 32.2458 71.7750 0.0000 14.5355 0.0000
# 4 0.0000 0.0000 0.0000 27.8791 0.0000 0.3544
# 5 9.7285 8.8354 14.5355 0.0000 16.2123 0.0000
# 6 0.0000 0.0000 0.0000 0.3544 0.0000 29.3753
#
#
#
# Elastic Compliance Matrix: (Units=1/GPa)
#
#
# Indices 1 2 3 4 5 6 
#
# 1 0.014671 -0.009427 -0.006502 0.000000 0.002163 0.000000
# 2 -0.009427 0.042655 -0.010977 0.000000 -0.007748 0.000000
# 3 -0.006502 -0.010977 0.026180 0.000000 -0.013588 0.000000
# 4 0.000000 0.000000 0.000000 0.035875 0.000000 -0.000433
# 5 0.002163 -0.007748 -0.013588 0.000000 0.076789 0.000000
# 6 0.000000 0.000000 0.000000 -0.000433 0.000000 0.034047
#
#
# Mechanical properties :
#
#
# Convention : Reuss Voigt Hill
#
# Bulk Modulus (GPa) = 33.67562 52.69956 43.18759
# Shear Modulus (GPa) = 17.01109 21.76492 19.38800
#
# Velocity S-wave (km/s) = 3.13556 3.54672 3.34746
# Velocity P-wave (km/s) = 5.70720 6.87245 6.31675
#
# Compressibility (1/GPa) = 0.02969507
#
# Stress axis : x y z
#
# Youngs Moduli (GPa) = 68.16077 23.44394 38.19774
#
# Poissons Ratio (x) = 0.22101 0.24834
# Poissons Ratio (y) = 0.64256 0.41928
# Poissons Ratio (z) = 0.44315 0.25733
#
# Static dielectric constant tensor:
#      x y z
#    x 1.548190 0.000000 0.004310 
#    y 0.000000 1.663690 0.000000 
#    z 0.004310 0.000000 1.623040 
# 
# From -- ./inp_files/69416.got.cif
#   From: 2010.05.17/outbox.cif.g08.bks.cpg/sg11_35_cif.got.tgz:69416.got - 2010.06.03 12:22:45.
