data_PCOD9157656
_publ_section_title
;
Structure prediction by ZEFSAII (Michael W. Deem and Ramdas Pophale) SiO2 
 PCOD9157656
Probable space group: P 21/M
;
_chemical_formula_sum "Si O2"
_cell_formula_units_Z 32
_cell_length_a 11.973422
_cell_length_b 21.318928
_cell_length_c 10.405172
_cell_angle_alpha 90.000000
_cell_angle_beta 140.594156
_cell_angle_gamma 90.000000
_cell_volume 1686.072381
_symmetry_space_group_name_H-M "P 21/M"
_symmetry_group_IT_number 11
_symmetry_cell_setting 'monoclinic'
loop_
_space_group_symop_operation_xyz
x,y,z
-x,1/2+y,-z
-x,-y,-z
x,1/2-y,z
loop_
_atom_site_type_symbol
_atom_site_label
_atom_site_fract_x
_atom_site_fract_y
_atom_site_fract_z
Si Si1 0.709606 0.000177 0.209188
Si Si2 0.152002 0.677084 0.581570
Si Si3 0.413501 0.045715 0.319057
Si Si4 0.130888 0.058638 0.266254
Si Si5 0.572942 0.178465 0.951437
Si Si6 0.808904 0.872451 0.408953
Si Si7 0.753985 0.061427 0.994922
Si Si8 0.233274 0.571466 0.474545
O O1 0.808025 0.037349 0.184521
O O2 0.740120 0.034215 0.369420
O O3 0.781485 0.930582 0.287610
O O4 0.500000 0.000000 0.000000
O O5 0.147238 0.750000 0.543673
O O6 0.141453 0.634068 0.444767
O O7 0.989388 0.661247 0.531724
O O8 0.330152 0.666081 0.825127
O O9 0.251113 0.075346 0.251167
O O10 0.573788 0.087312 0.410733
O O11 0.500000 0.000000 0.500000
O O12 0.351185 0.997546 0.154418
O O13 0.188170 0.097752 0.444493
O O14 0.926270 0.072603 0.064877
O O15 0.147601 0.983156 0.309529
O O16 0.619099 0.250000 0.956584
O O17 0.363244 0.170026 0.764982
O O18 0.643937 0.124301 0.919307
#
# Coordination Sequence:
#
# PCOD9157656 Si02
#       8
#     4   4   4   4   4   4   4   4
#     4  11  17  29  55  86 106 144 176 227 300 338
#     4  11  22  36  55  83 115 150 190 229 276 337
#     4  10  21  34  55  80 109 147 182 227 280 334
#     4  10  21  34  56  86 110 149 184 231 288 331
#     4  11  22  34  53  81 113 151 184 221 277 333
#     4  11  20  37  57  83 121 140 185 233 283 343
#     4  12  19  35  55  81 119 138 189 235 279 340
#     4  10  18  35  52  79 115 140 184 229 280 342
#
# _framework density 18.979019999999998
#
# number of rings (size 3 to 8) (size 9 to 14) (size 15 to 20)
#    0.000    1.250    5.000    3.000    0.000    2.000 
#    0.000    0.000    0.000    8.250    0.000    0.000 
#    0.000    0.000    0.000    0.000    0.000    0.000 
#
# Total GULP energy -178512.333661 kJ/mol
# GULP energy per Si atom -5578.510427 kJ/mol
# Density = 1.893582 g / cm^3
# Si number density = 18.979020 Si / 1000 Ang^3
#
#
#
# Elastic Constant Matrix: (Units=GPa)
#
#
# Indices 1 2 3 4 5 6 
#
# 1 102.4460 21.4942 -0.0623 0.0000 14.4909 0.0000
# 2 21.4942 76.8431 3.5534 0.0000 4.7955 0.0000
# 3 -0.0623 3.5534 39.3333 0.0000 9.6475 0.0000
# 4 0.0000 0.0000 0.0000 16.3551 0.0000 2.5333
# 5 14.4909 4.7955 9.6475 0.0000 25.7282 0.0000
# 6 0.0000 0.0000 0.0000 2.5333 0.0000 18.3650
#
#
#
# Elastic Compliance Matrix: (Units=1/GPa)
#
#
# Indices 1 2 3 4 5 6 
#
# 1 0.011281 -0.002835 0.001875 0.000000 -0.006528 0.000000
# 2 -0.002835 0.013894 -0.001119 0.000000 -0.000574 0.000000
# 3 0.001875 -0.001119 0.028342 0.000000 -0.011475 0.000000
# 4 0.000000 0.000000 0.000000 0.062478 0.000000 -0.008618
# 5 -0.006528 -0.000574 -0.011475 0.000000 0.046955 0.000000
# 6 0.000000 0.000000 0.000000 -0.008618 0.000000 0.055640
#
#
# Mechanical properties :
#
#
# Convention : Reuss Voigt Hill
#
# Bulk Modulus (GPa) = 20.25931 29.84364 25.05148
# Shear Modulus (GPa) = 20.90305 24.99882 22.95094
#
# Velocity S-wave (km/s) = 3.32230 3.63324 3.48124
# Velocity P-wave (km/s) = 5.04130 5.77575 5.42097
#
# Compressibility (1/GPa) = 0.04936003
#
# Stress axis : x y z
#
# Youngs Moduli (GPa) = 88.64822 71.97370 35.28283
#
# Poissons Ratio (x) = 0.20402 -0.06616
# Poissons Ratio (y) = 0.25129 0.03948
# Poissons Ratio (z) = -0.16623 0.08054
#
# Static dielectric constant tensor:
#      x y z
#    x 1.611520 0.000000 0.121810 
#    y 0.000000 1.635680 0.000000 
#    z 0.121810 0.000000 1.641400 
# 
# From -- ./inp_files/36374.got.cif
#   From: 2010.05.17/outbox.cif.g08.bks.cpg/sg11_19_cif.got.tgz:36374.got - 2010.06.03 12:22:45.
