data_PCOD9157594
_publ_section_title
;
Structure prediction by ZEFSAII (Michael W. Deem and Ramdas Pophale) SiO2 
 PCOD9157594
Probable space group: P 21/M
;
_chemical_formula_sum "Si O2"
_cell_formula_units_Z 32
_cell_length_a 11.644487
_cell_length_b 12.385084
_cell_length_c 11.604171
_cell_angle_alpha 90.000000
_cell_angle_beta 100.520187
_cell_angle_gamma 90.000000
_cell_volume 1645.398784
_symmetry_space_group_name_H-M "P 21/M"
_symmetry_group_IT_number 11
_symmetry_cell_setting 'monoclinic'
loop_
_space_group_symop_operation_xyz
x,y,z
-x,1/2+y,-z
-x,-y,-z
x,1/2-y,z
loop_
_atom_site_type_symbol
_atom_site_label
_atom_site_fract_x
_atom_site_fract_y
_atom_site_fract_z
Si Si1 0.774928 0.626790 0.716444
Si Si2 0.962416 0.408541 0.159402
Si Si3 0.686310 0.009166 0.484692
Si Si4 0.963539 0.364801 0.888166
Si Si5 0.703912 0.429804 0.843780
Si Si6 0.257704 0.871353 0.721608
Si Si7 0.426703 0.884481 0.958015
Si Si8 0.531665 0.131894 0.621669
O O1 0.733444 0.750000 0.709554
O O2 0.745461 0.567615 0.590779
O O3 0.716181 0.555118 0.807786
O O4 0.913707 0.624152 0.763335
O O5 0.853724 0.373223 0.214801
O O6 0.962648 0.537900 0.148209
O O7 0.964048 0.370106 0.027247
O O8 0.758598 0.049361 0.389037
O O9 0.632757 0.107975 0.547623
O O10 0.572257 0.950813 0.413460
O O11 0.007966 0.250000 0.857030
O O12 0.828240 0.381043 0.829692
O O13 0.678540 0.400220 0.970154
O O14 0.595682 0.381908 0.754513
O O15 0.272181 0.750000 0.679495
O O16 0.371861 0.896250 0.820706
O O17 0.462911 0.750000 0.974177
O O18 0.500000 0.000000 0.000000
O O19 0.482638 0.250000 0.597817
#
# Coordination Sequence:
#
# PCOD9157594 Si02
#       8
#     4   4   4   4   4   4   4   4
#     4  10  21  38  59  84 116 152 196 250 304 351
#     4  10  21  35  57  86 114 153 196 236 293 354
#     4  10  22  36  55  83 110 150 200 239 287 351
#     4  10  18  34  57  84 116 149 190 241 288 347
#     4  10  20  34  59  87 110 146 196 241 294 357
#     4  11  22  39  60  83 118 159 198 241 296 360
#     4  11  23  39  59  88 125 162 199 244 301 364
#     4  10  19  35  56  78 107 143 187 242 288 332
#
# _framework density 19.448173000000001
#
# number of rings (size 3 to 8) (size 9 to 14) (size 15 to 20)
#    0.000    1.750    1.250    3.750    0.000    1.000 
#    0.000    6.250    0.000    0.000    0.000    0.000 
#    0.000    0.000    0.000    0.000    0.000    0.000 
#
# Total GULP energy -178217.174144 kJ/mol
# GULP energy per Si atom -5569.286692 kJ/mol
# Density = 1.940391 g / cm^3
# Si number density = 19.448173 Si / 1000 Ang^3
#
#
#
# Elastic Constant Matrix: (Units=GPa)
#
#
# Indices 1 2 3 4 5 6 
#
# 1 37.9299 4.4071 9.1465 0.0000 9.2695 0.0000
# 2 4.4071 140.4359 21.3624 0.0000 -5.4221 0.0000
# 3 9.1465 21.3624 73.9579 0.0000 7.9123 0.0000
# 4 0.0000 0.0000 0.0000 277.0634 0.0000 289.4173
# 5 9.2695 -5.4221 7.9123 0.0000 29.8100 0.0000
# 6 0.0000 0.0000 0.0000 289.4173 0.0000 311.2202
#
#
#
# Elastic Compliance Matrix: (Units=1/GPa)
#
#
# Indices 1 2 3 4 5 6 
#
# 1 0.029149 -0.000876 -0.002434 0.000000 -0.008577 0.000000
# 2 -0.000876 0.007590 -0.002327 0.000000 0.002270 0.000000
# 3 -0.002434 -0.002327 0.014881 0.000000 -0.003616 0.000000
# 4 0.000000 0.000000 0.000000 0.126236 0.000000 -0.117392
# 5 -0.008577 0.002270 -0.003616 0.000000 0.037586 0.000000
# 6 0.000000 0.000000 0.000000 -0.117392 0.000000 0.112381
#
#
# Mechanical properties :
#
#
# Convention : Reuss Voigt Hill
#
# Bulk Modulus (GPa) = 24.78526 35.79508 30.29017
# Shear Modulus (GPa) = 14.18257 138.11260 76.14758
#
# Velocity S-wave (km/s) = 2.70339 8.43622 6.26411
# Velocity P-wave (km/s) = 4.74514 10.64606 8.24181
#
# Compressibility (1/GPa) = 0.04034656
#
# Stress axis : x y z
#
# Youngs Moduli (GPa) = 34.30614 131.75629 67.19868
#
# Poissons Ratio (x) = 0.11536 0.16359
# Poissons Ratio (y) = 0.03004 0.15636
# Poissons Ratio (z) = 0.08352 0.30658
#
# Static dielectric constant tensor:
#      x y z
#    x 1.655890 0.000000 0.022020 
#    y 0.000000 1.738030 0.000000 
#    z 0.022020 0.000000 1.702680 
# 
# From -- ./inp_files/34814.got.cif
#   From: 2010.05.17/outbox.cif.g08.bks.cpg/sg11_18_cif.got.tgz:34814.got - 2010.06.03 12:22:45.
