data_PCOD9157607
_publ_section_title
;
Structure prediction by ZEFSAII (Michael W. Deem and Ramdas Pophale) SiO2 
 PCOD9157607
Probable space group: P 21/M
;
_chemical_formula_sum "Si O2"
_cell_formula_units_Z 22
_cell_length_a 11.694643
_cell_length_b 14.277067
_cell_length_c 5.362182
_cell_angle_alpha 90.000000
_cell_angle_beta 75.365286
_cell_angle_gamma 90.000000
_cell_volume 866.251000
_symmetry_space_group_name_H-M "P 21/M"
_symmetry_group_IT_number 11
_symmetry_cell_setting 'monoclinic'
loop_
_space_group_symop_operation_xyz
x,y,z
-x,1/2+y,-z
-x,-y,-z
x,1/2-y,z
loop_
_atom_site_type_symbol
_atom_site_label
_atom_site_fract_x
_atom_site_fract_y
_atom_site_fract_z
Si Si1 0.611119 0.858417 0.367283
Si Si2 0.668831 0.146762 0.596884
Si Si3 0.366162 0.467413 0.129202
Si Si4 0.120130 0.893138 0.841666
Si Si5 0.951908 0.577830 0.341687
Si Si6 0.955494 0.750000 0.607422
O O1 0.643898 0.750000 0.351734
O O2 0.468229 0.862447 0.403154
O O3 0.633742 0.909026 0.615713
O O4 0.667790 0.908489 0.094655
O O5 0.686855 0.250000 0.696418
O O6 0.749368 0.136195 0.308262
O O7 0.701828 0.062939 0.765998
O O8 0.500000 0.500000 0.000000
O O9 0.035531 0.832019 0.704970
O O10 0.061350 0.873068 0.139382
O O11 0.113261 0.006480 0.811308
O O12 0.885071 0.664611 0.499572
O O13 0.000000 0.500000 0.500000
#
# Coordination Sequence:
#
# PCOD9157607 Si02
#       6
#     4   4   4   4   4   2
#     4  10  21  40  63  88 122 169 207 245 303 368
#     4  10  20  35  58  93 119 151 193 255 308 347
#     4  10  20  39  58  88 128 165 200 245 306 368
#     4  10  19  37  55  83 123 144 192 250 293 352
#     4   9  20  36  56  81 112 160 187 230 301 367
#     4  10  18  34  58  86 108 150 196 230 298 356
#
# _framework density 25.396796999999999
#
# number of rings (size 3 to 8) (size 9 to 14) (size 15 to 20)
#    0.000    2.182    0.909    3.273    0.000    0.727 
#   19.636    0.909    4.000    0.000    0.000    0.000 
#    0.000    0.000    0.000    0.000    0.000    0.000 
#
# Total GULP energy -122520.177688 kJ/mol
# GULP energy per Si atom -5569.098986 kJ/mol
# Density = 2.533899 g / cm^3
# Si number density = 25.396797 Si / 1000 Ang^3
#
#
#
# Elastic Constant Matrix: (Units=GPa)
#
#
# Indices 1 2 3 4 5 6 
#
# 1 57.9043 39.7190 27.8978 0.0000 -2.6234 0.0000
# 2 39.7190 247.3026 85.6438 0.0000 19.6929 0.0000
# 3 27.8978 85.6438 157.7108 0.0000 19.4318 0.0000
# 4 0.0000 0.0000 0.0000 14.4712 0.0000 -0.0451
# 5 -2.6234 19.6929 19.4318 0.0000 23.6108 0.0000
# 6 0.0000 0.0000 0.0000 -0.0451 0.0000 23.2307
#
#
#
# Elastic Compliance Matrix: (Units=1/GPa)
#
#
# Indices 1 2 3 4 5 6 
#
# 1 0.021059 -0.002908 -0.003042 0.000000 0.007268 0.000000
# 2 -0.002908 0.005481 -0.002069 0.000000 -0.003192 0.000000
# 3 -0.003042 -0.002069 0.008715 0.000000 -0.005785 0.000000
# 4 0.000000 0.000000 0.000000 0.069103 0.000000 0.000134
# 5 0.007268 -0.003192 -0.005785 0.000000 0.050584 0.000000
# 6 0.000000 0.000000 0.000000 0.000134 0.000000 0.043047
#
#
# Mechanical properties :
#
#
# Convention : Reuss Voigt Hill
#
# Bulk Modulus (GPa) = 52.03244 85.49321 68.76282
# Shear Modulus (GPa) = 22.68265 32.90636 27.79451
#
# Velocity S-wave (km/s) = 2.99177 3.60347 3.31178
# Velocity P-wave (km/s) = 5.69794 7.14489 6.46204
#
# Compressibility (1/GPa) = 0.01921878
#
# Stress axis : x y z
#
# Youngs Moduli (GPa) = 47.48528 182.43788 114.74367
#
# Poissons Ratio (x) = 0.53047 0.34902
# Poissons Ratio (y) = 0.13807 0.23740
# Poissons Ratio (z) = 0.14444 0.37745
#
# Static dielectric constant tensor:
#      x y z
#    x 2.132300 0.000000 0.065360 
#    y 0.000000 2.036430 0.000000 
#    z 0.065360 0.000000 2.089790 
# 
# From -- ./inp_files/6322.got.cif
#   From: 2010.05.17/outbox.cif.g08.bks.cpg/sg11_4_cif.got.tgz:6322.got - 2010.06.03 12:22:45.
