data_PCOD9157421
_publ_section_title
;
Structure prediction by ZEFSAII (Michael W. Deem and Ramdas Pophale) SiO2 
 PCOD9157421
Probable space group: P 21/M
;
_chemical_formula_sum "Si O2"
_cell_formula_units_Z 32
_cell_length_a 20.962940
_cell_length_b 8.523779
_cell_length_c 26.117053
_cell_angle_alpha 90.000000
_cell_angle_beta 157.252274
_cell_angle_gamma 90.000000
_cell_volume 1804.487668
_symmetry_space_group_name_H-M "P 21/M"
_symmetry_group_IT_number 11
_symmetry_cell_setting 'monoclinic'
loop_
_space_group_symop_operation_xyz
x,y,z
-x,1/2+y,-z
-x,-y,-z
x,1/2-y,z
loop_
_atom_site_type_symbol
_atom_site_label
_atom_site_fract_x
_atom_site_fract_y
_atom_site_fract_z
Si Si1 0.151688 0.561612 0.146361
Si Si2 0.650916 0.062197 0.146340
Si Si3 0.967805 0.441147 0.831287
Si Si4 0.350320 0.060597 0.119671
Si Si5 0.827416 0.060641 0.618677
Si Si6 0.457082 0.562750 0.092081
Si Si7 0.535834 0.560003 0.683327
Si Si8 0.862516 0.060846 0.211649
O O1 0.149125 0.750000 0.143332
O O2 0.121587 0.509602 0.182654
O O3 0.321258 0.501105 0.247988
O O4 0.000000 0.500000 0.000000
O O5 0.644872 0.250000 0.143447
O O6 0.810729 0.015688 0.231261
O O7 0.611946 0.997146 0.173543
O O8 0.500000 0.000000 0.000000
O O9 0.968074 0.250000 0.831046
O O10 0.880779 0.494746 0.714807
O O11 0.159109 0.491067 0.974176
O O12 0.351975 0.250000 0.119376
O O13 0.423057 0.010527 0.228123
O O14 0.447366 0.998175 0.142447
O O15 0.825804 0.250000 0.618352
O O16 0.645312 0.007234 0.468082
O O17 0.967866 0.007564 0.683232
O O18 0.458005 0.750000 0.091997
O O19 0.288382 0.510380 0.937686
O O20 0.540275 0.750000 0.685558
O O21 0.869611 0.250000 0.214726
#
# Coordination Sequence:
#
# PCOD9157421 Si02
#       8
#     4   4   4   4   4   4   4   4
#     4  11  21  36  57  79 106 138 175 218 263 313
#     4   9  17  29  46  73 108 143 174 216 267 312
#     4   9  18  33  54  78 101 134 175 213 258 312
#     4  10  18  33  54  74 103 138 171 214 264 313
#     4  10  20  35  55  76 103 139 177 213 256 314
#     4  10  19  30  48  79 109 134 175 224 260 309
#     4  10  22  38  54  78 107 136 174 217 262 316
#     4   9  18  31  48  74 108 137 169 213 259 305
#
# _framework density 17.733566
#
# number of rings (size 3 to 8) (size 9 to 14) (size 15 to 20)
#    0.000    2.250    2.500    1.875    0.000    4.000 
#    0.000    1.250    0.000    0.750    0.000    0.000 
#    0.000    0.000    0.000    0.000    0.000    0.000 
#
# Total GULP energy -178476.574743 kJ/mol
# GULP energy per Si atom -5577.392961 kJ/mol
# Density = 1.769320 g / cm^3
# Si number density = 17.733566 Si / 1000 Ang^3
#
#
#
# Elastic Constant Matrix: (Units=GPa)
#
#
# Indices 1 2 3 4 5 6 
#
# 1 209.5869 30.0855 91.0837 0.0000 14.0742 0.0000
# 2 30.0855 15.0139 21.7420 0.0000 0.2868 0.0000
# 3 91.0837 21.7420 125.5935 0.0000 4.2798 0.0000
# 4 0.0000 0.0000 0.0000 13.6942 0.0000 9.1702
# 5 14.0742 0.2868 4.2798 0.0000 24.0329 0.0000
# 6 0.0000 0.0000 0.0000 9.1702 0.0000 29.2768
#
#
#
# Elastic Compliance Matrix: (Units=1/GPa)
#
#
# Indices 1 2 3 4 5 6 
#
# 1 0.008353 -0.010793 -0.004051 0.000000 -0.004041 0.000000
# 2 -0.010793 0.102904 -0.010222 0.000000 0.006913 0.000000
# 3 -0.004051 -0.010222 0.012662 0.000000 0.000240 0.000000
# 4 0.000000 0.000000 0.000000 0.092405 0.000000 -0.028944
# 5 -0.004041 0.006913 0.000240 0.000000 0.043851 0.000000
# 6 0.000000 0.000000 0.000000 -0.028944 0.000000 0.043223
#
#
# Mechanical properties :
#
#
# Convention : Reuss Voigt Hill
#
# Bulk Modulus (GPa) = 13.55289 70.66853 42.11071
# Shear Modulus (GPa) = 13.22308 27.21965 20.22137
#
# Velocity S-wave (km/s) = 2.73363 3.92206 3.38048
# Velocity P-wave (km/s) = 4.19794 7.77475 6.24778
#
# Compressibility (1/GPa) = 0.07378502
#
# Stress axis : x y z
#
# Youngs Moduli (GPa) = 119.72167 9.71775 78.97769
#
# Poissons Ratio (x) = 0.10489 0.31997
# Poissons Ratio (y) = 1.29221 0.80732
# Poissons Ratio (z) = 0.48504 0.09934
#
# Static dielectric constant tensor:
#      x y z
#    x 1.615580 0.000000 -0.001920 
#    y 0.000000 1.600790 0.000000 
#    z -0.001920 0.000000 1.582970 
# 
# From -- ./inp_files/72130.got.cif
#   From: 2010.05.17/outbox.cif.g08.bks.cpg/sg11_37_cif.got.tgz:72130.got - 2010.06.03 12:22:45.
