data_PCOD9157176
_publ_section_title
;
Structure prediction by ZEFSAII (Michael W. Deem and Ramdas Pophale) SiO2 
 PCOD9157176
Probable space group: P 21/M
;
_chemical_formula_sum "Si O2"
_cell_formula_units_Z 32
_cell_length_a 16.166626
_cell_length_b 8.547503
_cell_length_c 14.706209
_cell_angle_alpha 90.000000
_cell_angle_beta 89.254893
_cell_angle_gamma 90.000000
_cell_volume 2031.995128
_symmetry_space_group_name_H-M "P 21/M"
_symmetry_group_IT_number 11
_symmetry_cell_setting 'monoclinic'
loop_
_space_group_symop_operation_xyz
x,y,z
-x,1/2+y,-z
-x,-y,-z
x,1/2-y,z
loop_
_atom_site_type_symbol
_atom_site_label
_atom_site_fract_x
_atom_site_fract_y
_atom_site_fract_z
Si Si1 0.501900 0.437429 0.396710
Si Si2 0.005969 0.439009 0.397718
Si Si3 0.683385 0.440411 0.402184
Si Si4 0.908770 0.560923 0.899527
Si Si5 0.169840 0.060982 0.285738
Si Si6 0.671729 0.063054 0.613302
Si Si7 0.905086 0.562962 0.104144
Si Si8 0.843198 0.438989 0.288756
O O1 0.500000 0.500000 0.500000
O O2 0.497776 0.250000 0.397157
O O3 0.593696 0.484641 0.362486
O O4 0.418354 0.502913 0.354270
O O5 0.005322 0.250000 0.399049
O O6 0.926074 0.490540 0.340893
O O7 0.000000 0.500000 0.500000
O O8 0.091002 0.488781 0.347917
O O9 0.685930 0.250000 0.403536
O O10 0.686840 0.491031 0.508075
O O11 0.761813 0.494699 0.343386
O O12 0.915036 0.750000 0.897236
O O13 0.850106 0.512819 0.817514
O O14 0.000861 0.495466 0.882752
O O15 0.881673 0.514239 0.001530
O O16 0.173584 0.250000 0.288316
O O17 0.253800 0.994883 0.325589
O O18 0.669856 0.250000 0.611768
O O19 0.903846 0.750000 0.108346
O O20 0.849756 0.495367 0.185403
O O21 0.842897 0.250000 0.289122
#
# Coordination Sequence:
#
# PCOD9157176 Si02
#       8
#     4   4   4   4   4   4   4   4
#     4   9  16  29  47  69  94 122 157 194 232 274
#     4  10  20  31  44  62  91 128 161 186 222 268
#     4   8  16  29  47  67  91 125 158 184 221 273
#     4   9  18  34  50  64  89 121 153 191 239 283
#     4  10  19  32  47  65  89 124 159 187 227 279
#     4  10  19  31  47  69  94 123 158 196 234 272
#     4  10  19  30  48  71  90 114 153 199 236 272
#     4  10  18  32  48  64  92 128 156 185 227 277
#
# _framework density 15.748068999999999
#
# number of rings (size 3 to 8) (size 9 to 14) (size 15 to 20)
#    0.000    2.500    1.250    2.625    0.000    3.000 
#    0.000    3.750    0.000    0.000    0.000    0.875 
#    0.000    0.000    0.000    0.000    0.000    0.000 
#
# Total GULP energy -178340.102004 kJ/mol
# GULP energy per Si atom -5573.128188 kJ/mol
# Density = 1.571223 g / cm^3
# Si number density = 15.748069 Si / 1000 Ang^3
#
#
#
# Elastic Constant Matrix: (Units=GPa)
#
#
# Indices 1 2 3 4 5 6 
#
# 1 138.5120 25.7129 65.5973 0.0000 18.8181 0.0000
# 2 25.7129 14.0407 20.0885 0.0000 4.4402 0.0000
# 3 65.5973 20.0885 105.0397 0.0000 12.1635 0.0000
# 4 0.0000 0.0000 0.0000 22.6386 0.0000 0.5479
# 5 18.8181 4.4402 12.1635 0.0000 12.7301 0.0000
# 6 0.0000 0.0000 0.0000 0.5479 0.0000 18.8898
#
#
#
# Elastic Compliance Matrix: (Units=1/GPa)
#
#
# Indices 1 2 3 4 5 6 
#
# 1 0.013528 -0.015278 -0.004304 0.000000 -0.010557 0.000000
# 2 -0.015278 0.119251 -0.012440 0.000000 -0.007122 0.000000
# 3 -0.004304 -0.012440 0.015009 0.000000 -0.003639 0.000000
# 4 0.000000 0.000000 0.000000 0.044203 0.000000 -0.001282
# 5 -0.010557 -0.007122 -0.003639 0.000000 0.100121 0.000000
# 6 0.000000 0.000000 0.000000 -0.001282 0.000000 0.052976
#
#
# Mechanical properties :
#
#
# Convention : Reuss Voigt Hill
#
# Bulk Modulus (GPa) = 11.94128 53.37664 32.65896
# Shear Modulus (GPa) = 11.44037 20.59794 16.01916
#
# Velocity S-wave (km/s) = 2.69822 3.62050 3.19284
# Velocity P-wave (km/s) = 4.16009 7.17252 5.86308
#
# Compressibility (1/GPa) = 0.08374315
#
# Stress axis : x y z
#
# Youngs Moduli (GPa) = 73.91872 8.38564 66.62790
#
# Poissons Ratio (x) = 0.12812 0.28677
# Poissons Ratio (y) = 1.12934 0.82888
# Poissons Ratio (z) = 0.31815 0.10432
#
# Static dielectric constant tensor:
#      x y z
#    x 1.530650 0.000000 -0.001080 
#    y 0.000000 1.535970 0.000000 
#    z -0.001080 0.000000 1.519210 
# 
# From -- ./inp_files/51313.got.cif
#   From: 2010.05.17/outbox.cif.g08.bks.cpg/sg11_26_cif.got.tgz:51313.got - 2010.06.03 12:22:45.
