data_PCOD9157481
_publ_section_title
;
Structure prediction by ZEFSAII (Michael W. Deem and Ramdas Pophale) SiO2 
 PCOD9157481
Probable space group: P 21/M
;
_chemical_formula_sum "Si O2"
_cell_formula_units_Z 32
_cell_length_a 8.041309
_cell_length_b 13.439906
_cell_length_c 25.893642
_cell_angle_alpha 90.000000
_cell_angle_beta 33.336214
_cell_angle_gamma 90.000000
_cell_volume 1537.885884
_symmetry_space_group_name_H-M "P 21/M"
_symmetry_group_IT_number 11
_symmetry_cell_setting 'monoclinic'
loop_
_space_group_symop_operation_xyz
x,y,z
-x,1/2+y,-z
-x,-y,-z
x,1/2-y,z
loop_
_atom_site_type_symbol
_atom_site_label
_atom_site_fract_x
_atom_site_fract_y
_atom_site_fract_z
Si Si1 0.481773 0.857788 0.394447
Si Si2 0.395043 0.036702 0.852225
Si Si3 0.414467 0.457319 0.733152
Si Si4 0.570175 0.453306 0.425988
Si Si5 0.808013 0.576002 0.878397
Si Si6 0.255196 0.065194 0.995342
Si Si7 0.847195 0.642688 0.756389
Si Si8 0.765326 0.866760 0.583806
O O1 0.577604 0.750000 0.388120
O O2 0.126028 0.872518 0.498998
O O3 0.512063 0.870699 0.325667
O O4 0.670186 0.948300 0.368655
O O5 0.476222 0.077597 0.775101
O O6 0.629570 0.948070 0.801073
O O7 0.368317 0.104685 0.910350
O O8 0.071690 0.982734 0.929295
O O9 0.603081 0.555473 0.664913
O O10 0.066527 0.492218 0.818205
O O11 0.500000 0.500000 0.500000
O O12 0.319158 0.404038 0.452739
O O13 0.844029 0.376098 0.354652
O O14 0.491659 0.523149 0.946974
O O15 0.905500 0.638215 0.803041
O O16 0.770475 0.625864 0.944531
O O17 0.715502 0.750000 0.777192
O O18 0.677221 0.750000 0.612554
#
# Coordination Sequence:
#
# PCOD9157481 Si02
#       8
#     4   4   4   4   4   4   4   4
#     4  10  22  39  58  79 109 154 204 239 279 340
#     4   9  19  32  56  84 113 148 184 228 282 351
#     4  10  18  33  57  84 113 147 192 232 280 336
#     4  11  23  37  57  82 119 154 188 237 295 348
#     4   9  16  32  60  81 108 150 187 229 283 347
#     4   8  16  33  55  84 105 145 181 221 284 349
#     4  11  22  35  55  90 122 153 194 243 293 341
#     4  10  21  37  57  82 115 153 190 239 292 346
#
# _framework density 20.807787000000001
#
# number of rings (size 3 to 8) (size 9 to 14) (size 15 to 20)
#    0.000    2.250    2.500    1.875    3.500    1.500 
#    0.000    1.875    0.000   28.500    0.000    0.000 
#    0.000    0.000    0.000    0.000    0.000    0.000 
#
# Total GULP energy -178168.330048 kJ/mol
# GULP energy per Si atom -5567.760314 kJ/mol
# Density = 2.076043 g / cm^3
# Si number density = 20.807787 Si / 1000 Ang^3
#
#
#
# Elastic Constant Matrix: (Units=GPa)
#
#
# Indices 1 2 3 4 5 6 
#
# 1 59.5149 -11.6527 20.6863 0.0000 23.9736 0.0000
# 2 -11.6527 46.6856 -5.4440 0.0000 -6.8541 0.0000
# 3 20.6863 -5.4440 59.0274 0.0000 21.8226 0.0000
# 4 0.0000 0.0000 0.0000 -5.0856 0.0000 -3.4236
# 5 23.9736 -6.8541 21.8226 0.0000 48.0859 0.0000
# 6 0.0000 0.0000 0.0000 -3.4236 0.0000 4.0497
#
#
#
# Elastic Compliance Matrix: (Units=1/GPa)
#
#
# Indices 1 2 3 4 5 6 
#
# 1 0.022583 0.003848 -0.004325 0.000000 -0.008747 0.000000
# 2 0.003848 0.022587 0.000305 0.000000 0.001163 0.000000
# 3 -0.004325 0.000305 0.021235 0.000000 -0.007437 0.000000
# 4 0.000000 0.000000 0.000000 -0.125315 0.000000 -0.105941
# 5 -0.008747 0.001163 -0.007437 0.000000 0.028698 0.000000
# 6 0.000000 0.000000 0.000000 -0.105941 0.000000 0.157369
#
#
# Mechanical properties :
#
#
# Convention : Reuss Voigt Hill
#
# Bulk Modulus (GPa) = 15.13796 19.15634 17.14715
# Shear Modulus (GPa) = 33.44003 20.18589 26.81296
#
# Velocity S-wave (km/s) = 4.01320 3.11804 3.59361
# Velocity P-wave (km/s) = 5.36333 4.71054 5.04750
#
# Compressibility (1/GPa) = 0.06605908
#
# Stress axis : x y z
#
# Youngs Moduli (GPa) = 44.28107 44.27409 47.09267
#
# Poissons Ratio (x) = -0.17037 0.20370
# Poissons Ratio (y) = -0.17040 -0.01435
# Poissons Ratio (z) = 0.19153 -0.01349
#
# Static dielectric constant tensor:
#      x y z
#    x 1.816200 0.000000 0.059740 
#    y 0.000000 1.778080 0.000000 
#    z 0.059740 0.000000 1.797740 
# 
# From -- ./inp_files/71114.got.cif
#   From: 2010.05.17/outbox.cif.g08.bks.cpg/sg11_36_cif.got.tgz:71114.got - 2010.06.03 12:22:45.
