data_PCOD9157972
_publ_section_title
;
Structure prediction by ZEFSAII (Michael W. Deem and Ramdas Pophale) SiO2 
 PCOD9157972
Probable space group: P 21/M
;
_chemical_formula_sum "Si O2"
_cell_formula_units_Z 32
_cell_length_a 26.977869
_cell_length_b 8.397599
_cell_length_c 14.042775
_cell_angle_alpha 90.000000
_cell_angle_beta 147.058907
_cell_angle_gamma 90.000000
_cell_volume 1729.960314
_symmetry_space_group_name_H-M "P 21/M"
_symmetry_group_IT_number 11
_symmetry_cell_setting 'monoclinic'
loop_
_space_group_symop_operation_xyz
x,y,z
-x,1/2+y,-z
-x,-y,-z
x,1/2-y,z
loop_
_atom_site_type_symbol
_atom_site_label
_atom_site_fract_x
_atom_site_fract_y
_atom_site_fract_z
Si Si1 0.223961 0.557080 0.875778
Si Si2 0.617060 0.444247 0.991766
Si Si3 0.897341 0.060080 0.933330
Si Si4 0.878602 0.940547 0.102181
Si Si5 0.051167 0.558299 0.487662
Si Si6 0.554442 0.940958 0.181332
Si Si7 0.893632 0.561350 0.724587
Si Si8 0.278339 0.560871 0.648965
O O1 0.220951 0.750000 0.878119
O O2 0.324881 0.506329 0.006429
O O3 0.184663 0.488773 0.910625
O O4 0.154753 0.510703 0.677503
O O5 0.617909 0.250000 0.993933
O O6 0.674391 0.497975 0.177479
O O7 0.512087 0.491953 0.839434
O O8 0.898065 0.250000 0.923357
O O9 0.002478 0.000207 0.112691
O O10 0.849981 0.013029 0.955409
O O11 0.859984 0.984910 0.776242
O O12 0.879863 0.750000 0.096956
O O13 0.982338 0.999087 0.294677
O O14 0.051203 0.750000 0.482088
O O15 0.000000 0.500000 0.500000
O O16 0.559144 0.750000 0.187809
O O17 0.655411 0.007776 0.330455
O O18 0.500000 0.000000 0.000000
O O19 0.895911 0.750000 0.718435
O O20 0.823927 0.494059 0.535145
O O21 0.278367 0.750000 0.654036
#
# Coordination Sequence:
#
# PCOD9157972 Si02
#       8
#     4   4   4   4   4   4   4   4
#     4   9  16  29  45  64  91 126 165 198 231 279
#     4   8  16  28  46  70  97 130 164 197 235 279
#     4  10  21  36  52  70  94 126 161 199 243 287
#     4  10  19  30  45  67  93 125 160 198 242 280
#     4   8  15  25  39  57  83 117 154 191 226 265
#     4   9  16  29  46  68  98 129 163 201 242 289
#     4  10  21  36  52  73  96 121 158 204 245 284
#     4  10  19  31  50  73  98 130 163 196 242 295
#
# _framework density 18.497534999999999
#
# number of rings (size 3 to 8) (size 9 to 14) (size 15 to 20)
#    0.000    2.750    0.000    2.625    1.750    2.000 
#    0.000    3.750    0.000    0.000    0.000    0.875 
#    0.000    0.000    0.000    0.000    0.000    0.000 
#
# Total GULP energy -178214.220908 kJ/mol
# GULP energy per Si atom -5569.194403 kJ/mol
# Density = 1.845543 g / cm^3
# Si number density = 18.497535 Si / 1000 Ang^3
#
#
#
# Elastic Constant Matrix: (Units=GPa)
#
#
# Indices 1 2 3 4 5 6 
#
# 1 71.7576 -5.0781 3.1441 0.0000 6.0188 0.0000
# 2 -5.0781 19.7035 2.5805 0.0000 1.7517 0.0000
# 3 3.1441 2.5805 22.1767 0.0000 4.7423 0.0000
# 4 0.0000 0.0000 0.0000 21.4737 0.0000 1.3626
# 5 6.0188 1.7517 4.7423 0.0000 28.4953 0.0000
# 6 0.0000 0.0000 0.0000 1.3626 0.0000 16.6751
#
#
#
# Elastic Compliance Matrix: (Units=1/GPa)
#
#
# Indices 1 2 3 4 5 6 
#
# 1 0.014576 0.004276 -0.001918 0.000000 -0.003022 0.000000
# 2 0.004276 0.052932 -0.006093 0.000000 -0.003143 0.000000
# 3 -0.001918 -0.006093 0.047601 0.000000 -0.007142 0.000000
# 4 0.000000 0.000000 0.000000 0.046811 0.000000 -0.003825
# 5 -0.003022 -0.003143 -0.007142 0.000000 0.037114 0.000000
# 6 0.000000 0.000000 0.000000 -0.003825 0.000000 0.060282
#
#
# Mechanical properties :
#
#
# Convention : Reuss Voigt Hill
#
# Bulk Modulus (GPa) = 9.29030 12.77009 11.03020
# Shear Modulus (GPa) = 16.51993 20.86158 18.69076
#
# Velocity S-wave (km/s) = 2.99170 3.36192 3.18220
# Velocity P-wave (km/s) = 4.11911 4.68921 4.41337
#
# Compressibility (1/GPa) = 0.10763912
#
# Stress axis : x y z
#
# Youngs Moduli (GPa) = 68.60597 18.89220 21.00816
#
# Poissons Ratio (x) = -0.08079 0.04029
# Poissons Ratio (y) = -0.29339 0.12801
# Poissons Ratio (z) = 0.13157 0.11512
#
# Static dielectric constant tensor:
#      x y z
#    x 1.679800 0.000000 0.025720 
#    y 0.000000 1.624080 0.000000 
#    z 0.025720 0.000000 1.648990 
# 
# From -- ./inp_files/56207.got.cif
#   From: 2010.05.17/outbox.cif.g08.bks.cpg/sg11_29_cif.got.tgz:56207.got - 2010.06.03 12:22:45.
