data_PCOD9157016
_publ_section_title
;
Structure prediction by ZEFSAII (Michael W. Deem and Ramdas Pophale) SiO2 
 PCOD9157016
Probable space group: P 21/M
;
_chemical_formula_sum "Si O2"
_cell_formula_units_Z 24
_cell_length_a 25.421599
_cell_length_b 8.596785
_cell_length_c 19.409061
_cell_angle_alpha 90.000000
_cell_angle_beta 161.015450
_cell_angle_gamma 90.000000
_cell_volume 1379.892054
_symmetry_space_group_name_H-M "P 21/M"
_symmetry_group_IT_number 11
_symmetry_cell_setting 'monoclinic'
loop_
_space_group_symop_operation_xyz
x,y,z
-x,1/2+y,-z
-x,-y,-z
x,1/2-y,z
loop_
_atom_site_type_symbol
_atom_site_label
_atom_site_fract_x
_atom_site_fract_y
_atom_site_fract_z
Si Si1 0.834992 0.064034 0.827884
Si Si2 0.484377 0.063063 0.642722
Si Si3 0.337663 0.937042 0.003271
Si Si4 0.339741 0.063708 0.263145
Si Si5 0.000574 0.563765 0.422756
Si Si6 0.355460 0.937414 0.866502
O O1 0.836605 0.250000 0.832482
O O2 0.681579 0.008690 0.591910
O O3 0.804004 0.997639 0.866572
O O4 0.000000 0.000000 0.000000
O O5 0.473449 0.250000 0.623148
O O6 0.632686 0.003583 0.778736
O O7 0.526141 0.019199 0.772855
O O8 0.329867 0.750000 0.991764
O O9 0.366064 0.990942 0.959717
O O10 0.162634 0.997105 0.811407
O O11 0.340247 0.250000 0.262662
O O12 0.500000 0.000000 0.500000
O O13 0.991362 0.750000 0.411992
O O14 0.000000 0.500000 0.500000
O O15 0.178888 0.517833 0.617603
O O16 0.361613 0.750000 0.875118
O O17 0.500000 0.000000 0.000000
#
# Coordination Sequence:
#
# PCOD9157016 Si02
#       6
#     4   4   4   4   4   4
#     4  11  21  35  54  77 104 136 172 210 254 307
#     4  10  19  34  54  76 102 134 170 213 259 306
#     4   9  19  34  52  74 101 131 168 209 253 302
#     4  10  18  31  51  75 100 129 166 206 246 298
#     4   9  17  30  49  71  96 125 164 206 246 295
#     4   9  18  32  49  73 100 131 167 204 246 298
#
# _framework density 17.392662999999999
#
# number of rings (size 3 to 8) (size 9 to 14) (size 15 to 20)
#    0.000    2.333    0.000    7.000    0.000    4.667 
#    0.000    1.667    0.000    6.000    0.000    0.000 
#    0.000    0.000    0.000    0.000    0.000    0.000 
#
# Total GULP energy -133700.128456 kJ/mol
# GULP energy per Si atom -5570.838686 kJ/mol
# Density = 1.735308 g / cm^3
# Si number density = 17.392663 Si / 1000 Ang^3
#
#
#
# Elastic Constant Matrix: (Units=GPa)
#
#
# Indices 1 2 3 4 5 6 
#
# 1 100.0347 27.2457 54.8893 0.0000 18.8343 0.0000
# 2 27.2457 68.5948 24.9568 0.0000 2.3591 0.0000
# 3 54.8893 24.9568 89.6701 0.0000 11.7932 0.0000
# 4 0.0000 0.0000 0.0000 26.9921 0.0000 6.5296
# 5 18.8343 2.3591 11.7932 0.0000 34.5699 0.0000
# 6 0.0000 0.0000 0.0000 6.5296 0.0000 27.3343
#
#
#
# Elastic Compliance Matrix: (Units=1/GPa)
#
#
# Indices 1 2 3 4 5 6 
#
# 1 0.016695 -0.003331 -0.008508 0.000000 -0.005966 0.000000
# 2 -0.003331 0.016892 -0.002879 0.000000 0.001644 0.000000
# 3 -0.008508 -0.002879 0.017302 0.000000 -0.001071 0.000000
# 4 0.000000 0.000000 0.000000 0.039320 0.000000 -0.009393
# 5 -0.005966 0.001644 -0.001071 0.000000 0.032430 0.000000
# 6 0.000000 0.000000 0.000000 -0.009393 0.000000 0.038828
#
#
# Mechanical properties :
#
#
# Convention : Reuss Voigt Hill
#
# Bulk Modulus (GPa) = 46.61024 52.49813 49.55418
# Shear Modulus (GPa) = 25.24560 27.85978 26.55269
#
# Velocity S-wave (km/s) = 3.81400 4.00661 3.91149
# Velocity P-wave (km/s) = 6.80091 7.18703 6.99664
#
# Compressibility (1/GPa) = 0.02145451
#
# Stress axis : x y z
#
# Youngs Moduli (GPa) = 59.89698 59.19907 57.79697
#
# Poissons Ratio (x) = 0.19718 0.49173
# Poissons Ratio (y) = 0.19950 0.16638
# Poissons Ratio (z) = 0.50960 0.17042
#
# Static dielectric constant tensor:
#      x y z
#    x 1.575380 0.000000 0.086520 
#    y 0.000000 1.583180 0.000000 
#    z 0.086520 0.000000 1.410510 
# 
# From -- ./inp_files/61888.got.cif
#   From: 2010.05.17/outbox.cif.g08.bks.cpg/sg11_31_cif.got.tgz:61888.got - 2010.06.03 12:22:45.
