data_PCOD9157385
_publ_section_title
;
Structure prediction by ZEFSAII (Michael W. Deem and Ramdas Pophale) SiO2 
 PCOD9157385
Probable space group: P 21/M
;
_chemical_formula_sum "Si O2"
_cell_formula_units_Z 28
_cell_length_a 16.496533
_cell_length_b 13.798542
_cell_length_c 9.184752
_cell_angle_alpha 90.000000
_cell_angle_beta 141.481931
_cell_angle_gamma 90.000000
_cell_volume 1302.012065
_symmetry_space_group_name_H-M "P 21/M"
_symmetry_group_IT_number 11
_symmetry_cell_setting 'monoclinic'
loop_
_space_group_symop_operation_xyz
x,y,z
-x,1/2+y,-z
-x,-y,-z
x,1/2-y,z
loop_
_atom_site_type_symbol
_atom_site_label
_atom_site_fract_x
_atom_site_fract_y
_atom_site_fract_z
Si Si1 0.253156 0.357794 0.175412
Si Si2 0.709795 0.456478 0.937498
Si Si3 0.032767 0.586026 0.158865
Si Si4 0.297671 0.639702 0.383560
Si Si5 0.550546 0.631784 0.294577
Si Si6 0.548366 0.362003 0.134015
Si Si7 0.168887 0.636078 0.624714
O O1 0.296195 0.250000 0.197216
O O2 0.279417 0.429573 0.078075
O O3 0.329304 0.386978 0.430113
O O4 0.102268 0.359503 0.007153
O O5 0.721353 0.414777 0.792278
O O6 0.572642 0.418976 0.804704
O O7 0.815937 0.411994 0.196101
O O8 0.157794 0.639209 0.266533
O O9 0.082599 0.571006 0.394740
O O10 0.000000 0.500000 0.000000
O O11 0.334558 0.750000 0.402806
O O12 0.407201 0.597385 0.647276
O O13 0.531472 0.750000 0.265122
O O14 0.554795 0.599386 0.130013
O O15 0.512217 0.250000 0.111268
O O16 0.684989 0.361861 0.237233
O O17 0.126295 0.750000 0.569625
#
# Coordination Sequence:
#
# PCOD9157385 Si02
#       7
#     4   4   4   4   4   4   4
#     4  11  23  38  57  80 121 164 191 229 292 359
#     4  11  20  35  60  91 113 146 201 242 282 335
#     4  11  21  39  58  82 113 152 196 229 289 352
#     4  10  18  32  58  87 113 139 189 255 288 318
#     4   9  18  35  59  85 115 153 194 234 289 349
#     4   7  13  28  52  81 108 143 185 231 282 329
#     4   9  18  34  60  87 115 148 188 242 290 336
#
# _framework density 21.505177
#
# number of rings (size 3 to 8) (size 9 to 14) (size 15 to 20)
#    0.000    2.286    1.429    4.714    0.000    0.571 
#    0.000    0.714    3.143    1.714    0.000    0.000 
#    0.000    0.000    0.000    0.000    0.000    0.000 
#
# Total GULP energy -156137.208410 kJ/mol
# GULP energy per Si atom -5576.328872 kJ/mol
# Density = 2.145623 g / cm^3
# Si number density = 21.505177 Si / 1000 Ang^3
#
#
#
# Elastic Constant Matrix: (Units=GPa)
#
#
# Indices 1 2 3 4 5 6 
#
# 1 43.7779 8.4511 36.6234 0.0000 -14.3823 0.0000
# 2 8.4511 86.5642 49.9585 0.0000 -25.1651 0.0000
# 3 36.6234 49.9585 177.7017 0.0000 -33.9910 0.0000
# 4 0.0000 0.0000 0.0000 27.0930 0.0000 0.4860
# 5 -14.3823 -25.1651 -33.9910 0.0000 41.8172 0.0000
# 6 0.0000 0.0000 0.0000 0.4860 0.0000 9.3835
#
#
#
# Elastic Compliance Matrix: (Units=1/GPa)
#
#
# Indices 1 2 3 4 5 6 
#
# 1 0.029161 0.002269 -0.005291 0.000000 0.007094 0.000000
# 2 0.002269 0.015416 -0.003408 0.000000 0.007288 0.000000
# 3 -0.005291 -0.003408 0.008212 0.000000 0.002805 0.000000
# 4 0.000000 0.000000 0.000000 0.036944 0.000000 -0.001914
# 5 0.007094 0.007288 0.002805 0.000000 0.033019 0.000000
# 6 0.000000 0.000000 0.000000 -0.001914 0.000000 0.106670
#
#
# Mechanical properties :
#
#
# Convention : Reuss Voigt Hill
#
# Bulk Modulus (GPa) = 25.04349 55.34554 40.19452
# Shear Modulus (GPa) = 19.56243 29.85946 24.71094
#
# Velocity S-wave (km/s) = 3.01933 3.73027 3.39347
# Velocity P-wave (km/s) = 4.88116 6.65921 5.83827
#
# Compressibility (1/GPa) = 0.03993054
#
# Stress axis : x y z
#
# Youngs Moduli (GPa) = 34.29184 64.86855 121.76738
#
# Poissons Ratio (x) = -0.14718 0.64426
# Poissons Ratio (y) = -0.07781 0.41493
# Poissons Ratio (z) = 0.18143 0.22105
#
# Static dielectric constant tensor:
#      x y z
#    x 1.761850 0.000000 -0.028800 
#    y 0.000000 1.882320 0.000000 
#    z -0.028800 0.000000 1.827080 
# 
# From -- ./inp_files/24976.got.cif
#   From: 2010.05.17/outbox.cif.g08.bks.cpg/sg11_13_cif.got.tgz:24976.got - 2010.06.03 12:22:45.
