data_PCOD9157652
_publ_section_title
;
Structure prediction by ZEFSAII (Michael W. Deem and Ramdas Pophale) SiO2 
 PCOD9157652
Probable space group: P 21/M
;
_chemical_formula_sum "Si O2"
_cell_formula_units_Z 30
_cell_length_a 8.244900
_cell_length_b 12.413471
_cell_length_c 13.202734
_cell_angle_alpha 90.000000
_cell_angle_beta 64.143993
_cell_angle_gamma 90.000000
_cell_volume 1215.999301
_symmetry_space_group_name_H-M "P 21/M"
_symmetry_group_IT_number 11
_symmetry_cell_setting 'monoclinic'
loop_
_space_group_symop_operation_xyz
x,y,z
-x,1/2+y,-z
-x,-y,-z
x,1/2-y,z
loop_
_atom_site_type_symbol
_atom_site_label
_atom_site_fract_x
_atom_site_fract_y
_atom_site_fract_z
Si Si1 0.790733 0.366150 0.325234
Si Si2 0.966569 0.866235 0.128562
Si Si3 0.909724 0.907670 0.909776
Si Si4 0.695463 0.750000 0.539001
Si Si5 0.891515 0.933979 0.614347
Si Si6 0.370186 0.408383 0.632559
Si Si7 0.343778 0.631997 0.275707
Si Si8 0.522821 0.630564 0.011976
O O1 0.697042 0.250000 0.356947
O O2 0.655426 0.464011 0.375772
O O3 0.899785 0.373846 0.189739
O O4 0.953890 0.379350 0.359565
O O5 0.046113 0.750000 0.126038
O O6 0.797110 0.879825 0.247624
O O7 0.909054 0.878443 0.027854
O O8 0.100586 0.964490 0.105038
O O9 0.728482 0.859212 0.917819
O O10 0.761218 0.845376 0.601823
O O11 0.660028 0.842800 0.460423
O O12 0.784729 0.029459 0.700320
O O13 0.000000 0.000000 0.500000
O O14 0.548304 0.381641 0.648103
O O15 0.249700 0.750000 0.304211
O O16 0.481390 0.634181 0.144045
O O17 0.443350 0.750000 0.997730
O O18 0.500000 0.500000 0.000000
#
# Coordination Sequence:
#
# PCOD9157652 Si02
#       8
#     4   4   4   2   4   4   4   4
#     4  11  23  42  65  99 141 183 226 273 334 410
#     4  10  18  34  63  95 131 167 212 265 321 390
#     4  10  21  34  62  96 132 174 212 260 324 388
#     4  12  24  46  70  96 136 170 228 296 352 398
#     4  12  27  46  69  97 129 177 230 285 346 409
#     4  11  22  43  71 101 132 175 227 284 344 402
#     4  11  25  46  73 101 137 176 231 285 344 415
#     4  11  23  43  66  99 140 186 226 272 333 407
#
# _framework density 24.671064999999999
#
# number of rings (size 3 to 8) (size 9 to 14) (size 15 to 20)
#    0.000    1.067    4.667    2.000    0.933    1.067 
#    2.400    1.333    0.000    0.000    0.000    0.000 
#    0.000    0.000    0.000    0.000    0.000    0.000 
#
# Total GULP energy -167142.564094 kJ/mol
# GULP energy per Si atom -5571.418803 kJ/mol
# Density = 2.461491 g / cm^3
# Si number density = 24.671065 Si / 1000 Ang^3
#
#
#
# Elastic Constant Matrix: (Units=GPa)
#
#
# Indices 1 2 3 4 5 6 
#
# 1 16.4084 20.1529 16.7569 0.0000 2.0334 0.0000
# 2 20.1529 286.1083 36.4893 0.0000 -2.3205 0.0000
# 3 16.7569 36.4893 86.8189 0.0000 2.7954 0.0000
# 4 0.0000 0.0000 0.0000 49.8930 0.0000 29.1348
# 5 2.0334 -2.3205 2.7954 0.0000 39.7363 0.0000
# 6 0.0000 0.0000 0.0000 29.1348 0.0000 46.9852
#
#
#
# Elastic Compliance Matrix: (Units=1/GPa)
#
#
# Indices 1 2 3 4 5 6 
#
# 1 0.080195 -0.003926 -0.013720 0.000000 -0.003368 0.000000
# 2 -0.003926 0.003890 -0.000893 0.000000 0.000491 0.000000
# 3 -0.013720 -0.000893 0.014554 0.000000 -0.000374 0.000000
# 4 0.000000 0.000000 0.000000 0.031420 0.000000 -0.019483
# 5 -0.003368 0.000491 -0.000374 0.000000 0.025393 0.000000
# 6 0.000000 0.000000 0.000000 -0.019483 0.000000 0.033364
#
#
# Mechanical properties :
#
#
# Convention : Reuss Voigt Hill
#
# Bulk Modulus (GPa) = 16.24414 59.57041 37.90728
# Shear Modulus (GPa) = 20.29105 48.38534 34.33820
#
# Velocity S-wave (km/s) = 2.87097 4.43337 3.73479
# Velocity P-wave (km/s) = 4.19387 7.09962 5.83066
#
# Compressibility (1/GPa) = 0.06156066
#
# Stress axis : x y z
#
# Youngs Moduli (GPa) = 12.46955 257.09706 68.71179
#
# Poissons Ratio (x) = 1.00945 0.94271
# Poissons Ratio (y) = 0.04896 0.06134
# Poissons Ratio (z) = 0.17108 0.22952
#
# Static dielectric constant tensor:
#      x y z
#    x 2.007490 0.000000 -0.048290 
#    y 0.000000 2.005820 0.000000 
#    z -0.048290 0.000000 1.979030 
# 
# From -- ./inp_files/47163.got.cif
#   From: 2010.05.17/outbox.cif.g08.bks.cpg/sg11_24_cif.got.tgz:47163.got - 2010.06.03 12:22:45.
