data_PCOD9157986
_publ_section_title
;
Structure prediction by ZEFSAII (Michael W. Deem and Ramdas Pophale) SiO2 
 PCOD9157986
Probable space group: P 21/M
;
_chemical_formula_sum "Si O2"
_cell_formula_units_Z 32
_cell_length_a 17.668299
_cell_length_b 7.372157
_cell_length_c 24.460583
_cell_angle_alpha 90.000000
_cell_angle_beta 26.675571
_cell_angle_gamma 90.000000
_cell_volume 1430.350722
_symmetry_space_group_name_H-M "P 21/M"
_symmetry_group_IT_number 11
_symmetry_cell_setting 'monoclinic'
loop_
_space_group_symop_operation_xyz
x,y,z
-x,1/2+y,-z
-x,-y,-z
x,1/2-y,z
loop_
_atom_site_type_symbol
_atom_site_label
_atom_site_fract_x
_atom_site_fract_y
_atom_site_fract_z
Si Si1 0.408616 0.027863 0.925640
Si Si2 0.238835 0.527319 0.539137
Si Si3 0.391718 0.471618 0.696159
Si Si4 0.299504 0.035696 0.876144
Si Si5 0.854372 0.458179 0.518319
Si Si6 0.939341 0.533428 0.152650
Si Si7 0.062992 0.042956 0.192827
Si Si8 0.218650 0.969787 0.312599
O O1 0.401699 0.250000 0.929262
O O2 0.379415 0.967240 0.881475
O O3 0.594170 0.976140 0.825659
O O4 0.249671 0.963618 0.063819
O O5 0.234065 0.750000 0.542609
O O6 0.421946 0.475067 0.443362
O O7 0.223602 0.465389 0.486262
O O8 0.077533 0.461817 0.676962
O O9 0.385838 0.250000 0.700508
O O10 0.364306 0.533950 0.776418
O O11 0.235659 0.531558 0.759894
O O12 0.334635 0.250000 0.853244
O O13 0.098726 0.009102 0.011192
O O14 0.796403 0.250000 0.558160
O O15 0.807966 0.535203 0.607507
O O16 0.057326 0.464048 0.383399
O O17 0.931439 0.750000 0.163916
O O18 0.983656 0.455697 0.183283
O O19 0.088440 0.250000 0.194919
O O20 0.209434 0.750000 0.318191
#
# Coordination Sequence:
#
# PCOD9157986 Si02
#       8
#     4   4   4   4   4   4   4   4
#     4   8  14  26  46  68  86 114 155 187 214 260
#     4   9  17  31  50  69  90 120 160 198 226 260
#     4   9  17  28  46  71  94 119 153 193 234 275
#     4   9  16  29  49  70  93 121 155 190 225 273
#     4   9  17  29  47  70  92 115 146 186 228 269
#     4  10  19  30  45  68  97 123 150 190 238 278
#     4   9  18  33  51  67  87 121 163 198 224 262
#     4   9  16  28  47  69  94 119 143 178 228 280
#
# _framework density 22.372136999999999
#
# number of rings (size 3 to 8) (size 9 to 14) (size 15 to 20)
#    0.000    3.000    0.000    2.250    0.000    3.500 
#    0.000    4.375    0.000    6.750    0.000    0.000 
#    0.000    0.000    0.000    0.000    0.000    0.000 
#
# Total GULP energy -178598.050954 kJ/mol
# GULP energy per Si atom -5581.189092 kJ/mol
# Density = 2.232122 g / cm^3
# Si number density = 22.372137 Si / 1000 Ang^3
#
#
#
# Elastic Constant Matrix: (Units=GPa)
#
#
# Indices 1 2 3 4 5 6 
#
# 1 31.1052 -11.2598 26.1658 0.0000 -22.7694 0.0000
# 2 -11.2598 76.1680 -9.8249 0.0000 6.7793 0.0000
# 3 26.1658 -9.8249 90.5280 0.0000 -27.4983 0.0000
# 4 0.0000 0.0000 0.0000 8.1238 0.0000 -9.7527
# 5 -22.7694 6.7793 -27.4983 0.0000 31.3082 0.0000
# 6 0.0000 0.0000 0.0000 -9.7527 0.0000 -6.7775
#
#
#
# Elastic Compliance Matrix: (Units=1/GPa)
#
#
# Indices 1 2 3 4 5 6 
#
# 1 0.074106 0.005940 -0.006539 0.000000 0.046865 0.000000
# 2 0.005940 0.013904 0.000259 0.000000 0.001537 0.000000
# 3 -0.006539 0.000259 0.015688 0.000000 0.008968 0.000000
# 4 0.000000 0.000000 0.000000 0.045131 0.000000 -0.064942
# 5 0.046865 0.001537 0.008968 0.000000 0.073568 0.000000
# 6 0.000000 0.000000 0.000000 -0.064942 0.000000 -0.054096
#
#
# Mechanical properties :
#
#
# Convention : Reuss Voigt Hill
#
# Bulk Modulus (GPa) = 9.70705 23.10704 16.40705
# Shear Modulus (GPa) = 24.59186 19.37891 21.98538
#
# Velocity S-wave (km/s) = 3.31904 2.94633 3.13823
# Velocity P-wave (km/s) = 4.36307 4.68246 4.52558
#
# Compressibility (1/GPa) = 0.10301786
#
# Stress axis : x y z
#
# Youngs Moduli (GPa) = 13.49426 71.92382 63.74154
#
# Poissons Ratio (x) = -0.42724 0.41680
# Poissons Ratio (y) = -0.08016 -0.01650
# Poissons Ratio (z) = 0.08824 -0.01862
#
# Static dielectric constant tensor:
#      x y z
#    x 1.780200 0.000000 -0.009920 
#    y 0.000000 1.855260 0.000000 
#    z -0.009920 0.000000 1.830880 
# 
# From -- ./inp_files/43828.got.cif
#   From: 2010.05.17/outbox.cif.g08.bks.cpg/sg11_22_cif.got.tgz:43828.got - 2010.06.03 12:22:45.
