data_PCOD9157324
_publ_section_title
;
Structure prediction by ZEFSAII (Michael W. Deem and Ramdas Pophale) SiO2 
 PCOD9157324
Probable space group: P 21/M
;
_chemical_formula_sum "Si O2"
_cell_formula_units_Z 32
_cell_length_a 28.434148
_cell_length_b 12.004801
_cell_length_c 9.204054
_cell_angle_alpha 90.000000
_cell_angle_beta 30.461914
_cell_angle_gamma 90.000000
_cell_volume 1592.768843
_symmetry_space_group_name_H-M "P 21/M"
_symmetry_group_IT_number 11
_symmetry_cell_setting 'monoclinic'
loop_
_space_group_symop_operation_xyz
x,y,z
-x,1/2+y,-z
-x,-y,-z
x,1/2-y,z
loop_
_atom_site_type_symbol
_atom_site_label
_atom_site_fract_x
_atom_site_fract_y
_atom_site_fract_z
Si Si1 0.796266 0.622936 0.403802
Si Si2 0.623140 0.913866 0.676641
Si Si3 0.500622 0.123735 0.718628
Si Si4 0.954537 0.882819 0.788052
Si Si5 0.729288 0.618682 0.892829
Si Si6 0.143220 0.503361 0.214667
Si Si7 0.685674 0.373756 0.384087
Si Si8 0.543442 0.877405 0.567155
O O1 0.820078 0.750000 0.376875
O O2 0.722147 0.627099 0.470291
O O3 0.746367 0.578398 0.681752
O O4 0.890016 0.570436 0.090779
O O5 0.591971 0.880512 0.598100
O O6 0.638849 0.046247 0.626774
O O7 0.549592 0.877178 0.991252
O O8 0.476287 0.250000 0.723183
O O9 0.611410 0.126660 0.449980
O O10 0.485113 0.993641 0.709430
O O11 0.955520 0.750000 0.792852
O O12 0.904339 0.920022 0.773131
O O13 0.058619 0.927807 0.508052
O O14 0.748864 0.750000 0.848097
O O15 0.798355 0.557268 0.817251
O O16 0.625169 0.608786 0.231060
O O17 0.217447 0.577511 0.928713
O O18 0.696552 0.250000 0.410639
O O19 0.503497 0.750000 0.659943
#
# Coordination Sequence:
#
# PCOD9157324 Si02
#       8
#     4   4   4   4   4   4   4   4
#     4  10  20  35  53  78 112 145 181 228 273 320
#     4  11  19  33  55  80 106 148 183 229 273 328
#     4  10  20  32  52  85 115 143 184 232 285 335
#     4  10  21  35  56  84 107 136 180 226 275 330
#     4  10  20  34  55  80 109 145 185 225 272 327
#     4  11  19  35  58  81 106 142 178 224 276 329
#     4  10  19  32  53  81 111 141 178 228 280 325
#     4  10  18  32  55  81 107 143 191 234 276 327
#
# _framework density 20.090800000000002
#
# number of rings (size 3 to 8) (size 9 to 14) (size 15 to 20)
#    0.000    1.750    3.750    3.375    0.000    4.000 
#    0.000    0.625    0.000    2.250    0.000    0.000 
#    0.000    0.000    0.000    0.000    0.000    0.000 
#
# Total GULP energy -178265.157509 kJ/mol
# GULP energy per Si atom -5570.786172 kJ/mol
# Density = 2.004507 g / cm^3
# Si number density = 20.090800 Si / 1000 Ang^3
#
#
#
# Elastic Constant Matrix: (Units=GPa)
#
#
# Indices 1 2 3 4 5 6 
#
# 1 52.8239 34.5050 19.2003 0.0000 8.3451 0.0000
# 2 34.5050 149.6186 40.2068 0.0000 4.3864 0.0000
# 3 19.2003 40.2068 103.4246 0.0000 -0.1682 0.0000
# 4 0.0000 0.0000 0.0000 68.0178 0.0000 -42.8095
# 5 8.3451 4.3864 -0.1682 0.0000 28.6476 0.0000
# 6 0.0000 0.0000 0.0000 -42.8095 0.0000 57.8143
#
#
#
# Elastic Compliance Matrix: (Units=1/GPa)
#
#
# Indices 1 2 3 4 5 6 
#
# 1 0.023901 -0.004615 -0.002653 0.000000 -0.006271 0.000000
# 2 -0.004615 0.008393 -0.002406 0.000000 0.000045 0.000000
# 3 -0.002653 -0.002406 0.011099 0.000000 0.001206 0.000000
# 4 0.000000 0.000000 0.000000 0.027534 0.000000 0.020388
# 5 -0.006271 0.000045 0.001206 0.000000 0.036734 0.000000
# 6 0.000000 0.000000 0.000000 0.020388 0.000000 0.032393
#
#
# Mechanical properties :
#
#
# Convention : Reuss Voigt Hill
#
# Bulk Modulus (GPa) = 41.59043 54.85460 48.22251
# Shear Modulus (GPa) = 29.86557 45.02626 37.44592
#
# Velocity S-wave (km/s) = 3.85974 4.73920 4.32190
# Velocity P-wave (km/s) = 6.37257 7.57029 6.99710
#
# Compressibility (1/GPa) = 0.02404399
#
# Stress axis : x y z
#
# Youngs Moduli (GPa) = 41.84007 119.14318 90.10028
#
# Poissons Ratio (x) = 0.54986 0.23904
# Poissons Ratio (y) = 0.19310 0.21679
# Poissons Ratio (z) = 0.11100 0.28667
#
# Static dielectric constant tensor:
#      x y z
#    x 1.720930 0.000000 0.011140 
#    y 0.000000 1.765470 0.000000 
#    z 0.011140 0.000000 1.739750 
# 
# From -- ./inp_files/21550.got.cif
#   From: 2010.05.17/outbox.cif.g08.bks.cpg/sg11_11_cif.got.tgz:21550.got - 2010.06.03 12:22:45.
