data_PCOD9157635
_publ_section_title
;
Structure prediction by ZEFSAII (Michael W. Deem and Ramdas Pophale) SiO2 
 PCOD9157635
Probable space group: P 21/M
;
_chemical_formula_sum "Si O2"
_cell_formula_units_Z 32
_cell_length_a 9.240314
_cell_length_b 19.094176
_cell_length_c 13.391822
_cell_angle_alpha 90.000000
_cell_angle_beta 135.098575
_cell_angle_gamma 90.000000
_cell_volume 1667.876343
_symmetry_space_group_name_H-M "P 21/M"
_symmetry_group_IT_number 11
_symmetry_cell_setting 'monoclinic'
loop_
_space_group_symop_operation_xyz
x,y,z
-x,1/2+y,-z
-x,-y,-z
x,1/2-y,z
loop_
_atom_site_type_symbol
_atom_site_label
_atom_site_fract_x
_atom_site_fract_y
_atom_site_fract_z
Si Si1 0.948016 0.575921 0.235838
Si Si2 0.731234 0.173221 0.713570
Si Si3 0.422886 0.172738 0.378875
Si Si4 0.905865 0.922255 0.445442
Si Si5 0.446160 0.044874 0.071632
Si Si6 0.281745 0.474592 0.346350
Si Si7 0.555617 0.437803 0.749581
Si Si8 0.304335 0.834604 0.689440
O O1 0.870857 0.591008 0.309694
O O2 0.102881 0.633413 0.271192
O O3 0.085146 0.505005 0.306372
O O4 0.775464 0.572449 0.067666
O O5 0.805088 0.250000 0.771651
O O6 0.543454 0.174572 0.542976
O O7 0.662468 0.136176 0.782013
O O8 0.332916 0.250000 0.317825
O O9 0.275088 0.107095 0.320273
O O10 0.577250 0.158416 0.360484
O O11 0.685523 0.924799 0.392189
O O12 0.074232 0.865861 0.564404
O O13 0.000000 0.000000 0.500000
O O14 0.582178 0.110668 0.178727
O O15 0.446309 0.984023 0.153492
O O16 0.500000 0.000000 0.000000
O O17 0.500000 0.500000 0.500000
O O18 0.305449 0.514596 0.254284
O O19 0.306397 0.750000 0.714141
#
# Coordination Sequence:
#
# PCOD9157635 Si02
#       8
#     4   4   4   4   4   4   4   4
#     4  11  23  36  66  88 124 171 211 256 315 389
#     4  10  22  39  60  93 127 160 209 266 320 383
#     4  10  18  34  60  88 123 153 194 265 328 371
#     4  12  20  37  65  96 120 164 215 265 320 383
#     4  12  24  43  61  93 131 175 218 261 317 384
#     4  11  18  35  60  94 118 154 211 269 316 367
#     4  11  22  36  64  88 127 163 208 264 318 378
#     4  11  23  40  65  96 127 161 215 274 322 380
#
# _framework density 19.186074999999999
#
# number of rings (size 3 to 8) (size 9 to 14) (size 15 to 20)
#    0.000    1.000    7.500    0.750    0.000    3.000 
#    0.000    0.625    0.000    0.000    0.000    0.000 
#    0.000    0.000    0.000    0.000    0.000    0.000 
#
# Total GULP energy -178154.545789 kJ/mol
# GULP energy per Si atom -5567.329556 kJ/mol
# Density = 1.914241 g / cm^3
# Si number density = 19.186075 Si / 1000 Ang^3
#
#
#
# Elastic Constant Matrix: (Units=GPa)
#
#
# Indices 1 2 3 4 5 6 
#
# 1 41.0690 24.3271 3.5388 0.0000 -5.3533 0.0000
# 2 24.3271 141.0123 20.8693 0.0000 -3.7289 0.0000
# 3 3.5388 20.8693 70.5107 0.0000 -5.7422 0.0000
# 4 0.0000 0.0000 0.0000 18.5073 0.0000 -0.8251
# 5 -5.3533 -3.7289 -5.7422 0.0000 20.3713 0.0000
# 6 0.0000 0.0000 0.0000 -0.8251 0.0000 16.1476
#
#
#
# Elastic Compliance Matrix: (Units=1/GPa)
#
#
# Indices 1 2 3 4 5 6 
#
# 1 0.027969 -0.004729 0.000536 0.000000 0.006635 0.000000
# 2 -0.004729 0.008227 -0.002227 0.000000 -0.000365 0.000000
# 3 0.000536 -0.002227 0.015140 0.000000 0.004001 0.000000
# 4 0.000000 0.000000 0.000000 0.054156 0.000000 0.002767
# 5 0.006635 -0.000365 0.004001 0.000000 0.051894 0.000000
# 6 0.000000 0.000000 0.000000 0.002767 0.000000 0.062070
#
#
# Mechanical properties :
#
#
# Convention : Reuss Voigt Hill
#
# Bulk Modulus (GPa) = 25.97626 38.89583 32.43605
# Shear Modulus (GPa) = 20.39741 24.59570 22.49656
#
# Velocity S-wave (km/s) = 3.26411 3.58433 3.42796
# Velocity P-wave (km/s) = 5.27015 6.11938 5.71057
#
# Compressibility (1/GPa) = 0.03849669
#
# Stress axis : x y z
#
# Youngs Moduli (GPa) = 35.75361 121.54442 66.04835
#
# Poissons Ratio (x) = 0.57479 -0.03543
# Poissons Ratio (y) = 0.16908 0.14712
# Poissons Ratio (z) = -0.01918 0.27074
#
# Static dielectric constant tensor:
#      x y z
#    x 1.962670 0.000000 -0.612050 
#    y 0.000000 1.818330 0.000000 
#    z -0.612050 0.000000 2.300210 
# 
# From -- ./inp_files/48280.got.cif
#   From: 2010.05.17/outbox.cif.g08.bks.cpg/sg11_25_cif.got.tgz:48280.got - 2010.06.03 12:22:45.
