data_PCOD9157556
_publ_section_title
;
Structure prediction by ZEFSAII (Michael W. Deem and Ramdas Pophale) SiO2 
 PCOD9157556
Probable space group: P 21/M
;
_chemical_formula_sum "Si O2"
_cell_formula_units_Z 28
_cell_length_a 8.057579
_cell_length_b 18.799227
_cell_length_c 7.799265
_cell_angle_alpha 90.000000
_cell_angle_beta 107.380773
_cell_angle_gamma 90.000000
_cell_volume 1127.461323
_symmetry_space_group_name_H-M "P 21/M"
_symmetry_group_IT_number 11
_symmetry_cell_setting 'monoclinic'
loop_
_space_group_symop_operation_xyz
x,y,z
-x,1/2+y,-z
-x,-y,-z
x,1/2-y,z
loop_
_atom_site_type_symbol
_atom_site_label
_atom_site_fract_x
_atom_site_fract_y
_atom_site_fract_z
Si Si1 0.815673 0.165098 0.934588
Si Si2 0.901854 0.989583 0.696283
Si Si3 0.540583 0.164366 0.555446
Si Si4 0.623073 0.330411 0.216913
Si Si5 0.163607 0.427502 0.996663
Si Si6 0.949696 0.378967 0.498582
Si Si7 0.287545 0.332489 0.773421
O O1 0.847846 0.250000 0.965088
O O2 0.718156 0.155162 0.721737
O O3 0.995556 0.121310 0.995501
O O4 0.682401 0.142673 0.046381
O O5 0.084902 0.018471 0.831570
O O6 0.854482 0.051976 0.551834
O O7 0.933313 0.917063 0.608423
O O8 0.784783 0.974173 0.824580
O O9 0.519462 0.250000 0.533619
O O10 0.524476 0.137080 0.354464
O O11 0.396268 0.139019 0.646288
O O12 0.558341 0.250000 0.172180
O O13 0.813302 0.328549 0.367998
O O14 0.306160 0.377700 0.953003
O O15 0.083633 0.340286 0.664871
O O16 0.329106 0.250000 0.807981
#
# Coordination Sequence:
#
# PCOD9157556 Si02
#       7
#     4   4   4   4   4   4   4
#     4  10  19  33  56  82 104 135 179 223 266 314
#     4   9  19  31  53  79 100 140 171 223 266 303
#     4   9  19  35  51  75 113 145 169 207 266 329
#     4  10  19  33  56  82 104 135 179 223 266 314
#     4  10  18  34  55  78 105 132 181 222 259 311
#     4  10  18  34  55  78 105 132 181 222 259 311
#     4  10  20  34  54  80 111 141 165 210 278 324
#
# _framework density 24.834555999999999
#
# number of rings (size 3 to 8) (size 9 to 14) (size 15 to 20)
#    0.000    2.286    1.429    2.571    0.000    1.143 
#    2.571    0.000    0.000   27.429    0.000    0.000 
#    0.000    0.000    0.000    0.000    0.000    0.000 
#
# Total GULP energy -156218.119891 kJ/mol
# GULP energy per Si atom -5579.218568 kJ/mol
# Density = 2.477803 g / cm^3
# Si number density = 24.834556 Si / 1000 Ang^3
#
#
#
# Elastic Constant Matrix: (Units=GPa)
#
#
# Indices 1 2 3 4 5 6 
#
# 1 71.8224 10.6753 7.8408 0.0000 -20.2286 0.0000
# 2 10.6753 47.2125 18.5644 0.0000 -3.4857 0.0000
# 3 7.8408 18.5644 146.3665 0.0000 -31.3013 0.0000
# 4 0.0000 0.0000 0.0000 36.6204 0.0000 -12.4437
# 5 -20.2286 -3.4857 -31.3013 0.0000 43.2708 0.0000
# 6 0.0000 0.0000 0.0000 -12.4437 0.0000 18.7101
#
#
#
# Elastic Compliance Matrix: (Units=1/GPa)
#
#
# Indices 1 2 3 4 5 6 
#
# 1 0.016724 -0.003701 0.001398 0.000000 0.008531 0.000000
# 2 -0.003701 0.023115 -0.003200 0.000000 -0.002183 0.000000
# 3 0.001398 -0.003200 0.008574 0.000000 0.006598 0.000000
# 4 0.000000 0.000000 0.000000 0.035280 0.000000 0.023464
# 5 0.008531 -0.002183 0.006598 0.000000 0.031696 0.000000
# 6 0.000000 0.000000 0.000000 0.023464 0.000000 0.069053
#
#
# Mechanical properties :
#
#
# Convention : Reuss Voigt Hill
#
# Bulk Modulus (GPa) = 26.73410 37.72917 32.23163
# Shear Modulus (GPa) = 24.04802 34.94164 29.49483
#
# Velocity S-wave (km/s) = 3.11517 3.75504 3.44997
# Velocity P-wave (km/s) = 4.87107 5.83315 5.37368
#
# Compressibility (1/GPa) = 0.03740542
#
# Stress axis : x y z
#
# Youngs Moduli (GPa) = 59.79592 43.26201 116.62801
#
# Poissons Ratio (x) = 0.16012 -0.16305
# Poissons Ratio (y) = 0.22132 0.37326
# Poissons Ratio (z) = -0.08360 0.13846
#
# Static dielectric constant tensor:
#      x y z
#    x 2.088650 0.000000 -0.061250 
#    y 0.000000 1.926750 0.000000 
#    z -0.061250 0.000000 2.031230 
# 
# From -- ./inp_files/14035.got.cif
#   From: 2010.05.17/outbox.cif.g08.bks.cpg/sg11_8_cif.got.tgz:14035.got - 2010.06.03 12:22:45.
