data_PCOD9157067
_publ_section_title
;
Structure prediction by ZEFSAII (Michael W. Deem and Ramdas Pophale) SiO2 
 PCOD9157067
Probable space group: P 21/M
;
_chemical_formula_sum "Si O2"
_cell_formula_units_Z 24
_cell_length_a 18.836860
_cell_length_b 8.541759
_cell_length_c 24.948232
_cell_angle_alpha 90.000000
_cell_angle_beta 160.914350
_cell_angle_gamma 90.000000
_cell_volume 1312.557719
_symmetry_space_group_name_H-M "P 21/M"
_symmetry_group_IT_number 11
_symmetry_cell_setting 'monoclinic'
loop_
_space_group_symop_operation_xyz
x,y,z
-x,1/2+y,-z
-x,-y,-z
x,1/2-y,z
loop_
_atom_site_type_symbol
_atom_site_label
_atom_site_fract_x
_atom_site_fract_y
_atom_site_fract_z
Si Si1 0.928176 0.563660 0.172476
Si Si2 0.240304 0.561820 0.661309
Si Si3 0.072392 0.436704 0.994212
Si Si4 0.597595 0.063547 0.847156
Si Si5 0.566167 0.938299 0.989653
Si Si6 0.258019 0.064265 0.331175
O O1 0.963349 0.750000 0.198925
O O2 0.144940 0.480322 0.307004
O O3 0.751423 0.523816 0.000250
O O4 0.804347 0.511837 0.138085
O O5 0.242068 0.750000 0.658429
O O6 0.357075 0.489743 0.692183
O O7 0.389200 0.514563 0.818593
O O8 0.000000 0.500000 0.500000
O O9 0.090672 0.250000 0.007853
O O10 0.890503 0.487745 0.821102
O O11 0.299829 0.510292 0.135911
O O12 0.000000 0.500000 0.000000
O O13 0.619932 0.250000 0.868845
O O14 0.568357 0.750000 0.992254
O O15 0.500000 0.000000 0.000000
O O16 0.253950 0.250000 0.321474
O O17 0.500000 0.000000 0.500000
#
# Coordination Sequence:
#
# PCOD9157067 Si02
#       6
#     4   4   4   4   4   4
#     4   9  17  32  51  74 102 135 173 214 254 305
#     4  10  20  35  53  77 104 135 173 216 260 308
#     4  11  21  36  56  80 108 139 174 217 262 312
#     4  10  18  31  52  77 102 136 175 211 254 311
#     4   9  19  33  52  76 104 133 168 209 253 302
#     4  11  21  35  55  80 106 138 176 217 262 312
#
# _framework density 18.284908999999999
#
# number of rings (size 3 to 8) (size 9 to 14) (size 15 to 20)
#    0.000    2.000    0.000    8.500    0.000    4.000 
#    0.000    1.667    0.000    4.000    0.000    0.000 
#    0.000    0.000    0.000    0.000    0.000    0.000 
#
# Total GULP energy -133869.625211 kJ/mol
# GULP energy per Si atom -5577.901050 kJ/mol
# Density = 1.824329 g / cm^3
# Si number density = 18.284909 Si / 1000 Ang^3
#
#
#
# Elastic Constant Matrix: (Units=GPa)
#
#
# Indices 1 2 3 4 5 6 
#
# 1 134.7895 21.2456 52.0832 0.0000 41.9904 0.0000
# 2 21.2456 63.8088 23.9192 0.0000 7.7582 0.0000
# 3 52.0832 23.9192 105.1946 0.0000 42.8441 0.0000
# 4 0.0000 0.0000 0.0000 29.3372 0.0000 7.2993
# 5 41.9904 7.7582 42.8441 0.0000 34.1581 0.0000
# 6 0.0000 0.0000 0.0000 7.2993 0.0000 32.9890
#
#
#
# Elastic Compliance Matrix: (Units=1/GPa)
#
#
# Indices 1 2 3 4 5 6 
#
# 1 0.012385 -0.002529 0.000838 0.000000 -0.015702 0.000000
# 2 -0.002529 0.017718 -0.004914 0.000000 0.005248 0.000000
# 3 0.000838 -0.004914 0.020799 0.000000 -0.026001 0.000000
# 4 0.000000 0.000000 0.000000 0.036072 0.000000 -0.007982
# 5 -0.015702 0.005248 -0.026001 0.000000 0.079999 0.000000
# 6 0.000000 0.000000 0.000000 -0.007982 0.000000 0.032079
#
#
# Mechanical properties :
#
#
# Convention : Reuss Voigt Hill
#
# Bulk Modulus (GPa) = 26.53087 55.36543 40.94815
# Shear Modulus (GPa) = 22.23940 33.06651 27.65296
#
# Velocity S-wave (km/s) = 3.49129 4.25715 3.89310
# Velocity P-wave (km/s) = 5.54918 7.38305 6.53080
#
# Compressibility (1/GPa) = 0.03769195
#
# Stress axis : x y z
#
# Youngs Moduli (GPa) = 80.74080 56.44046 48.08005
#
# Poissons Ratio (x) = 0.14273 -0.04029
# Poissons Ratio (y) = 0.20418 0.23627
# Poissons Ratio (z) = -0.06766 0.27736
#
# Static dielectric constant tensor:
#      x y z
#    x 1.662330 0.000000 0.032950 
#    y 0.000000 1.606820 0.000000 
#    z 0.032950 0.000000 1.637990 
# 
# From -- ./inp_files/71853.got.cif
#   From: 2010.05.17/outbox.cif.g08.bks.cpg/sg11_36_cif.got.tgz:71853.got - 2010.06.03 12:22:45.
