data_PCOD9157846
_publ_section_title
;
Structure prediction by ZEFSAII (Michael W. Deem and Ramdas Pophale) SiO2 
 PCOD9157846
Probable space group: P 21/M
;
_chemical_formula_sum "Si O2"
_cell_formula_units_Z 32
_cell_length_a 24.587479
_cell_length_b 8.629467
_cell_length_c 16.947745
_cell_angle_alpha 90.000000
_cell_angle_beta 28.528311
_cell_angle_gamma 90.000000
_cell_volume 1717.385518
_symmetry_space_group_name_H-M "P 21/M"
_symmetry_group_IT_number 11
_symmetry_cell_setting 'monoclinic'
loop_
_space_group_symop_operation_xyz
x,y,z
-x,1/2+y,-z
-x,-y,-z
x,1/2-y,z
loop_
_atom_site_type_symbol
_atom_site_label
_atom_site_fract_x
_atom_site_fract_y
_atom_site_fract_z
Si Si1 0.880260 0.936784 0.922740
Si Si2 0.772131 0.934570 0.477984
Si Si3 0.462609 0.574926 0.276394
Si Si4 0.993255 0.565033 0.096176
Si Si5 0.100183 0.937082 0.539915
Si Si6 0.193855 0.931130 0.263096
Si Si7 0.586071 0.925587 0.950921
Si Si8 0.300039 0.437217 0.970195
O O1 0.882460 0.750000 0.925665
O O2 0.764537 0.984096 0.026834
O O3 0.984043 0.983443 0.732084
O O4 0.906476 0.006622 0.974361
O O5 0.774669 0.750000 0.482617
O O6 0.876386 0.985339 0.288699
O O7 0.654078 0.984861 0.588690
O O8 0.799342 0.004513 0.529895
O O9 0.436921 0.750000 0.337318
O O10 0.519176 0.586594 0.118176
O O11 0.569392 0.505870 0.189310
O O12 0.994204 0.750000 0.092292
O O13 0.000000 0.500000 0.000000
O O14 0.105952 0.750000 0.530447
O O15 0.103960 0.990335 0.443549
O O16 0.174906 0.750000 0.271931
O O17 0.309305 0.961030 0.165853
O O18 0.222206 0.013535 0.144394
O O19 0.622881 0.750000 0.881860
O O20 0.500000 0.000000 0.000000
O O21 0.306160 0.250000 0.965749
#
# Coordination Sequence:
#
# PCOD9157846 Si02
#       8
#     4   4   4   4   4   4   4   4
#     4   9  18  35  56  75 100 134 167 203 250 300
#     4  10  20  32  50  77 103 127 161 205 249 294
#     4   9  18  31  46  66  95 131 168 204 244 293
#     4  10  21  37  58  85 109 127 153 192 242 299
#     4   9  18  31  47  69  98 133 171 211 258 304
#     4  10  19  29  42  64  95 132 175 217 252 290
#     4  10  19  29  41  60  88 125 170 216 259 299
#     4   9  19  34  50  70  98 136 178 212 247 292
#
# _framework density 18.632973
#
# number of rings (size 3 to 8) (size 9 to 14) (size 15 to 20)
#    0.000    2.500    0.000    3.000    0.000    9.000 
#    0.000    0.000    0.000    0.750    0.000    0.000 
#    0.000    0.000    0.000    0.000    0.000    0.000 
#
# Total GULP energy -178349.426436 kJ/mol
# GULP energy per Si atom -5573.419576 kJ/mol
# Density = 1.859056 g / cm^3
# Si number density = 18.632973 Si / 1000 Ang^3
#
#
#
# Elastic Constant Matrix: (Units=GPa)
#
#
# Indices 1 2 3 4 5 6 
#
# 1 130.3000 13.6560 34.9660 0.0000 -13.4279 0.0000
# 2 13.6560 15.7021 7.2588 0.0000 -0.8645 0.0000
# 3 34.9660 7.2588 36.2537 0.0000 -4.8824 0.0000
# 4 0.0000 0.0000 0.0000 21.0020 0.0000 1.8641
# 5 -13.4279 -0.8645 -4.8824 0.0000 27.9246 0.0000
# 6 0.0000 0.0000 0.0000 1.8641 0.0000 21.1124
#
#
#
# Elastic Compliance Matrix: (Units=1/GPa)
#
#
# Indices 1 2 3 4 5 6 
#
# 1 0.011032 -0.005181 -0.009125 0.000000 0.003549 0.000000
# 2 -0.005181 0.072617 -0.009807 0.000000 -0.001958 0.000000
# 3 -0.009125 -0.009807 0.038625 0.000000 0.002062 0.000000
# 4 0.000000 0.000000 0.000000 0.047991 0.000000 -0.004237
# 5 0.003549 -0.001958 0.002062 0.000000 0.037817 0.000000
# 6 0.000000 0.000000 0.000000 -0.004237 0.000000 0.047740
#
#
# Mechanical properties :
#
#
# Convention : Reuss Voigt Hill
#
# Bulk Modulus (GPa) = 13.50441 32.66863 23.08652
# Shear Modulus (GPa) = 15.21007 22.43277 18.82142
#
# Velocity S-wave (km/s) = 2.86019 3.47353 3.18168
# Velocity P-wave (km/s) = 4.26274 5.80155 5.09062
#
# Compressibility (1/GPa) = 0.07404991
#
# Stress axis : x y z
#
# Youngs Moduli (GPa) = 90.64569 13.77090 25.88976
#
# Poissons Ratio (x) = 0.07134 0.23624
# Poissons Ratio (y) = 0.46961 0.25389
# Poissons Ratio (z) = 0.82713 0.13504
#
# Static dielectric constant tensor:
#      x y z
#    x 1.696640 0.000000 -0.041520 
#    y 0.000000 1.641900 0.000000 
#    z -0.041520 0.000000 1.687550 
# 
# From -- ./inp_files/61770.got.cif
#   From: 2010.05.17/outbox.cif.g08.bks.cpg/sg11_31_cif.got.tgz:61770.got - 2010.06.03 12:22:45.
