data_PCOD9157225
_publ_section_title
;
Structure prediction by ZEFSAII (Michael W. Deem and Ramdas Pophale) SiO2 
 PCOD9157225
Probable space group: P 21/M
;
_chemical_formula_sum "Si O2"
_cell_formula_units_Z 30
_cell_length_a 13.154900
_cell_length_b 26.060804
_cell_length_c 7.388321
_cell_angle_alpha 90.000000
_cell_angle_beta 151.675720
_cell_angle_gamma 90.000000
_cell_volume 1201.771487
_symmetry_space_group_name_H-M "P 21/M"
_symmetry_group_IT_number 11
_symmetry_cell_setting 'monoclinic'
loop_
_space_group_symop_operation_xyz
x,y,z
-x,1/2+y,-z
-x,-y,-z
x,1/2-y,z
loop_
_atom_site_type_symbol
_atom_site_label
_atom_site_fract_x
_atom_site_fract_y
_atom_site_fract_z
Si Si1 0.562050 0.117194 0.794794
Si Si2 0.118635 0.578913 0.141247
Si Si3 0.267170 0.514167 0.057908
Si Si4 0.847093 0.804737 0.240687
Si Si5 0.226672 0.336693 0.476342
Si Si6 0.359576 0.670863 0.419661
Si Si7 0.011256 0.750000 0.033278
Si Si8 0.120435 0.411059 0.879899
O O1 0.696636 0.064555 0.008788
O O2 0.467654 0.143115 0.826656
O O3 0.678963 0.159546 0.853542
O O4 0.340827 0.102030 0.338007
O O5 0.927846 0.614481 0.765686
O O6 0.053994 0.572363 0.245921
O O7 0.143036 0.531983 0.044426
O O8 0.332004 0.613558 0.457741
O O9 0.500000 0.500000 0.500000
O O10 0.170471 0.460690 0.834526
O O11 0.944338 0.750000 0.329323
O O12 0.595290 0.807235 0.801512
O O13 0.940468 0.857790 0.310743
O O14 0.834326 0.806421 0.438181
O O15 0.168913 0.296247 0.228703
O O16 0.190347 0.705795 0.257208
#
# Coordination Sequence:
#
# PCOD9157225 Si02
#       8
#     4   4   4   4   4   4   2   4
#     4   8  17  33  54  81 107 144 185 226 275 338
#     4   9  18  35  57  86 111 140 187 235 274 337
#     4   9  16  32  61  87 111 140 185 236 280 329
#     4  11  21  38  54  79 116 154 184 230 280 328
#     4  10  20  35  55  79 114 147 188 224 280 329
#     4   9  18  34  55  77 107 139 187 233 275 324
#     4  10  18  32  52  76 102 146 182 230 268 320
#     4   9  18  33  57  85 109 146 184 228 279 329
#
# _framework density 24.963149000000001
#
# number of rings (size 3 to 8) (size 9 to 14) (size 15 to 20)
#    0.000    2.667    1.333    1.200    0.000    0.533 
#   15.600    5.333    0.000    0.000    0.000    0.000 
#    0.000    0.000    0.000    0.000    0.000    0.000 
#
# Total GULP energy -167036.240641 kJ/mol
# GULP energy per Si atom -5567.874688 kJ/mol
# Density = 2.490633 g / cm^3
# Si number density = 24.963149 Si / 1000 Ang^3
#
#
#
# Elastic Constant Matrix: (Units=GPa)
#
#
# Indices 1 2 3 4 5 6 
#
# 1 54.1060 19.9162 9.3183 0.0000 18.6642 0.0000
# 2 19.9162 145.1870 2.9358 0.0000 6.6782 0.0000
# 3 9.3183 2.9358 47.3020 0.0000 -1.3324 0.0000
# 4 0.0000 0.0000 0.0000 19.5493 0.0000 2.9381
# 5 18.6642 6.6782 -1.3324 0.0000 33.0117 0.0000
# 6 0.0000 0.0000 0.0000 2.9381 0.0000 34.7899
#
#
#
# Elastic Compliance Matrix: (Units=1/GPa)
#
#
# Indices 1 2 3 4 5 6 
#
# 1 0.025162 -0.002708 -0.005180 0.000000 -0.013887 0.000000
# 2 -0.002708 0.007254 0.000085 0.000000 0.000067 0.000000
# 3 -0.005180 0.000085 0.022263 0.000000 0.003810 0.000000
# 4 0.000000 0.000000 0.000000 0.051810 0.000000 -0.004375
# 5 -0.013887 0.000067 0.003810 0.000000 0.038284 0.000000
# 6 0.000000 0.000000 0.000000 -0.004375 0.000000 0.029113
#
#
# Mechanical properties :
#
#
# Convention : Reuss Voigt Hill
#
# Bulk Modulus (GPa) = 25.59274 34.54841 30.07058
# Shear Modulus (GPa) = 24.68927 31.76517 28.22722
#
# Velocity S-wave (km/s) = 3.14829 3.57106 3.36632
# Velocity P-wave (km/s) = 4.84666 5.55635 5.21360
#
# Compressibility (1/GPa) = 0.03907358
#
# Stress axis : x y z
#
# Youngs Moduli (GPa) = 39.74301 137.84831 44.91719
#
# Poissons Ratio (x) = 0.37330 0.23267
# Poissons Ratio (y) = 0.10763 -0.00382
# Poissons Ratio (z) = 0.20586 -0.01173
#
# Static dielectric constant tensor:
#      x y z
#    x 2.075700 0.000000 -0.052720 
#    y 0.000000 1.924210 0.000000 
#    z -0.052720 0.000000 2.046510 
# 
# From -- ./inp_files/15359.got.cif
#   From: 2010.05.17/outbox.cif.g08.bks.cpg/sg11_8_cif.got.tgz:15359.got - 2010.06.03 12:22:45.
