data_PCOD9157390
_publ_section_title
;
Structure prediction by ZEFSAII (Michael W. Deem and Ramdas Pophale) SiO2 
 PCOD9157390
Probable space group: P 21/M
;
_chemical_formula_sum "Si O2"
_cell_formula_units_Z 24
_cell_length_a 7.853274
_cell_length_b 16.590034
_cell_length_c 13.749673
_cell_angle_alpha 90.000000
_cell_angle_beta 140.883242
_cell_angle_gamma 90.000000
_cell_volume 1130.193548
_symmetry_space_group_name_H-M "P 21/M"
_symmetry_group_IT_number 11
_symmetry_cell_setting 'monoclinic'
loop_
_space_group_symop_operation_xyz
x,y,z
-x,1/2+y,-z
-x,-y,-z
x,1/2-y,z
loop_
_atom_site_type_symbol
_atom_site_label
_atom_site_fract_x
_atom_site_fract_y
_atom_site_fract_z
Si Si1 0.189893 0.076051 0.910008
Si Si2 0.817046 0.250000 0.159581
Si Si3 0.485170 0.159305 0.714563
Si Si4 0.822328 0.750000 0.098860
Si Si5 0.357629 0.917856 0.409875
Si Si6 0.967713 0.250000 0.452733
Si Si7 0.282168 0.902537 0.982145
Si Si8 0.306080 0.750000 0.470612
O O1 0.142742 0.163706 0.938767
O O2 0.488489 0.082264 0.997977
O O3 0.965596 0.072471 0.725413
O O4 0.161507 0.990723 0.950739
O O5 0.881712 0.250000 0.302632
O O6 0.488874 0.250000 0.003671
O O7 0.905798 0.332332 0.145702
O O8 0.595655 0.250000 0.742827
O O9 0.584944 0.098752 0.677744
O O10 0.574749 0.132050 0.859433
O O11 0.164871 0.174063 0.561457
O O12 0.025103 0.750000 0.281833
O O13 0.441393 0.834352 0.499250
O O14 0.500000 0.000000 0.500000
O O15 0.744712 0.250000 0.437118
#
# Coordination Sequence:
#
# PCOD9157390 Si02
#       8
#     4   2   4   2   4   2   4   2
#     4   9  20  35  64  84 120 155 209 248 310 349
#     4  10  18  32  60  90 125 139 197 262 311 330
#     4  10  21  39  62  87 120 165 207 237 312 374
#     4   8  16  35  59  79 106 156 194 248 291 354
#     4  11  23  40  62  89 128 169 200 250 315 382
#     4  10  21  35  66  92 118 162 206 256 305 361
#     4  10  19  39  63  92 115 159 208 264 290 364
#     4  10  19  44  65  81 121 165 209 250 309 369
#
# _framework density 21.235299000000001
#
# number of rings (size 3 to 8) (size 9 to 14) (size 15 to 20)
#    0.500    1.667    1.667    3.000    2.333    0.667 
#    9.000    1.667    0.000    0.000    0.000    0.000 
#    0.000    0.000    0.000    0.000    0.000    0.000 
#
# Total GULP energy -133674.252156 kJ/mol
# GULP energy per Si atom -5569.760506 kJ/mol
# Density = 2.118697 g / cm^3
# Si number density = 21.235299 Si / 1000 Ang^3
#
#
#
# Elastic Constant Matrix: (Units=GPa)
#
#
# Indices 1 2 3 4 5 6 
#
# 1 23.5930 9.2658 11.5051 0.0000 -16.7878 0.0000
# 2 9.2658 199.5640 59.7861 0.0000 -13.2849 0.0000
# 3 11.5051 59.7861 57.9337 0.0000 -20.7923 0.0000
# 4 0.0000 0.0000 0.0000 38.2660 0.0000 -4.0532
# 5 -16.7878 -13.2849 -20.7923 0.0000 39.4220 0.0000
# 6 0.0000 0.0000 0.0000 -4.0532 0.0000 17.2666
#
#
#
# Elastic Compliance Matrix: (Units=1/GPa)
#
#
# Indices 1 2 3 4 5 6 
#
# 1 0.061382 -0.000285 -0.003144 0.000000 0.024385 0.000000
# 2 -0.000285 0.007366 -0.008262 0.000000 -0.001996 0.000000
# 3 -0.003144 -0.008262 0.030753 0.000000 0.012097 0.000000
# 4 0.000000 0.000000 0.000000 0.026799 0.000000 0.006291
# 5 0.024385 -0.001996 0.012097 0.000000 0.041458 0.000000
# 6 0.000000 0.000000 0.000000 0.006291 0.000000 0.059392
#
#
# Mechanical properties :
#
#
# Convention : Reuss Voigt Hill
#
# Bulk Modulus (GPa) = 13.13722 49.13385 31.13554
# Shear Modulus (GPa) = 18.12210 32.35983 25.24097
#
# Velocity S-wave (km/s) = 2.92446 3.90791 3.45140
# Velocity P-wave (km/s) = 4.19562 6.59927 5.52963
#
# Compressibility (1/GPa) = 0.07611958
#
# Stress axis : x y z
#
# Youngs Moduli (GPa) = 16.29141 135.75235 32.51703
#
# Poissons Ratio (x) = 0.03864 0.10225
# Poissons Ratio (y) = 0.00464 0.26865
# Poissons Ratio (z) = 0.05123 1.12156
#
# Static dielectric constant tensor:
#      x y z
#    x 1.798280 0.000000 0.087390 
#    y 0.000000 1.825380 0.000000 
#    z 0.087390 0.000000 1.777960 
# 
# From -- ./inp_files/18564.got.cif
#   From: 2010.05.17/outbox.cif.g08.bks.cpg/sg11_10_cif.got.tgz:18564.got - 2010.06.03 12:22:45.
