data_PCOD9157734
_publ_section_title
;
Structure prediction by ZEFSAII (Michael W. Deem and Ramdas Pophale) SiO2 
 PCOD9157734
Probable space group: P 21/M
;
_chemical_formula_sum "Si O2"
_cell_formula_units_Z 26
_cell_length_a 11.030082
_cell_length_b 23.353445
_cell_length_c 6.758840
_cell_angle_alpha 90.000000
_cell_angle_beta 141.512610
_cell_angle_gamma 90.000000
_cell_volume 1083.505795
_symmetry_space_group_name_H-M "P 21/M"
_symmetry_group_IT_number 11
_symmetry_cell_setting 'monoclinic'
loop_
_space_group_symop_operation_xyz
x,y,z
-x,1/2+y,-z
-x,-y,-z
x,1/2-y,z
loop_
_atom_site_type_symbol
_atom_site_label
_atom_site_fract_x
_atom_site_fract_y
_atom_site_fract_z
Si Si1 0.510508 0.157582 0.754035
Si Si2 0.225061 0.250000 0.177559
Si Si3 0.055971 0.813737 0.659918
Si Si4 0.018928 0.646081 0.066496
Si Si5 0.738842 0.598891 0.226729
Si Si6 0.188924 0.033415 0.308465
Si Si7 0.594206 0.422772 0.503930
O O1 0.383799 0.200640 0.458083
O O2 0.385471 0.139568 0.784375
O O3 0.569442 0.103050 0.692300
O O4 0.715047 0.183369 0.090323
O O5 0.064963 0.199125 0.919973
O O6 0.972861 0.750000 0.523517
O O7 0.933731 0.867082 0.419934
O O8 0.040749 0.824923 0.877143
O O9 0.227392 0.614941 0.365624
O O10 0.859035 0.595848 0.840934
O O11 0.790064 0.544656 0.430148
O O12 0.600653 0.585496 0.869600
O O13 0.349998 0.989233 0.442462
O O14 0.000000 0.000000 0.000000
#
# Coordination Sequence:
#
# PCOD9157734 Si02
#       7
#     4   2   4   4   4   4   4
#     4  11  23  39  66  92 120 171 215 245 321 374
#     4  12  18  40  66  92 122 172 210 254 316 372
#     4  10  18  36  60  87 122 162 211 258 303 375
#     4   9  18  36  65  89 123 167 204 256 317 361
#     4  11  22  42  61  91 130 163 201 267 317 359
#     4   9  18  38  68  90 122 168 207 257 311 371
#     4  10  23  40  61  97 126 160 213 255 313 377
#
# _framework density 23.996178
#
# number of rings (size 3 to 8) (size 9 to 14) (size 15 to 20)
#    0.000    1.846    4.615    1.385    0.000    0.615 
#    5.538    0.000    0.000   15.692    0.000    0.000 
#    0.000    0.000    0.000    0.000    0.000    0.000 
#
# Total GULP energy -144774.486066 kJ/mol
# GULP energy per Si atom -5568.249464 kJ/mol
# Density = 2.394156 g / cm^3
# Si number density = 23.996178 Si / 1000 Ang^3
#
#
#
# Elastic Constant Matrix: (Units=GPa)
#
#
# Indices 1 2 3 4 5 6 
#
# 1 54.8923 10.6521 22.3568 0.0000 15.9210 0.0000
# 2 10.6521 138.0543 8.8621 0.0000 5.2428 0.0000
# 3 22.3568 8.8621 99.9119 0.0000 19.8637 0.0000
# 4 0.0000 0.0000 0.0000 51.3214 0.0000 5.2471
# 5 15.9210 5.2428 19.8637 0.0000 37.2737 0.0000
# 6 0.0000 0.0000 0.0000 5.2471 0.0000 16.0895
#
#
#
# Elastic Compliance Matrix: (Units=1/GPa)
#
#
# Indices 1 2 3 4 5 6 
#
# 1 0.021964 -0.001198 -0.003329 0.000000 -0.007439 0.000000
# 2 -0.001198 0.007370 -0.000315 0.000000 -0.000357 0.000000
# 3 -0.003329 -0.000315 0.011733 0.000000 -0.004786 0.000000
# 4 0.000000 0.000000 0.000000 0.020157 0.000000 -0.006574
# 5 -0.007439 -0.000357 -0.004786 0.000000 0.032607 0.000000
# 6 0.000000 0.000000 0.000000 -0.006574 0.000000 0.064296
#
#
# Mechanical properties :
#
#
# Convention : Reuss Voigt Hill
#
# Bulk Modulus (GPa) = 31.86567 41.84451 36.85509
# Shear Modulus (GPa) = 28.04697 37.66941 32.85819
#
# Velocity S-wave (km/s) = 3.42249 3.96638 3.70443
# Velocity P-wave (km/s) = 5.37831 6.20097 5.80424
#
# Compressibility (1/GPa) = 0.03138174
#
# Stress axis : x y z
#
# Youngs Moduli (GPa) = 45.52985 135.68986 85.22708
#
# Poissons Ratio (x) = 0.16262 0.28376
# Poissons Ratio (y) = 0.05457 0.02681
# Poissons Ratio (z) = 0.15159 0.04268
#
# Static dielectric constant tensor:
#      x y z
#    x 1.596190 0.000000 -0.184640 
#    y 0.000000 1.771640 0.000000 
#    z -0.184640 0.000000 1.857310 
# 
# From -- ./inp_files/23152.got.cif
#   From: 2010.05.17/outbox.cif.g08.bks.cpg/sg11_12_cif.got.tgz:23152.got - 2010.06.03 12:22:45.
