data_PCOD9157718
_publ_section_title
;
Structure prediction by ZEFSAII (Michael W. Deem and Ramdas Pophale) SiO2 
 PCOD9157718
Probable space group: P 21/M
;
_chemical_formula_sum "Si O2"
_cell_formula_units_Z 28
_cell_length_a 9.136002
_cell_length_b 24.273722
_cell_length_c 11.393586
_cell_angle_alpha 90.000000
_cell_angle_beta 28.180597
_cell_angle_gamma 90.000000
_cell_volume 1193.237971
_symmetry_space_group_name_H-M "P 21/M"
_symmetry_group_IT_number 11
_symmetry_cell_setting 'monoclinic'
loop_
_space_group_symop_operation_xyz
x,y,z
-x,1/2+y,-z
-x,-y,-z
x,1/2-y,z
loop_
_atom_site_type_symbol
_atom_site_label
_atom_site_fract_x
_atom_site_fract_y
_atom_site_fract_z
Si Si1 0.383412 0.573049 0.105393
Si Si2 0.454984 0.876145 0.823251
Si Si3 0.124153 0.312088 0.657980
Si Si4 0.344500 0.892670 0.377224
Si Si5 0.037325 0.919694 0.927538
Si Si6 0.262860 0.812133 0.627709
Si Si7 0.963958 0.987688 0.763338
O O1 0.345789 0.615934 0.236851
O O2 0.067140 0.546898 0.275984
O O3 0.565383 0.595816 0.864564
O O4 0.600702 0.529437 0.020072
O O5 0.708300 0.845923 0.564827
O O6 0.265298 0.919713 0.876564
O O7 0.185150 0.836161 0.065066
O O8 0.068559 0.250000 0.656605
O O9 0.384042 0.310624 0.576403
O O10 0.246367 0.836439 0.509400
O O11 0.131662 0.944446 0.560931
O O12 0.672443 0.911780 0.203214
O O13 0.088833 0.971641 0.803849
O O14 0.113949 0.861644 0.808114
O O15 0.137213 0.750000 0.730902
#
# Coordination Sequence:
#
# PCOD9157718 Si02
#       7
#     4   4   4   4   4   4   4
#     4  10  22  36  59  83 117 156 200 242 300 364
#     4  11  22  38  62  93 119 156 197 254 301 350
#     4  10  21  39  62  87 120 158 198 240 302 366
#     4  10  18  36  58  82 113 150 194 248 285 361
#     4   9  19  35  56  84 118 145 197 248 291 352
#     4   9  18  33  58  84 111 150 195 244 294 350
#     4   9  20  39  58  82 113 162 200 237 301 357
#
# _framework density 23.465563
#
# number of rings (size 3 to 8) (size 9 to 14) (size 15 to 20)
#    0.000    2.286    1.429    0.857    2.000    1.714 
#    0.000    2.143    0.000    0.857    0.000    0.000 
#    0.000    0.000    0.000    0.000    0.000    0.000 
#
# Total GULP energy -156231.439323 kJ/mol
# GULP energy per Si atom -5579.694262 kJ/mol
# Density = 2.341215 g / cm^3
# Si number density = 23.465563 Si / 1000 Ang^3
#
#
#
# Elastic Constant Matrix: (Units=GPa)
#
#
# Indices 1 2 3 4 5 6 
#
# 1 103.5167 16.0222 15.4287 0.0000 30.6529 0.0000
# 2 16.0222 81.5119 21.7825 0.0000 6.7920 0.0000
# 3 15.4287 21.7825 68.5132 0.0000 -3.4851 0.0000
# 4 0.0000 0.0000 0.0000 24.4868 0.0000 -5.1489
# 5 30.6529 6.7920 -3.4851 0.0000 37.4592 0.0000
# 6 0.0000 0.0000 0.0000 -5.1489 0.0000 22.2073
#
#
#
# Elastic Compliance Matrix: (Units=1/GPa)
#
#
# Indices 1 2 3 4 5 6 
#
# 1 0.013650 -0.000834 -0.003385 0.000000 -0.011333 0.000000
# 2 -0.000834 0.013766 -0.004301 0.000000 -0.002214 0.000000
# 3 -0.003385 -0.004301 0.016987 0.000000 0.005130 0.000000
# 4 0.000000 0.000000 0.000000 0.042931 0.000000 0.009954
# 5 -0.011333 -0.002214 0.005130 0.000000 0.036849 0.000000
# 6 0.000000 0.000000 0.000000 0.009954 0.000000 0.047338
#
#
# Mechanical properties :
#
#
# Convention : Reuss Voigt Hill
#
# Bulk Modulus (GPa) = 36.54817 40.00096 38.27457
# Shear Modulus (GPa) = 25.29310 30.18455 27.73882
#
# Velocity S-wave (km/s) = 3.28667 3.59044 3.44191
# Velocity P-wave (km/s) = 5.47832 5.85423 5.66939
#
# Compressibility (1/GPa) = 0.02736115
#
# Stress axis : x y z
#
# Youngs Moduli (GPa) = 73.26033 72.64257 58.86996
#
# Poissons Ratio (x) = 0.06059 0.19929
# Poissons Ratio (y) = 0.06110 0.25323
# Poissons Ratio (z) = 0.24800 0.31247
#
# Static dielectric constant tensor:
#      x y z
#    x 1.932980 0.000000 0.025520 
#    y 0.000000 1.952740 0.000000 
#    z 0.025520 0.000000 1.927010 
# 
# From -- ./inp_files/33128.got.cif
#   From: 2010.05.17/outbox.cif.g08.bks.cpg/sg11_17_cif.got.tgz:33128.got - 2010.06.03 12:22:45.
