data_PCOD9157930
_publ_section_title
;
Structure prediction by ZEFSAII (Michael W. Deem and Ramdas Pophale) SiO2 
 PCOD9157930
Probable space group: P 21/M
;
_chemical_formula_sum "Si O2"
_cell_formula_units_Z 32
_cell_length_a 14.867783
_cell_length_b 8.050188
_cell_length_c 16.204567
_cell_angle_alpha 90.000000
_cell_angle_beta 90.152700
_cell_angle_gamma 90.000000
_cell_volume 1939.492592
_symmetry_space_group_name_H-M "P 21/M"
_symmetry_group_IT_number 11
_symmetry_cell_setting 'monoclinic'
loop_
_space_group_symop_operation_xyz
x,y,z
-x,1/2+y,-z
-x,-y,-z
x,1/2-y,z
loop_
_atom_site_type_symbol
_atom_site_label
_atom_site_fract_x
_atom_site_fract_y
_atom_site_fract_z
Si Si1 0.602006 0.953475 0.679483
Si Si2 0.395350 0.448134 0.501138
Si Si3 0.288428 0.453356 0.160517
Si Si4 0.097823 0.049737 0.904383
Si Si5 0.603605 0.549637 0.002214
Si Si6 0.394355 0.946442 0.679843
Si Si7 0.714427 0.949476 0.161347
Si Si8 0.900362 0.550280 0.904946
O O1 0.600322 0.750000 0.680043
O O2 0.638424 0.004297 0.589116
O O3 0.662517 0.009020 0.756022
O O4 0.497812 0.010435 0.688045
O O5 0.500000 0.500000 0.500000
O O6 0.389148 0.250000 0.504056
O O7 0.359190 0.514781 0.587678
O O8 0.289100 0.250000 0.161661
O O9 0.344671 0.506161 0.080036
O O10 0.185445 0.507637 0.147380
O O11 0.099735 0.250000 0.906116
O O12 0.183461 0.990406 0.852430
O O13 0.108048 0.991432 0.999736
O O14 0.999109 0.998234 0.874541
O O15 0.608392 0.750000 0.002777
O O16 0.500000 0.500000 0.000000
O O17 0.653299 0.488271 0.084959
O O18 0.400281 0.750000 0.688296
O O19 0.331188 0.009955 0.752228
O O20 0.716995 0.750000 0.154516
O O21 0.896149 0.750000 0.907499
#
# Coordination Sequence:
#
# PCOD9157930 Si02
#       8
#     4   4   4   4   4   4   4   4
#     4   8  15  26  43  66  90 117 149 182 216 260
#     4   9  16  28  45  66  91 120 152 187 227 266
#     4   9  15  27  45  64  88 118 150 181 215 262
#     4   9  17  30  45  63  87 115 147 186 228 265
#     4  10  19  30  43  61  90 125 156 181 212 257
#     4  10  19  30  45  67  91 119 155 192 228 263
#     4  10  19  31  45  63  89 123 155 183 222 270
#     4   9  16  28  47  66  83 112 150 186 223 262
#
# _framework density 16.499161000000001
#
# number of rings (size 3 to 8) (size 9 to 14) (size 15 to 20)
#    0.000    2.750    1.250    2.250    0.000    2.000 
#    0.000    0.625    0.000    5.250    0.000    0.875 
#    0.000    0.000    0.000    0.000    0.000    0.000 
#
# Total GULP energy -178279.888835 kJ/mol
# GULP energy per Si atom -5571.246526 kJ/mol
# Density = 1.646161 g / cm^3
# Si number density = 16.499161 Si / 1000 Ang^3
#
#
#
# Elastic Constant Matrix: (Units=GPa)
#
#
# Indices 1 2 3 4 5 6 
#
# 1 136.8532 9.7365 84.3086 0.0000 -4.3209 0.0000
# 2 9.7365 7.4191 4.5997 0.0000 1.1479 0.0000
# 3 84.3086 4.5997 142.3429 0.0000 -4.5605 0.0000
# 4 0.0000 0.0000 0.0000 13.5661 0.0000 -2.0621
# 5 -4.3209 1.1479 -4.5605 0.0000 9.2118 0.0000
# 6 0.0000 0.0000 0.0000 -2.0621 0.0000 19.7509
#
#
#
# Elastic Compliance Matrix: (Units=1/GPa)
#
#
# Indices 1 2 3 4 5 6 
#
# 1 0.012623 -0.012904 -0.006928 0.000000 0.004099 0.000000
# 2 -0.012904 0.154326 0.001876 0.000000 -0.024355 0.000000
# 3 -0.006928 0.001876 0.011133 0.000000 0.002028 0.000000
# 4 0.000000 0.000000 0.000000 0.074902 0.000000 0.007820
# 5 0.004099 -0.024355 0.002028 0.000000 0.114518 0.000000
# 6 0.000000 0.000000 0.000000 0.007820 0.000000 0.051447
#
#
# Mechanical properties :
#
#
# Convention : Reuss Voigt Hill
#
# Bulk Modulus (GPa) = 7.03386 53.76721 30.40054
# Shear Modulus (GPa) = 9.95517 21.03712 15.49614
#
# Velocity S-wave (km/s) = 2.45903 3.57465 3.06797
# Velocity P-wave (km/s) = 3.51210 7.04954 5.56915
#
# Compressibility (1/GPa) = 0.14216935
#
# Stress axis : x y z
#
# Youngs Moduli (GPa) = 79.22339 6.47977 89.82293
#
# Poissons Ratio (x) = 0.08362 0.62229
# Poissons Ratio (y) = 1.02231 -0.16849
# Poissons Ratio (z) = 0.54885 -0.01215
#
# Static dielectric constant tensor:
#      x y z
#    x 1.548230 0.000000 0.004810 
#    y 0.000000 1.588950 0.000000 
#    z 0.004810 0.000000 1.565040 
# 
# From -- ./inp_files/51336.got.cif
#   From: 2010.05.17/outbox.cif.g08.bks.cpg/sg11_26_cif.got.tgz:51336.got - 2010.06.03 12:22:45.
