data_PCOD9157703
_publ_section_title
;
Structure prediction by ZEFSAII (Michael W. Deem and Ramdas Pophale) SiO2 
 PCOD9157703
Probable space group: P 21/M
;
_chemical_formula_sum "Si O2"
_cell_formula_units_Z 24
_cell_length_a 7.367473
_cell_length_b 16.800995
_cell_length_c 10.935598
_cell_angle_alpha 90.000000
_cell_angle_beta 41.954354
_cell_angle_gamma 90.000000
_cell_volume 904.945486
_symmetry_space_group_name_H-M "P 21/M"
_symmetry_group_IT_number 11
_symmetry_cell_setting 'monoclinic'
loop_
_space_group_symop_operation_xyz
x,y,z
-x,1/2+y,-z
-x,-y,-z
x,1/2-y,z
loop_
_atom_site_type_symbol
_atom_site_label
_atom_site_fract_x
_atom_site_fract_y
_atom_site_fract_z
Si Si1 0.587843 0.426578 0.857333
Si Si2 0.339634 0.750000 0.196015
Si Si3 0.908525 0.250000 0.939367
Si Si4 0.815130 0.250000 0.260567
Si Si5 0.979150 0.750000 0.587544
Si Si6 0.592040 0.505495 0.606431
Si Si7 0.062896 0.104548 0.252851
Si Si8 0.154362 0.097180 0.709443
O O1 0.626435 0.490787 0.731341
O O2 0.543294 0.335842 0.825549
O O3 0.682078 0.560205 0.930723
O O4 0.860359 0.415399 0.798066
O O5 0.301623 0.750000 0.069624
O O6 0.054162 0.750000 0.409794
O O7 0.105169 0.174739 0.814697
O O8 0.749470 0.250000 0.148056
O O9 0.760279 0.250000 0.442782
O O10 0.958265 0.164002 0.199233
O O11 0.839770 0.668182 0.694178
O O12 0.821635 0.446988 0.431929
O O13 0.650158 0.589376 0.509702
O O14 0.296805 0.470287 0.720950
#
# Coordination Sequence:
#
# PCOD9157703 Si02
#       8
#     4   2   2   2   2   4   4   4
#     4  11  20  40  65  93 128 177 215 269 326 386
#     4  10  18  35  66  94 128 175 219 267 324 380
#     4  10  20  39  63  90 129 166 212 266 330 383
#     4   8  17  35  57  95 121 162 213 266 318 384
#     4   8  17  35  60  99 122 169 224 263 316 391
#     4  11  22  44  63  91 134 168 218 271 324 394
#     4   9  20  35  68  90 123 169 220 259 323 384
#     4  10  25  39  64  95 126 171 217 267 330 391
#
# _framework density 26.520932999999999
#
# number of rings (size 3 to 8) (size 9 to 14) (size 15 to 20)
#    1.000    1.000    1.667    2.500    0.000    2.667 
#    0.000   12.500   11.000    0.000    0.000    0.000 
#    0.000    0.000    0.000    0.000    0.000    0.000 
#
# Total GULP energy -133669.942049 kJ/mol
# GULP energy per Si atom -5569.580919 kJ/mol
# Density = 2.646057 g / cm^3
# Si number density = 26.520933 Si / 1000 Ang^3
#
#
#
# Elastic Constant Matrix: (Units=GPa)
#
#
# Indices 1 2 3 4 5 6 
#
# 1 88.8687 -12.7123 34.3078 0.0000 16.8052 0.0000
# 2 -12.7123 50.4804 16.7823 0.0000 5.9531 0.0000
# 3 34.3078 16.7823 105.6113 0.0000 6.1929 0.0000
# 4 0.0000 0.0000 0.0000 8.8689 0.0000 16.0984
# 5 16.8052 5.9531 6.1929 0.0000 37.0530 0.0000
# 6 0.0000 0.0000 0.0000 16.0984 0.0000 13.6327
#
#
#
# Elastic Compliance Matrix: (Units=1/GPa)
#
#
# Indices 1 2 3 4 5 6 
#
# 1 0.015840 0.006777 -0.005794 0.000000 -0.007305 0.000000
# 2 0.006777 0.024112 -0.005681 0.000000 -0.005998 0.000000
# 3 -0.005794 -0.005681 0.012165 0.000000 0.001507 0.000000
# 4 0.000000 0.000000 0.000000 -0.098608 0.000000 0.116444
# 5 -0.007305 -0.005998 0.001507 0.000000 0.031013 0.000000
# 6 0.000000 0.000000 0.000000 0.116444 0.000000 -0.064151
#
#
# Mechanical properties :
#
#
# Convention : Reuss Voigt Hill
#
# Bulk Modulus (GPa) = 23.40817 35.74621 29.57719
# Shear Modulus (GPa) = -89.29969 25.68309 -31.80830
#
# Velocity S-wave (km/s) = -5.80900 3.11530 -3.46694
# Velocity P-wave (km/s) = 6.01225 5.14275 2.20219
#
# Compressibility (1/GPa) = 0.04272012
#
# Stress axis : x y z
#
# Youngs Moduli (GPa) = 63.13106 41.47262 82.20098
#
# Poissons Ratio (x) = -0.28105 0.47629
# Poissons Ratio (y) = -0.42782 0.46701
# Poissons Ratio (z) = 0.36579 0.23562
#
# Static dielectric constant tensor:
#      x y z
#    x 2.179760 0.000000 0.034460 
#    y 0.000000 2.980620 0.000000 
#    z 0.034460 0.000000 2.047050 
# 
# From -- ./inp_files/32048.got.cif
#   From: 2010.05.17/outbox.cif.g08.bks.cpg/sg11_17_cif.got.tgz:32048.got - 2010.06.03 12:22:45.
