data_PCOD9157052
_publ_section_title
;
Structure prediction by ZEFSAII (Michael W. Deem and Ramdas Pophale) SiO2 
 PCOD9157052
Probable space group: P 21/M
;
_chemical_formula_sum "Si O2"
_cell_formula_units_Z 32
_cell_length_a 27.946190
_cell_length_b 8.554552
_cell_length_c 19.840784
_cell_angle_alpha 90.000000
_cell_angle_beta 24.534181
_cell_angle_gamma 90.000000
_cell_volume 1969.580484
_symmetry_space_group_name_H-M "P 21/M"
_symmetry_group_IT_number 11
_symmetry_cell_setting 'monoclinic'
loop_
_space_group_symop_operation_xyz
x,y,z
-x,1/2+y,-z
-x,-y,-z
x,1/2-y,z
loop_
_atom_site_type_symbol
_atom_site_label
_atom_site_fract_x
_atom_site_fract_y
_atom_site_fract_z
Si Si1 0.726368 0.561173 0.687771
Si Si2 0.772271 0.559752 0.389567
Si Si3 0.668965 0.437293 0.907820
Si Si4 0.005335 0.061127 0.677517
Si Si5 0.982540 0.438426 0.859078
Si Si6 0.413454 0.059234 0.266769
Si Si7 0.882923 0.562691 0.115565
Si Si8 0.900546 0.564410 0.676754
O O1 0.721166 0.750000 0.699460
O O2 0.680004 0.489128 0.816035
O O3 0.652442 0.513305 0.717416
O O4 0.860417 0.518494 0.505724
O O5 0.771204 0.750000 0.392249
O O6 0.661982 0.505423 0.572822
O O7 0.785203 0.513489 0.294636
O O8 0.889990 0.512800 0.277703
O O9 0.673057 0.250000 0.905674
O O10 0.777730 0.503915 0.808480
O O11 0.545739 0.491433 0.094523
O O12 0.998899 0.250000 0.682471
O O13 0.968797 0.011744 0.799463
O O14 0.930493 0.991032 0.713509
O O15 0.981295 0.250000 0.862572
O O16 0.888640 0.499432 0.032517
O O17 0.413062 0.250000 0.268226
O O18 0.886165 0.750000 0.109572
O O19 0.000000 0.500000 0.000000
O O20 0.902654 0.750000 0.670108
O O21 0.000000 0.500000 0.500000
#
# Coordination Sequence:
#
# PCOD9157052 Si02
#       8
#     4   4   4   4   4   4   4   4
#     4  10  18  31  52  72  97 131 164 201 242 287
#     4   8  13  25  44  67  95 129 162 189 228 282
#     4  11  22  34  50  72  98 128 167 208 245 290
#     4  10  19  32  53  76  97 129 165 199 245 295
#     4   9  16  28  47  70  99 129 158 193 239 295
#     4   9  17  30  49  73  99 131 168 201 238 290
#     4   9  16  25  42  66  96 131 164 197 235 284
#     4  12  24  38  54  70  94 126 165 210 252 292
#
# _framework density 16.247115000000001
#
# number of rings (size 3 to 8) (size 9 to 14) (size 15 to 20)
#    0.000    2.250    2.500    3.000    0.000    0.500 
#    0.000    0.625    0.000    7.500    0.000    0.875 
#    0.000    0.000    0.000    0.000    0.000    0.000 
#
# Total GULP energy -178410.562481 kJ/mol
# GULP energy per Si atom -5575.330078 kJ/mol
# Density = 1.621014 g / cm^3
# Si number density = 16.247115 Si / 1000 Ang^3
#
#
#
# Elastic Constant Matrix: (Units=GPa)
#
#
# Indices 1 2 3 4 5 6 
#
# 1 97.1841 24.2431 95.7307 0.0000 25.9640 0.0000
# 2 24.2431 26.1022 30.3795 0.0000 7.1854 0.0000
# 3 95.7307 30.3795 145.3564 0.0000 19.9640 0.0000
# 4 0.0000 0.0000 0.0000 16.4495 0.0000 5.4791
# 5 25.9640 7.1854 19.9640 0.0000 33.0883 0.0000
# 6 0.0000 0.0000 0.0000 5.4791 0.0000 24.5084
#
#
#
# Elastic Compliance Matrix: (Units=1/GPa)
#
#
# Indices 1 2 3 4 5 6 
#
# 1 0.035370 -0.005387 -0.020190 0.000000 -0.014402 0.000000
# 2 -0.005387 0.052224 -0.006967 0.000000 -0.002910 0.000000
# 3 -0.020190 -0.006967 0.020988 0.000000 0.004693 0.000000
# 4 0.000000 0.000000 0.000000 0.065683 0.000000 -0.014684
# 5 -0.014402 -0.002910 0.004693 0.000000 0.039324 0.000000
# 6 0.000000 0.000000 0.000000 -0.014684 0.000000 0.044085
#
#
# Mechanical properties :
#
#
# Convention : Reuss Voigt Hill
#
# Bulk Modulus (GPa) = 22.99208 63.26105 43.12656
# Shear Modulus (GPa) = 14.82527 22.69521 18.76024
#
# Velocity S-wave (km/s) = 3.02402 3.74154 3.40175
# Velocity P-wave (km/s) = 5.13567 7.59518 6.48313
#
# Compressibility (1/GPa) = 0.04349324
#
# Stress axis : x y z
#
# Youngs Moduli (GPa) = 28.27280 19.14815 47.64524
#
# Poissons Ratio (x) = 0.10315 0.96197
# Poissons Ratio (y) = 0.15231 0.33196
# Poissons Ratio (z) = 0.57083 0.13341
#
# Static dielectric constant tensor:
#      x y z
#    x 1.537520 0.000000 0.025250 
#    y 0.000000 1.557220 0.000000 
#    z 0.025250 0.000000 1.558300 
# 
# From -- ./inp_files/67422.got.cif
#   From: 2010.05.17/outbox.cif.g08.bks.cpg/sg11_34_cif.got.tgz:67422.got - 2010.06.03 12:22:45.
