data_PCOD9157646
_publ_section_title
;
Structure prediction by ZEFSAII (Michael W. Deem and Ramdas Pophale) SiO2 
 PCOD9157646
Probable space group: P 21/M
;
_chemical_formula_sum "Si O2"
_cell_formula_units_Z 24
_cell_length_a 19.106243
_cell_length_b 11.315419
_cell_length_c 14.816456
_cell_angle_alpha 90.000000
_cell_angle_beta 160.425832
_cell_angle_gamma 90.000000
_cell_volume 1073.173227
_symmetry_space_group_name_H-M "P 21/M"
_symmetry_group_IT_number 11
_symmetry_cell_setting 'monoclinic'
loop_
_space_group_symop_operation_xyz
x,y,z
-x,1/2+y,-z
-x,-y,-z
x,1/2-y,z
loop_
_atom_site_type_symbol
_atom_site_label
_atom_site_fract_x
_atom_site_fract_y
_atom_site_fract_z
Si Si1 0.733124 0.117372 0.969194
Si Si2 0.236001 0.750000 0.717036
Si Si3 0.249159 0.992539 0.817817
Si Si4 0.024587 0.492879 0.878418
Si Si5 0.747979 0.750000 0.157789
Si Si6 0.884397 0.250000 0.636491
Si Si7 0.508810 0.250000 0.325853
Si Si8 0.652853 0.002798 0.566377
O O1 0.745970 0.250000 0.018640
O O2 0.525468 0.094584 0.658804
O O3 0.718677 0.031945 0.037216
O O4 0.925739 0.087104 0.138419
O O5 0.330128 0.875714 0.864432
O O6 0.204828 0.750000 0.572117
O O7 0.998994 0.750000 0.469481
O O8 0.331477 0.125188 0.898510
O O9 0.000000 0.000000 0.500000
O O10 0.012997 0.367198 0.815155
O O11 0.811458 0.512083 0.674693
O O12 0.207319 0.494236 0.174839
O O13 0.691721 0.750000 0.982674
O O14 0.695217 0.250000 0.478309
O O15 0.543928 0.131191 0.425468
#
# Coordination Sequence:
#
# PCOD9157646 Si02
#       8
#     4   2   4   4   2   2   2   4
#     4  12  24  39  63  96 126 164 212 258 318 382
#     4  10  20  38  60  85 123 163 211 269 319 372
#     4  10  20  36  61  87 120 164 212 258 317 375
#     4  10  23  42  63  93 126 169 207 260 315 379
#     4  10  18  34  62  83 115 164 203 251 314 377
#     4  10  22  40  65  87 118 166 215 259 316 390
#     4  10  20  38  63  89 120 165 207 257 323 371
#     4  10  23  41  64  92 130 164 211 260 314 380
#
# _framework density 22.363585
#
# number of rings (size 3 to 8) (size 9 to 14) (size 15 to 20)
#    0.000    1.667    2.500    2.500    2.333    0.667 
#    0.000    0.833    7.333    0.000    0.000    0.000 
#    0.000    0.000    0.000    0.000    0.000    0.000 
#
# Total GULP energy -134151.202348 kJ/mol
# GULP energy per Si atom -5589.633431 kJ/mol
# Density = 2.231268 g / cm^3
# Si number density = 22.363585 Si / 1000 Ang^3
#
#
#
# Elastic Constant Matrix: (Units=GPa)
#
#
# Indices 1 2 3 4 5 6 
#
# 1 77.7370 36.0294 8.9152 0.0000 -5.7449 0.0000
# 2 36.0294 173.7198 19.7124 0.0000 -9.5788 0.0000
# 3 8.9152 19.7124 46.2432 0.0000 0.5344 0.0000
# 4 0.0000 0.0000 0.0000 27.3335 0.0000 -9.6619
# 5 -5.7449 -9.5788 0.5344 0.0000 23.4446 0.0000
# 6 0.0000 0.0000 0.0000 -9.6619 0.0000 24.8158
#
#
#
# Elastic Compliance Matrix: (Units=1/GPa)
#
#
# Indices 1 2 3 4 5 6 
#
# 1 0.014481 -0.002675 -0.001680 0.000000 0.002494 0.000000
# 2 -0.002675 0.006697 -0.002364 0.000000 0.002135 0.000000
# 3 -0.001680 -0.002364 0.022978 0.000000 -0.001901 0.000000
# 4 0.000000 0.000000 0.000000 0.042424 0.000000 0.016517
# 5 0.002494 0.002135 -0.001901 0.000000 0.044180 0.000000
# 6 0.000000 0.000000 0.000000 0.016517 0.000000 0.046728
#
#
# Mechanical properties :
#
#
# Convention : Reuss Voigt Hill
#
# Bulk Modulus (GPa) = 32.55423 47.44598 40.00011
# Shear Modulus (GPa) = 24.85516 30.65500 27.75508
#
# Velocity S-wave (km/s) = 3.33740 3.70639 3.52672
# Velocity P-wave (km/s) = 5.42581 6.29112 5.87442
#
# Compressibility (1/GPa) = 0.03071797
#
# Stress axis : x y z
#
# Youngs Moduli (GPa) = 69.05732 149.31747 43.51934
#
# Poissons Ratio (x) = 0.39944 0.07312
# Poissons Ratio (y) = 0.18474 0.10287
# Poissons Ratio (z) = 0.11603 0.35295
#
# Static dielectric constant tensor:
#      x y z
#    x 1.798020 0.000000 0.055290 
#    y 0.000000 1.842470 0.000000 
#    z 0.055290 0.000000 1.776050 
# 
# From -- ./inp_files/24386.got.cif
#   From: 2010.05.17/outbox.cif.g08.bks.cpg/sg11_13_cif.got.tgz:24386.got - 2010.06.03 12:22:45.
