data_PCOD9157185
_publ_section_title
;
Structure prediction by ZEFSAII (Michael W. Deem and Ramdas Pophale) SiO2 
 PCOD9157185
Probable space group: P 21/M
;
_chemical_formula_sum "Si O2"
_cell_formula_units_Z 14
_cell_length_a 11.076244
_cell_length_b 5.498426
_cell_length_c 10.696534
_cell_angle_alpha 90.000000
_cell_angle_beta 57.682878
_cell_angle_gamma 90.000000
_cell_volume 550.532753
_symmetry_space_group_name_H-M "P 21/M"
_symmetry_group_IT_number 11
_symmetry_cell_setting 'monoclinic'
loop_
_space_group_symop_operation_xyz
x,y,z
-x,1/2+y,-z
-x,-y,-z
x,1/2-y,z
loop_
_atom_site_type_symbol
_atom_site_label
_atom_site_fract_x
_atom_site_fract_y
_atom_site_fract_z
Si Si1 0.974976 0.750000 0.174050
Si Si2 0.749320 0.750000 0.827076
Si Si3 0.492346 0.250000 0.331407
Si Si4 0.647509 0.250000 0.511959
Si Si5 0.069562 0.750000 0.770753
Si Si6 0.924515 0.750000 0.499928
Si Si7 0.312462 0.750000 0.020238
O O1 0.910970 0.497420 0.163127
O O2 0.931338 0.750000 0.346070
O O3 0.145205 0.750000 0.072518
O O4 0.781747 0.750000 0.662323
O O5 0.673943 0.500993 0.909889
O O6 0.907597 0.750000 0.806390
O O7 0.594342 0.250000 0.397763
O O8 0.408519 0.504525 0.394219
O O9 0.583336 0.250000 0.154884
O O10 0.817343 0.250000 0.403813
O O11 0.000000 0.500000 0.500000
#
# Coordination Sequence:
#
# PCOD9157185 Si02
#       7
#     2   2   2   2   2   2   2
#     4  10  19  30  50  81 105 131 160 199 258 301
#     4  10  19  30  50  81 105 131 160 199 258 301
#     4  10  21  37  55  73  95 132 178 214 246 292
#     4  10  21  37  55  73  95 132 178 214 246 292
#     4  10  18  32  49  75 105 127 164 211 247 301
#     4  12  16  30  48  78 110 134 164 196 238 304
#     4  10  18  32  49  75 105 127 164 211 247 301
#
# _framework density 25.429911000000001
#
# number of rings (size 3 to 8) (size 9 to 14) (size 15 to 20)
#    0.000    1.714    5.714    1.714    0.000    0.000 
#    0.000    5.714    0.000    0.000    0.000   34.000 
#    0.000    0.000    0.000    0.000    0.000    0.000 
#
# Total GULP energy -78410.999465 kJ/mol
# GULP energy per Si atom -5600.785676 kJ/mol
# Density = 2.537203 g / cm^3
# Si number density = 25.429911 Si / 1000 Ang^3
#
#
#
# Elastic Constant Matrix: (Units=GPa)
#
#
# Indices 1 2 3 4 5 6 
#
# 1 58.3609 64.1954 43.6639 0.0000 0.1729 0.0000
# 2 64.1954 280.9921 93.7845 0.0000 -9.0941 0.0000
# 3 43.6639 93.7845 248.8518 0.0000 1.0885 0.0000
# 4 0.0000 0.0000 0.0000 -17.2603 0.0000 2.8962
# 5 0.1729 -9.0941 1.0885 0.0000 42.2129 0.0000
# 6 0.0000 0.0000 0.0000 2.8962 0.0000 13.5308
#
#
#
# Elastic Compliance Matrix: (Units=1/GPa)
#
#
# Indices 1 2 3 4 5 6 
#
# 1 0.024189 -0.004742 -0.002453 0.000000 -0.001057 0.000000
# 2 -0.004742 0.005036 -0.001071 0.000000 0.001132 0.000000
# 3 -0.002453 -0.001071 0.004854 0.000000 -0.000346 0.000000
# 4 0.000000 0.000000 0.000000 -0.055928 0.000000 0.011971
# 5 -0.001057 0.001132 -0.000346 0.000000 0.023947 0.000000
# 6 0.000000 0.000000 0.000000 0.011971 0.000000 0.071343
#
#
# Mechanical properties :
#
#
# Convention : Reuss Voigt Hill
#
# Bulk Modulus (GPa) = 56.98578 110.16582 83.57580
# Shear Modulus (GPa) = 52.18074 33.46739 42.82407
#
# Velocity S-wave (km/s) = 4.53475 3.63170 4.10811
# Velocity P-wave (km/s) = 7.06231 7.81031 7.44571
#
# Compressibility (1/GPa) = 0.01754824
#
# Stress axis : x y z
#
# Youngs Moduli (GPa) = 41.34171 198.56216 206.02016
#
# Poissons Ratio (x) = 0.94154 0.50527
# Poissons Ratio (y) = 0.19603 0.22063
# Poissons Ratio (z) = 0.10139 0.21265
#
# Static dielectric constant tensor:
#      x y z
#    x 2.033220 0.000000 -0.017220 
#    y 0.000000 2.023780 0.000000 
#    z -0.017220 0.000000 1.948890 
# 
# From -- ./inp_files/10803.got.cif
#   From: 2010.05.17/outbox.cif.g08.bks.cpg/sg11_6_cif.got.tgz:10803.got - 2010.06.03 12:22:45.
