data_PCOD9157201
_publ_section_title
;
Structure prediction by ZEFSAII (Michael W. Deem and Ramdas Pophale) SiO2 
 PCOD9157201
Probable space group: P 21/M
;
_chemical_formula_sum "Si O2"
_cell_formula_units_Z 32
_cell_length_a 16.080825
_cell_length_b 7.793580
_cell_length_c 12.355408
_cell_angle_alpha 90.000000
_cell_angle_beta 80.691481
_cell_angle_gamma 90.000000
_cell_volume 1528.077907
_symmetry_space_group_name_H-M "P 21/M"
_symmetry_group_IT_number 11
_symmetry_cell_setting 'monoclinic'
loop_
_space_group_symop_operation_xyz
x,y,z
-x,1/2+y,-z
-x,-y,-z
x,1/2-y,z
loop_
_atom_site_type_symbol
_atom_site_label
_atom_site_fract_x
_atom_site_fract_y
_atom_site_fract_z
Si Si1 0.748685 0.449533 0.682744
Si Si2 0.098456 0.455061 0.482532
Si Si3 0.781262 0.039268 0.909938
Si Si4 0.973059 0.456181 0.884083
Si Si5 0.132032 0.042635 0.715343
Si Si6 0.715664 0.456487 0.155610
Si Si7 0.608651 0.550087 0.549204
Si Si8 0.433135 0.550920 0.673115
O O1 0.725861 0.250000 0.686316
O O2 0.845577 0.467311 0.624871
O O3 0.738665 0.515880 0.806910
O O4 0.689794 0.537397 0.606873
O O5 0.106703 0.250000 0.474477
O O6 0.135797 0.515500 0.590355
O O7 0.000000 0.500000 0.500000
O O8 0.781523 0.250000 0.910190
O O9 0.878418 0.981125 0.886293
O O10 0.739492 0.981297 0.030786
O O11 0.971082 0.250000 0.874017
O O12 0.044738 0.520433 0.787390
O O13 0.000000 0.500000 0.000000
O O14 0.129699 0.250000 0.713350
O O15 0.208975 0.992915 0.776247
O O16 0.708789 0.250000 0.150523
O O17 0.628614 0.525917 0.224084
O O18 0.592705 0.750000 0.527418
O O19 0.526135 0.479123 0.629275
O O20 0.614766 0.459769 0.432127
O O21 0.446195 0.750000 0.699167
#
# Coordination Sequence:
#
# PCOD9157201 Si02
#       8
#     4   4   4   4   4   4   4   4
#     4  11  22  38  58  79 109 149 188 222 266 327
#     4  11  23  39  57  80 111 146 183 226 274 321
#     4   9  19  35  54  75 105 144 183 224 269 320
#     4  10  18  32  51  73 101 136 175 214 258 308
#     4  10  21  34  51  77 110 140 172 221 276 321
#     4  10  19  34  56  80 104 136 181 225 270 324
#     4  10  20  36  57  83 113 142 177 224 277 330
#     4   9  19  35  58  85 110 138 177 227 278 331
#
# _framework density 20.941341000000001
#
# number of rings (size 3 to 8) (size 9 to 14) (size 15 to 20)
#    0.000    2.000    1.250    2.625    0.000    6.000 
#    0.000    4.375    0.000    0.000    0.000    0.000 
#    0.000    0.000    0.000    0.000    0.000    0.000 
#
# Total GULP energy -178732.720295 kJ/mol
# GULP energy per Si atom -5585.397509 kJ/mol
# Density = 2.089368 g / cm^3
# Si number density = 20.941341 Si / 1000 Ang^3
#
#
#
# Elastic Constant Matrix: (Units=GPa)
#
#
# Indices 1 2 3 4 5 6 
#
# 1 72.3473 -6.5702 28.8240 0.0000 -13.3819 0.0000
# 2 -6.5702 32.9615 -4.6012 0.0000 -3.5225 0.0000
# 3 28.8240 -4.6012 111.6891 0.0000 -17.5214 0.0000
# 4 0.0000 0.0000 0.0000 15.5447 0.0000 2.0542
# 5 -13.3819 -3.5225 -17.5214 0.0000 37.5795 0.0000
# 6 0.0000 0.0000 0.0000 2.0542 0.0000 19.3483
#
#
#
# Elastic Compliance Matrix: (Units=1/GPa)
#
#
# Indices 1 2 3 4 5 6 
#
# 1 0.016297 0.003265 -0.003359 0.000000 0.004544 0.000000
# 2 0.003265 0.031657 0.001197 0.000000 0.004688 0.000000
# 3 -0.003359 0.001197 0.010465 0.000000 0.003795 0.000000
# 4 0.000000 0.000000 0.000000 0.065246 0.000000 -0.006927
# 5 0.004544 0.004688 0.003795 0.000000 0.030437 0.000000
# 6 0.000000 0.000000 0.000000 -0.006927 0.000000 0.052420
#
#
# Mechanical properties :
#
#
# Convention : Reuss Voigt Hill
#
# Bulk Modulus (GPa) = 16.49435 28.03366 22.26401
# Shear Modulus (GPa) = 22.26934 27.78419 25.02676
#
# Velocity S-wave (km/s) = 3.26454 3.64643 3.46076
# Velocity P-wave (km/s) = 4.70140 5.58072 5.15983
#
# Compressibility (1/GPa) = 0.06062681
#
# Stress axis : x y z
#
# Youngs Moduli (GPa) = 61.36005 31.58822 95.55728
#
# Poissons Ratio (x) = -0.10314 0.32094
# Poissons Ratio (y) = -0.20036 -0.11438
# Poissons Ratio (z) = 0.20608 -0.03781
#
# Static dielectric constant tensor:
#      x y z
#    x 1.746390 0.000000 -0.029270 
#    y 0.000000 1.776300 0.000000 
#    z -0.029270 0.000000 1.750490 
# 
# From -- ./inp_files/38086.got.cif
#   From: 2010.05.17/outbox.cif.g08.bks.cpg/sg11_20_cif.got.tgz:38086.got - 2010.06.03 12:22:45.
