data_PCOD9157108
_publ_section_title
;
Structure prediction by ZEFSAII (Michael W. Deem and Ramdas Pophale) SiO2 
 PCOD9157108
Probable space group: P 21/M
;
_chemical_formula_sum "Si O2"
_cell_formula_units_Z 20
_cell_length_a 16.095396
_cell_length_b 13.523383
_cell_length_c 8.049445
_cell_angle_alpha 90.000000
_cell_angle_beta 27.991957
_cell_angle_gamma 90.000000
_cell_volume 822.332709
_symmetry_space_group_name_H-M "P 21/M"
_symmetry_group_IT_number 11
_symmetry_cell_setting 'monoclinic'
loop_
_space_group_symop_operation_xyz
x,y,z
-x,1/2+y,-z
-x,-y,-z
x,1/2-y,z
loop_
_atom_site_type_symbol
_atom_site_label
_atom_site_fract_x
_atom_site_fract_y
_atom_site_fract_z
Si Si1 0.029632 0.554853 0.166466
Si Si2 0.842756 0.361426 0.737211
Si Si3 0.812411 0.865134 0.251898
Si Si4 0.552392 0.038450 0.088358
Si Si5 0.604703 0.140873 0.471620
O O1 0.875940 0.593689 0.319331
O O2 0.019341 0.591894 0.374744
O O3 0.089316 0.440396 0.047755
O O4 0.206888 0.610223 0.778724
O O5 0.893531 0.250000 0.605122
O O6 0.750196 0.420543 0.752767
O O7 0.669626 0.357611 0.167100
O O8 0.854643 0.750000 0.160494
O O9 0.603635 0.883211 0.599928
O O10 0.531183 0.944719 0.247723
O O11 0.500000 0.000000 0.000000
O O12 0.547011 0.250000 0.624929
#
# Coordination Sequence:
#
# PCOD9157108 Si02
#       5
#     4   4   4   4   4
#     4   8  17  32  53  79  99 126 171 218 256 299
#     4   9  17  34  55  73  97 134 175 210 259 310
#     4  10  18  31  53  79 105 132 169 215 261 300
#     4  11  22  32  45  75 110 137 168 211 256 309
#     4   8  16  31  53  70  92 130 172 211 251 303
#
# _framework density 24.321055999999999
#
# number of rings (size 3 to 8) (size 9 to 14) (size 15 to 20)
#    1.200    1.600    0.000    2.400    0.000    1.600 
#    0.000    1.000    0.000    0.000    0.000    0.000 
#    0.000    0.000    0.000    0.000    0.000    0.000 
#
# Total GULP energy -111595.957809 kJ/mol
# GULP energy per Si atom -5579.797890 kJ/mol
# Density = 2.426570 g / cm^3
# Si number density = 24.321056 Si / 1000 Ang^3
#
#
#
# Elastic Constant Matrix: (Units=GPa)
#
#
# Indices 1 2 3 4 5 6 
#
# 1 111.5407 20.1077 15.1807 0.0000 -26.6969 0.0000
# 2 20.1077 171.2199 4.5440 0.0000 -2.7985 0.0000
# 3 15.1807 4.5440 58.5564 0.0000 -14.0716 0.0000
# 4 0.0000 0.0000 0.0000 5.4665 0.0000 -3.6071
# 5 -26.6969 -2.7985 -14.0716 0.0000 34.4400 0.0000
# 6 0.0000 0.0000 0.0000 -3.6071 0.0000 29.9250
#
#
#
# Elastic Compliance Matrix: (Units=1/GPa)
#
#
# Indices 1 2 3 4 5 6 
#
# 1 0.011277 -0.001166 -0.000837 0.000000 0.008305 0.000000
# 2 -0.001166 0.005976 -0.000290 0.000000 -0.000537 0.000000
# 3 -0.000837 -0.000290 0.019023 0.000000 0.007100 0.000000
# 4 0.000000 0.000000 0.000000 0.198738 0.000000 0.023955
# 5 0.008305 -0.000537 0.007100 0.000000 0.038331 0.000000
# 6 0.000000 0.000000 0.000000 0.023955 0.000000 0.036304
#
#
# Mechanical properties :
#
#
# Convention : Reuss Voigt Hill
#
# Bulk Modulus (GPa) = 31.55716 46.77574 39.16645
# Shear Modulus (GPa) = 15.39400 34.06527 24.72964
#
# Velocity S-wave (km/s) = 2.51858 3.74659 3.19219
# Velocity P-wave (km/s) = 4.63261 6.16362 5.45212
#
# Compressibility (1/GPa) = 0.03168853
#
# Stress axis : x y z
#
# Youngs Moduli (GPa) = 88.67340 167.32608 52.56694
#
# Poissons Ratio (x) = 0.19517 0.04402
# Poissons Ratio (y) = 0.10343 0.01527
# Poissons Ratio (z) = 0.07425 0.04860
#
# Static dielectric constant tensor:
#      x y z
#    x 1.975180 0.000000 0.048280 
#    y 0.000000 1.992880 0.000000 
#    z 0.048280 0.000000 2.071450 
# 
# From -- ./inp_files/24793.got.cif
#   From: 2010.05.17/outbox.cif.g08.bks.cpg/sg11_13_cif.got.tgz:24793.got - 2010.06.03 12:22:45.
