data_PCOD9157615
_publ_section_title
;
Structure prediction by ZEFSAII (Michael W. Deem and Ramdas Pophale) SiO2 
 PCOD9157615
Probable space group: P 21/M
;
_chemical_formula_sum "Si O2"
_cell_formula_units_Z 32
_cell_length_a 14.318138
_cell_length_b 7.505231
_cell_length_c 22.948174
_cell_angle_alpha 90.000000
_cell_angle_beta 143.339565
_cell_angle_gamma 90.000000
_cell_volume 1472.397163
_symmetry_space_group_name_H-M "P 21/M"
_symmetry_group_IT_number 11
_symmetry_cell_setting 'monoclinic'
loop_
_space_group_symop_operation_xyz
x,y,z
-x,1/2+y,-z
-x,-y,-z
x,1/2-y,z
loop_
_atom_site_type_symbol
_atom_site_label
_atom_site_fract_x
_atom_site_fract_y
_atom_site_fract_z
Si Si1 0.683946 0.964060 0.092764
Si Si2 0.801170 0.468466 0.506432
Si Si3 0.508471 0.463147 0.435913
Si Si4 0.795720 0.534971 0.786110
Si Si5 0.150379 0.037196 0.707415
Si Si6 0.145904 0.460463 0.937212
Si Si7 0.343987 0.963502 0.687934
Si Si8 0.704674 0.968131 0.868147
O O1 0.703117 0.750000 0.102584
O O2 0.765522 0.032949 0.192446
O O3 0.766133 0.034001 0.075310
O O4 0.500000 0.000000 0.000000
O O5 0.803873 0.250000 0.507714
O O6 0.667699 0.526767 0.485026
O O7 0.748572 0.526788 0.415561
O O8 0.974442 0.530650 0.609497
O O9 0.500000 0.500000 0.500000
O O10 0.508551 0.250000 0.428521
O O11 0.354677 0.530077 0.325165
O O12 0.790198 0.750000 0.783784
O O13 0.783035 0.474151 0.846841
O O14 0.960244 0.482561 0.840945
O O15 0.137373 0.250000 0.707631
O O16 0.254594 0.005436 0.702538
O O17 0.180548 0.250000 0.955856
O O18 0.208203 0.531744 0.030180
O O19 0.351794 0.750000 0.686928
O O20 0.523479 0.025601 0.778148
O O21 0.706979 0.750000 0.869067
#
# Coordination Sequence:
#
# PCOD9157615 Si02
#       8
#     4   4   4   4   4   4   4   4
#     4  10  22  39  57  80 110 144 183 224 270 324
#     4   9  18  35  58  80 107 145 181 216 268 327
#     4  10  21  37  58  82 110 146 183 220 269 326
#     4  10  20  36  56  81 110 142 181 224 268 319
#     4  10  21  35  53  80 112 142 176 223 274 323
#     4  10  21  35  55  82 109 142 183 224 267 319
#     4  10  18  34  59  82 105 141 184 223 265 318
#     4   9  17  33  56  80 108 141 181 222 264 319
#
# _framework density 21.733267000000001
#
# number of rings (size 3 to 8) (size 9 to 14) (size 15 to 20)
#    0.000    2.250    1.250    1.500    1.750    2.500 
#    0.000    2.500    0.000    0.000    0.000    0.000 
#    0.000    0.000    0.000    0.000    0.000    0.000 
#
# Total GULP energy -178855.284557 kJ/mol
# GULP energy per Si atom -5589.227642 kJ/mol
# Density = 2.168380 g / cm^3
# Si number density = 21.733267 Si / 1000 Ang^3
#
#
#
# Elastic Constant Matrix: (Units=GPa)
#
#
# Indices 1 2 3 4 5 6 
#
# 1 195.1615 -7.5470 71.4791 0.0000 0.4466 0.0000
# 2 -7.5470 54.7607 -7.4116 0.0000 -4.2092 0.0000
# 3 71.4791 -7.4116 88.4502 0.0000 8.5283 0.0000
# 4 0.0000 0.0000 0.0000 12.6780 0.0000 3.1918
# 5 0.4466 -4.2092 8.5283 0.0000 41.9012 0.0000
# 6 0.0000 0.0000 0.0000 3.1918 0.0000 21.4180
#
#
#
# Elastic Compliance Matrix: (Units=1/GPa)
#
#
# Indices 1 2 3 4 5 6 
#
# 1 0.007337 0.000287 -0.006018 0.000000 0.001176 0.000000
# 2 0.000287 0.018584 0.001169 0.000000 0.001626 0.000000
# 3 -0.006018 0.001169 0.016575 0.000000 -0.003192 0.000000
# 4 0.000000 0.000000 0.000000 0.081951 0.000000 -0.012213
# 5 0.001176 0.001626 -0.003192 0.000000 0.024666 0.000000
# 6 0.000000 0.000000 0.000000 -0.012213 0.000000 0.048510
#
#
# Mechanical properties :
#
#
# Convention : Reuss Voigt Hill
#
# Bulk Modulus (GPa) = 29.96691 50.15705 40.06198
# Shear Modulus (GPa) = 22.94932 33.98958 28.46945
#
# Velocity S-wave (km/s) = 3.25307 3.95896 3.62325
# Velocity P-wave (km/s) = 5.28473 6.63524 5.99812
#
# Compressibility (1/GPa) = 0.03337014
#
# Stress axis : x y z
#
# Youngs Moduli (GPa) = 136.30359 53.80981 60.33200
#
# Poissons Ratio (x) = -0.01544 0.36309
# Poissons Ratio (y) = -0.03911 -0.07050
# Poissons Ratio (z) = 0.82030 -0.06288
#
# Static dielectric constant tensor:
#      x y z
#    x 1.749720 0.000000 -0.013610 
#    y 0.000000 1.844750 0.000000 
#    z -0.013610 0.000000 1.759060 
# 
# From -- ./inp_files/44220.got.cif
#   From: 2010.05.17/outbox.cif.g08.bks.cpg/sg11_23_cif.got.tgz:44220.got - 2010.06.03 12:22:45.
