data_PCOD9157051
_publ_section_title
;
Structure prediction by ZEFSAII (Michael W. Deem and Ramdas Pophale) SiO2 
 PCOD9157051
Probable space group: P 21/M
;
_chemical_formula_sum "Si O2"
_cell_formula_units_Z 32
_cell_length_a 16.098177
_cell_length_b 8.518128
_cell_length_c 16.132773
_cell_angle_alpha 90.000000
_cell_angle_beta 123.953744
_cell_angle_gamma 90.000000
_cell_volume 1835.018230
_symmetry_space_group_name_H-M "P 21/M"
_symmetry_group_IT_number 11
_symmetry_cell_setting 'monoclinic'
loop_
_space_group_symop_operation_xyz
x,y,z
-x,1/2+y,-z
-x,-y,-z
x,1/2-y,z
loop_
_atom_site_type_symbol
_atom_site_label
_atom_site_fract_x
_atom_site_fract_y
_atom_site_fract_z
Si Si1 0.270771 0.562346 0.925645
Si Si2 0.920932 0.937754 0.271181
Si Si3 0.348502 0.062289 0.455850
Si Si4 0.459795 0.439547 0.350899
Si Si5 0.144436 0.939682 0.413073
Si Si6 0.591676 0.939796 0.862243
Si Si7 0.817701 0.060404 0.377055
Si Si8 0.384347 0.940421 0.825281
O O1 0.272733 0.750000 0.926845
O O2 0.160932 0.507564 0.836870
O O3 0.345880 0.505618 0.893791
O O4 0.311994 0.499022 0.034926
O O5 0.916581 0.750000 0.264039
O O6 0.035133 0.989276 0.320423
O O7 0.887870 0.989084 0.345188
O O8 0.349862 0.250000 0.458368
O O9 0.390335 0.009780 0.389266
O O10 0.428688 0.999322 0.567322
O O11 0.238201 0.002533 0.414333
O O12 0.463411 0.250000 0.352645
O O13 0.419357 0.491010 0.239153
O O14 0.148061 0.750000 0.414296
O O15 0.156248 0.989766 0.515755
O O16 0.591901 0.750000 0.863418
O O17 0.492293 0.996402 0.855903
O O18 0.825780 0.250000 0.376712
O O19 0.703791 0.018178 0.288379
O O20 0.388388 0.750000 0.829831
#
# Coordination Sequence:
#
# PCOD9157051 Si02
#       8
#     4   4   4   4   4   4   4   4
#     4  10  20  33  47  68 100 132 165 206 246 285
#     4  10  20  33  49  71  98 131 170 206 244 291
#     4  10  20  33  52  78 104 130 162 200 243 294
#     4   9  19  35  53  75 104 133 160 198 248 296
#     4  10  20  33  51  73  99 132 167 204 247 295
#     4  10  18  31  52  72  94 129 168 201 240 292
#     4   9  17  31  49  71 101 133 163 198 244 292
#     4   8  15  27  45  69  96 127 158 189 231 284
#
# _framework density 17.438517000000001
#
# number of rings (size 3 to 8) (size 9 to 14) (size 15 to 20)
#    0.000    2.500    0.000    3.375    0.000    4.500 
#    0.000    2.500    0.000    0.750    0.000    0.000 
#    0.000    0.000    0.000    0.000    0.000    0.000 
#
# Total GULP energy -178541.383540 kJ/mol
# GULP energy per Si atom -5579.418236 kJ/mol
# Density = 1.739883 g / cm^3
# Si number density = 17.438517 Si / 1000 Ang^3
#
#
#
# Elastic Constant Matrix: (Units=GPa)
#
#
# Indices 1 2 3 4 5 6 
#
# 1 105.9741 17.5743 68.5994 0.0000 19.8851 0.0000
# 2 17.5743 14.0270 24.8260 0.0000 0.4830 0.0000
# 3 68.5994 24.8260 141.2253 0.0000 4.7211 0.0000
# 4 0.0000 0.0000 0.0000 20.4752 0.0000 2.7582
# 5 19.8851 0.4830 4.7211 0.0000 14.7448 0.0000
# 6 0.0000 0.0000 0.0000 2.7582 0.0000 23.2557
#
#
#
# Elastic Compliance Matrix: (Units=1/GPa)
#
#
# Indices 1 2 3 4 5 6 
#
# 1 0.020925 -0.012860 -0.007050 0.000000 -0.025541 0.000000
# 2 -0.012860 0.111481 -0.013958 0.000000 0.018161 0.000000
# 3 -0.007050 -0.013958 0.012762 0.000000 0.005878 0.000000
# 4 0.000000 0.000000 0.000000 0.049632 0.000000 -0.005886
# 5 -0.025541 0.018161 0.005878 0.000000 0.099789 0.000000
# 6 0.000000 0.000000 0.000000 -0.005886 0.000000 0.043698
#
#
# Mechanical properties :
#
#
# Convention : Reuss Voigt Hill
#
# Bulk Modulus (GPa) = 12.91428 53.69174 33.30301
# Shear Modulus (GPa) = 11.57850 21.71026 16.64438
#
# Velocity S-wave (km/s) = 2.57954 3.53223 3.09279
# Velocity P-wave (km/s) = 4.03655 6.89141 5.64735
#
# Compressibility (1/GPa) = 0.07743368
#
# Stress axis : x y z
#
# Youngs Moduli (GPa) = 47.78982 8.97011 78.35565
#
# Poissons Ratio (x) = 0.11536 0.55238
# Poissons Ratio (y) = 0.61459 1.09366
# Poissons Ratio (z) = 0.33690 0.12520
#
# Static dielectric constant tensor:
#      x y z
#    x 1.587320 0.000000 -0.000930 
#    y 0.000000 1.591110 0.000000 
#    z -0.000930 0.000000 1.590780 
# 
# From -- ./inp_files/51655.got.cif
#   From: 2010.05.17/outbox.cif.g08.bks.cpg/sg11_26_cif.got.tgz:51655.got - 2010.06.03 12:22:45.
