data_PCOD9157978
_publ_section_title
;
Structure prediction by ZEFSAII (Michael W. Deem and Ramdas Pophale) SiO2 
 PCOD9157978
Probable space group: P 21/M
;
_chemical_formula_sum "Si O2"
_cell_formula_units_Z 28
_cell_length_a 17.169077
_cell_length_b 8.574833
_cell_length_c 22.026817
_cell_angle_alpha 90.000000
_cell_angle_beta 148.447391
_cell_angle_gamma 90.000000
_cell_volume 1696.912805
_symmetry_space_group_name_H-M "P 21/M"
_symmetry_group_IT_number 11
_symmetry_cell_setting 'monoclinic'
loop_
_space_group_symop_operation_xyz
x,y,z
-x,1/2+y,-z
-x,-y,-z
x,1/2-y,z
loop_
_atom_site_type_symbol
_atom_site_label
_atom_site_fract_x
_atom_site_fract_y
_atom_site_fract_z
Si Si1 0.192623 0.561789 0.073956
Si Si2 0.123843 0.564021 0.166752
Si Si3 0.339555 0.434852 0.412541
Si Si4 0.737264 0.063237 0.506385
Si Si5 0.017259 0.938935 0.419612
Si Si6 0.763220 0.563128 0.329991
Si Si7 0.520848 0.939251 0.256965
O O1 0.180887 0.750000 0.062307
O O2 0.185973 0.520054 0.141124
O O3 0.349970 0.512152 0.150430
O O4 0.047940 0.487962 0.947079
O O5 0.134400 0.750000 0.179514
O O6 0.219748 0.486664 0.282978
O O7 0.500000 0.500000 0.500000
O O8 0.348400 0.250000 0.420746
O O9 0.294688 0.497289 0.448812
O O10 0.726470 0.250000 0.500761
O O11 0.901674 0.020799 0.589483
O O12 0.617297 0.000476 0.377893
O O13 0.025066 0.750000 0.430707
O O14 0.849038 0.988255 0.325628
O O15 0.123528 0.014490 0.541149
O O16 0.753630 0.750000 0.320357
O O17 0.604380 0.508023 0.250491
O O18 0.524195 0.750000 0.261548
#
# Coordination Sequence:
#
# PCOD9157978 Si02
#       7
#     4   4   4   4   4   4   4
#     4   9  18  32  49  69  93 121 153 190 230 272
#     4  10  20  34  51  70  93 122 156 190 227 271
#     4  12  24  37  52  70  94 122 154 190 229 273
#     4  10  19  30  45  67  96 128 160 192 230 275
#     4   8  14  24  38  59  89 122 154 188 226 271
#     4   8  13  22  38  61  89 121 154 188 228 271
#     4   9  16  27  45  69  97 127 159 194 232 275
#
# _framework density 16.500551999999999
#
# number of rings (size 3 to 8) (size 9 to 14) (size 15 to 20)
#    0.000    2.571    0.000    3.000    0.000    2.857 
#    0.000    0.000    0.000    0.000    0.000    1.000 
#    0.000    0.000    0.000    0.000    0.000    0.000 
#
# Total GULP energy -155924.927090 kJ/mol
# GULP energy per Si atom -5568.747396 kJ/mol
# Density = 1.646300 g / cm^3
# Si number density = 16.500552 Si / 1000 Ang^3
#
#
#
# Elastic Constant Matrix: (Units=GPa)
#
#
# Indices 1 2 3 4 5 6 
#
# 1 173.6643 33.8620 70.2728 0.0000 32.8319 0.0000
# 2 33.8620 29.6531 22.0673 0.0000 5.0347 0.0000
# 3 70.2728 22.0673 63.2440 0.0000 14.7511 0.0000
# 4 0.0000 0.0000 0.0000 23.3958 0.0000 -0.2533
# 5 32.8319 5.0347 14.7511 0.0000 27.4868 0.0000
# 6 0.0000 0.0000 0.0000 -0.2533 0.0000 17.0329
#
#
#
# Elastic Compliance Matrix: (Units=1/GPa)
#
#
# Indices 1 2 3 4 5 6 
#
# 1 0.012453 -0.005343 -0.009981 0.000000 -0.008540 0.000000
# 2 -0.005343 0.047845 -0.011661 0.000000 0.003877 0.000000
# 3 -0.009981 -0.011661 0.031655 0.000000 -0.002930 0.000000
# 4 0.000000 0.000000 0.000000 0.042750 0.000000 0.000636
# 5 -0.008540 0.003877 -0.002930 0.000000 0.047444 0.000000
# 6 0.000000 0.000000 0.000000 0.000636 0.000000 0.058719
#
#
# Mechanical properties :
#
#
# Convention : Reuss Voigt Hill
#
# Bulk Modulus (GPa) = 26.32880 57.66283 41.99581
# Shear Modulus (GPa) = 16.26028 22.94039 19.60034
#
# Velocity S-wave (km/s) = 3.14258 3.73269 3.45027
# Velocity P-wave (km/s) = 5.39988 7.32115 6.43264
#
# Compressibility (1/GPa) = 0.03798122
#
# Stress axis : x y z
#
# Youngs Moduli (GPa) = 80.29879 20.90089 31.59103
#
# Poissons Ratio (x) = 0.11168 0.31532
# Poissons Ratio (y) = 0.42906 0.36839
# Poissons Ratio (z) = 0.80149 0.24373
#
# Static dielectric constant tensor:
#      x y z
#    x 1.660920 0.000000 0.022580 
#    y 0.000000 1.548520 0.000000 
#    z 0.022580 0.000000 1.516940 
# 
# From -- ./inp_files/42607.got.cif
#   From: 2010.05.17/outbox.cif.g08.bks.cpg/sg11_22_cif.got.tgz:42607.got - 2010.06.03 12:22:45.
