data_PCOD9157167
_publ_section_title
;
Structure prediction by ZEFSAII (Michael W. Deem and Ramdas Pophale) SiO2 
 PCOD9157167
Probable space group: P 21/M
;
_chemical_formula_sum "Si O2"
_cell_formula_units_Z 28
_cell_length_a 12.279182
_cell_length_b 17.243743
_cell_length_c 9.662068
_cell_angle_alpha 90.000000
_cell_angle_beta 142.583250
_cell_angle_gamma 90.000000
_cell_volume 1243.067152
_symmetry_space_group_name_H-M "P 21/M"
_symmetry_group_IT_number 11
_symmetry_cell_setting 'monoclinic'
loop_
_space_group_symop_operation_xyz
x,y,z
-x,1/2+y,-z
-x,-y,-z
x,1/2-y,z
loop_
_atom_site_type_symbol
_atom_site_label
_atom_site_fract_x
_atom_site_fract_y
_atom_site_fract_z
Si Si1 0.030573 0.162556 0.488723
Si Si2 0.554408 0.842725 0.106647
Si Si3 0.770932 0.842051 0.849412
Si Si4 0.722688 0.162548 0.949879
Si Si5 0.002696 0.066869 0.117208
Si Si6 0.943254 0.425189 0.666192
Si Si7 0.421539 0.843378 0.663312
O O1 0.030633 0.250000 0.553925
O O2 0.896726 0.168185 0.225670
O O3 0.956239 0.101364 0.521928
O O4 0.235773 0.144939 0.661131
O O5 0.520509 0.750000 0.076888
O O6 0.433343 0.872452 0.111432
O O7 0.498039 0.865585 0.893886
O O8 0.795239 0.750000 0.875431
O O9 0.569198 0.858760 0.694515
O O10 0.841333 0.875189 0.774592
O O11 0.897132 0.881079 0.092534
O O12 0.676596 0.250000 0.854813
O O13 0.809326 0.108210 0.922439
O O14 0.037392 0.016559 0.289385
O O15 0.000000 0.000000 0.000000
O O16 0.757893 0.391634 0.536659
O O17 0.387212 0.750000 0.630550
#
# Coordination Sequence:
#
# PCOD9157167 Si02
#       7
#     4   4   4   4   4   4   4
#     4  10  18  32  58  89 115 142 182 234 290 339
#     4   9  17  31  55  89 116 136 179 237 284 332
#     4  10  20  37  60  80 109 151 199 239 270 325
#     4  10  20  38  62  84 112 146 186 234 281 332
#     4  10  24  41  56  78 115 159 195 227 276 334
#     4  11  20  34  56  85 120 147 179 232 290 341
#     4  10  18  31  57  89 112 143 189 234 283 334
#
# _framework density 22.524930000000001
#
# number of rings (size 3 to 8) (size 9 to 14) (size 15 to 20)
#    0.000    2.000    2.857    1.714    0.000    1.143 
#    0.000    6.429    0.000    8.571    0.000    0.000 
#    0.000    0.000    0.000    0.000    0.000    0.000 
#
# Total GULP energy -156433.957885 kJ/mol
# GULP energy per Si atom -5586.927067 kJ/mol
# Density = 2.247366 g / cm^3
# Si number density = 22.524930 Si / 1000 Ang^3
#
#
#
# Elastic Constant Matrix: (Units=GPa)
#
#
# Indices 1 2 3 4 5 6 
#
# 1 110.8086 29.6528 -5.4165 0.0000 25.4163 0.0000
# 2 29.6528 58.8761 -4.8943 0.0000 9.0235 0.0000
# 3 -5.4165 -4.8943 39.5158 0.0000 16.1650 0.0000
# 4 0.0000 0.0000 0.0000 -6.7266 0.0000 -8.2717
# 5 25.4163 9.0235 16.1650 0.0000 41.2023 0.0000
# 6 0.0000 0.0000 0.0000 -8.2717 0.0000 34.6860
#
#
#
# Elastic Compliance Matrix: (Units=1/GPa)
#
#
# Indices 1 2 3 4 5 6 
#
# 1 0.012413 -0.004574 0.004595 0.000000 -0.008459 0.000000
# 2 -0.004574 0.019948 0.002950 0.000000 -0.002705 0.000000
# 3 0.004595 0.002950 0.033026 0.000000 -0.016438 0.000000
# 4 0.000000 0.000000 0.000000 -0.114954 0.000000 -0.027413
# 5 -0.008459 -0.002705 -0.016438 0.000000 0.036530 0.000000
# 6 0.000000 0.000000 0.000000 -0.027413 0.000000 0.022293
#
#
# Mechanical properties :
#
#
# Convention : Reuss Voigt Hill
#
# Bulk Modulus (GPa) = 14.01907 27.54272 20.78089
# Shear Modulus (GPa) = 184.57731 26.48958 105.53345
#
# Velocity S-wave (km/s) = 9.06209 3.43302 6.85227
# Velocity P-wave (km/s) = 10.75791 5.28852 8.47647
#
# Compressibility (1/GPa) = 0.07133141
#
# Stress axis : x y z
#
# Youngs Moduli (GPa) = 80.55925 50.13009 30.27919
#
# Poissons Ratio (x) = 0.22927 -0.13914
# Poissons Ratio (y) = 0.36844 -0.08933
# Poissons Ratio (z) = -0.37019 -0.14790
#
# Static dielectric constant tensor:
#      x y z
#    x 1.961480 0.000000 -0.059910 
#    y 0.000000 1.910010 0.000000 
#    z -0.059910 0.000000 1.830970 
# 
# From -- ./inp_files/36300.got.cif
#   From: 2010.05.17/outbox.cif.g08.bks.cpg/sg11_19_cif.got.tgz:36300.got - 2010.06.03 12:22:45.
