data_PCOD9157751
_publ_section_title
;
Structure prediction by ZEFSAII (Michael W. Deem and Ramdas Pophale) SiO2 
 PCOD9157751
Probable space group: P 21/M
;
_chemical_formula_sum "Si O2"
_cell_formula_units_Z 22
_cell_length_a 6.868102
_cell_length_b 20.052111
_cell_length_c 7.177293
_cell_angle_alpha 90.000000
_cell_angle_beta 106.188181
_cell_angle_gamma 90.000000
_cell_volume 949.265293
_symmetry_space_group_name_H-M "P 21/M"
_symmetry_group_IT_number 11
_symmetry_cell_setting 'monoclinic'
loop_
_space_group_symop_operation_xyz
x,y,z
-x,1/2+y,-z
-x,-y,-z
x,1/2-y,z
loop_
_atom_site_type_symbol
_atom_site_label
_atom_site_fract_x
_atom_site_fract_y
_atom_site_fract_z
Si Si1 0.774244 0.892667 0.874293
Si Si2 0.659172 0.750000 0.689270
Si Si3 0.866739 0.108062 0.734422
Si Si4 0.764778 0.250000 0.593170
Si Si5 0.558135 0.897939 0.150836
Si Si6 0.732017 0.517319 0.512355
Si Si7 0.391390 0.250000 0.741210
O O1 0.738190 0.816877 0.802364
O O2 0.806035 0.934702 0.697343
O O3 0.577392 0.918024 0.939970
O O4 0.959221 0.900038 0.066193
O O5 0.411368 0.750000 0.611925
O O6 0.719818 0.750000 0.487624
O O7 0.878423 0.180153 0.637374
O O8 0.657168 0.102377 0.800838
O O9 0.851370 0.051504 0.571267
O O10 0.628332 0.250000 0.745014
O O11 0.706989 0.943217 0.313930
O O12 0.636763 0.820984 0.171652
O O13 0.500000 0.500000 0.500000
#
# Coordination Sequence:
#
# PCOD9157751 Si02
#       7
#     4   2   4   2   4   4   2
#     4  12  22  36  64  91 111 157 200 238 288 347
#     4  10  18  36  64  82 119 159 187 233 305 343
#     4  10  21  38  60  87 119 147 199 246 284 341
#     4   8  17  38  61  78 114 158 180 237 296 337
#     4  10  21  39  62  82 121 157 193 238 294 346
#     4  10  21  40  59  83 122 161 186 242 298 341
#     4   8  15  36  61  78 113 157 183 230 289 342
#
# _framework density 23.175818
#
# number of rings (size 3 to 8) (size 9 to 14) (size 15 to 20)
#    0.545    1.455    1.818    2.727    0.000    3.636 
#    0.000    5.455    4.000    0.000    0.000    0.000 
#    0.000    0.000    0.000    0.000    0.000    0.000 
#
# Total GULP energy -122826.602061 kJ/mol
# GULP energy per Si atom -5583.027366 kJ/mol
# Density = 2.312307 g / cm^3
# Si number density = 23.175818 Si / 1000 Ang^3
#
#
#
# Elastic Constant Matrix: (Units=GPa)
#
#
# Indices 1 2 3 4 5 6 
#
# 1 61.7512 2.7435 1.7002 0.0000 9.1044 0.0000
# 2 2.7435 138.2910 41.8673 0.0000 6.3811 0.0000
# 3 1.7002 41.8673 85.0434 0.0000 0.4685 0.0000
# 4 0.0000 0.0000 0.0000 11.0139 0.0000 6.1508
# 5 9.1044 6.3811 0.4685 0.0000 47.0846 0.0000
# 6 0.0000 0.0000 0.0000 6.1508 0.0000 8.2620
#
#
#
# Elastic Compliance Matrix: (Units=1/GPa)
#
#
# Indices 1 2 3 4 5 6 
#
# 1 0.016679 -0.000103 -0.000265 0.000000 -0.003209 0.000000
# 2 -0.000103 0.008557 -0.004204 0.000000 -0.001098 0.000000
# 3 -0.000265 -0.004204 0.013831 0.000000 0.000483 0.000000
# 4 0.000000 0.000000 0.000000 0.155404 0.000000 -0.115694
# 5 -0.003209 -0.001098 0.000483 0.000000 0.022003 0.000000
# 6 0.000000 0.000000 0.000000 -0.115694 0.000000 0.207166
#
#
# Mechanical properties :
#
#
# Convention : Reuss Voigt Hill
#
# Bulk Modulus (GPa) = 33.41981 41.96752 37.69366
# Shear Modulus (GPa) = 11.29283 29.19039 20.24161
#
# Velocity S-wave (km/s) = 2.20981 3.55282 2.95853
# Velocity P-wave (km/s) = 4.57847 5.91419 5.28867
#
# Compressibility (1/GPa) = 0.02992238
#
# Stress axis : x y z
#
# Youngs Moduli (GPa) = 59.95585 116.86742 72.30032
#
# Poissons Ratio (x) = 0.01198 0.01918
# Poissons Ratio (y) = 0.00615 0.30398
# Poissons Ratio (z) = 0.01591 0.49136
#
# Static dielectric constant tensor:
#      x y z
#    x 1.943030 0.000000 -0.024450 
#    y 0.000000 1.895870 0.000000 
#    z -0.024450 0.000000 1.811740 
# 
# From -- ./inp_files/13296.got.cif
#   From: 2010.05.17/outbox.cif.g08.bks.cpg/sg11_7_cif.got.tgz:13296.got - 2010.06.03 12:22:45.
