data_PCOD9157121
_publ_section_title
;
Structure prediction by ZEFSAII (Michael W. Deem and Ramdas Pophale) SiO2 
 PCOD9157121
Probable space group: P 21/M
;
_chemical_formula_sum "Si O2"
_cell_formula_units_Z 32
_cell_length_a 12.633087
_cell_length_b 7.804007
_cell_length_c 16.338659
_cell_angle_alpha 90.000000
_cell_angle_beta 82.622064
_cell_angle_gamma 90.000000
_cell_volume 1597.470763
_symmetry_space_group_name_H-M "P 21/M"
_symmetry_group_IT_number 11
_symmetry_cell_setting 'monoclinic'
loop_
_space_group_symop_operation_xyz
x,y,z
-x,1/2+y,-z
-x,-y,-z
x,1/2-y,z
loop_
_atom_site_type_symbol
_atom_site_label
_atom_site_fract_x
_atom_site_fract_y
_atom_site_fract_z
Si Si1 0.551351 0.948805 0.262626
Si Si2 0.222384 0.047863 0.778834
Si Si3 0.608868 0.945629 0.447262
Si Si4 0.686045 0.451944 0.694863
Si Si5 0.025854 0.545917 0.904834
Si Si6 0.923052 0.045629 0.361352
Si Si7 0.803409 0.056008 0.523219
Si Si8 0.883554 0.957934 0.768744
O O1 0.540328 0.750000 0.235611
O O2 0.659586 0.024197 0.212455
O O3 0.586637 0.952081 0.353794
O O4 0.431644 0.024387 0.274156
O O5 0.236182 0.250000 0.763750
O O6 0.138261 0.021359 0.859712
O O7 0.165510 0.981794 0.701240
O O8 0.636669 0.750000 0.465977
O O9 0.500000 0.000000 0.500000
O O10 0.702831 0.061543 0.471434
O O11 0.668953 0.250000 0.676778
O O12 0.751698 0.525263 0.610002
O O13 0.766980 0.472542 0.761491
O O14 0.030507 0.750000 0.896839
O O15 0.935604 0.486488 0.849267
O O16 0.000000 0.500000 0.000000
O O17 0.932277 0.250000 0.370998
O O18 0.890964 0.973329 0.453663
O O19 0.033539 0.983552 0.310480
O O20 0.837358 0.250000 0.541153
O O21 0.879933 0.750000 0.767334
#
# Coordination Sequence:
#
# PCOD9157121 Si02
#       8
#     4   4   4   4   4   4   4   4
#     4   9  18  31  47  71 105 139 175 221 264 301
#     4  10  18  31  53  81 110 137 169 212 263 312
#     4  11  19  30  45  67  98 136 182 233 274 307
#     4  10  20  34  49  69 102 146 188 221 257 307
#     4  10  21  39  63  89 112 130 157 203 257 314
#     4   9  18  32  49  70 102 139 177 228 278 308
#     4  10  19  31  47  69  99 139 185 232 274 306
#     4   9  20  37  52  74 107 136 167 212 260 311
#
# _framework density 20.031666000000001
#
# number of rings (size 3 to 8) (size 9 to 14) (size 15 to 20)
#    0.000    2.250    2.500    1.875    0.000    3.500 
#    0.000    1.250    0.000    0.750    0.000    0.000 
#    0.000    0.000    0.000    0.000    0.000    0.000 
#
# Total GULP energy -178382.082420 kJ/mol
# GULP energy per Si atom -5574.440076 kJ/mol
# Density = 1.998607 g / cm^3
# Si number density = 20.031666 Si / 1000 Ang^3
#
#
#
# Elastic Constant Matrix: (Units=GPa)
#
#
# Indices 1 2 3 4 5 6 
#
# 1 140.6198 1.9695 63.6958 0.0000 0.2043 0.0000
# 2 1.9695 36.4097 0.4369 0.0000 1.2750 0.0000
# 3 63.6958 0.4369 79.3873 0.0000 -16.2342 0.0000
# 4 0.0000 0.0000 0.0000 15.0143 0.0000 5.8001
# 5 0.2043 1.2750 -16.2342 0.0000 20.6370 0.0000
# 6 0.0000 0.0000 0.0000 5.8001 0.0000 13.4207
#
#
#
# Elastic Compliance Matrix: (Units=1/GPa)
#
#
# Indices 1 2 3 4 5 6 
#
# 1 0.012595 -0.000200 -0.012069 0.000000 -0.009606 0.000000
# 2 -0.000200 0.027552 -0.000404 0.000000 -0.002018 0.000000
# 3 -0.012069 -0.000404 0.026589 0.000000 0.021060 0.000000
# 4 0.000000 0.000000 0.000000 0.079951 0.000000 -0.034553
# 5 -0.009606 -0.002018 0.021060 0.000000 0.065244 0.000000
# 6 0.000000 0.000000 0.000000 -0.034553 0.000000 0.089445
#
#
# Mechanical properties :
#
#
# Convention : Reuss Voigt Hill
#
# Bulk Modulus (GPa) = 24.16039 43.18013 33.67026
# Shear Modulus (GPa) = 14.68358 22.50204 18.59281
#
# Velocity S-wave (km/s) = 2.71037 3.35524 3.04989
# Velocity P-wave (km/s) = 4.67783 6.05086 5.40809
#
# Compressibility (1/GPa) = 0.04139007
#
# Stress axis : x y z
#
# Youngs Moduli (GPa) = 79.39787 36.29558 37.61010
#
# Poissons Ratio (x) = 0.00726 0.45390
# Poissons Ratio (y) = 0.01589 0.01518
# Poissons Ratio (z) = 0.95822 0.01465
#
# Static dielectric constant tensor:
#      x y z
#    x 1.753660 0.000000 -0.021610 
#    y 0.000000 1.757990 0.000000 
#    z -0.021610 0.000000 1.641030 
# 
# From -- ./inp_files/49294.got.cif
#   From: 2010.05.17/outbox.cif.g08.bks.cpg/sg11_25_cif.got.tgz:49294.got - 2010.06.03 12:22:45.
