data_PCOD9157920
_publ_section_title
;
Structure prediction by ZEFSAII (Michael W. Deem and Ramdas Pophale) SiO2 
 PCOD9157920
Probable space group: P 21/M
;
_chemical_formula_sum "Si O2"
_cell_formula_units_Z 32
_cell_length_a 7.245447
_cell_length_b 11.793314
_cell_length_c 28.087254
_cell_angle_alpha 90.000000
_cell_angle_beta 32.024817
_cell_angle_gamma 90.000000
_cell_volume 1272.685009
_symmetry_space_group_name_H-M "P 21/M"
_symmetry_group_IT_number 11
_symmetry_cell_setting 'monoclinic'
loop_
_space_group_symop_operation_xyz
x,y,z
-x,1/2+y,-z
-x,-y,-z
x,1/2-y,z
loop_
_atom_site_type_symbol
_atom_site_label
_atom_site_fract_x
_atom_site_fract_y
_atom_site_fract_z
Si Si1 0.469931 0.877365 0.363463
Si Si2 0.084825 0.624537 0.305024
Si Si3 0.977328 0.365744 0.033729
Si Si4 0.458608 0.124267 0.378642
Si Si5 0.627594 0.876310 0.488802
Si Si6 0.207613 0.072676 0.881736
Si Si7 0.197949 0.376984 0.163530
Si Si8 0.927340 0.372265 0.845084
O O1 0.302336 0.750000 0.404393
O O2 0.728908 0.870913 0.262641
O O3 0.728411 0.888521 0.353232
O O4 0.293445 0.002794 0.399016
O O5 0.220305 0.750000 0.262820
O O6 0.396696 0.545464 0.220206
O O7 0.996225 0.623987 0.380126
O O8 0.030881 0.250000 0.047820
O O9 0.032962 0.464360 0.057882
O O10 0.572730 0.373390 0.106918
O O11 0.189203 0.374799 0.938359
O O12 0.331962 0.250000 0.389026
O O13 0.414344 0.125485 0.445337
O O14 0.860248 0.118224 0.272488
O O15 0.479398 0.750000 0.506040
O O16 0.500000 0.000000 0.500000
O O17 0.035925 0.135108 0.875869
O O18 0.168841 0.250000 0.146181
O O19 0.203523 0.498808 0.135616
O O20 0.751836 0.250000 0.871388
#
# Coordination Sequence:
#
# PCOD9157920 Si02
#       8
#     4   4   4   4   4   4   4   4
#     4   9  17  30  50  75 101 134 180 224 263 316
#     4  10  19  33  53  77 106 142 181 225 275 326
#     4  10  22  39  58  81 108 146 192 231 278 338
#     4   9  16  28  47  73 102 133 168 218 273 316
#     4  10  19  29  48  80 107 135 179 228 276 324
#     4  11  22  37  56  79 114 148 179 229 282 332
#     4   9  19  37  59  81 110 147 187 233 280 328
#     4  10  20  34  55  83 111 145 188 229 275 331
#
# _framework density 25.143691
#
# number of rings (size 3 to 8) (size 9 to 14) (size 15 to 20)
#    0.000    2.250    1.250    2.625    0.000    1.000 
#    0.000    3.125    0.000    3.000    0.000    1.750 
#    0.000    0.000    0.000    0.000    0.000    0.000 
#
# Total GULP energy -178221.959480 kJ/mol
# GULP energy per Si atom -5569.436234 kJ/mol
# Density = 2.508646 g / cm^3
# Si number density = 25.143691 Si / 1000 Ang^3
#
#
#
# Elastic Constant Matrix: (Units=GPa)
#
#
# Indices 1 2 3 4 5 6 
#
# 1 54.6352 43.7536 38.2974 0.0000 8.6627 0.0000
# 2 43.7536 282.8367 29.3459 0.0000 15.3421 0.0000
# 3 38.2974 29.3459 99.7349 0.0000 7.1159 0.0000
# 4 0.0000 0.0000 0.0000 -83.8767 0.0000 -78.0080
# 5 8.6627 15.3421 7.1159 0.0000 39.4193 0.0000
# 6 0.0000 0.0000 0.0000 -78.0080 0.0000 -58.5207
#
#
#
# Elastic Compliance Matrix: (Units=1/GPa)
#
#
# Indices 1 2 3 4 5 6 
#
# 1 0.028103 -0.003175 -0.009629 0.000000 -0.003202 0.000000
# 2 -0.003175 0.004067 0.000087 0.000000 -0.000901 0.000000
# 3 -0.009629 0.000087 0.013727 0.000000 -0.000396 0.000000
# 4 0.000000 0.000000 0.000000 0.049732 0.000000 -0.066292
# 5 -0.003202 -0.000901 -0.000396 0.000000 0.026494 0.000000
# 6 0.000000 0.000000 0.000000 -0.066292 0.000000 0.071279
#
#
# Mechanical properties :
#
#
# Convention : Reuss Voigt Hill
#
# Bulk Modulus (GPa) = 48.86922 73.33341 61.10132
# Shear Modulus (GPa) = 22.15774 1.12504 11.64139
#
# Velocity S-wave (km/s) = 2.97180 0.66964 2.15406
# Velocity P-wave (km/s) = 5.59049 5.46140 5.52633
#
# Compressibility (1/GPa) = 0.02046278
#
# Stress axis : x y z
#
# Youngs Moduli (GPa) = 35.58388 245.90759 72.85118
#
# Poissons Ratio (x) = 0.78067 0.70146
# Poissons Ratio (y) = 0.11297 -0.00632
# Poissons Ratio (z) = 0.34262 -0.02133
#
# Static dielectric constant tensor:
#      x y z
#    x 1.995600 0.000000 -0.030820 
#    y 0.000000 1.970180 0.000000 
#    z -0.030820 0.000000 1.926210 
# 
# From -- ./inp_files/72846.got.cif
#   From: 2010.05.17/outbox.cif.g08.bks.cpg/sg11_37_cif.got.tgz:72846.got - 2010.06.03 12:22:45.
