data_PCOD9157079
_publ_section_title
;
Structure prediction by ZEFSAII (Michael W. Deem and Ramdas Pophale) SiO2 
 PCOD9157079
Probable space group: P 21/M
;
_chemical_formula_sum "Si O2"
_cell_formula_units_Z 32
_cell_length_a 25.209489
_cell_length_b 8.647374
_cell_length_c 16.202912
_cell_angle_alpha 90.000000
_cell_angle_beta 153.171148
_cell_angle_gamma 90.000000
_cell_volume 1594.162657
_symmetry_space_group_name_H-M "P 21/M"
_symmetry_group_IT_number 11
_symmetry_cell_setting 'monoclinic'
loop_
_space_group_symop_operation_xyz
x,y,z
-x,1/2+y,-z
-x,-y,-z
x,1/2-y,z
loop_
_atom_site_type_symbol
_atom_site_label
_atom_site_fract_x
_atom_site_fract_y
_atom_site_fract_z
Si Si1 0.803980 0.436673 0.894526
Si Si2 0.591683 0.564993 0.694591
Si Si3 0.751393 0.064425 0.635843
Si Si4 0.924471 0.934716 0.318193
Si Si5 0.723956 0.433218 0.140383
Si Si6 0.493060 0.063111 0.239610
Si Si7 0.126575 0.434814 0.501605
Si Si8 0.074006 0.064272 0.250612
O O1 0.800811 0.250000 0.899283
O O2 0.721688 0.509041 0.850017
O O3 0.750367 0.478961 0.730627
O O4 0.939573 0.486841 0.077019
O O5 0.500000 0.500000 0.500000
O O6 0.587311 0.750000 0.685367
O O7 0.552520 0.518254 0.732144
O O8 0.756956 0.250000 0.641652
O O9 0.629174 0.016178 0.424303
O O10 0.862733 0.000847 0.741653
O O11 0.930454 0.750000 0.322240
O O12 0.794988 0.988377 0.162906
O O13 0.000000 0.000000 0.500000
O O14 0.993851 0.010309 0.339098
O O15 0.737015 0.250000 0.153021
O O16 0.784921 0.490327 0.309653
O O17 0.590605 0.486182 0.943968
O O18 0.485244 0.250000 0.222145
O O19 0.131697 0.250000 0.518594
O O20 0.146035 0.477140 0.433507
O O21 0.071217 0.250000 0.240793
#
# Coordination Sequence:
#
# PCOD9157079 Si02
#       8
#     4   4   4   4   4   4   4   4
#     4  10  21  40  61  89 124 157 194 242 296 350
#     4  11  22  38  61  90 124 159 196 240 296 355
#     4  10  21  40  63  84 118 158 196 242 295 352
#     4  10  18  31  52  78 111 149 187 233 285 347
#     4  11  22  36  57  85 114 154 199 243 294 354
#     4  10  22  40  59  86 121 159 198 241 295 349
#     4  10  20  37  56  82 118 155 194 246 298 345
#     4  10  23  39  61  89 119 153 198 249 295 345
#
# _framework density 20.073233999999999
#
# number of rings (size 3 to 8) (size 9 to 14) (size 15 to 20)
#    0.000    1.750    1.250    4.875    1.750    3.500 
#    0.000    0.625    0.000    0.000    0.000    0.000 
#    0.000    0.000    0.000    0.000    0.000    0.000 
#
# Total GULP energy -178753.213996 kJ/mol
# GULP energy per Si atom -5586.037937 kJ/mol
# Density = 2.002755 g / cm^3
# Si number density = 20.073234 Si / 1000 Ang^3
#
#
#
# Elastic Constant Matrix: (Units=GPa)
#
#
# Indices 1 2 3 4 5 6 
#
# 1 54.6461 7.5678 2.9716 0.0000 14.4344 0.0000
# 2 7.5678 43.0695 13.3098 0.0000 -1.1075 0.0000
# 3 2.9716 13.3098 92.4384 0.0000 13.9562 0.0000
# 4 0.0000 0.0000 0.0000 22.3540 0.0000 8.9917
# 5 14.4344 -1.1075 13.9562 0.0000 26.6902 0.0000
# 6 0.0000 0.0000 0.0000 8.9917 0.0000 23.9783
#
#
#
# Elastic Compliance Matrix: (Units=1/GPa)
#
#
# Indices 1 2 3 4 5 6 
#
# 1 0.022399 -0.004898 0.002003 0.000000 -0.013364 0.000000
# 2 -0.004898 0.025606 -0.004440 0.000000 0.006034 0.000000
# 3 0.002003 -0.004440 0.012577 0.000000 -0.007844 0.000000
# 4 0.000000 0.000000 0.000000 0.052681 0.000000 -0.019755
# 5 -0.013364 0.006034 -0.007844 0.000000 0.049046 0.000000
# 6 0.000000 0.000000 0.000000 -0.019755 0.000000 0.049112
#
#
# Mechanical properties :
#
#
# Convention : Reuss Voigt Hill
#
# Bulk Modulus (GPa) = 21.78127 26.42803 24.10465
# Shear Modulus (GPa) = 20.71270 25.69149 23.20210
#
# Velocity S-wave (km/s) = 3.21574 3.58143 3.40350
# Velocity P-wave (km/s) = 4.96613 5.50424 5.24209
#
# Compressibility (1/GPa) = 0.04591101
#
# Stress axis : x y z
#
# Youngs Moduli (GPa) = 44.64468 39.05282 79.50859
#
# Poissons Ratio (x) = 0.19130 -0.15925
# Poissons Ratio (y) = 0.21869 0.35305
# Poissons Ratio (z) = -0.08942 0.17341
#
# Static dielectric constant tensor:
#      x y z
#    x 1.704360 0.000000 0.011180 
#    y 0.000000 1.668370 0.000000 
#    z 0.011180 0.000000 1.716040 
# 
# From -- ./inp_files/55773.got.cif
#   From: 2010.05.17/outbox.cif.g08.bks.cpg/sg11_28_cif.got.tgz:55773.got - 2010.06.03 12:22:45.
