data_PCOD9157038
_publ_section_title
;
Structure prediction by ZEFSAII (Michael W. Deem and Ramdas Pophale) SiO2 
 PCOD9157038
Probable space group: P 21/M
;
_chemical_formula_sum "Si O2"
_cell_formula_units_Z 32
_cell_length_a 18.446534
_cell_length_b 8.935694
_cell_length_c 13.023000
_cell_angle_alpha 90.000000
_cell_angle_beta 76.478844
_cell_angle_gamma 90.000000
_cell_volume 2087.118419
_symmetry_space_group_name_H-M "P 21/M"
_symmetry_group_IT_number 11
_symmetry_cell_setting 'monoclinic'
loop_
_space_group_symop_operation_xyz
x,y,z
-x,1/2+y,-z
-x,-y,-z
x,1/2-y,z
loop_
_atom_site_type_symbol
_atom_site_label
_atom_site_fract_x
_atom_site_fract_y
_atom_site_fract_z
Si Si1 0.844545 0.928576 0.438294
Si Si2 0.419458 0.572068 0.012770
Si Si3 0.279076 0.073705 0.143401
Si Si4 0.308100 0.426483 0.910252
Si Si5 0.035564 0.571523 0.887538
Si Si6 0.990981 0.429611 0.692870
Si Si7 0.169162 0.928345 0.343747
Si Si8 0.807381 0.569631 0.221894
O O1 0.840193 0.750000 0.455732
O O2 0.931855 0.967583 0.390375
O O3 0.803575 0.964462 0.344408
O O4 0.814916 0.011310 0.547928
O O5 0.577298 0.250000 0.981793
O O6 0.619120 0.480446 0.081603
O O7 0.500000 0.500000 0.000000
O O8 0.639747 0.495034 0.885319
O O9 0.286239 0.250000 0.161411
O O10 0.222717 0.000086 0.240896
O O11 0.256415 0.056578 0.030051
O O12 0.327105 0.250000 0.897830
O O13 0.263671 0.470688 0.823687
O O14 0.034056 0.750000 0.893390
O O15 0.992531 0.513473 0.800787
O O16 0.119727 0.511861 0.845488
O O17 0.000000 0.500000 0.000000
O O18 0.992519 0.250000 0.710487
O O19 0.916586 0.467115 0.655591
O O20 0.176476 0.750000 0.337994
O O21 0.818290 0.750000 0.209278
#
# Coordination Sequence:
#
# PCOD9157038 Si02
#       8
#     4   4   4   4   4   4   4   4
#     4   9  18  33  51  68  92 129 168 209 253 295
#     4  10  18  31  51  77 108 135 160 191 232 284
#     4   9  19  33  49  73 101 130 163 195 240 292
#     4   8  17  32  51  73  99 129 159 192 235 285
#     4  11  22  32  45  64  89 122 159 201 249 299
#     4   9  20  36  49  65  90 124 167 212 256 298
#     4  11  21  32  49  71  98 127 164 213 253 293
#     4   9  18  35  52  68  94 124 160 203 244 289
#
# _framework density 15.332144
#
# number of rings (size 3 to 8) (size 9 to 14) (size 15 to 20)
#    0.750    1.750    0.000    3.750    1.750    3.500 
#    0.000    0.000    0.000    0.000    0.000    0.875 
#    0.000    0.000    0.000    0.000    0.000    0.000 
#
# Total GULP energy -178206.825045 kJ/mol
# GULP energy per Si atom -5568.963283 kJ/mol
# Density = 1.529725 g / cm^3
# Si number density = 15.332144 Si / 1000 Ang^3
#
#
#
# Elastic Constant Matrix: (Units=GPa)
#
#
# Indices 1 2 3 4 5 6 
#
# 1 93.5851 43.1482 51.3450 0.0000 15.4474 0.0000
# 2 43.1482 58.2222 37.9033 0.0000 9.4994 0.0000
# 3 51.3450 37.9033 70.4118 0.0000 11.1575 0.0000
# 4 0.0000 0.0000 0.0000 24.9970 0.0000 -0.8046
# 5 15.4474 9.4994 11.1575 0.0000 14.4126 0.0000
# 6 0.0000 0.0000 0.0000 -0.8046 0.0000 23.3536
#
#
#
# Elastic Compliance Matrix: (Units=1/GPa)
#
#
# Indices 1 2 3 4 5 6 
#
# 1 0.021286 -0.007791 -0.009719 0.000000 -0.010155 0.000000
# 2 -0.007791 0.029986 -0.009862 0.000000 -0.003779 0.000000
# 3 -0.009719 -0.009862 0.027261 0.000000 -0.004188 0.000000
# 4 0.000000 0.000000 0.000000 0.040049 0.000000 0.001380
# 5 -0.010155 -0.003779 -0.004188 0.000000 0.086001 0.000000
# 6 0.000000 0.000000 0.000000 0.001380 0.000000 0.042867
#
#
# Mechanical properties :
#
#
# Convention : Reuss Voigt Hill
#
# Bulk Modulus (GPa) = 42.03327 54.11246 48.07287
# Shear Modulus (GPa) = 16.12256 18.54081 17.33168
#
# Velocity S-wave (km/s) = 3.24628 3.48124 3.36581
# Velocity P-wave (km/s) = 6.44405 7.17836 6.82109
#
# Compressibility (1/GPa) = 0.02379068
#
# Stress axis : x y z
#
# Youngs Moduli (GPa) = 46.97919 33.34883 36.68180
#
# Poissons Ratio (x) = 0.25982 0.35650
# Poissons Ratio (y) = 0.36602 0.36174
# Poissons Ratio (z) = 0.45658 0.32887
#
# Static dielectric constant tensor:
#      x y z
#    x 1.503530 0.000000 0.018130 
#    y 0.000000 1.510830 0.000000 
#    z 0.018130 0.000000 1.501120 
# 
# From -- ./inp_files/52936.got.cif
#   From: 2010.05.17/outbox.cif.g08.bks.cpg/sg11_27_cif.got.tgz:52936.got - 2010.06.03 12:22:45.
