data_PCOD9157433
_publ_section_title
;
Structure prediction by ZEFSAII (Michael W. Deem and Ramdas Pophale) SiO2 
 PCOD9157433
Probable space group: P 21/M
;
_chemical_formula_sum "Si O2"
_cell_formula_units_Z 28
_cell_length_a 7.226842
_cell_length_b 16.791611
_cell_length_c 16.492904
_cell_angle_alpha 90.000000
_cell_angle_beta 37.833713
_cell_angle_gamma 90.000000
_cell_volume 1227.614234
_symmetry_space_group_name_H-M "P 21/M"
_symmetry_group_IT_number 11
_symmetry_cell_setting 'monoclinic'
loop_
_space_group_symop_operation_xyz
x,y,z
-x,1/2+y,-z
-x,-y,-z
x,1/2-y,z
loop_
_atom_site_type_symbol
_atom_site_label
_atom_site_fract_x
_atom_site_fract_y
_atom_site_fract_z
Si Si1 0.676290 0.394378 0.104478
Si Si2 0.213620 0.616847 0.766081
Si Si3 0.443868 0.335299 0.604290
Si Si4 0.968478 0.058575 0.837577
Si Si5 0.015674 0.132914 0.323781
Si Si6 0.252440 0.536375 0.257903
Si Si7 0.838482 0.843470 0.479685
O O1 0.847677 0.357020 0.121048
O O2 0.363890 0.347328 0.206125
O O3 0.558422 0.485701 0.167032
O O4 0.832499 0.402712 0.964667
O O5 0.032513 0.534212 0.824918
O O6 0.579958 0.617906 0.626817
O O7 0.102264 0.659148 0.723284
O O8 0.347983 0.250000 0.670557
O O9 0.291578 0.403660 0.707175
O O10 0.310208 0.343926 0.559389
O O11 0.800218 0.337274 0.468592
O O12 0.756703 0.070275 0.831115
O O13 0.008095 0.036249 0.337077
O O14 0.132972 0.601190 0.363147
O O15 0.890243 0.750000 0.481397
#
# Coordination Sequence:
#
# PCOD9157433 Si02
#       7
#     4   4   4   4   4   4   4
#     4  10  20  33  54  81 108 136 173 219 265 311
#     4  10  19  32  56  78 106 139 174 217 263 310
#     4   9  17  33  56  77 105 143 178 217 265 312
#     4  10  18  33  54  80 109 139 176 216 263 314
#     4   8  18  34  54  79 104 133 180 220 259 305
#     4   8  17  31  54  76 104 135 173 220 258 305
#     4   9  17  32  53  78 104 139 177 215 265 312
#
# _framework density 22.808468999999999
#
# number of rings (size 3 to 8) (size 9 to 14) (size 15 to 20)
#    0.857    2.000    0.000    1.714    0.000    4.000 
#    0.000    2.143    0.000    0.857    0.000    0.000 
#    0.000    0.000    0.000    0.000    0.000    0.000 
#
# Total GULP energy -156000.098487 kJ/mol
# GULP energy per Si atom -5571.432089 kJ/mol
# Density = 2.275656 g / cm^3
# Si number density = 22.808469 Si / 1000 Ang^3
#
#
#
# Elastic Constant Matrix: (Units=GPa)
#
#
# Indices 1 2 3 4 5 6 
#
# 1 67.5624 1.2465 20.3909 0.0000 13.2607 0.0000
# 2 1.2465 40.7762 11.8217 0.0000 3.0458 0.0000
# 3 20.3909 11.8217 78.2800 0.0000 15.2474 0.0000
# 4 0.0000 0.0000 0.0000 -45.7105 0.0000 -6.9589
# 5 13.2607 3.0458 15.2474 0.0000 24.3348 0.0000
# 6 0.0000 0.0000 0.0000 -6.9589 0.0000 3.6925
#
#
#
# Elastic Compliance Matrix: (Units=1/GPa)
#
#
# Indices 1 2 3 4 5 6 
#
# 1 0.017214 0.000952 -0.003164 0.000000 -0.007517 0.000000
# 2 0.000952 0.025717 -0.003877 0.000000 -0.001309 0.000000
# 3 -0.003164 -0.003877 0.015666 0.000000 -0.007607 0.000000
# 4 0.000000 0.000000 0.000000 -0.017000 0.000000 -0.032037
# 5 -0.007517 -0.001309 -0.007607 0.000000 0.050120 0.000000
# 6 0.000000 0.000000 0.000000 -0.032037 0.000000 0.210441
#
#
# Mechanical properties :
#
#
# Convention : Reuss Voigt Hill
#
# Bulk Modulus (GPa) = 21.54230 28.17074 24.85652
# Shear Modulus (GPa) = 15.16038 6.67401 10.91720
#
# Velocity S-wave (km/s) = 2.58094 1.71244 2.19017
# Velocity P-wave (km/s) = 4.28334 4.03581 4.16142
#
# Compressibility (1/GPa) = 0.04642031
#
# Stress axis : x y z
#
# Youngs Moduli (GPa) = 58.09299 38.88520 63.83331
#
# Poissons Ratio (x) = -0.03704 0.20194
# Poissons Ratio (y) = -0.05533 0.24747
# Poissons Ratio (z) = 0.18378 0.15075
#
# Static dielectric constant tensor:
#      x y z
#    x 1.934250 0.000000 -0.010100 
#    y 0.000000 1.848720 0.000000 
#    z -0.010100 0.000000 1.815450 
# 
# From -- ./inp_files/58382.got.cif
#   From: 2010.05.17/outbox.cif.g08.bks.cpg/sg11_30_cif.got.tgz:58382.got - 2010.06.03 12:22:45.
