data_PCOD9157434
_publ_section_title
;
Structure prediction by ZEFSAII (Michael W. Deem and Ramdas Pophale) SiO2 
 PCOD9157434
Probable space group: P 21/M
;
_chemical_formula_sum "Si O2"
_cell_formula_units_Z 32
_cell_length_a 11.377162
_cell_length_b 8.435937
_cell_length_c 26.220073
_cell_angle_alpha 90.000000
_cell_angle_beta 144.357261
_cell_angle_gamma 90.000000
_cell_volume 1466.452646
_symmetry_space_group_name_H-M "P 21/M"
_symmetry_group_IT_number 11
_symmetry_cell_setting 'monoclinic'
loop_
_space_group_symop_operation_xyz
x,y,z
-x,1/2+y,-z
-x,-y,-z
x,1/2-y,z
loop_
_atom_site_type_symbol
_atom_site_label
_atom_site_fract_x
_atom_site_fract_y
_atom_site_fract_z
Si Si1 0.659710 0.941881 0.515526
Si Si2 0.163572 0.069163 0.597443
Si Si3 0.657558 0.932507 0.012589
Si Si4 0.457544 0.568615 0.341021
Si Si5 0.215213 0.936196 0.054547
Si Si6 0.962304 0.935962 0.799425
Si Si7 0.962288 0.057790 0.290371
Si Si8 0.388494 0.563644 0.770209
O O1 0.668733 0.750000 0.517047
O O2 0.578737 0.996323 0.432657
O O3 0.874268 0.001200 0.611256
O O4 0.500000 0.000000 0.500000
O O5 0.106268 0.250000 0.591075
O O6 0.376840 0.075115 0.643836
O O7 0.225307 0.965259 0.667899
O O8 0.000000 0.000000 0.500000
O O9 0.600501 0.750000 0.985563
O O10 0.874677 0.958341 0.115054
O O11 0.500000 0.000000 0.000000
O O12 0.700863 0.000317 0.970708
O O13 0.390392 0.750000 0.328362
O O14 0.262447 0.466460 0.260342
O O15 0.190748 0.750000 0.040540
O O16 0.398764 0.975962 0.158070
O O17 0.000000 0.000000 0.000000
O O18 0.015955 0.750000 0.823507
O O19 0.967151 0.980418 0.741382
O O20 0.959571 0.250000 0.292604
O O21 0.737329 0.005633 0.224605
O O22 0.431592 0.750000 0.788966
#
# Coordination Sequence:
#
# PCOD9157434 Si02
#       8
#     4   4   4   4   4   4   4   4
#     4  10  18  33  54  82 118 163 208 259 318 384
#     4  11  24  43  65  92 129 174 225 277 333 400
#     4  12  26  47  73 103 140 180 227 286 349 418
#     4  10  22  38  58  85 125 168 211 266 332 396
#     4  12  27  49  75 106 141 184 235 291 354 423
#     4  11  22  38  64  96 129 168 217 269 328 403
#     4   9  19  36  60  90 128 169 211 263 325 387
#     4  11  23  43  70  98 133 177 221 275 338 403
#
# _framework density 21.821368
#
# number of rings (size 3 to 8) (size 9 to 14) (size 15 to 20)
#    0.000    1.250    1.250    4.875    1.750    4.000 
#    0.000    4.375    0.000    0.000    0.000    0.000 
#    0.000    0.000    0.000    0.000    0.000    0.000 
#
# Total GULP energy -178663.945421 kJ/mol
# GULP energy per Si atom -5583.248294 kJ/mol
# Density = 2.177170 g / cm^3
# Si number density = 21.821368 Si / 1000 Ang^3
#
#
#
# Elastic Constant Matrix: (Units=GPa)
#
#
# Indices 1 2 3 4 5 6 
#
# 1 92.5108 30.8745 31.8948 0.0000 18.1379 0.0000
# 2 30.8745 81.8732 12.4932 0.0000 7.5848 0.0000
# 3 31.8948 12.4932 115.1967 0.0000 21.3974 0.0000
# 4 0.0000 0.0000 0.0000 30.6375 0.0000 2.3740
# 5 18.1379 7.5848 21.3974 0.0000 33.4034 0.0000
# 6 0.0000 0.0000 0.0000 2.3740 0.0000 31.1194
#
#
#
# Elastic Compliance Matrix: (Units=1/GPa)
#
#
# Indices 1 2 3 4 5 6 
#
# 1 0.014162 -0.004490 -0.002492 0.000000 -0.005074 0.000000
# 2 -0.004490 0.013990 -0.000155 0.000000 -0.000639 0.000000
# 3 -0.002492 -0.000155 0.010363 0.000000 -0.005250 0.000000
# 4 0.000000 0.000000 0.000000 0.032834 0.000000 -0.002505
# 5 -0.005074 -0.000639 -0.005250 0.000000 0.036200 0.000000
# 6 0.000000 0.000000 0.000000 -0.002505 0.000000 0.032325
#
#
# Mechanical properties :
#
#
# Convention : Reuss Voigt Hill
#
# Bulk Modulus (GPa) = 41.25319 48.90066 45.07692
# Shear Modulus (GPa) = 30.82062 33.31992 32.07027
#
# Velocity S-wave (km/s) = 3.76228 3.91185 3.83779
# Velocity P-wave (km/s) = 6.14971 6.54688 6.35140
#
# Compressibility (1/GPa) = 0.02424055
#
# Stress axis : x y z
#
# Youngs Moduli (GPa) = 70.61143 71.47871 96.50038
#
# Poissons Ratio (x) = 0.32096 0.24044
# Poissons Ratio (y) = 0.31706 0.01499
# Poissons Ratio (z) = 0.17593 0.01110
#
# Static dielectric constant tensor:
#      x y z
#    x 1.868330 0.000000 -0.041970 
#    y 0.000000 1.796430 0.000000 
#    z -0.041970 0.000000 1.807870 
# 
# From -- ./inp_files/73204.got.cif
#   From: 2010.05.17/outbox.cif.g08.bks.cpg/sg11_37_cif.got.tgz:73204.got - 2010.06.03 12:22:45.
