data_PCOD9157833
_publ_section_title
;
Structure prediction by ZEFSAII (Michael W. Deem and Ramdas Pophale) SiO2 
 PCOD9157833
Probable space group: P 21/M
;
_chemical_formula_sum "Si O2"
_cell_formula_units_Z 28
_cell_length_a 14.955904
_cell_length_b 8.607224
_cell_length_c 30.016023
_cell_angle_alpha 90.000000
_cell_angle_beta 26.691648
_cell_angle_gamma 90.000000
_cell_volume 1735.632649
_symmetry_space_group_name_H-M "P 21/M"
_symmetry_group_IT_number 11
_symmetry_cell_setting 'monoclinic'
loop_
_space_group_symop_operation_xyz
x,y,z
-x,1/2+y,-z
-x,-y,-z
x,1/2-y,z
loop_
_atom_site_type_symbol
_atom_site_label
_atom_site_fract_x
_atom_site_fract_y
_atom_site_fract_z
Si Si1 0.279244 0.064187 0.411543
Si Si2 0.215022 0.434438 0.245706
Si Si3 0.689909 0.065825 0.889802
Si Si4 0.753811 0.435156 0.426090
Si Si5 0.118795 0.563159 0.725376
Si Si6 0.554345 0.936404 0.362631
Si Si7 0.151609 0.437790 0.371047
O O1 0.285241 0.250000 0.411750
O O2 0.267439 0.019439 0.364613
O O3 0.461847 0.994054 0.357620
O O4 0.070895 0.005150 0.525263
O O5 0.255882 0.250000 0.223176
O O6 0.317722 0.520923 0.159117
O O7 0.253193 0.485474 0.279426
O O8 0.977538 0.455647 0.344555
O O9 0.699934 0.250000 0.890032
O O10 0.893242 0.992242 0.818808
O O11 0.500000 0.000000 0.000000
O O12 0.718476 0.250000 0.439007
O O13 0.760937 0.495771 0.372353
O O14 0.597199 0.497702 0.531313
O O15 0.121667 0.750000 0.724046
O O16 0.230789 0.498664 0.718589
O O17 0.554169 0.750000 0.362981
O O18 0.132161 0.250000 0.378352
#
# Coordination Sequence:
#
# PCOD9157833 Si02
#       7
#     4   4   4   4   4   4   4
#     4  10  19  28  43  68  97 133 173 209 241 280
#     4   9  16  31  51  71  96 130 165 204 246 287
#     4  11  22  37  55  77  99 124 156 198 247 297
#     4   8  15  27  44  64  92 128 163 196 235 278
#     4  10  20  34  49  69  95 127 163 203 242 289
#     4  11  19  30  45  66  97 136 170 201 240 286
#     4   9  17  31  47  65  95 133 171 207 245 284
#
# _framework density 16.132446000000002
#
# number of rings (size 3 to 8) (size 9 to 14) (size 15 to 20)
#    0.000    2.286    1.429    3.857    0.000    1.143 
#    0.000    1.429    0.000    0.000    0.000    1.000 
#    0.000    0.000    0.000    0.000    0.000    0.000 
#
# Total GULP energy -156110.125310 kJ/mol
# GULP energy per Si atom -5575.361618 kJ/mol
# Density = 1.609573 g / cm^3
# Si number density = 16.132446 Si / 1000 Ang^3
#
#
#
# Elastic Constant Matrix: (Units=GPa)
#
#
# Indices 1 2 3 4 5 6 
#
# 1 140.8488 42.2736 45.1467 0.0000 6.6701 0.0000
# 2 42.2736 50.1005 22.3186 0.0000 4.7512 0.0000
# 3 45.1467 22.3186 62.7510 0.0000 9.3356 0.0000
# 4 0.0000 0.0000 0.0000 19.3078 0.0000 -1.1742
# 5 6.6701 4.7512 9.3356 0.0000 14.3791 0.0000
# 6 0.0000 0.0000 0.0000 -1.1742 0.0000 24.8588
#
#
#
# Elastic Compliance Matrix: (Units=1/GPa)
#
#
# Indices 1 2 3 4 5 6 
#
# 1 0.010870 -0.006785 -0.005524 0.000000 0.000786 0.000000
# 2 -0.006785 0.028042 -0.004629 0.000000 -0.003113 0.000000
# 3 -0.005524 -0.004629 0.023187 0.000000 -0.010962 0.000000
# 4 0.000000 0.000000 0.000000 0.051942 0.000000 0.002453
# 5 0.000786 -0.003113 -0.010962 0.000000 0.077326 0.000000
# 6 0.000000 0.000000 0.000000 0.002453 0.000000 0.040343
#
#
# Mechanical properties :
#
#
# Convention : Reuss Voigt Hill
#
# Bulk Modulus (GPa) = 35.43177 52.57536 44.00356
# Shear Modulus (GPa) = 18.18213 21.30657 19.74435
#
# Velocity S-wave (km/s) = 3.36080 3.63812 3.50221
# Velocity P-wave (km/s) = 6.08857 7.09285 6.60981
#
# Compressibility (1/GPa) = 0.02822326
#
# Stress axis : x y z
#
# Youngs Moduli (GPa) = 91.99876 35.66017 43.12669
#
# Poissons Ratio (x) = 0.24197 0.23823
# Poissons Ratio (y) = 0.62425 0.19963
# Poissons Ratio (z) = 0.50819 0.16507
#
# Static dielectric constant tensor:
#      x y z
#    x 1.577330 0.000000 0.018930 
#    y 0.000000 1.545670 0.000000 
#    z 0.018930 0.000000 1.517810 
# 
# From -- ./inp_files/56403.got.cif
#   From: 2010.05.17/outbox.cif.g08.bks.cpg/sg11_29_cif.got.tgz:56403.got - 2010.06.03 12:22:45.
