data_PCOD9157074
_publ_section_title
;
Structure prediction by ZEFSAII (Michael W. Deem and Ramdas Pophale) SiO2 
 PCOD9157074
Probable space group: P 21/M
;
_chemical_formula_sum "Si O2"
_cell_formula_units_Z 32
_cell_length_a 11.166815
_cell_length_b 8.636322
_cell_length_c 20.227312
_cell_angle_alpha 90.000000
_cell_angle_beta 121.709899
_cell_angle_gamma 90.000000
_cell_volume 1659.522415
_symmetry_space_group_name_H-M "P 21/M"
_symmetry_group_IT_number 11
_symmetry_cell_setting 'monoclinic'
loop_
_space_group_symop_operation_xyz
x,y,z
-x,1/2+y,-z
-x,-y,-z
x,1/2-y,z
loop_
_atom_site_type_symbol
_atom_site_label
_atom_site_fract_x
_atom_site_fract_y
_atom_site_fract_z
Si Si1 0.079407 0.562013 0.588322
Si Si2 0.589983 0.424136 0.083547
Si Si3 0.396387 0.426079 0.154370
Si Si4 0.893148 0.438550 0.156367
Si Si5 0.096268 0.060964 0.330141
Si Si6 0.133863 0.933811 0.003051
Si Si7 0.576946 0.937132 0.586432
Si Si8 0.409154 0.939063 0.670113
O O1 0.078485 0.750000 0.586811
O O2 0.245561 0.513293 0.633701
O O3 0.000000 0.500000 0.500000
O O4 0.991871 0.514431 0.629322
O O5 0.614637 0.250000 0.066168
O O6 0.505815 0.418922 0.126268
O O7 0.743471 0.489060 0.142549
O O8 0.500000 0.500000 0.000000
O O9 0.349556 0.250000 0.157416
O O10 0.266690 0.515075 0.084917
O O11 0.482907 0.491104 0.241246
O O12 0.906608 0.250000 0.160142
O O13 0.015710 0.492595 0.240402
O O14 0.878046 0.490686 0.076181
O O15 0.095697 0.250000 0.331122
O O16 0.259313 0.012270 0.371066
O O17 0.132118 0.750000 0.999831
O O18 0.000000 0.000000 0.000000
O O19 0.577989 0.750000 0.587219
O O20 0.483762 0.985312 0.623057
O O21 0.500000 0.000000 0.500000
O O22 0.406838 0.750000 0.672293
#
# Coordination Sequence:
#
# PCOD9157074 Si02
#       8
#     4   4   4   4   4   4   4   4
#     4  10  19  34  56  81 108 139 177 222 271 326
#     4  10  18  31  52  78 106 136 174 221 268 314
#     4  10  20  35  57  81 108 143 184 228 271 322
#     4   9  18  33  54  78 105 140 181 222 261 312
#     4   9  18  32  54  80 103 136 182 220 254 311
#     4  11  23  37  55  78 109 147 186 228 272 322
#     4  10  20  35  56  79 105 136 174 218 267 324
#     4   9  19  34  55  81 108 142 182 222 267 323
#
# _framework density 19.282657
#
# number of rings (size 3 to 8) (size 9 to 14) (size 15 to 20)
#    0.000    2.250    1.250    1.875    1.750    3.000 
#    0.000    1.250    0.000    4.500    0.000    0.000 
#    0.000    0.000    0.000    0.000    0.000    0.000 
#
# Total GULP energy -178278.178145 kJ/mol
# GULP energy per Si atom -5571.193067 kJ/mol
# Density = 1.923877 g / cm^3
# Si number density = 19.282657 Si / 1000 Ang^3
#
#
#
# Elastic Constant Matrix: (Units=GPa)
#
#
# Indices 1 2 3 4 5 6 
#
# 1 145.5391 19.3600 80.2504 0.0000 25.1809 0.0000
# 2 19.3600 6.1448 21.5989 0.0000 2.3232 0.0000
# 3 80.2504 21.5989 181.2892 0.0000 24.1260 0.0000
# 4 0.0000 0.0000 0.0000 29.2257 0.0000 1.6727
# 5 25.1809 2.3232 24.1260 0.0000 34.7905 0.0000
# 6 0.0000 0.0000 0.0000 1.6727 0.0000 12.3380
#
#
#
# Elastic Compliance Matrix: (Units=1/GPa)
#
#
# Indices 1 2 3 4 5 6 
#
# 1 0.013335 -0.037635 -0.000517 0.000000 -0.006780 0.000000
# 2 -0.037635 0.386966 -0.032642 0.000000 0.024036 0.000000
# 3 -0.000517 -0.032642 0.010239 0.000000 -0.004546 0.000000
# 4 0.000000 0.000000 0.000000 0.034484 0.000000 -0.004675
# 5 -0.006780 0.024036 -0.004546 0.000000 0.035199 0.000000
# 6 0.000000 0.000000 0.000000 -0.004675 0.000000 0.081685
#
#
# Mechanical properties :
#
#
# Convention : Reuss Voigt Hill
#
# Bulk Modulus (GPa) = 3.71814 63.93242 33.82528
# Shear Modulus (GPa) = 6.30401 29.38841 17.84621
#
# Velocity S-wave (km/s) = 1.81007 3.90819 3.04551
# Velocity P-wave (km/s) = 2.51016 7.32070 5.47236
#
# Compressibility (1/GPa) = 0.26895186
#
# Stress axis : x y z
#
# Youngs Moduli (GPa) = 74.98788 2.58421 97.66603
#
# Poissons Ratio (x) = 0.09726 0.05049
# Poissons Ratio (y) = 2.82215 3.18805
# Poissons Ratio (z) = 0.03877 0.08435
#
# Static dielectric constant tensor:
#      x y z
#    x 1.702190 0.000000 -0.058550 
#    y 0.000000 1.682030 0.000000 
#    z -0.058550 0.000000 1.826190 
# 
# From -- ./inp_files/59084.got.cif
#   From: 2010.05.17/outbox.cif.g08.bks.cpg/sg11_30_cif.got.tgz:59084.got - 2010.06.03 12:22:45.
