data_PCOD9157934
_publ_section_title
;
Structure prediction by ZEFSAII (Michael W. Deem and Ramdas Pophale) SiO2 
 PCOD9157934
Probable space group: P 21/M
;
_chemical_formula_sum "Si O2"
_cell_formula_units_Z 32
_cell_length_a 16.647807
_cell_length_b 9.019864
_cell_length_c 14.366904
_cell_angle_alpha 90.000000
_cell_angle_beta 92.297188
_cell_angle_gamma 90.000000
_cell_volume 2155.614302
_symmetry_space_group_name_H-M "P 21/M"
_symmetry_group_IT_number 11
_symmetry_cell_setting 'monoclinic'
loop_
_space_group_symop_operation_xyz
x,y,z
-x,1/2+y,-z
-x,-y,-z
x,1/2-y,z
loop_
_atom_site_type_symbol
_atom_site_label
_atom_site_fract_x
_atom_site_fract_y
_atom_site_fract_z
Si Si1 0.021562 0.071558 0.270997
Si Si2 0.857057 0.928794 0.339938
Si Si3 0.238065 0.573996 0.004154
Si Si4 0.606913 0.919648 0.924639
Si Si5 0.452708 0.420733 0.862273
Si Si6 0.918345 0.927445 0.533654
Si Si7 0.938694 0.427360 0.924269
Si Si8 0.279887 0.070829 0.809908
O O1 0.017744 0.250000 0.261290
O O2 0.084008 0.032235 0.357647
O O3 0.934423 0.009866 0.299133
O O4 0.045837 0.997125 0.175817
O O5 0.868629 0.750000 0.331768
O O6 0.854237 0.965304 0.450243
O O7 0.777798 0.967968 0.278251
O O8 0.246965 0.750000 0.993015
O O9 0.311421 0.512851 0.069635
O O10 0.151917 0.542819 0.045397
O O11 0.245396 0.497931 0.903372
O O12 0.623187 0.750000 0.900735
O O13 0.533983 0.986000 0.861493
O O14 0.575860 0.922395 0.030711
O O15 0.469298 0.250000 0.838314
O O16 0.373288 0.475362 0.804758
O O17 0.927015 0.750000 0.532346
O O18 0.000000 0.000000 0.500000
O O19 0.950601 0.250000 0.921969
O O20 0.000000 0.500000 0.000000
O O21 0.280675 0.250000 0.820497
#
# Coordination Sequence:
#
# PCOD9157934 Si02
#       8
#     4   4   4   4   4   4   4   4
#     4  10  19  30  44  62  84 111 143 177 212 248
#     4   9  16  28  45  63  85 112 141 173 208 247
#     4  10  20  31  42  57  79 108 141 175 207 240
#     4   9  16  26  41  58  76 103 137 168 200 239
#     4   8  14  24  37  56  81 106 132 162 197 239
#     4   8  15  27  43  62  82 106 137 172 209 248
#     4  11  23  35  46  61  82 111 145 178 212 246
#     4   9  17  27  41  61  84 111 139 166 201 244
#
# _framework density 14.844957000000001
#
# number of rings (size 3 to 8) (size 9 to 14) (size 15 to 20)
#    0.000    2.750    0.000    3.000    0.000    8.000 
#    0.000    0.000    0.000    0.000    0.000    0.000 
#    0.000    1.000    0.000    2.000    0.000    2.875 
#
# Total GULP energy -178139.199680 kJ/mol
# GULP energy per Si atom -5566.849990 kJ/mol
# Density = 1.481117 g / cm^3
# Si number density = 14.844957 Si / 1000 Ang^3
#
#
#
# Elastic Constant Matrix: (Units=GPa)
#
#
# Indices 1 2 3 4 5 6 
#
# 1 115.1723 45.9212 58.6272 0.0000 28.7098 0.0000
# 2 45.9212 38.4241 32.8420 0.0000 7.1265 0.0000
# 3 58.6272 32.8420 98.4098 0.0000 24.5552 0.0000
# 4 0.0000 0.0000 0.0000 16.0791 0.0000 1.4278
# 5 28.7098 7.1265 24.5552 0.0000 22.3220 0.0000
# 6 0.0000 0.0000 0.0000 1.4278 0.0000 22.3964
#
#
#
# Elastic Compliance Matrix: (Units=1/GPa)
#
#
# Indices 1 2 3 4 5 6 
#
# 1 0.024494 -0.024397 -0.000735 0.000000 -0.022906 0.000000
# 2 -0.024397 0.060805 -0.012052 0.000000 0.025223 0.000000
# 3 -0.000735 -0.012052 0.018505 0.000000 -0.015563 0.000000
# 4 0.000000 0.000000 0.000000 0.062547 0.000000 -0.003988
# 5 -0.022906 0.025223 -0.015563 0.000000 0.083328 0.000000
# 6 0.000000 0.000000 0.000000 -0.003988 0.000000 0.044904
#
#
# Mechanical properties :
#
#
# Convention : Reuss Voigt Hill
#
# Bulk Modulus (GPa) = 33.97058 58.53189 46.25124
# Shear Modulus (GPa) = 13.20088 19.80053 16.50071
#
# Velocity S-wave (km/s) = 2.98527 3.65611 3.33759
# Velocity P-wave (km/s) = 5.90048 7.57214 6.78797
#
# Compressibility (1/GPa) = 0.02943724
#
# Stress axis : x y z
#
# Youngs Moduli (GPa) = 40.82595 16.44595 54.04039
#
# Poissons Ratio (x) = 0.40123 0.03971
# Poissons Ratio (y) = 0.99603 0.65128
# Poissons Ratio (z) = 0.03000 0.19820
#
# Static dielectric constant tensor:
#      x y z
#    x 1.496080 0.000000 0.035490 
#    y 0.000000 1.500160 0.000000 
#    z 0.035490 0.000000 1.491030 
# 
# From -- ./inp_files/51260.got.cif
#   From: 2010.05.17/outbox.cif.g08.bks.cpg/sg11_26_cif.got.tgz:51260.got - 2010.06.03 12:22:45.
