data_PCOD9157180
_publ_section_title
;
Structure prediction by ZEFSAII (Michael W. Deem and Ramdas Pophale) SiO2 
 PCOD9157180
Probable space group: P 21/M
;
_chemical_formula_sum "Si O2"
_cell_formula_units_Z 32
_cell_length_a 15.559399
_cell_length_b 8.656735
_cell_length_c 15.471688
_cell_angle_alpha 90.000000
_cell_angle_beta 79.300437
_cell_angle_gamma 90.000000
_cell_volume 2047.706370
_symmetry_space_group_name_H-M "P 21/M"
_symmetry_group_IT_number 11
_symmetry_cell_setting 'monoclinic'
loop_
_space_group_symop_operation_xyz
x,y,z
-x,1/2+y,-z
-x,-y,-z
x,1/2-y,z
loop_
_atom_site_type_symbol
_atom_site_label
_atom_site_fract_x
_atom_site_fract_y
_atom_site_fract_z
Si Si1 0.936282 0.434142 0.387233
Si Si2 0.246679 0.438063 0.251059
Si Si3 0.388812 0.934920 0.936688
Si Si4 0.584493 0.936742 0.876807
Si Si5 0.207255 0.436447 0.920912
Si Si6 0.071512 0.065069 0.800156
Si Si7 0.881719 0.563298 0.881501
Si Si8 0.127589 0.063763 0.426461
O O1 0.932475 0.250000 0.380507
O O2 0.913717 0.508094 0.299966
O O3 0.877523 0.490871 0.478000
O O4 0.036396 0.475806 0.394810
O O5 0.245894 0.250000 0.252556
O O6 0.344187 0.487366 0.206897
O O7 0.181273 0.484511 0.185743
O O8 0.206252 0.488348 0.349724
O O9 0.385279 0.750000 0.940170
O O10 0.483647 0.981696 0.880923
O O11 0.304983 0.998616 0.902812
O O12 0.387678 0.999255 0.034807
O O13 0.587765 0.750000 0.881351
O O14 0.211822 0.250000 0.920651
O O15 0.147560 0.485879 0.851711
O O16 0.160342 0.484102 0.019412
O O17 0.068365 0.250000 0.801990
O O18 0.978238 0.001622 0.849643
O O19 0.886444 0.750000 0.879216
O O20 0.129848 0.250000 0.434404
#
# Coordination Sequence:
#
# PCOD9157180 Si02
#       8
#     4   4   4   4   4   4   4   4
#     4  10  19  32  48  68  93 124 156 192 237 280
#     4   9  15  28  50  70  92 127 159 184 228 287
#     4  10  19  29  46  72  95 122 162 202 235 271
#     4   9  17  31  49  68  96 128 156 192 240 287
#     4  10  21  35  49  64  93 134 166 194 236 279
#     4  11  22  33  47  69  94 126 165 202 234 272
#     4  10  18  32  49  66  93 131 165 192 228 276
#     4   9  17  30  48  69  91 120 157 191 230 281
#
# _framework density 15.627242000000001
#
# number of rings (size 3 to 8) (size 9 to 14) (size 15 to 20)
#    0.000    2.250    2.500    1.500    0.000    2.500 
#    0.000    0.625    0.000    0.000    0.000    0.875 
#    0.000    0.000    0.000    0.000    0.000    0.000 
#
# Total GULP energy -178464.812888 kJ/mol
# GULP energy per Si atom -5577.025403 kJ/mol
# Density = 1.559167 g / cm^3
# Si number density = 15.627242 Si / 1000 Ang^3
#
#
#
# Elastic Constant Matrix: (Units=GPa)
#
#
# Indices 1 2 3 4 5 6 
#
# 1 123.7390 22.2732 73.7271 0.0000 -14.5120 0.0000
# 2 22.2732 10.8015 22.8625 0.0000 -1.5349 0.0000
# 3 73.7271 22.8625 102.8953 0.0000 -14.3840 0.0000
# 4 0.0000 0.0000 0.0000 19.0852 0.0000 -0.1629
# 5 -14.5120 -1.5349 -14.3840 0.0000 25.9616 0.0000
# 6 0.0000 0.0000 0.0000 -0.1629 0.0000 21.7402
#
#
#
# Elastic Compliance Matrix: (Units=1/GPa)
#
#
# Indices 1 2 3 4 5 6 
#
# 1 0.015784 -0.017408 -0.006886 0.000000 0.003979 0.000000
# 2 -0.017408 0.197564 -0.033766 0.000000 -0.016759 0.000000
# 3 -0.006886 -0.033766 0.023129 0.000000 0.006970 0.000000
# 4 0.000000 0.000000 0.000000 0.052400 0.000000 0.000393
# 5 0.003979 -0.016759 0.006970 0.000000 0.043613 0.000000
# 6 0.000000 0.000000 0.000000 0.000393 0.000000 0.046001
#
#
# Mechanical properties :
#
#
# Convention : Reuss Voigt Hill
#
# Bulk Modulus (GPa) = 8.30861 52.79571 30.55216
# Shear Modulus (GPa) = 9.35048 21.26228 15.30638
#
# Velocity S-wave (km/s) = 2.44876 3.69262 3.13304
# Velocity P-wave (km/s) = 3.65014 7.21376 5.71672
#
# Compressibility (1/GPa) = 0.12035715
#
# Stress axis : x y z
#
# Youngs Moduli (GPa) = 63.35371 5.06164 43.23529
#
# Poissons Ratio (x) = 0.08812 0.29770
# Poissons Ratio (y) = 1.10289 1.45990
# Poissons Ratio (z) = 0.43623 0.17091
#
# Static dielectric constant tensor:
#      x y z
#    x 1.518470 0.000000 -0.017760 
#    y 0.000000 1.528200 0.000000 
#    z -0.017760 0.000000 1.511360 
# 
# From -- ./inp_files/51198.got.cif
#   From: 2010.05.17/outbox.cif.g08.bks.cpg/sg11_26_cif.got.tgz:51198.got - 2010.06.03 12:22:45.
