data_PCOD9157895
_publ_section_title
;
Structure prediction by ZEFSAII (Michael W. Deem and Ramdas Pophale) SiO2 
 PCOD9157895
Probable space group: P 21/M
;
_chemical_formula_sum "Si O2"
_cell_formula_units_Z 24
_cell_length_a 12.599743
_cell_length_b 8.431798
_cell_length_c 14.713675
_cell_angle_alpha 90.000000
_cell_angle_beta 109.154375
_cell_angle_gamma 90.000000
_cell_volume 1476.618918
_symmetry_space_group_name_H-M "P 21/M"
_symmetry_group_IT_number 11
_symmetry_cell_setting 'monoclinic'
loop_
_space_group_symop_operation_xyz
x,y,z
-x,1/2+y,-z
-x,-y,-z
x,1/2-y,z
loop_
_atom_site_type_symbol
_atom_site_label
_atom_site_fract_x
_atom_site_fract_y
_atom_site_fract_z
Si Si1 0.915419 0.939851 0.552477
Si Si2 0.565224 0.941827 0.652478
Si Si3 0.750444 0.943094 0.837000
Si Si4 0.101372 0.440045 0.964211
Si Si5 0.333208 0.559750 0.508276
Si Si6 0.961216 0.940961 0.769743
O O1 0.917192 0.750000 0.554379
O O2 0.951581 0.996838 0.663586
O O3 0.788193 0.995348 0.499904
O O4 0.000000 0.000000 0.500000
O O5 0.566945 0.750000 0.651823
O O6 0.633182 0.996297 0.760479
O O7 0.436181 0.991964 0.602548
O O8 0.632475 0.999152 0.582297
O O9 0.749816 0.750000 0.837019
O O10 0.850364 0.991876 0.795567
O O11 0.787780 0.992302 0.948798
O O12 0.099423 0.250000 0.961011
O O13 0.070237 0.503534 0.856299
O O14 0.000000 0.500000 0.000000
O O15 0.329823 0.750000 0.506027
O O16 0.960542 0.750000 0.769846
#
# Coordination Sequence:
#
# PCOD9157895 Si02
#       6
#     4   4   4   4   4   4
#     4  11  22  36  51  66  91 124 160 198 237 280
#     4   9  16  29  47  66  95 129 155 185 228 278
#     4   8  13  25  43  64  90 123 151 175 224 275
#     4   9  16  25  40  63  91 120 152 185 222 273
#     4  10  19  29  45  70  94 121 159 193 229 276
#     4   9  17  30  45  61  88 123 152 186 232 276
#
# _framework density 16.253347000000002
#
# number of rings (size 3 to 8) (size 9 to 14) (size 15 to 20)
#    0.000    2.667    1.667    2.500    0.000    2.000 
#    0.000    0.833    0.000    0.000    0.000    1.167 
#    0.000    0.000    0.000    0.000    0.000    0.000 
#
# Total GULP energy -133627.207883 kJ/mol
# GULP energy per Si atom -5567.800328 kJ/mol
# Density = 1.621635 g / cm^3
# Si number density = 16.253347 Si / 1000 Ang^3
#
#
#
# Elastic Constant Matrix: (Units=GPa)
#
#
# Indices 1 2 3 4 5 6 
#
# 1 92.2498 14.8594 67.0702 0.0000 19.2030 0.0000
# 2 14.8594 13.9753 16.8974 0.0000 4.2219 0.0000
# 3 67.0702 16.8974 139.3358 0.0000 38.0974 0.0000
# 4 0.0000 0.0000 0.0000 23.4304 0.0000 1.6518
# 5 19.2030 4.2219 38.0974 0.0000 27.8435 0.0000
# 6 0.0000 0.0000 0.0000 1.6518 0.0000 18.9414
#
#
#
# Elastic Compliance Matrix: (Units=1/GPa)
#
#
# Indices 1 2 3 4 5 6 
#
# 1 0.017824 -0.010089 -0.007051 0.000000 -0.001115 0.000000
# 2 -0.010089 0.089624 -0.006709 0.000000 0.002548 0.000000
# 3 -0.007051 -0.006709 0.015621 0.000000 -0.015493 0.000000
# 4 0.000000 0.000000 0.000000 0.042944 0.000000 -0.003745
# 5 -0.001115 0.002548 -0.015493 0.000000 0.057496 0.000000
# 6 0.000000 0.000000 0.000000 -0.003745 0.000000 0.053121
#
#
# Mechanical properties :
#
#
# Convention : Reuss Voigt Hill
#
# Bulk Modulus (GPa) = 13.26793 49.24609 31.25701
# Shear Modulus (GPa) = 14.30812 23.82531 19.06671
#
# Velocity S-wave (km/s) = 2.97023 3.83282 3.42876
# Velocity P-wave (km/s) = 4.46587 7.06769 5.91169
#
# Compressibility (1/GPa) = 0.07536968
#
# Stress axis : x y z
#
# Youngs Moduli (GPa) = 56.10408 11.15775 64.01671
#
# Poissons Ratio (x) = 0.11257 0.45141
# Poissons Ratio (y) = 0.56603 0.42950
# Poissons Ratio (z) = 0.39561 0.07486
#
# Static dielectric constant tensor:
#      x y z
#    x 1.501960 0.000000 0.046950 
#    y 0.000000 1.557730 0.000000 
#    z 0.046950 0.000000 1.595940 
# 
# From -- ./inp_files/36992.got.cif
#   From: 2010.05.17/outbox.cif.g08.bks.cpg/sg11_19_cif.got.tgz:36992.got - 2010.06.03 12:22:45.
