data_PCOD9157248
_publ_section_title
;
Structure prediction by ZEFSAII (Michael W. Deem and Ramdas Pophale) SiO2 
 PCOD9157248
Probable space group: P 21/M
;
_chemical_formula_sum "Si O2"
_cell_formula_units_Z 32
_cell_length_a 8.174480
_cell_length_b 15.344120
_cell_length_c 12.488011
_cell_angle_alpha 90.000000
_cell_angle_beta 96.010206
_cell_angle_gamma 90.000000
_cell_volume 1557.763794
_symmetry_space_group_name_H-M "P 21/M"
_symmetry_group_IT_number 11
_symmetry_cell_setting 'monoclinic'
loop_
_space_group_symop_operation_xyz
x,y,z
-x,1/2+y,-z
-x,-y,-z
x,1/2-y,z
loop_
_atom_site_type_symbol
_atom_site_label
_atom_site_fract_x
_atom_site_fract_y
_atom_site_fract_z
Si Si1 0.698176 0.967819 0.564977
Si Si2 0.924608 0.654482 0.266715
Si Si3 0.388800 0.548032 0.656487
Si Si4 0.300003 0.346522 0.960795
Si Si5 0.044290 0.541860 0.679167
Si Si6 0.113337 0.458101 0.098989
Si Si7 0.544323 0.442936 0.850614
Si Si8 0.304719 0.844768 0.316456
O O1 0.644769 0.976386 0.439131
O O2 0.693619 0.068125 0.610827
O O3 0.884555 0.938290 0.596793
O O4 0.561323 0.914136 0.622769
O O5 0.883858 0.750000 0.314338
O O6 0.817160 0.647798 0.151847
O O7 0.911071 0.561834 0.325406
O O8 0.119695 0.658090 0.257095
O O9 0.210473 0.592051 0.657470
O O10 0.434481 0.510072 0.775242
O O11 0.366348 0.250000 0.974823
O O12 0.449297 0.412175 0.948683
O O13 0.190575 0.371112 0.054676
O O14 0.984642 0.553640 0.797523
O O15 0.273995 0.518446 0.125606
O O16 0.000000 0.500000 0.000000
O O17 0.568265 0.361572 0.770944
O O18 0.335221 0.750000 0.370185
#
# Coordination Sequence:
#
# PCOD9157248 Si02
#       8
#     4   4   4   4   4   4   4   4
#     4   9  19  32  49  79 108 138 176 228 273 329
#     4   9  16  29  47  71 107 138 170 219 275 325
#     4  10  18  32  53  77 106 137 179 227 278 321
#     4  11  22  34  52  79 113 149 183 230 289 337
#     4  11  18  33  51  80 107 147 182 222 274 322
#     4  12  21  36  54  81 111 147 192 236 280 334
#     4  11  19  34  53  80 108 139 185 238 276 333
#     4   9  16  29  49  73 106 139 169 218 281 326
#
# _framework density 20.542266000000001
#
# number of rings (size 3 to 8) (size 9 to 14) (size 15 to 20)
#    0.000    1.750    6.250    1.125    0.000    0.000 
#    0.000    0.625    0.000    1.500    0.000    0.875 
#    0.000    0.000    0.000    0.000    0.000    0.000 
#
# Total GULP energy -178176.873580 kJ/mol
# GULP energy per Si atom -5568.027299 kJ/mol
# Density = 2.049551 g / cm^3
# Si number density = 20.542266 Si / 1000 Ang^3
#
#
#
# Elastic Constant Matrix: (Units=GPa)
#
#
# Indices 1 2 3 4 5 6 
#
# 1 136.5587 10.7661 31.4062 0.0000 0.1623 0.0000
# 2 10.7661 19.1943 -3.3578 0.0000 0.7739 0.0000
# 3 31.4062 -3.3578 50.1548 0.0000 -1.5439 0.0000
# 4 0.0000 0.0000 0.0000 4.8656 0.0000 -1.8164
# 5 0.1623 0.7739 -1.5439 0.0000 42.3075 0.0000
# 6 0.0000 0.0000 0.0000 -1.8164 0.0000 16.9774
#
#
#
# Elastic Compliance Matrix: (Units=1/GPa)
#
#
# Indices 1 2 3 4 5 6 
#
# 1 0.009246 -0.006267 -0.006214 0.000000 -0.000148 0.000000
# 2 -0.006267 0.056994 0.007718 0.000000 -0.000737 0.000000
# 3 -0.006214 0.007718 0.024370 0.000000 0.000772 0.000000
# 4 0.000000 0.000000 0.000000 0.214077 0.000000 0.022904
# 5 -0.000148 -0.000737 0.000772 0.000000 0.023679 0.000000
# 6 0.000000 0.000000 0.000000 0.022904 0.000000 0.061352
#
#
# Mechanical properties :
#
#
# Convention : Reuss Voigt Hill
#
# Bulk Modulus (GPa) = 12.33314 31.50409 21.91861
# Shear Modulus (GPa) = 11.72957 23.96965 17.84961
#
# Velocity S-wave (km/s) = 2.39215 3.41962 2.95094
# Velocity P-wave (km/s) = 3.69414 5.56428 4.72270
#
# Compressibility (1/GPa) = 0.08108238
#
# Stress axis : x y z
#
# Youngs Moduli (GPa) = 108.15187 17.54572 41.03431
#
# Poissons Ratio (x) = 0.10997 0.25499
# Poissons Ratio (y) = 0.67782 -0.31668
# Poissons Ratio (z) = 0.67206 -0.13541
#
# Static dielectric constant tensor:
#      x y z
#    x 1.801250 0.000000 -0.015360 
#    y 0.000000 1.756950 0.000000 
#    z -0.015360 0.000000 1.742890 
# 
# From -- ./inp_files/32244.got.cif
#   From: 2010.05.17/outbox.cif.g08.bks.cpg/sg11_17_cif.got.tgz:32244.got - 2010.06.03 12:22:45.
