data_PCOD9157301
_publ_section_title
;
Structure prediction by ZEFSAII (Michael W. Deem and Ramdas Pophale) SiO2 
 PCOD9157301
Probable space group: P 21/M
;
_chemical_formula_sum "Si O2"
_cell_formula_units_Z 32
_cell_length_a 11.844158
_cell_length_b 11.646673
_cell_length_c 11.876301
_cell_angle_alpha 90.000000
_cell_angle_beta 85.870111
_cell_angle_gamma 90.000000
_cell_volume 1634.022728
_symmetry_space_group_name_H-M "P 21/M"
_symmetry_group_IT_number 11
_symmetry_cell_setting 'monoclinic'
loop_
_space_group_symop_operation_xyz
x,y,z
-x,1/2+y,-z
-x,-y,-z
x,1/2-y,z
loop_
_atom_site_type_symbol
_atom_site_label
_atom_site_fract_x
_atom_site_fract_y
_atom_site_fract_z
Si Si1 0.810838 0.473363 0.566072
Si Si2 0.485945 0.537301 0.179852
Si Si3 0.844468 0.453743 0.956547
Si Si4 0.950929 0.622541 0.386804
Si Si5 0.914230 0.873179 0.126887
Si Si6 0.260802 0.113867 0.217758
Si Si7 0.555796 0.112709 0.563964
Si Si8 0.388451 0.628729 0.963115
O O1 0.873694 0.530643 0.456046
O O2 0.777465 0.573364 0.656080
O O3 0.692871 0.407288 0.550406
O O4 0.914098 0.400864 0.613092
O O5 0.383081 0.444600 0.188616
O O6 0.482949 0.596868 0.301801
O O7 0.595038 0.466243 0.133858
O O8 0.465229 0.612356 0.069071
O O9 0.822842 0.550707 0.863614
O O10 0.956024 0.383625 0.922085
O O11 0.856126 0.520944 0.072076
O O12 0.735006 0.377111 0.974940
O O13 0.929547 0.750000 0.434999
O O14 0.915984 0.620134 0.259977
O O15 0.865725 0.750000 0.094888
O O16 0.262756 0.250000 0.204914
O O17 0.532346 0.250000 0.533663
O O18 0.500000 0.000000 0.500000
O O19 0.413235 0.750000 0.907737
#
# Coordination Sequence:
#
# PCOD9157301 Si02
#       8
#     4   4   4   4   4   4   4   4
#     4  10  21  38  59  87 116 150 200 249 300 360
#     4   9  21  37  57  87 116 149 196 243 296 360
#     4  10  20  33  51  80 112 148 193 232 286 351
#     4  10  20  36  60  86 115 152 196 247 299 355
#     4  10  20  35  53  76 110 149 187 231 283 346
#     4  10  18  32  54  81 113 152 191 243 297 352
#     4  11  25  44  66  91 124 164 207 254 308 369
#     4  10  19  35  59  85 115 151 193 245 297 353
#
# _framework density 19.583572
#
# number of rings (size 3 to 8) (size 9 to 14) (size 15 to 20)
#    0.000    2.000    1.250    2.250    0.000    4.000 
#    0.000    3.125    0.000    0.000    0.000    0.000 
#    0.000    0.000    0.000    0.000    0.000    0.000 
#
# Total GULP energy -178189.098522 kJ/mol
# GULP energy per Si atom -5568.409329 kJ/mol
# Density = 1.953900 g / cm^3
# Si number density = 19.583572 Si / 1000 Ang^3
#
#
#
# Elastic Constant Matrix: (Units=GPa)
#
#
# Indices 1 2 3 4 5 6 
#
# 1 45.3898 9.1036 8.5704 0.0000 -7.8322 0.0000
# 2 9.1036 106.1736 20.0173 0.0000 3.4544 0.0000
# 3 8.5704 20.0173 54.7485 0.0000 -1.1824 0.0000
# 4 0.0000 0.0000 0.0000 10.5864 0.0000 -12.3595
# 5 -7.8322 3.4544 -1.1824 0.0000 21.0486 0.0000
# 6 0.0000 0.0000 0.0000 -12.3595 0.0000 -1.9743
#
#
#
# Elastic Compliance Matrix: (Units=1/GPa)
#
#
# Indices 1 2 3 4 5 6 
#
# 1 0.024563 -0.001848 -0.002969 0.000000 0.009277 0.000000
# 2 -0.001848 0.010329 -0.003543 0.000000 -0.002582 0.000000
# 3 -0.002969 -0.003543 0.020039 0.000000 0.000602 0.000000
# 4 0.000000 0.000000 0.000000 0.011369 0.000000 -0.071172
# 5 0.009277 -0.002582 0.000602 0.000000 0.051418 0.000000
# 6 0.000000 0.000000 0.000000 -0.071172 0.000000 -0.060961
#
#
# Mechanical properties :
#
#
# Convention : Reuss Voigt Hill
#
# Bulk Modulus (GPa) = 26.17088 31.29939 28.73514
# Shear Modulus (GPa) = 57.99514 17.17352 37.58433
#
# Velocity S-wave (km/s) = 5.44779 2.96452 4.38559
# Velocity P-wave (km/s) = 7.27764 5.26640 6.35213
#
# Compressibility (1/GPa) = 0.03821040
#
# Stress axis : x y z
#
# Youngs Moduli (GPa) = 40.71105 96.81505 49.90391
#
# Poissons Ratio (x) = 0.17893 0.14817
# Poissons Ratio (y) = 0.07524 0.17681
# Poissons Ratio (z) = 0.12088 0.34301
#
# Static dielectric constant tensor:
#      x y z
#    x 1.706300 0.000000 0.014020 
#    y 0.000000 1.749540 0.000000 
#    z 0.014020 0.000000 1.669060 
# 
# From -- ./inp_files/34786.got.cif
#   From: 2010.05.17/outbox.cif.g08.bks.cpg/sg11_18_cif.got.tgz:34786.got - 2010.06.03 12:22:45.
