data_PCOD9157878
_publ_section_title
;
Structure prediction by ZEFSAII (Michael W. Deem and Ramdas Pophale) SiO2 
 PCOD9157878
Probable space group: P 21/M
;
_chemical_formula_sum "Si O2"
_cell_formula_units_Z 32
_cell_length_a 16.755769
_cell_length_b 9.139264
_cell_length_c 22.306182
_cell_angle_alpha 90.000000
_cell_angle_beta 141.261790
_cell_angle_gamma 90.000000
_cell_volume 2137.522498
_symmetry_space_group_name_H-M "P 21/M"
_symmetry_group_IT_number 11
_symmetry_cell_setting 'monoclinic'
loop_
_space_group_symop_operation_xyz
x,y,z
-x,1/2+y,-z
-x,-y,-z
x,1/2-y,z
loop_
_atom_site_type_symbol
_atom_site_label
_atom_site_fract_x
_atom_site_fract_y
_atom_site_fract_z
Si Si1 0.754751 0.926500 0.481708
Si Si2 0.137527 0.924722 0.573624
Si Si3 0.517276 0.580861 0.416573
Si Si4 0.307833 0.419294 0.360658
Si Si5 0.197334 0.076231 0.849369
Si Si6 0.925373 0.573730 0.699777
Si Si7 0.556682 0.075781 0.973855
Si Si8 0.291339 0.078269 0.767208
O O1 0.753728 0.750000 0.471179
O O2 0.613570 0.972298 0.421479
O O3 0.852450 0.953714 0.594025
O O4 0.799301 0.011929 0.449612
O O5 0.125117 0.750000 0.564016
O O6 0.222314 0.975683 0.679556
O O7 0.000000 0.000000 0.500000
O O8 0.489159 0.750000 0.388305
O O9 0.386921 0.499445 0.355563
O O10 0.603885 0.574927 0.527733
O O11 0.293660 0.250000 0.336093
O O12 0.170975 0.474675 0.303566
O O13 0.198042 0.250000 0.860108
O O14 0.235830 0.053563 0.801756
O O15 0.059608 0.006744 0.779457
O O16 0.305926 0.997874 0.952903
O O17 0.941281 0.750000 0.713447
O O18 0.569582 0.250000 0.990659
O O19 0.444085 0.053982 0.859671
O O20 0.500000 0.000000 0.000000
O O21 0.268897 0.250000 0.739477
#
# Coordination Sequence:
#
# PCOD9157878 Si02
#       8
#     4   4   4   4   4   4   4   4
#     4   9  18  32  46  60  83 115 150 185 216 251
#     4  12  24  34  46  63  85 115 149 184 219 252
#     4   8  14  25  41  59  79 107 141 175 213 252
#     4   8  14  24  38  58  83 110 140 173 209 251
#     4  10  19  29  44  66  89 113 142 177 216 258
#     4   9  17  28  42  61  87 119 149 176 212 255
#     4   9  17  30  48  66  84 108 138 174 215 259
#     4   9  19  34  48  63  84 111 145 181 216 254
#
# _framework density 14.970603000000001
#
# number of rings (size 3 to 8) (size 9 to 14) (size 15 to 20)
#    0.000    2.750    0.000    4.875    0.000    6.500 
#    0.000    2.500    0.000    0.000    0.000    0.000 
#    0.000    1.000    0.000    3.250    0.000    4.000 
#
# Total GULP energy -178199.170673 kJ/mol
# GULP energy per Si atom -5568.724084 kJ/mol
# Density = 1.493653 g / cm^3
# Si number density = 14.970603 Si / 1000 Ang^3
#
#
#
# Elastic Constant Matrix: (Units=GPa)
#
#
# Indices 1 2 3 4 5 6 
#
# 1 111.8389 60.4601 48.1561 0.0000 27.1193 0.0000
# 2 60.4601 77.4632 54.6807 0.0000 15.3090 0.0000
# 3 48.1561 54.6807 76.4288 0.0000 23.9709 0.0000
# 4 0.0000 0.0000 0.0000 23.4073 0.0000 4.7960
# 5 27.1193 15.3090 23.9709 0.0000 23.7441 0.0000
# 6 0.0000 0.0000 0.0000 4.7960 0.0000 26.2846
#
#
#
# Elastic Compliance Matrix: (Units=1/GPa)
#
#
# Indices 1 2 3 4 5 6 
#
# 1 0.018884 -0.013554 0.002667 0.000000 -0.015522 0.000000
# 2 -0.013554 0.035952 -0.021609 0.000000 0.014116 0.000000
# 3 0.002667 -0.021609 0.034315 0.000000 -0.023756 0.000000
# 4 0.000000 0.000000 0.000000 0.044381 0.000000 -0.008098
# 5 -0.015522 0.014116 -0.023756 0.000000 0.074726 0.000000
# 6 0.000000 0.000000 0.000000 -0.008098 0.000000 0.039523
#
#
# Mechanical properties :
#
#
# Convention : Reuss Voigt Hill
#
# Bulk Modulus (GPa) = 41.39299 65.81385 53.60342
# Shear Modulus (GPa) = 15.58471 21.51611 18.55041
#
# Velocity S-wave (km/s) = 3.22999 3.79519 3.52394
# Velocity P-wave (km/s) = 6.45135 7.95375 7.24162
#
# Compressibility (1/GPa) = 0.02415868
#
# Stress axis : x y z
#
# Youngs Moduli (GPa) = 52.95372 27.81448 29.14207
#
# Poissons Ratio (x) = 0.37701 -0.07772
# Poissons Ratio (y) = 0.71775 0.62974
# Poissons Ratio (z) = -0.14123 0.60105
#
# Static dielectric constant tensor:
#      x y z
#    x 1.506110 0.000000 0.018630 
#    y 0.000000 1.500520 0.000000 
#    z 0.018630 0.000000 1.493830 
# 
# From -- ./inp_files/65258.got.cif
#   From: 2010.05.17/outbox.cif.g08.bks.cpg/sg11_33_cif.got.tgz:65258.got - 2010.06.03 12:22:45.
