data_PCOD9157773
_publ_section_title
;
Structure prediction by ZEFSAII (Michael W. Deem and Ramdas Pophale) SiO2 
 PCOD9157773
Probable space group: P 21/M
;
_chemical_formula_sum "Si O2"
_cell_formula_units_Z 26
_cell_length_a 9.047399
_cell_length_b 19.568931
_cell_length_c 9.939214
_cell_angle_alpha 90.000000
_cell_angle_beta 49.888061
_cell_angle_gamma 90.000000
_cell_volume 1345.809154
_symmetry_space_group_name_H-M "P 21/M"
_symmetry_group_IT_number 11
_symmetry_cell_setting 'monoclinic'
loop_
_space_group_symop_operation_xyz
x,y,z
-x,1/2+y,-z
-x,-y,-z
x,1/2-y,z
loop_
_atom_site_type_symbol
_atom_site_label
_atom_site_fract_x
_atom_site_fract_y
_atom_site_fract_z
Si Si1 0.095794 0.540247 0.226740
Si Si2 0.747317 0.600020 0.989382
Si Si3 0.281842 0.978249 0.619308
Si Si4 0.870149 0.387935 0.064759
Si Si5 0.771133 0.250000 0.256565
Si Si6 0.588236 0.250000 0.653594
Si Si7 0.226327 0.250000 0.046839
Si Si8 0.318505 0.897390 0.339109
O O1 0.177119 0.464588 0.140618
O O2 0.176901 0.565299 0.319902
O O3 0.864834 0.534207 0.351494
O O4 0.152523 0.593588 0.076913
O O5 0.728131 0.673478 0.923588
O O6 0.907172 0.614469 0.012583
O O7 0.538765 0.582424 0.172979
O O8 0.212530 0.951919 0.803471
O O9 0.269176 0.917152 0.519984
O O10 0.500000 0.000000 0.500000
O O11 0.761371 0.319200 0.174540
O O12 0.631164 0.250000 0.468498
O O13 0.994789 0.250000 0.174001
O O14 0.683755 0.316161 0.663475
O O15 0.361673 0.250000 0.831504
#
# Coordination Sequence:
#
# PCOD9157773 Si02
#       8
#     4   4   4   4   2   2   2   4
#     4  11  22  35  55  88 121 147 192 245 305 352
#     4   9  18  35  57  83 110 149 197 232 286 359
#     4  11  21  36  57  82 117 152 196 242 291 348
#     4  10  20  36  58  82 107 153 195 240 287 349
#     4  10  18  37  61  82 113 151 206 248 285 349
#     4  10  20  37  59  86 113 155 206 234 291 377
#     4   8  18  32  58  86 106 152 198 240 284 350
#     4  11  21  36  58  86 116 154 187 249 302 350
#
# _framework density 19.319233000000001
#
# number of rings (size 3 to 8) (size 9 to 14) (size 15 to 20)
#    0.000    1.846    1.538    4.615    0.000    0.615 
#    0.000    0.000    0.000    1.846    0.000    0.000 
#    0.000    0.000    0.000    0.000    0.000    0.000 
#
# Total GULP energy -144946.338950 kJ/mol
# GULP energy per Si atom -5574.859190 kJ/mol
# Density = 1.927526 g / cm^3
# Si number density = 19.319233 Si / 1000 Ang^3
#
#
#
# Elastic Constant Matrix: (Units=GPa)
#
#
# Indices 1 2 3 4 5 6 
#
# 1 31.9906 21.5485 21.8378 0.0000 -4.0154 0.0000
# 2 21.5485 95.3120 14.0664 0.0000 8.0684 0.0000
# 3 21.8378 14.0664 49.6709 0.0000 -15.0506 0.0000
# 4 0.0000 0.0000 0.0000 30.8983 0.0000 0.3351
# 5 -4.0154 8.0684 -15.0506 0.0000 27.3709 0.0000
# 6 0.0000 0.0000 0.0000 0.3351 0.0000 14.6735
#
#
#
# Elastic Compliance Matrix: (Units=1/GPa)
#
#
# Indices 1 2 3 4 5 6 
#
# 1 0.050526 -0.008330 -0.020237 0.000000 -0.001260 0.000000
# 2 -0.008330 0.013185 -0.001943 0.000000 -0.006177 0.000000
# 3 -0.020237 -0.001943 0.034622 0.000000 0.016642 0.000000
# 4 0.000000 0.000000 0.000000 0.032372 0.000000 -0.000739
# 5 -0.001260 -0.006177 0.016642 0.000000 0.047322 0.000000
# 6 0.000000 0.000000 0.000000 -0.000739 0.000000 0.068167
#
#
# Mechanical properties :
#
#
# Convention : Reuss Voigt Hill
#
# Bulk Modulus (GPa) = 26.79967 32.43097 29.61532
# Shear Modulus (GPa) = 15.64199 22.55660 19.09929
#
# Velocity S-wave (km/s) = 2.84854 3.42068 3.14764
# Velocity P-wave (km/s) = 4.97202 5.69427 5.34536
#
# Compressibility (1/GPa) = 0.03731389
#
# Stress axis : x y z
#
# Youngs Moduli (GPa) = 19.79174 75.84471 28.88297
#
# Poissons Ratio (x) = 0.63178 0.58449
# Poissons Ratio (y) = 0.16486 0.05613
# Poissons Ratio (z) = 0.40052 0.14739
#
# Static dielectric constant tensor:
#      x y z
#    x 1.645420 0.000000 -0.026270 
#    y 0.000000 1.728430 0.000000 
#    z -0.026270 0.000000 1.688650 
# 
# From -- ./inp_files/14437.got.cif
#   From: 2010.05.17/outbox.cif.g08.bks.cpg/sg11_8_cif.got.tgz:14437.got - 2010.06.03 12:22:45.
