data_PCOD9157822
_publ_section_title
;
Structure prediction by ZEFSAII (Michael W. Deem and Ramdas Pophale) SiO2 
 PCOD9157822
Probable space group: P 21/M
;
_chemical_formula_sum "Si O2"
_cell_formula_units_Z 32
_cell_length_a 12.712023
_cell_length_b 8.660524
_cell_length_c 17.023597
_cell_angle_alpha 90.000000
_cell_angle_beta 109.727205
_cell_angle_gamma 90.000000
_cell_volume 1764.180499
_symmetry_space_group_name_H-M "P 21/M"
_symmetry_group_IT_number 11
_symmetry_cell_setting 'monoclinic'
loop_
_space_group_symop_operation_xyz
x,y,z
-x,1/2+y,-z
-x,-y,-z
x,1/2-y,z
loop_
_atom_site_type_symbol
_atom_site_label
_atom_site_fract_x
_atom_site_fract_y
_atom_site_fract_z
Si Si1 0.898153 0.565462 0.208550
Si Si2 0.197759 0.424600 0.535827
Si Si3 0.011982 0.065232 0.089949
Si Si4 0.873465 0.065909 0.642786
Si Si5 0.724015 0.064856 0.281459
Si Si6 0.240995 0.436633 0.236404
Si Si7 0.458533 0.426081 0.568658
Si Si8 0.479789 0.069507 0.256152
O O1 0.889280 0.750000 0.205461
O O2 0.791807 0.492454 0.223746
O O3 0.921664 0.503297 0.127535
O O4 0.007477 0.523610 0.288326
O O5 0.155938 0.250000 0.537307
O O6 0.133285 0.504672 0.447923
O O7 0.211884 0.505550 0.623943
O O8 0.324998 0.418627 0.536798
O O9 0.003915 0.250000 0.087035
O O10 0.132413 0.022942 0.157710
O O11 0.000000 0.000000 0.000000
O O12 0.862311 0.250000 0.638732
O O13 0.781084 0.000291 0.681043
O O14 0.720947 0.250000 0.284442
O O15 0.594687 0.005747 0.247279
O O16 0.247733 0.250000 0.244600
O O17 0.353244 0.493073 0.220274
O O18 0.500000 0.500000 0.500000
O O19 0.500137 0.250000 0.591547
O O20 0.495088 0.541496 0.646109
O O21 0.474779 0.250000 0.234060
#
# Coordination Sequence:
#
# PCOD9157822 Si02
#       8
#     4   4   4   4   4   4   4   4
#     4  10  21  37  55  76 104 135 168 208 254 304
#     4  10  20  32  45  64  95 135 177 218 258 301
#     4  10  20  36  60  87 111 133 159 196 246 303
#     4  10  20  32  48  72 100 132 173 220 263 301
#     4  10  20  34  52  73  99 135 178 217 252 295
#     4   9  18  33  53  77 105 135 165 203 255 307
#     4  10  19  28  40  61  90 127 170 214 258 298
#     4   9  18  32  49  70  97 130 168 208 249 296
#
# _framework density 18.138732999999998
#
# number of rings (size 3 to 8) (size 9 to 14) (size 15 to 20)
#    0.000    2.250    0.000    3.000    0.000    8.000 
#    0.000    0.000    0.000    0.750    0.000    0.000 
#    0.000    0.000    0.000    0.000    0.000    0.000 
#
# Total GULP energy -178393.003279 kJ/mol
# GULP energy per Si atom -5574.781352 kJ/mol
# Density = 1.809745 g / cm^3
# Si number density = 18.138733 Si / 1000 Ang^3
#
#
#
# Elastic Constant Matrix: (Units=GPa)
#
#
# Indices 1 2 3 4 5 6 
#
# 1 101.2221 18.1856 43.4323 0.0000 -28.9310 0.0000
# 2 18.1856 27.3415 14.2053 0.0000 -8.5208 0.0000
# 3 43.4323 14.2053 74.5323 0.0000 -25.4779 0.0000
# 4 0.0000 0.0000 0.0000 28.1121 0.0000 -4.4045
# 5 -28.9310 -8.5208 -25.4779 0.0000 23.7968 0.0000
# 6 0.0000 0.0000 0.0000 -4.4045 0.0000 12.7966
#
#
#
# Elastic Compliance Matrix: (Units=1/GPa)
#
#
# Indices 1 2 3 4 5 6 
#
# 1 0.016395 -0.004479 -0.003840 0.000000 0.014217 0.000000
# 2 -0.004479 0.043340 -0.003481 0.000000 0.006346 0.000000
# 3 -0.003840 -0.003481 0.022549 0.000000 0.018226 0.000000
# 4 0.000000 0.000000 0.000000 0.037599 0.000000 0.012941
# 5 0.014217 0.006346 0.018226 0.000000 0.081093 0.000000
# 6 0.000000 0.000000 0.000000 0.012941 0.000000 0.082600
#
#
# Mechanical properties :
#
#
# Convention : Reuss Voigt Hill
#
# Bulk Modulus (GPa) = 17.04059 39.41580 28.22819
# Shear Modulus (GPa) = 15.30276 21.42595 18.36436
#
# Velocity S-wave (km/s) = 2.90772 3.44063 3.18534
# Velocity P-wave (km/s) = 4.54842 6.12872 5.39673
#
# Compressibility (1/GPa) = 0.05868342
#
# Stress axis : x y z
#
# Youngs Moduli (GPa) = 60.99309 23.07350 44.34823
#
# Poissons Ratio (x) = 0.10335 0.17032
# Poissons Ratio (y) = 0.27319 0.15436
# Poissons Ratio (z) = 0.23424 0.08031
#
# Static dielectric constant tensor:
#      x y z
#    x 1.685990 0.000000 0.004960 
#    y 0.000000 1.631410 0.000000 
#    z 0.004960 0.000000 1.570740 
# 
# From -- ./inp_files/49315.got.cif
#   From: 2010.05.17/outbox.cif.g08.bks.cpg/sg11_25_cif.got.tgz:49315.got - 2010.06.03 12:22:45.
