data_PCOD9157353
_publ_section_title
;
Structure prediction by ZEFSAII (Michael W. Deem and Ramdas Pophale) SiO2 
 PCOD9157353
Probable space group: P 21/M
;
_chemical_formula_sum "Si O2"
_cell_formula_units_Z 20
_cell_length_a 9.524159
_cell_length_b 8.882828
_cell_length_c 20.420090
_cell_angle_alpha 90.000000
_cell_angle_beta 134.396406
_cell_angle_gamma 90.000000
_cell_volume 1234.377066
_symmetry_space_group_name_H-M "P 21/M"
_symmetry_group_IT_number 11
_symmetry_cell_setting 'monoclinic'
loop_
_space_group_symop_operation_xyz
x,y,z
-x,1/2+y,-z
-x,-y,-z
x,1/2-y,z
loop_
_atom_site_type_symbol
_atom_site_label
_atom_site_fract_x
_atom_site_fract_y
_atom_site_fract_z
Si Si1 0.150650 0.070219 0.100434
Si Si2 0.711972 0.930255 0.584166
Si Si3 0.959472 0.069745 0.415834
Si Si4 0.770487 0.426536 0.742037
Si Si5 0.544374 0.573464 0.257963
O O1 0.146423 0.250000 0.097617
O O2 0.109882 0.008132 0.160733
O O3 0.372316 0.008133 0.160734
O O4 0.000000 0.000000 0.000000
O O5 0.695734 0.750000 0.582489
O O6 0.866294 0.968870 0.577529
O O7 0.500000 0.000000 0.500000
O O8 0.784251 0.994965 0.677122
O O9 0.948267 0.250000 0.417511
O O10 0.752885 0.005035 0.322878
O O11 0.000000 0.000000 0.500000
O O12 0.819570 0.250000 0.754587
O O13 0.546725 0.436911 0.697816
O O14 0.555806 0.750000 0.245413
#
# Coordination Sequence:
#
# PCOD9157353 Si02
#       5
#     4   4   4   4   4
#     4  10  18  32  56  84 112 142 178 224 271 318
#     4  11  23  36  52  76 107 144 185 225 270 324
#     4  11  23  36  52  76 107 144 185 225 270 324
#     4   9  19  34  53  79 107 137 179 222 266 320
#     4   9  19  34  53  79 107 137 179 222 266 320
#
# _framework density 16.202503
#
# number of rings (size 3 to 8) (size 9 to 14) (size 15 to 20)
#    1.200    0.800    0.000    4.800    0.000    8.000 
#    0.000    0.000    0.000    1.200    0.000    0.000 
#    0.000    0.000    0.000    0.000    0.000    0.000 
#
# Total GULP energy -111419.517375 kJ/mol
# GULP energy per Si atom -5570.975869 kJ/mol
# Density = 1.616563 g / cm^3
# Si number density = 16.202503 Si / 1000 Ang^3
#
#
#
# Elastic Constant Matrix: (Units=GPa)
#
#
# Indices 1 2 3 4 5 6 
#
# 1 105.2044 78.2165 77.0641 0.0000 -2.6162 0.0000
# 2 78.2165 125.4822 76.7506 0.0000 0.1398 0.0000
# 3 77.0641 76.7506 154.5963 0.0000 -2.1100 0.0000
# 4 0.0000 0.0000 0.0000 33.7252 0.0000 -0.7462
# 5 -2.6162 0.1398 -2.1100 0.0000 27.6931 0.0000
# 6 0.0000 0.0000 0.0000 -0.7462 0.0000 25.9266
#
#
#
# Elastic Compliance Matrix: (Units=1/GPa)
#
#
# Indices 1 2 3 4 5 6 
#
# 1 0.020680 -0.009478 -0.005582 0.000000 0.001576 0.000000
# 2 -0.009478 0.015795 -0.003134 0.000000 -0.001214 0.000000
# 3 -0.005582 -0.003134 0.010811 0.000000 0.000312 0.000000
# 4 0.000000 0.000000 0.000000 0.029670 0.000000 0.000854
# 5 0.001576 -0.001214 0.000312 0.000000 0.036289 0.000000
# 6 0.000000 0.000000 0.000000 0.000854 0.000000 0.038595
#
#
# Mechanical properties :
#
#
# Convention : Reuss Voigt Hill
#
# Bulk Modulus (GPa) = 91.74909 94.37172 93.06040
# Shear Modulus (GPa) = 26.06074 27.68575 26.87325
#
# Velocity S-wave (km/s) = 4.01489 4.13817 4.07699
# Velocity P-wave (km/s) = 8.84544 9.01134 8.92877
#
# Compressibility (1/GPa) = 0.01089929
#
# Stress axis : x y z
#
# Youngs Moduli (GPa) = 48.35624 63.31055 92.50059
#
# Poissons Ratio (x) = 0.60006 0.51630
# Poissons Ratio (y) = 0.45832 0.28985
# Poissons Ratio (z) = 0.26991 0.19838
#
# Static dielectric constant tensor:
#      x y z
#    x 1.545450 0.000000 0.001500 
#    y 0.000000 1.534020 0.000000 
#    z 0.001500 0.000000 1.529780 
# 
# From -- ./inp_files/63116.got.cif
#   From: 2010.05.17/outbox.cif.g08.bks.cpg/sg11_32_cif.got.tgz:63116.got - 2010.06.03 12:22:45.
