data_PCOD9157666
_publ_section_title
;
Structure prediction by ZEFSAII (Michael W. Deem and Ramdas Pophale) SiO2 
 PCOD9157666
Probable space group: P 21/M
;
_chemical_formula_sum "Si O2"
_cell_formula_units_Z 32
_cell_length_a 15.465326
_cell_length_b 21.705700
_cell_length_c 7.664455
_cell_angle_alpha 90.000000
_cell_angle_beta 42.737260
_cell_angle_gamma 90.000000
_cell_volume 1746.031101
_symmetry_space_group_name_H-M "P 21/M"
_symmetry_group_IT_number 11
_symmetry_cell_setting 'monoclinic'
loop_
_space_group_symop_operation_xyz
x,y,z
-x,1/2+y,-z
-x,-y,-z
x,1/2-y,z
loop_
_atom_site_type_symbol
_atom_site_label
_atom_site_fract_x
_atom_site_fract_y
_atom_site_fract_z
Si Si1 0.218810 0.497137 0.693462
Si Si2 0.780565 0.113973 0.886320
Si Si3 0.459572 0.943980 0.182518
Si Si4 0.305886 0.473776 0.944241
Si Si5 0.988582 0.585798 0.005303
Si Si6 0.638710 0.320501 0.784551
Si Si7 0.036520 0.067892 0.376814
Si Si8 0.178908 0.820080 0.824506
O O1 0.314169 0.537852 0.441252
O O2 0.292825 0.476435 0.755270
O O3 0.098613 0.540632 0.916072
O O4 0.146665 0.437795 0.721409
O O5 0.716159 0.157919 0.839866
O O6 0.932714 0.110531 0.624705
O O7 0.760746 0.140035 0.109025
O O8 0.723303 0.044616 0.953693
O O9 0.558549 0.949644 0.194499
O O10 0.461539 0.875586 0.100901
O O11 0.500000 0.000000 0.000000
O O12 0.188382 0.430776 0.182280
O O13 0.041632 0.651956 0.976726
O O14 0.984468 0.576839 0.800879
O O15 0.592161 0.250000 0.870810
O O16 0.732894 0.322168 0.477690
O O17 0.000000 0.000000 0.500000
O O18 0.168162 0.750000 0.899443
#
# Coordination Sequence:
#
# PCOD9157666 Si02
#       8
#     4   4   4   4   4   4   4   4
#     4  10  20  33  55  84 112 147 183 240 297 334
#     4  11  18  36  58  87 115 144 192 241 299 341
#     4  12  22  35  56  85 118 151 199 242 289 345
#     4  10  20  33  55  84 118 148 184 244 285 350
#     4  10  18  35  56  81 117 148 187 238 297 345
#     4  11  23  40  58  81 118 155 194 242 293 349
#     4   9  19  30  53  85 118 145 177 234 300 348
#     4  11  22  35  56  86 117 152 193 236 294 361
#
# _framework density 18.327279000000001
#
# number of rings (size 3 to 8) (size 9 to 14) (size 15 to 20)
#    0.000    1.500    5.000    0.750    3.500    0.000 
#    0.000    0.000    0.000    6.750    0.000    0.000 
#    0.000    0.000    0.000    0.000    0.000    0.000 
#
# Total GULP energy -178370.501123 kJ/mol
# GULP energy per Si atom -5574.078160 kJ/mol
# Density = 1.828556 g / cm^3
# Si number density = 18.327279 Si / 1000 Ang^3
#
#
#
# Elastic Constant Matrix: (Units=GPa)
#
#
# Indices 1 2 3 4 5 6 
#
# 1 96.2739 38.6970 11.9026 0.0000 -1.1247 0.0000
# 2 38.6970 107.7462 16.6890 0.0000 -10.3173 0.0000
# 3 11.9026 16.6890 23.4284 0.0000 -5.9413 0.0000
# 4 0.0000 0.0000 0.0000 21.3081 0.0000 -1.9575
# 5 -1.1247 -10.3173 -5.9413 0.0000 27.2125 0.0000
# 6 0.0000 0.0000 0.0000 -1.9575 0.0000 21.9076
#
#
#
# Elastic Compliance Matrix: (Units=1/GPa)
#
#
# Indices 1 2 3 4 5 6 
#
# 1 0.012480 -0.004054 -0.003929 0.000000 -0.001879 0.000000
# 2 -0.004054 0.011908 -0.005633 0.000000 0.003117 0.000000
# 3 -0.003929 -0.005633 0.050929 0.000000 0.008821 0.000000
# 4 0.000000 0.000000 0.000000 0.047319 0.000000 0.004228
# 5 -0.001879 0.003117 0.008821 0.000000 0.039778 0.000000
# 6 0.000000 0.000000 0.000000 0.004228 0.000000 0.046024
#
#
# Mechanical properties :
#
#
# Convention : Reuss Voigt Hill
#
# Bulk Modulus (GPa) = 20.79613 40.22508 30.51060
# Shear Modulus (GPa) = 19.86512 24.76297 22.31404
#
# Velocity S-wave (km/s) = 3.29585 3.67979 3.49310
# Velocity P-wave (km/s) = 5.08480 6.32853 5.74045
#
# Compressibility (1/GPa) = 0.04808588
#
# Stress axis : x y z
#
# Youngs Moduli (GPa) = 80.12695 83.97828 19.63525
#
# Poissons Ratio (x) = 0.34041 0.07716
# Poissons Ratio (y) = 0.32480 0.11060
# Poissons Ratio (z) = 0.31485 0.47301
#
# Static dielectric constant tensor:
#      x y z
#    x 1.664300 0.000000 0.018350 
#    y 0.000000 1.675570 0.000000 
#    z 0.018350 0.000000 1.687200 
# 
# From -- ./inp_files/23063.got.cif
#   From: 2010.05.17/outbox.cif.g08.bks.cpg/sg11_12_cif.got.tgz:23063.got - 2010.06.03 12:22:45.
