data_PCOD9157265
_publ_section_title
;
Structure prediction by ZEFSAII (Michael W. Deem and Ramdas Pophale) SiO2 
 PCOD9157265
Probable space group: P 21/M
;
_chemical_formula_sum "Si O2"
_cell_formula_units_Z 28
_cell_length_a 18.719785
_cell_length_b 14.904206
_cell_length_c 6.978827
_cell_angle_alpha 90.000000
_cell_angle_beta 143.210232
_cell_angle_gamma 90.000000
_cell_volume 1166.090812
_symmetry_space_group_name_H-M "P 21/M"
_symmetry_group_IT_number 11
_symmetry_cell_setting 'monoclinic'
loop_
_space_group_symop_operation_xyz
x,y,z
-x,1/2+y,-z
-x,-y,-z
x,1/2-y,z
loop_
_atom_site_type_symbol
_atom_site_label
_atom_site_fract_x
_atom_site_fract_y
_atom_site_fract_z
Si Si1 0.916448 0.855538 0.921009
Si Si2 0.135317 0.356014 0.639023
Si Si3 0.702363 0.972999 0.485190
Si Si4 0.887986 0.352144 0.217152
Si Si5 0.367936 0.930354 0.286549
Si Si6 0.605958 0.592748 0.905296
Si Si7 0.823303 0.351215 0.624145
O O1 0.892076 0.750000 0.904479
O O2 0.891457 0.874918 0.642051
O O3 0.821001 0.920802 0.810728
O O4 0.057766 0.869829 0.245168
O O5 0.124223 0.250000 0.642678
O O6 0.275384 0.376516 0.953322
O O7 0.021953 0.393120 0.515184
O O8 0.637648 0.009624 0.532366
O O9 0.740608 0.062053 0.449151
O O10 0.631427 0.908263 0.187205
O O11 0.891230 0.250000 0.294937
O O12 0.766431 0.395547 0.032684
O O13 0.863928 0.347493 0.935104
O O14 0.479650 0.864937 0.572038
O O15 0.402262 0.990092 0.180635
O O16 0.778010 0.250000 0.482670
#
# Coordination Sequence:
#
# PCOD9157265 Si02
#       7
#     4   4   4   4   4   4   4
#     4   8  14  26  47  76 105 132 167 210 256 306
#     4   8  15  30  52  76 101 130 167 210 252 298
#     4  10  18  32  54  72  97 138 173 208 255 300
#     4   8  15  30  52  76 101 130 167 210 252 298
#     4  10  21  35  51  74 103 133 168 208 250 301
#     4  10  21  35  51  74 103 133 168 208 250 301
#     4   8  14  26  47  76 105 132 167 210 256 306
#
# _framework density 24.011854
#
# number of rings (size 3 to 8) (size 9 to 14) (size 15 to 20)
#    0.000    3.143    0.000    2.571    0.000    2.286 
#    0.000    1.429    0.000    7.714    0.000    0.000 
#    0.000    0.000    0.000    0.000    0.000    0.000 
#
# Total GULP energy -156090.227826 kJ/mol
# GULP energy per Si atom -5574.650994 kJ/mol
# Density = 2.395720 g / cm^3
# Si number density = 24.011854 Si / 1000 Ang^3
#
#
#
# Elastic Constant Matrix: (Units=GPa)
#
#
# Indices 1 2 3 4 5 6 
#
# 1 94.8688 25.1284 47.1887 0.0000 27.1009 0.0000
# 2 25.1284 35.9996 3.9828 0.0000 20.8508 0.0000
# 3 47.1887 3.9828 126.3685 0.0000 28.7730 0.0000
# 4 0.0000 0.0000 0.0000 -194.1262 0.0000 -226.7233
# 5 27.1009 20.8508 28.7730 0.0000 46.4088 0.0000
# 6 0.0000 0.0000 0.0000 -226.7233 0.0000 -238.1293
#
#
#
# Elastic Compliance Matrix: (Units=1/GPa)
#
#
# Indices 1 2 3 4 5 6 
#
# 1 0.016311 -0.009736 -0.005369 0.000000 -0.001822 0.000000
# 2 -0.009736 0.044430 0.006388 0.000000 -0.018236 0.000000
# 3 -0.005369 0.006388 0.011244 0.000000 -0.006706 0.000000
# 4 0.000000 0.000000 0.000000 0.046003 0.000000 -0.043800
# 5 -0.001822 -0.018236 -0.006706 0.000000 0.034962 0.000000
# 6 0.000000 0.000000 0.000000 -0.043800 0.000000 0.037503
#
#
# Mechanical properties :
#
#
# Convention : Reuss Voigt Hill
#
# Bulk Modulus (GPa) = 18.33205 45.53741 31.93473
# Shear Modulus (GPa) = 22.11694 -65.10686 -21.49496
#
# Velocity S-wave (km/s) = 3.03823 -5.21280 -2.99520
# Velocity P-wave (km/s) = 4.46754 4.15035 1.16909
#
# Compressibility (1/GPa) = 0.05454926
#
# Stress axis : x y z
#
# Youngs Moduli (GPa) = 61.30910 22.50739 88.93799
#
# Poissons Ratio (x) = 0.21913 0.47752
# Poissons Ratio (y) = 0.59691 -0.56810
# Poissons Ratio (z) = 0.32918 -0.14377
#
# Static dielectric constant tensor:
#      x y z
#    x 1.943270 0.000000 -0.013080 
#    y 0.000000 1.903420 0.000000 
#    z -0.013080 0.000000 2.097230 
# 
# From -- ./inp_files/27044.got.cif
#   From: 2010.05.17/outbox.cif.g08.bks.cpg/sg11_14_cif.got.tgz:27044.got - 2010.06.03 12:22:45.
