data_PCOD9157542
_publ_section_title
;
Structure prediction by ZEFSAII (Michael W. Deem and Ramdas Pophale) SiO2 
 PCOD9157542
Probable space group: P 21/M
;
_chemical_formula_sum "Si O2"
_cell_formula_units_Z 32
_cell_length_a 10.016783
_cell_length_b 27.515889
_cell_length_c 11.288615
_cell_angle_alpha 90.000000
_cell_angle_beta 29.283061
_cell_angle_gamma 90.000000
_cell_volume 1521.850499
_symmetry_space_group_name_H-M "P 21/M"
_symmetry_group_IT_number 11
_symmetry_cell_setting 'monoclinic'
loop_
_space_group_symop_operation_xyz
x,y,z
-x,1/2+y,-z
-x,-y,-z
x,1/2-y,z
loop_
_atom_site_type_symbol
_atom_site_label
_atom_site_fract_x
_atom_site_fract_y
_atom_site_fract_z
Si Si1 0.130713 0.464276 0.796519
Si Si2 0.028050 0.146991 0.795120
Si Si3 0.687335 0.940839 0.746139
Si Si4 0.484236 0.627761 0.723069
Si Si5 0.156247 0.858204 0.727515
Si Si6 0.690848 0.443279 0.749428
Si Si7 0.293620 0.953820 0.526354
Si Si8 0.666459 0.693116 0.225084
O O1 0.035881 0.409355 0.840049
O O2 0.440589 0.455460 0.597506
O O3 0.133933 0.496076 0.673440
O O4 0.000000 0.500000 0.000000
O O5 0.216254 0.147832 0.535256
O O6 0.170603 0.182191 0.778910
O O7 0.707986 0.156940 0.037941
O O8 0.533964 0.924852 0.744356
O O9 0.999363 0.923610 0.492476
O O10 0.706552 0.998307 0.752435
O O11 0.506487 0.922576 0.997122
O O12 0.324556 0.632694 0.720921
O O13 0.099358 0.911109 0.720279
O O14 0.372522 0.831690 0.473917
O O15 0.876051 0.830383 0.969093
O O16 0.597103 0.440584 0.686662
O O17 0.635026 0.750000 0.229506
#
# Coordination Sequence:
#
# PCOD9157542 Si02
#       8
#     4   4   4   4   4   4   4   4
#     4  11  22  31  50  76 107 148 179 207 267 308
#     4  10  20  32  50  79 103 137 171 217 251 309
#     4  10  21  37  47  69  96 144 186 213 262 295
#     4  10  18  34  54  68 102 132 169 221 255 305
#     4  10  21  35  53  84 106 136 176 222 262 318
#     4  10  23  34  50  67 101 141 183 226 245 298
#     4  11  23  35  50  79 110 144 185 219 262 309
#     4  10  19  34  53  76 114 142 163 207 274 337
#
# _framework density 21.027031999999998
#
# number of rings (size 3 to 8) (size 9 to 14) (size 15 to 20)
#    0.000    1.750    2.500    3.375    7.000    1.000 
#    0.000    0.000    0.000    0.000    0.000    0.000 
#    0.000   80.000    0.000    0.000    0.000    0.000 
#
# Total GULP energy -178335.401740 kJ/mol
# GULP energy per Si atom -5572.981304 kJ/mol
# Density = 2.097917 g / cm^3
# Si number density = 21.027032 Si / 1000 Ang^3
#
#
#
# Elastic Constant Matrix: (Units=GPa)
#
#
# Indices 1 2 3 4 5 6 
#
# 1 22.5136 4.6199 9.3056 0.0000 2.8908 0.0000
# 2 4.6199 53.9553 23.5221 0.0000 4.1893 0.0000
# 3 9.3056 23.5221 166.9754 0.0000 -7.2360 0.0000
# 4 0.0000 0.0000 0.0000 22.8599 0.0000 0.5366
# 5 2.8908 4.1893 -7.2360 0.0000 21.8295 0.0000
# 6 0.0000 0.0000 0.0000 0.5366 0.0000 9.2936
#
#
#
# Elastic Compliance Matrix: (Units=1/GPa)
#
#
# Indices 1 2 3 4 5 6 
#
# 1 0.046810 -0.002381 -0.002559 0.000000 -0.006590 0.000000
# 2 -0.002381 0.020372 -0.002935 0.000000 -0.004567 0.000000
# 3 -0.002559 -0.002935 0.006680 0.000000 0.003116 0.000000
# 4 0.000000 0.000000 0.000000 0.043804 0.000000 -0.002529
# 5 -0.006590 -0.004567 0.003116 0.000000 0.048592 0.000000
# 6 0.000000 0.000000 0.000000 -0.002529 0.000000 0.107746
#
#
# Mechanical properties :
#
#
# Convention : Reuss Voigt Hill
#
# Bulk Modulus (GPa) = 17.20806 35.37106 26.28956
# Shear Modulus (GPa) = 16.17470 24.52973 20.35222
#
# Velocity S-wave (km/s) = 2.77652 3.41923 3.11450
# Velocity P-wave (km/s) = 4.29887 5.69617 5.04612
#
# Compressibility (1/GPa) = 0.05811229
#
# Stress axis : x y z
#
# Youngs Moduli (GPa) = 21.36294 49.08730 149.69982
#
# Poissons Ratio (x) = 0.11687 0.38307
# Poissons Ratio (y) = 0.05086 0.43938
# Poissons Ratio (z) = 0.05467 0.14407
#
# Static dielectric constant tensor:
#      x y z
#    x 1.804520 0.000000 0.002840 
#    y 0.000000 1.753200 0.000000 
#    z 0.002840 0.000000 1.900180 
# 
# From -- ./inp_files/36564.got.cif
#   From: 2010.05.17/outbox.cif.g08.bks.cpg/sg11_19_cif.got.tgz:36564.got - 2010.06.03 12:22:45.
