data_PCOD9157388
_publ_section_title
;
Structure prediction by ZEFSAII (Michael W. Deem and Ramdas Pophale) SiO2 
 PCOD9157388
Probable space group: P 21/M
;
_chemical_formula_sum "Si O2"
_cell_formula_units_Z 28
_cell_length_a 11.773875
_cell_length_b 18.522390
_cell_length_c 17.358054
_cell_angle_alpha 90.000000
_cell_angle_beta 22.182831
_cell_angle_gamma 90.000000
_cell_volume 1429.246986
_symmetry_space_group_name_H-M "P 21/M"
_symmetry_group_IT_number 11
_symmetry_cell_setting 'monoclinic'
loop_
_space_group_symop_operation_xyz
x,y,z
-x,1/2+y,-z
-x,-y,-z
x,1/2-y,z
loop_
_atom_site_type_symbol
_atom_site_label
_atom_site_fract_x
_atom_site_fract_y
_atom_site_fract_z
Si Si1 0.111439 0.336733 0.481081
Si Si2 0.308473 0.662424 0.118769
Si Si3 0.651547 0.427103 0.474359
Si Si4 0.894247 0.032225 0.170037
Si Si5 0.239311 0.602970 0.892853
Si Si6 0.127083 0.166983 0.743351
Si Si7 0.969861 0.836607 0.648756
O O1 0.161397 0.250000 0.458182
O O2 0.412846 0.377026 0.318802
O O3 0.046342 0.350030 0.432336
O O4 0.834465 0.357847 0.709923
O O5 0.310396 0.750000 0.113499
O O6 0.083627 0.637581 0.192448
O O7 0.647998 0.641398 0.887102
O O8 0.429121 0.491651 0.638368
O O9 0.902694 0.450962 0.255119
O O10 0.431836 0.376127 0.562456
O O11 0.780675 0.383022 0.464414
O O12 0.881738 0.098472 0.118492
O O13 0.148878 0.975436 0.984728
O O14 0.057337 0.657854 0.061503
O O15 0.191170 0.250000 0.687265
O O16 0.014759 0.750000 0.632048
#
# Coordination Sequence:
#
# PCOD9157388 Si02
#       7
#     4   4   4   4   4   4   4
#     4  10  19  34  60  86 112 147 182 230 291 341
#     4   9  18  33  55  84 114 142 179 221 280 348
#     4  10  20  38  58  76 113 151 189 233 281 330
#     4   9  21  37  56  77 109 155 195 231 275 319
#     4  10  18  35  58  80 112 145 191 237 274 326
#     4  10  18  32  59  87 109 142 186 235 286 336
#     4  10  20  37  58  86 118 144 174 231 296 339
#
# _framework density 19.590734999999999
#
# number of rings (size 3 to 8) (size 9 to 14) (size 15 to 20)
#    0.000    2.286    1.429    1.714    0.000    0.000 
#    7.714    3.571    0.000    0.000    0.000    0.000 
#    0.000    0.000    0.000    0.000    0.000    0.000 
#
# Total GULP energy -156202.226506 kJ/mol
# GULP energy per Si atom -5578.650947 kJ/mol
# Density = 1.954615 g / cm^3
# Si number density = 19.590735 Si / 1000 Ang^3
#
#
#
# Elastic Constant Matrix: (Units=GPa)
#
#
# Indices 1 2 3 4 5 6 
#
# 1 72.9367 29.8469 30.9922 0.0000 7.2802 0.0000
# 2 29.8469 27.8458 10.7029 0.0000 -2.6235 0.0000
# 3 30.9922 10.7029 65.2621 0.0000 18.1451 0.0000
# 4 0.0000 0.0000 0.0000 26.4758 0.0000 -5.5893
# 5 7.2802 -2.6235 18.1451 0.0000 34.2257 0.0000
# 6 0.0000 0.0000 0.0000 -5.5893 0.0000 20.0529
#
#
#
# Elastic Compliance Matrix: (Units=1/GPa)
#
#
# Indices 1 2 3 4 5 6 
#
# 1 0.029284 -0.028689 -0.008044 0.000000 -0.004164 0.000000
# 2 -0.028689 0.068080 -0.000808 0.000000 0.011749 0.000000
# 3 -0.008044 -0.000808 0.022070 0.000000 -0.010051 0.000000
# 4 0.000000 0.000000 0.000000 0.040132 0.000000 0.011186
# 5 -0.004164 0.011749 -0.010051 0.000000 0.036333 0.000000
# 6 0.000000 0.000000 0.000000 0.011186 0.000000 0.052986
#
#
# Mechanical properties :
#
#
# Convention : Reuss Voigt Hill
#
# Bulk Modulus (GPa) = 22.54655 34.34763 28.44709
# Shear Modulus (GPa) = 14.76007 22.45106 18.60556
#
# Velocity S-wave (km/s) = 2.74783 3.38894 3.08508
# Velocity P-wave (km/s) = 4.64771 5.73445 5.21944
#
# Compressibility (1/GPa) = 0.04435268
#
# Stress axis : x y z
#
# Youngs Moduli (GPa) = 34.14798 14.68850 45.31032
#
# Poissons Ratio (x) = 0.42140 0.36448
# Poissons Ratio (y) = 0.97968 0.03660
# Poissons Ratio (z) = 0.27469 0.01186
#
# Static dielectric constant tensor:
#      x y z
#    x 1.678770 0.000000 0.033910 
#    y 0.000000 1.688870 0.000000 
#    z 0.033910 0.000000 1.706040 
# 
# From -- ./inp_files/19124.got.cif
#   From: 2010.05.17/outbox.cif.g08.bks.cpg/sg11_10_cif.got.tgz:19124.got - 2010.06.03 12:22:45.
