data_PCOD9157724
_publ_section_title
;
Structure prediction by ZEFSAII (Michael W. Deem and Ramdas Pophale) SiO2 
 PCOD9157724
Probable space group: P 21/M
;
_chemical_formula_sum "Si O2"
_cell_formula_units_Z 32
_cell_length_a 9.703284
_cell_length_b 13.917505
_cell_length_c 14.302498
_cell_angle_alpha 90.000000
_cell_angle_beta 58.694944
_cell_angle_gamma 90.000000
_cell_volume 1650.288461
_symmetry_space_group_name_H-M "P 21/M"
_symmetry_group_IT_number 11
_symmetry_cell_setting 'monoclinic'
loop_
_space_group_symop_operation_xyz
x,y,z
-x,1/2+y,-z
-x,-y,-z
x,1/2-y,z
loop_
_atom_site_type_symbol
_atom_site_label
_atom_site_fract_x
_atom_site_fract_y
_atom_site_fract_z
Si Si1 0.169520 0.362068 0.492628
Si Si2 0.036099 0.090675 0.922708
Si Si3 0.679360 0.144520 0.073661
Si Si4 0.587423 0.026241 0.566948
Si Si5 0.613816 0.562790 0.182144
Si Si6 0.914716 0.138086 0.414182
Si Si7 0.012265 0.958738 0.272615
Si Si8 0.351177 0.637591 0.131740
O O1 0.211860 0.250000 0.479749
O O2 0.322597 0.431099 0.424948
O O3 0.032695 0.376627 0.461657
O O4 0.089836 0.396325 0.617820
O O5 0.217360 0.119954 0.883091
O O6 0.043334 0.060996 0.812226
O O7 0.873707 0.150670 0.993218
O O8 0.000000 0.000000 0.000000
O O9 0.621435 0.250000 0.127051
O O10 0.641171 0.050611 0.148189
O O11 0.614589 0.126511 0.990992
O O12 0.464900 0.065935 0.687488
O O13 0.734485 0.100754 0.499152
O O14 0.500000 0.000000 0.500000
O O15 0.495340 0.605936 0.146887
O O16 0.914418 0.250000 0.390535
O O17 0.984335 0.068909 0.309864
O O18 0.197141 0.926456 0.212471
O O19 0.311072 0.750000 0.160706
#
# Coordination Sequence:
#
# PCOD9157724 Si02
#       8
#     4   4   4   4   4   4   4   4
#     4  10  20  35  56  81 109 145 188 228 269 326
#     4   9  20  37  56  77 106 143 182 222 266 321
#     4   9  20  38  58  80 107 142 180 220 272 332
#     4  11  23  37  53  80 116 149 183 229 278 324
#     4  11  20  35  57  81 110 143 179 226 276 321
#     4  10  21  38  59  83 112 147 188 229 271 325
#     4  10  18  36  59  79 109 147 182 219 268 324
#     4  10  20  34  57  87 112 138 178 227 276 323
#
# _framework density 19.390550999999999
#
# number of rings (size 3 to 8) (size 9 to 14) (size 15 to 20)
#    0.000    2.000    0.000    5.250    0.000    3.500 
#    0.000    6.875    0.000    4.500    0.000    0.000 
#    0.000    0.000    0.000    0.000    0.000    0.000 
#
# Total GULP energy -178566.342095 kJ/mol
# GULP energy per Si atom -5580.198190 kJ/mol
# Density = 1.934642 g / cm^3
# Si number density = 19.390551 Si / 1000 Ang^3
#
#
#
# Elastic Constant Matrix: (Units=GPa)
#
#
# Indices 1 2 3 4 5 6 
#
# 1 115.4188 6.0828 11.1025 0.0000 -12.5841 0.0000
# 2 6.0828 87.0329 -6.5875 0.0000 -7.0980 0.0000
# 3 11.1025 -6.5875 22.6917 0.0000 -11.2462 0.0000
# 4 0.0000 0.0000 0.0000 7.7852 0.0000 -13.9796
# 5 -12.5841 -7.0980 -11.2462 0.0000 13.0010 0.0000
# 6 0.0000 0.0000 0.0000 -13.9796 0.0000 -33.1043
#
#
#
# Elastic Compliance Matrix: (Units=1/GPa)
#
#
# Indices 1 2 3 4 5 6 
#
# 1 0.009687 0.000079 -0.000085 0.000000 0.009346 0.000000
# 2 0.000079 0.014152 0.013893 0.000000 0.019821 0.000000
# 3 -0.000085 0.013893 0.090781 0.000000 0.086030 0.000000
# 4 0.000000 0.000000 0.000000 0.073053 0.000000 -0.030850
# 5 0.009346 0.019821 0.086030 0.000000 0.171203 0.000000
# 6 0.000000 0.000000 0.000000 -0.030850 0.000000 -0.017180
#
#
# Mechanical properties :
#
#
# Convention : Reuss Voigt Hill
#
# Bulk Modulus (GPa) = 7.02273 27.37103 17.19688
# Shear Modulus (GPa) = 13.83559 11.83942 12.83751
#
# Velocity S-wave (km/s) = 2.67408 2.47367 2.57582
# Velocity P-wave (km/s) = 3.62821 4.72282 4.21123
#
# Compressibility (1/GPa) = 0.14239470
#
# Stress axis : x y z
#
# Youngs Moduli (GPa) = 103.22994 70.65906 11.01555
#
# Poissons Ratio (x) = -0.00556 0.00093
# Poissons Ratio (y) = -0.00813 -0.15304
# Poissons Ratio (z) = 0.00876 -0.98169
#
# Static dielectric constant tensor:
#      x y z
#    x 1.691380 0.000000 -0.023080 
#    y 0.000000 1.681760 0.000000 
#    z -0.023080 0.000000 1.663740 
# 
# From -- ./inp_files/47625.got.cif
#   From: 2010.05.17/outbox.cif.g08.bks.cpg/sg11_24_cif.got.tgz:47625.got - 2010.06.03 12:22:45.
