data_PCOD9157280
_publ_section_title
;
Structure prediction by ZEFSAII (Michael W. Deem and Ramdas Pophale) SiO2 
 PCOD9157280
Probable space group: P 21/M
;
_chemical_formula_sum "Si O2"
_cell_formula_units_Z 32
_cell_length_a 20.620523
_cell_length_b 18.465609
_cell_length_c 14.395581
_cell_angle_alpha 90.000000
_cell_angle_beta 20.183588
_cell_angle_gamma 90.000000
_cell_volume 1891.248346
_symmetry_space_group_name_H-M "P 21/M"
_symmetry_group_IT_number 11
_symmetry_cell_setting 'monoclinic'
loop_
_space_group_symop_operation_xyz
x,y,z
-x,1/2+y,-z
-x,-y,-z
x,1/2-y,z
loop_
_atom_site_type_symbol
_atom_site_label
_atom_site_fract_x
_atom_site_fract_y
_atom_site_fract_z
Si Si1 0.501006 0.940542 0.314175
Si Si2 0.578386 0.666282 0.366868
Si Si3 0.782292 0.472204 0.684838
Si Si4 0.171680 0.666763 0.011077
Si Si5 0.171447 0.944655 0.172395
Si Si6 0.390720 0.538838 0.264626
Si Si7 0.903170 0.938104 0.262065
Si Si8 0.793738 0.949683 0.200964
O O1 0.567717 0.871044 0.280627
O O2 0.403676 0.921779 0.346549
O O3 0.358293 0.987700 0.569461
O O4 0.672470 0.994885 0.061728
O O5 0.639235 0.750000 0.283602
O O6 0.705405 0.613892 0.259398
O O7 0.368046 0.663791 0.691776
O O8 0.811816 0.428226 0.740445
O O9 0.728435 0.431488 0.662049
O O10 0.969217 0.519901 0.423178
O O11 0.602051 0.523441 0.946730
O O12 0.120988 0.750000 0.094128
O O13 0.199108 0.623853 0.069969
O O14 0.013331 0.624801 0.165590
O O15 0.287090 0.463169 0.431335
O O16 0.862000 0.921421 0.209626
O O17 0.038151 0.008923 0.077202
#
# Coordination Sequence:
#
# PCOD9157280 Si02
#       8
#     4   4   4   4   4   4   4   4
#     4  10  18  32  54  78 104 133 172 216 253 308
#     4  11  22  34  50  76 113 145 171 207 258 321
#     4   9  18  31  53  82  99 120 172 230 262 299
#     4  11  21  33  50  76 112 143 170 209 266 326
#     4  10  18  32  55  80 101 134 175 224 263 298
#     4   9  18  31  52  81 100 125 164 225 266 294
#     4  10  19  32  53  79 104 136 173 216 262 310
#     4  10  19  32  53  78 105 135 176 214 250 312
#
# _framework density 16.920041000000001
#
# number of rings (size 3 to 8) (size 9 to 14) (size 15 to 20)
#    0.000    2.000    3.750    1.125    0.000    0.500 
#    0.000    0.000    0.000    7.500    0.000    0.000 
#    0.000    0.000    0.000    0.000    0.000    0.000 
#
# Total GULP energy -178374.654875 kJ/mol
# GULP energy per Si atom -5574.207965 kJ/mol
# Density = 1.688153 g / cm^3
# Si number density = 16.920041 Si / 1000 Ang^3
#
#
#
# Elastic Constant Matrix: (Units=GPa)
#
#
# Indices 1 2 3 4 5 6 
#
# 1 125.5785 54.1185 13.6542 0.0000 -4.8449 0.0000
# 2 54.1185 64.9695 10.9521 0.0000 3.3510 0.0000
# 3 13.6542 10.9521 64.1666 0.0000 -4.6544 0.0000
# 4 0.0000 0.0000 0.0000 14.9962 0.0000 -2.6185
# 5 -4.8449 3.3510 -4.6544 0.0000 24.3753 0.0000
# 6 0.0000 0.0000 0.0000 -2.6185 0.0000 3.7152
#
#
#
# Elastic Compliance Matrix: (Units=1/GPa)
#
#
# Indices 1 2 3 4 5 6 
#
# 1 0.012828 -0.010786 -0.000605 0.000000 0.003917 0.000000
# 2 -0.010786 0.025098 -0.002428 0.000000 -0.006058 0.000000
# 3 -0.000605 -0.002428 0.016370 0.000000 0.003339 0.000000
# 4 0.000000 0.000000 0.000000 0.076042 0.000000 0.053596
# 5 0.003917 -0.006058 0.003339 0.000000 0.043274 0.000000
# 6 0.000000 0.000000 0.000000 0.053596 0.000000 0.306941
#
#
# Mechanical properties :
#
#
# Convention : Reuss Voigt Hill
#
# Bulk Modulus (GPa) = 37.51091 45.79601 41.65346
# Shear Modulus (GPa) = 9.66975 20.35000 15.00987
#
# Velocity S-wave (km/s) = 2.39319 3.47178 2.98166
# Velocity P-wave (km/s) = 5.46389 6.57236 6.04359
#
# Compressibility (1/GPa) = 0.02665891
#
# Stress axis : x y z
#
# Youngs Moduli (GPa) = 77.95349 39.84396 61.08830
#
# Poissons Ratio (x) = 0.42975 0.03694
# Poissons Ratio (y) = 0.84079 0.14832
# Poissons Ratio (z) = 0.04714 0.09674
#
# Static dielectric constant tensor:
#      x y z
#    x 1.630010 0.000000 0.000670 
#    y 0.000000 1.515980 0.000000 
#    z 0.000670 0.000000 1.591180 
# 
# From -- ./inp_files/55099.got.cif
#   From: 2010.05.17/outbox.cif.g08.bks.cpg/sg11_28_cif.got.tgz:55099.got - 2010.06.03 12:22:45.
