data_PCOD9157236
_publ_section_title
;
Structure prediction by ZEFSAII (Michael W. Deem and Ramdas Pophale) SiO2 
 PCOD9157236
Probable space group: P 21/M
;
_chemical_formula_sum "Si O2"
_cell_formula_units_Z 24
_cell_length_a 22.040632
_cell_length_b 8.378433
_cell_length_c 8.528928
_cell_angle_alpha 90.000000
_cell_angle_beta 128.674725
_cell_angle_gamma 90.000000
_cell_volume 1229.614260
_symmetry_space_group_name_H-M "P 21/M"
_symmetry_group_IT_number 11
_symmetry_cell_setting 'monoclinic'
loop_
_space_group_symop_operation_xyz
x,y,z
-x,1/2+y,-z
-x,-y,-z
x,1/2-y,z
loop_
_atom_site_type_symbol
_atom_site_label
_atom_site_fract_x
_atom_site_fract_y
_atom_site_fract_z
Si Si1 0.328513 0.555264 0.219011
Si Si2 0.995725 0.064612 0.664673
Si Si3 0.414331 0.943155 0.679391
Si Si4 0.084839 0.436409 0.196027
Si Si5 0.592340 0.056986 0.979675
Si Si6 0.841632 0.437277 0.956681
O O1 0.331651 0.750000 0.224307
O O2 0.372717 0.502590 0.450489
O O3 0.362467 0.501991 0.105176
O O4 0.238527 0.510387 0.096987
O O5 0.978106 0.250000 0.649181
O O6 0.000000 0.000000 0.500000
O O7 0.927308 0.970401 0.642085
O O8 0.082858 0.032389 0.867115
O O9 0.412536 0.750000 0.674710
O O10 0.503327 0.000972 0.818479
O O11 0.382371 0.993275 0.801506
O O12 0.091894 0.250000 0.176547
O O13 0.153249 0.532183 0.221988
O O14 0.000000 0.500000 0.000000
O O15 0.594792 0.250000 0.982240
O O16 0.853772 0.250000 0.007400
#
# Coordination Sequence:
#
# PCOD9157236 Si02
#       6
#     4   4   4   4   4   4
#     4   9  18  32  50  75 106 139 176 216 262 321
#     4  11  21  36  56  79 104 135 174 217 265 316
#     4   9  17  31  51  74 101 135 177 219 263 313
#     4  10  18  32  53  75 100 132 171 212 256 309
#     4   9  17  31  51  74 102 135 176 221 261 310
#     4  10  19  34  52  75 105 137 176 219 265 319
#
# _framework density 19.518318000000001
#
# number of rings (size 3 to 8) (size 9 to 14) (size 15 to 20)
#    0.000    2.333    0.000    6.000    0.000    0.000 
#    3.000    3.333    0.000    0.000    0.000    0.000 
#    0.000    0.000    0.000    0.000    0.000    0.000 
#
# Total GULP energy -133604.732853 kJ/mol
# GULP energy per Si atom -5566.863869 kJ/mol
# Density = 1.947389 g / cm^3
# Si number density = 19.518318 Si / 1000 Ang^3
#
#
#
# Elastic Constant Matrix: (Units=GPa)
#
#
# Indices 1 2 3 4 5 6 
#
# 1 173.9742 5.2217 54.9331 0.0000 -30.8423 0.0000
# 2 5.2217 37.3581 3.4358 0.0000 0.7216 0.0000
# 3 54.9331 3.4358 49.3204 0.0000 -23.3101 0.0000
# 4 0.0000 0.0000 0.0000 16.5551 0.0000 0.3036
# 5 -30.8423 0.7216 -23.3101 0.0000 28.9673 0.0000
# 6 0.0000 0.0000 0.0000 0.3036 0.0000 22.8795
#
#
#
# Elastic Compliance Matrix: (Units=1/GPa)
#
#
# Indices 1 2 3 4 5 6 
#
# 1 0.008981 -0.000496 -0.008784 0.000000 0.002506 0.000000
# 2 -0.000496 0.027192 -0.003085 0.000000 -0.003688 0.000000
# 3 -0.008784 -0.003085 0.041780 0.000000 0.024345 0.000000
# 4 0.000000 0.000000 0.000000 0.060419 0.000000 -0.000802
# 5 0.002506 -0.003688 0.024345 0.000000 0.056872 0.000000
# 6 0.000000 0.000000 0.000000 -0.000802 0.000000 0.043718
#
#
# Mechanical properties :
#
#
# Convention : Reuss Voigt Hill
#
# Bulk Modulus (GPa) = 18.78864 43.09265 30.94065
# Shear Modulus (GPa) = 17.76626 26.81785 22.29206
#
# Velocity S-wave (km/s) = 3.02028 3.71075 3.38318
# Velocity P-wave (km/s) = 4.67010 6.36282 5.58101
#
# Compressibility (1/GPa) = 0.05322364
#
# Stress axis : x y z
#
# Youngs Moduli (GPa) = 111.35100 36.77516 23.93498
#
# Poissons Ratio (x) = 0.01823 0.21024
# Poissons Ratio (y) = 0.05521 0.07384
# Poissons Ratio (z) = 0.97807 0.11345
#
# Static dielectric constant tensor:
#      x y z
#    x 1.734300 0.000000 -0.115300 
#    y 0.000000 1.659140 0.000000 
#    z -0.115300 0.000000 1.784160 
# 
# From -- ./inp_files/25949.got.cif
#   From: 2010.05.17/outbox.cif.g08.bks.cpg/sg11_13_cif.got.tgz:25949.got - 2010.06.03 12:22:45.
