data_PCOD9157720
_publ_section_title
;
Structure prediction by ZEFSAII (Michael W. Deem and Ramdas Pophale) SiO2 
 PCOD9157720
Probable space group: P 21/M
;
_chemical_formula_sum "Si O2"
_cell_formula_units_Z 24
_cell_length_a 8.685469
_cell_length_b 15.147615
_cell_length_c 16.557039
_cell_angle_alpha 90.000000
_cell_angle_beta 146.672400
_cell_angle_gamma 90.000000
_cell_volume 1196.820213
_symmetry_space_group_name_H-M "P 21/M"
_symmetry_group_IT_number 11
_symmetry_cell_setting 'monoclinic'
loop_
_space_group_symop_operation_xyz
x,y,z
-x,1/2+y,-z
-x,-y,-z
x,1/2-y,z
loop_
_atom_site_type_symbol
_atom_site_label
_atom_site_fract_x
_atom_site_fract_y
_atom_site_fract_z
Si Si1 0.807957 0.429089 0.053050
Si Si2 0.638149 0.430978 0.161176
Si Si3 0.014233 0.250000 0.078856
Si Si4 0.979863 0.442769 0.571882
Si Si5 0.568824 0.250000 0.226277
Si Si6 0.410093 0.250000 0.410926
Si Si7 0.388250 0.066164 0.386245
Si Si8 0.041700 0.750000 0.443461
O O1 0.660299 0.410986 0.075272
O O2 0.838838 0.340243 0.013595
O O3 0.120431 0.457300 0.216328
O O4 0.637231 0.510150 0.941131
O O5 0.886659 0.496605 0.299500
O O6 0.635012 0.339228 0.206771
O O7 0.237567 0.250000 0.104177
O O8 0.226810 0.250000 0.248741
O O9 0.000000 0.500000 0.500000
O O10 0.652297 0.421790 0.442777
O O11 0.114634 0.344481 0.627026
O O12 0.767316 0.250000 0.392209
O O13 0.329875 0.156340 0.410840
O O14 0.741143 0.250000 0.537276
O O15 0.500000 0.000000 0.500000
#
# Coordination Sequence:
#
# PCOD9157720 Si02
#       8
#     4   4   2   4   2   2   4   2
#     4  10  22  40  60  91 120 162 200 247 301 367
#     4  11  23  38  63  90 124 155 204 251 304 352
#     4   9  19  38  61  82 119 158 203 236 299 367
#     4  11  21  37  59  90 117 157 200 253 296 354
#     4  11  21  39  61  90 120 163 196 249 300 375
#     4   7  16  29  52  79 106 147 189 228 282 347
#     4  10  18  36  58  83 116 155 199 237 292 355
#     4   9  18  34  56  81 119 150 196 235 301 347
#
# _framework density 20.053135999999999
#
# number of rings (size 3 to 8) (size 9 to 14) (size 15 to 20)
#    0.000    2.000    3.333    1.500    0.000    1.333 
#    0.000    2.500    0.000    0.000    0.000    0.000 
#    0.000    0.000    0.000    0.000    0.000    0.000 
#
# Total GULP energy -133714.171437 kJ/mol
# GULP energy per Si atom -5571.423810 kJ/mol
# Density = 2.000749 g / cm^3
# Si number density = 20.053136 Si / 1000 Ang^3
#
#
#
# Elastic Constant Matrix: (Units=GPa)
#
#
# Indices 1 2 3 4 5 6 
#
# 1 31.4468 18.1853 -5.8957 0.0000 7.6724 0.0000
# 2 18.1853 146.9526 29.6272 0.0000 8.5133 0.0000
# 3 -5.8957 29.6272 62.3962 0.0000 19.2928 0.0000
# 4 0.0000 0.0000 0.0000 30.4731 0.0000 2.5550
# 5 7.6724 8.5133 19.2928 0.0000 23.8578 0.0000
# 6 0.0000 0.0000 0.0000 2.5550 0.0000 25.4235
#
#
#
# Elastic Compliance Matrix: (Units=1/GPa)
#
#
# Indices 1 2 3 4 5 6 
#
# 1 0.044589 -0.007158 0.015009 0.000000 -0.023922 0.000000
# 2 -0.007158 0.008676 -0.006067 0.000000 0.004112 0.000000
# 3 0.015009 -0.006067 0.028199 0.000000 -0.025465 0.000000
# 4 0.000000 0.000000 0.000000 0.033095 0.000000 -0.003326
# 5 -0.023922 0.004112 -0.025465 0.000000 0.068733 0.000000
# 6 0.000000 0.000000 0.000000 -0.003326 0.000000 0.039668
#
#
# Mechanical properties :
#
#
# Convention : Reuss Voigt Hill
#
# Bulk Modulus (GPa) = 11.76042 36.06991 23.91516
# Shear Modulus (GPa) = 20.18266 29.20947 24.69607
#
# Velocity S-wave (km/s) = 3.17592 3.82069 3.51313
# Velocity P-wave (km/s) = 4.39613 6.12289 5.32990
#
# Compressibility (1/GPa) = 0.08503097
#
# Stress axis : x y z
#
# Youngs Moduli (GPa) = 22.42690 115.26454 35.46170
#
# Poissons Ratio (x) = 0.82505 -0.53223
# Poissons Ratio (y) = 0.16053 0.21516
# Poissons Ratio (z) = -0.33659 0.69935
#
# Static dielectric constant tensor:
#      x y z
#    x 1.758340 0.000000 0.048190 
#    y 0.000000 1.752450 0.000000 
#    z 0.048190 0.000000 1.701010 
# 
# From -- ./inp_files/22041.got.cif
#   From: 2010.05.17/outbox.cif.g08.bks.cpg/sg11_12_cif.got.tgz:22041.got - 2010.06.03 12:22:45.
