data_PCOD9157217
_publ_section_title
;
Structure prediction by ZEFSAII (Michael W. Deem and Ramdas Pophale) SiO2 
 PCOD9157217
Probable space group: P 21/M
;
_chemical_formula_sum "Si O2"
_cell_formula_units_Z 32
_cell_length_a 28.269472
_cell_length_b 7.860958
_cell_length_c 21.944908
_cell_angle_alpha 90.000000
_cell_angle_beta 161.270959
_cell_angle_gamma 90.000000
_cell_volume 1565.877730
_symmetry_space_group_name_H-M "P 21/M"
_symmetry_group_IT_number 11
_symmetry_cell_setting 'monoclinic'
loop_
_space_group_symop_operation_xyz
x,y,z
-x,1/2+y,-z
-x,-y,-z
x,1/2-y,z
loop_
_atom_site_type_symbol
_atom_site_label
_atom_site_fract_x
_atom_site_fract_y
_atom_site_fract_z
Si Si1 0.121075 0.458270 0.461844
Si Si2 0.550938 0.047421 0.743504
Si Si3 0.937477 0.546298 0.015703
Si Si4 0.147196 0.954697 0.950941
Si Si5 0.230936 0.950673 0.311281
Si Si6 0.041477 0.953801 0.618530
Si Si7 0.547079 0.955084 0.126125
Si Si8 0.625746 0.041623 0.966767
O O1 0.122176 0.250000 0.461102
O O2 0.288063 0.514847 0.656329
O O3 0.994322 0.515533 0.260580
O O4 0.071823 0.514864 0.469009
O O5 0.572019 0.250000 0.772890
O O6 0.545919 0.985120 0.807440
O O7 0.394500 0.018413 0.521081
O O8 0.696461 0.981291 0.885517
O O9 0.941570 0.750000 0.017530
O O10 0.880054 0.495585 0.011810
O O11 0.102620 0.481435 0.200293
O O12 0.830740 0.484625 0.831539
O O13 0.149243 0.750000 0.947531
O O14 0.239983 0.750000 0.331883
O O15 0.043874 0.750000 0.626090
O O16 0.205528 0.013656 0.833177
O O17 0.000000 0.000000 0.500000
O O18 0.547540 0.750000 0.128964
O O19 0.440356 0.017476 0.049722
O O20 0.500000 0.000000 0.000000
O O21 0.622319 0.250000 0.964205
#
# Coordination Sequence:
#
# PCOD9157217 Si02
#       8
#     4   4   4   4   4   4   4   4
#     4   9  18  33  53  77 105 140 183 226 271 329
#     4  10  20  36  59  86 114 148 190 234 279 332
#     4  10  22  40  61  87 117 149 186 228 274 329
#     4  10  20  36  59  86 114 148 190 234 279 332
#     4  10  22  40  61  87 117 149 186 228 274 329
#     4  10  18  32  52  74 103 138 179 224 269 322
#     4  10  20  34  52  76 105 140 183 230 279 330
#     4   9  18  33  53  77 105 140 183 226 271 329
#
# _framework density 20.435825000000001
#
# number of rings (size 3 to 8) (size 9 to 14) (size 15 to 20)
#    0.000    2.250    1.250    1.500    1.750    2.500 
#    0.000    2.500    0.000    0.000    0.000    0.000 
#    0.000    0.000    0.000    0.000    0.000    0.000 
#
# Total GULP energy -178587.006609 kJ/mol
# GULP energy per Si atom -5580.843957 kJ/mol
# Density = 2.038931 g / cm^3
# Si number density = 20.435825 Si / 1000 Ang^3
#
#
#
# Elastic Constant Matrix: (Units=GPa)
#
#
# Indices 1 2 3 4 5 6 
#
# 1 94.4787 -3.0407 6.5684 0.0000 -1.7389 0.0000
# 2 -3.0407 25.2018 3.3365 0.0000 2.0790 0.0000
# 3 6.5684 3.3365 85.5255 0.0000 -3.9428 0.0000
# 4 0.0000 0.0000 0.0000 13.3250 0.0000 -5.2798
# 5 -1.7389 2.0790 -3.9428 0.0000 29.6216 0.0000
# 6 0.0000 0.0000 0.0000 -5.2798 0.0000 23.6687
#
#
#
# Elastic Compliance Matrix: (Units=1/GPa)
#
#
# Indices 1 2 3 4 5 6 
#
# 1 0.010696 0.001369 -0.000856 0.000000 0.000418 0.000000
# 2 0.001369 0.040332 -0.001817 0.000000 -0.002992 0.000000
# 3 -0.000856 -0.001817 0.011906 0.000000 0.001662 0.000000
# 4 0.000000 0.000000 0.000000 0.082323 0.000000 0.018364
# 5 0.000418 -0.002992 0.001662 0.000000 0.034215 0.000000
# 6 0.000000 0.000000 0.000000 0.018364 0.000000 0.046346
#
#
# Mechanical properties :
#
#
# Convention : Reuss Voigt Hill
#
# Bulk Modulus (GPa) = 16.57612 24.32605 20.45109
# Shear Modulus (GPa) = 20.11807 26.54585 23.33196
#
# Velocity S-wave (km/s) = 3.14100 3.60806 3.38260
# Velocity P-wave (km/s) = 4.61340 5.41174 5.02843
#
# Compressibility (1/GPa) = 0.06032775
#
# Stress axis : x y z
#
# Youngs Moduli (GPa) = 93.49607 24.79408 83.99398
#
# Poissons Ratio (x) = -0.03395 0.07186
# Poissons Ratio (y) = -0.12802 0.15258
# Poissons Ratio (z) = 0.07999 0.04504
#
# Static dielectric constant tensor:
#      x y z
#    x 1.731170 0.000000 0.015020 
#    y 0.000000 1.755490 0.000000 
#    z 0.015020 0.000000 1.716120 
# 
# From -- ./inp_files/67308.got.cif
#   From: 2010.05.17/outbox.cif.g08.bks.cpg/sg11_34_cif.got.tgz:67308.got - 2010.06.03 12:22:45.
