data_PCOD9157844
_publ_section_title
;
Structure prediction by ZEFSAII (Michael W. Deem and Ramdas Pophale) SiO2 
 PCOD9157844
Probable space group: P 21/M
;
_chemical_formula_sum "Si O2"
_cell_formula_units_Z 32
_cell_length_a 19.028900
_cell_length_b 9.070241
_cell_length_c 13.989971
_cell_angle_alpha 90.000000
_cell_angle_beta 68.554202
_cell_angle_gamma 90.000000
_cell_volume 2247.443788
_symmetry_space_group_name_H-M "P 21/M"
_symmetry_group_IT_number 11
_symmetry_cell_setting 'monoclinic'
loop_
_space_group_symop_operation_xyz
x,y,z
-x,1/2+y,-z
-x,-y,-z
x,1/2-y,z
loop_
_atom_site_type_symbol
_atom_site_label
_atom_site_fract_x
_atom_site_fract_y
_atom_site_fract_z
Si Si1 0.883704 0.574239 0.093184
Si Si2 0.586215 0.575901 0.566193
Si Si3 0.039701 0.926698 0.340753
Si Si4 0.421952 0.925689 0.635532
Si Si5 0.882095 0.925741 0.522349
Si Si6 0.739251 0.074345 0.495274
Si Si7 0.039503 0.572883 0.120441
Si Si8 0.744887 0.075650 0.264736
O O1 0.880912 0.750000 0.086559
O O2 0.807349 0.513593 0.176873
O O3 0.954862 0.535471 0.126428
O O4 0.903436 0.503354 0.981247
O O5 0.600779 0.750000 0.564617
O O6 0.579751 0.524160 0.458963
O O7 0.501641 0.546519 0.648029
O O8 0.658179 0.488220 0.568905
O O9 0.050701 0.750000 0.343779
O O10 0.049633 0.969666 0.225616
O O11 0.954000 0.957758 0.417871
O O12 0.094597 0.009303 0.386529
O O13 0.422032 0.750000 0.608366
O O14 0.341585 0.952365 0.725220
O O15 0.872935 0.750000 0.531637
O O16 0.807728 0.000129 0.517116
O O17 0.740872 0.250000 0.505092
O O18 0.747363 0.041482 0.377334
O O19 0.047327 0.750000 0.109553
O O20 0.759950 0.250000 0.246879
#
# Coordination Sequence:
#
# PCOD9157844 Si02
#       8
#     4   4   4   4   4   4   4   4
#     4  10  19  29  43  64  85 106 139 178 210 244
#     4   9  15  24  39  57  79 108 141 174 206 242
#     4   9  18  32  47  62  83 111 141 173 210 251
#     4   8  15  26  38  55  80 110 141 170 204 248
#     4  10  19  30  45  65  86 108 139 176 211 248
#     4  10  19  29  41  59  85 115 145 175 208 248
#     4   9  18  32  46  59  81 112 141 171 209 250
#     4   9  17  28  41  58  83 114 143 171 206 247
#
# _framework density 14.238398999999999
#
# number of rings (size 3 to 8) (size 9 to 14) (size 15 to 20)
#    0.000    2.750    0.000    3.000    0.000    5.500 
#    0.000    0.000    0.000    0.000    0.000    0.000 
#    0.000    1.000    0.000    3.000    0.000    4.250 
#
# Total GULP energy -178210.076589 kJ/mol
# GULP energy per Si atom -5569.064893 kJ/mol
# Density = 1.420599 g / cm^3
# Si number density = 14.238399 Si / 1000 Ang^3
#
#
#
# Elastic Constant Matrix: (Units=GPa)
#
#
# Indices 1 2 3 4 5 6 
#
# 1 128.7452 55.9787 56.9393 0.0000 -10.8165 0.0000
# 2 55.9787 43.8268 40.4035 0.0000 -4.1615 0.0000
# 3 56.9393 40.4035 82.4059 0.0000 -3.3187 0.0000
# 4 0.0000 0.0000 0.0000 20.1474 0.0000 -2.3132
# 5 -10.8165 -4.1615 -3.3187 0.0000 20.0670 0.0000
# 6 0.0000 0.0000 0.0000 -2.3132 0.0000 25.1918
#
#
#
# Elastic Compliance Matrix: (Units=1/GPa)
#
#
# Indices 1 2 3 4 5 6 
#
# 1 0.018168 -0.020685 -0.002205 0.000000 0.005139 0.000000
# 2 -0.020685 0.065754 -0.017966 0.000000 -0.000485 0.000000
# 3 -0.002205 -0.017966 0.022419 0.000000 -0.001207 0.000000
# 4 0.000000 0.000000 0.000000 0.050163 0.000000 0.004606
# 5 0.005139 -0.000485 -0.001207 0.000000 0.052303 0.000000
# 6 0.000000 0.000000 0.000000 0.004606 0.000000 0.040118
#
#
# Mechanical properties :
#
#
# Convention : Reuss Voigt Hill
#
# Bulk Modulus (GPa) = 40.60228 62.40231 51.50230
# Shear Modulus (GPa) = 14.75598 19.85832 17.30715
#
# Velocity S-wave (km/s) = 3.22273 3.73862 3.49022
# Velocity P-wave (km/s) = 6.51352 7.90938 7.24515
#
# Compressibility (1/GPa) = 0.02462916
#
# Stress axis : x y z
#
# Youngs Moduli (GPa) = 55.04232 15.20818 44.60601
#
# Poissons Ratio (x) = 0.31458 0.09834
# Poissons Ratio (y) = 1.13855 0.80140
# Poissons Ratio (z) = 0.12134 0.27323
#
# Static dielectric constant tensor:
#      x y z
#    x 1.483440 0.000000 -0.017510 
#    y 0.000000 1.471570 0.000000 
#    z -0.017510 0.000000 1.444970 
# 
# From -- ./inp_files/52943.got.cif
#   From: 2010.05.17/outbox.cif.g08.bks.cpg/sg11_27_cif.got.tgz:52943.got - 2010.06.03 12:22:45.
