data_PCOD9157707
_publ_section_title
;
Structure prediction by ZEFSAII (Michael W. Deem and Ramdas Pophale) SiO2 
 PCOD9157707
Probable space group: P 21/M
;
_chemical_formula_sum "Si O2"
_cell_formula_units_Z 28
_cell_length_a 9.842558
_cell_length_b 13.363051
_cell_length_c 11.251510
_cell_angle_alpha 90.000000
_cell_angle_beta 65.339839
_cell_angle_gamma 90.000000
_cell_volume 1344.906292
_symmetry_space_group_name_H-M "P 21/M"
_symmetry_group_IT_number 11
_symmetry_cell_setting 'monoclinic'
loop_
_space_group_symop_operation_xyz
x,y,z
-x,1/2+y,-z
-x,-y,-z
x,1/2-y,z
loop_
_atom_site_type_symbol
_atom_site_label
_atom_site_fract_x
_atom_site_fract_y
_atom_site_fract_z
Si Si1 0.140810 0.135906 0.530155
Si Si2 0.688006 0.566381 0.768168
Si Si3 0.377732 0.865392 0.794522
Si Si4 0.783160 0.363112 0.636828
Si Si5 0.065592 0.860728 0.048850
Si Si6 0.770320 0.436071 0.381086
Si Si7 0.068352 0.078667 0.141792
O O1 0.166707 0.250000 0.558193
O O2 0.223690 0.115190 0.375306
O O3 0.962989 0.121075 0.576085
O O4 0.202973 0.051715 0.595528
O O5 0.516620 0.593988 0.817391
O O6 0.709214 0.447460 0.744622
O O7 0.775832 0.600697 0.852677
O O8 0.406291 0.750000 0.753168
O O9 0.227727 0.869122 0.927564
O O10 0.346803 0.922443 0.682350
O O11 0.750672 0.250000 0.684810
O O12 0.734005 0.382465 0.518485
O O13 0.050258 0.750000 0.108834
O O14 0.951045 0.874391 0.980907
O O15 0.050655 0.958327 0.134431
O O16 0.926941 0.390669 0.274310
#
# Coordination Sequence:
#
# PCOD9157707 Si02
#       7
#     4   4   4   4   4   4   4
#     4  10  19  31  52  85 113 139 180 224 261 311
#     4  11  20  35  54  81 111 143 181 219 264 316
#     4  10  22  37  54  78 110 147 180 220 271 318
#     4  10  19  32  53  84 113 143 181 220 261 314
#     4   9  21  38  56  80 105 134 179 226 274 323
#     4  10  18  36  54  78 110 146 177 218 266 313
#     4  10  19  35  59  79 101 136 182 224 269 314
#
# _framework density 20.819293999999999
#
# number of rings (size 3 to 8) (size 9 to 14) (size 15 to 20)
#    0.000    2.000    2.857    1.714    0.000    5.714 
#    0.000    2.143    0.000    3.429    0.000    0.000 
#    0.000    0.000    0.000    0.000    0.000    0.000 
#
# Total GULP energy -156494.951823 kJ/mol
# GULP energy per Si atom -5589.105422 kJ/mol
# Density = 2.077191 g / cm^3
# Si number density = 20.819294 Si / 1000 Ang^3
#
#
#
# Elastic Constant Matrix: (Units=GPa)
#
#
# Indices 1 2 3 4 5 6 
#
# 1 143.3157 21.5525 20.4869 0.0000 19.3436 0.0000
# 2 21.5525 87.0520 2.0830 0.0000 -6.6186 0.0000
# 3 20.4869 2.0830 27.5735 0.0000 10.9371 0.0000
# 4 0.0000 0.0000 0.0000 2.5979 0.0000 -6.9374
# 5 19.3436 -6.6186 10.9371 0.0000 16.0354 0.0000
# 6 0.0000 0.0000 0.0000 -6.9374 0.0000 19.2250
#
#
#
# Elastic Compliance Matrix: (Units=1/GPa)
#
#
# Indices 1 2 3 4 5 6 
#
# 1 0.009228 -0.003049 -0.002346 0.000000 -0.010790 0.000000
# 2 -0.003049 0.013179 -0.003217 0.000000 0.011312 0.000000
# 3 -0.002346 -0.003217 0.051623 0.000000 -0.033708 0.000000
# 4 0.000000 0.000000 0.000000 10.571252 0.000000 3.814640
# 5 -0.010790 0.011312 -0.033708 0.000000 0.103037 0.000000
# 6 0.000000 0.000000 0.000000 3.814640 0.000000 1.428530
#
#
# Mechanical properties :
#
#
# Convention : Reuss Voigt Hill
#
# Bulk Modulus (GPa) = 17.60382 38.46511 28.03447
# Shear Modulus (GPa) = 0.40940 21.82627 11.11783
#
# Velocity S-wave (km/s) = 0.44393 3.24136 2.31339
# Velocity P-wave (km/s) = 2.95578 5.70302 4.54208
#
# Compressibility (1/GPa) = 0.05680584
#
# Stress axis : x y z
#
# Youngs Moduli (GPa) = 108.36833 75.87692 19.37120
#
# Poissons Ratio (x) = 0.23134 0.04545
# Poissons Ratio (y) = 0.33040 0.06232
# Poissons Ratio (z) = 0.25424 0.24411
#
# Static dielectric constant tensor:
#      x y z
#    x 1.734730 0.000000 0.013990 
#    y 0.000000 1.759670 0.000000 
#    z 0.013990 0.000000 1.740060 
# 
# From -- ./inp_files/21959.got.cif
#   From: 2010.05.17/outbox.cif.g08.bks.cpg/sg11_11_cif.got.tgz:21959.got - 2010.06.03 12:22:45.
