data_PCOD9157565
_publ_section_title
;
Structure prediction by ZEFSAII (Michael W. Deem and Ramdas Pophale) SiO2 
 PCOD9157565
Probable space group: P 21/M
;
_chemical_formula_sum "Si O2"
_cell_formula_units_Z 28
_cell_length_a 17.252283
_cell_length_b 8.679966
_cell_length_c 15.516503
_cell_angle_alpha 90.000000
_cell_angle_beta 45.817927
_cell_angle_gamma 90.000000
_cell_volume 1666.309054
_symmetry_space_group_name_H-M "P 21/M"
_symmetry_group_IT_number 11
_symmetry_cell_setting 'monoclinic'
loop_
_space_group_symop_operation_xyz
x,y,z
-x,1/2+y,-z
-x,-y,-z
x,1/2-y,z
loop_
_atom_site_type_symbol
_atom_site_label
_atom_site_fract_x
_atom_site_fract_y
_atom_site_fract_z
Si Si1 0.914792 0.566004 0.188079
Si Si2 0.891347 0.065509 0.389921
Si Si3 0.131504 0.062747 0.258355
Si Si4 0.145486 0.435711 0.954167
Si Si5 0.305064 0.435920 0.977964
Si Si6 0.518555 0.565666 0.890055
Si Si7 0.759395 0.936232 0.649072
O O1 0.913762 0.750000 0.196255
O O2 0.870766 0.492939 0.309441
O O3 0.852489 0.522277 0.148191
O O4 0.037686 0.509018 0.078164
O O5 0.891564 0.250000 0.390215
O O6 0.011965 0.010989 0.324459
O O7 0.807205 0.003768 0.524781
O O8 0.130461 0.250000 0.258560
O O9 0.168246 0.013508 0.324932
O O10 0.221403 0.016661 0.118542
O O11 0.133097 0.250000 0.969649
O O12 0.248519 0.478328 0.931654
O O13 0.314960 0.250000 0.974092
O O14 0.420610 0.508754 0.906723
O O15 0.518125 0.750000 0.895816
O O16 0.635988 0.517634 0.763960
O O17 0.500000 0.500000 0.000000
O O18 0.763256 0.750000 0.642135
#
# Coordination Sequence:
#
# PCOD9157565 Si02
#       7
#     4   4   4   4   4   4   4
#     4  10  19  31  51  79 108 139 174 213 260 316
#     4  11  21  34  53  77 106 141 177 214 259 316
#     4   9  17  32  52  74 105 141 169 205 260 309
#     4   9  18  33  53  77 107 141 173 212 265 313
#     4  10  18  34  56  77 107 140 172 216 264 310
#     4  11  22  36  55  78 105 139 179 221 261 306
#     4  10  21  37  52  71 104 142 176 215 259 305
#
# _framework density 16.803605000000001
#
# number of rings (size 3 to 8) (size 9 to 14) (size 15 to 20)
#    0.000    2.000    2.857    1.714    0.000    2.286 
#    0.000    0.714    0.000    0.857    0.000    0.000 
#    0.000    0.000    0.000    0.000    0.000    0.000 
#
# Total GULP energy -156271.279864 kJ/mol
# GULP energy per Si atom -5581.117138 kJ/mol
# Density = 1.676536 g / cm^3
# Si number density = 16.803605 Si / 1000 Ang^3
#
#
#
# Elastic Constant Matrix: (Units=GPa)
#
#
# Indices 1 2 3 4 5 6 
#
# 1 128.3072 33.3700 69.8957 0.0000 18.9644 0.0000
# 2 33.3700 22.4230 32.4400 0.0000 4.9319 0.0000
# 3 69.8957 32.4400 128.3127 0.0000 17.0828 0.0000
# 4 0.0000 0.0000 0.0000 25.6318 0.0000 -1.1911
# 5 18.9644 4.9319 17.0828 0.0000 25.2036 0.0000
# 6 0.0000 0.0000 0.0000 -1.1911 0.0000 24.2733
#
#
#
# Elastic Compliance Matrix: (Units=1/GPa)
#
#
# Indices 1 2 3 4 5 6 
#
# 1 0.014413 -0.015667 -0.003138 0.000000 -0.005653 0.000000
# 2 -0.015667 0.087427 -0.014136 0.000000 0.004262 0.000000
# 3 -0.003138 -0.014136 0.013623 0.000000 -0.004107 0.000000
# 4 0.000000 0.000000 0.000000 0.039103 0.000000 0.001919
# 5 -0.005653 0.004262 -0.004107 0.000000 0.045880 0.000000
# 6 0.000000 0.000000 0.000000 0.001919 0.000000 0.041292
#
#
# Mechanical properties :
#
#
# Convention : Reuss Voigt Hill
#
# Bulk Modulus (GPa) = 20.16900 61.16160 40.66530
# Shear Modulus (GPa) = 15.42507 24.57755 20.00131
#
# Velocity S-wave (km/s) = 3.03308 3.82859 3.45381
# Velocity P-wave (km/s) = 4.92899 7.48472 6.33703
#
# Compressibility (1/GPa) = 0.04958104
#
# Stress axis : x y z
#
# Youngs Moduli (GPa) = 69.38043 11.43813 73.40296
#
# Poissons Ratio (x) = 0.17920 0.23033
# Poissons Ratio (y) = 1.08698 1.03766
# Poissons Ratio (z) = 0.21770 0.16169
#
# Static dielectric constant tensor:
#      x y z
#    x 1.574140 0.000000 0.010810 
#    y 0.000000 1.571610 0.000000 
#    z 0.010810 0.000000 1.538300 
# 
# From -- ./inp_files/37036.got.cif
#   From: 2010.05.17/outbox.cif.g08.bks.cpg/sg11_19_cif.got.tgz:37036.got - 2010.06.03 12:22:45.
