data_PCOD9157522
_publ_section_title
;
Structure prediction by ZEFSAII (Michael W. Deem and Ramdas Pophale) SiO2 
 PCOD9157522
Probable space group: P 21/M
;
_chemical_formula_sum "Si O2"
_cell_formula_units_Z 20
_cell_length_a 7.435874
_cell_length_b 19.349525
_cell_length_c 6.248813
_cell_angle_alpha 90.000000
_cell_angle_beta 85.437132
_cell_angle_gamma 90.000000
_cell_volume 896.233636
_symmetry_space_group_name_H-M "P 21/M"
_symmetry_group_IT_number 11
_symmetry_cell_setting 'monoclinic'
loop_
_space_group_symop_operation_xyz
x,y,z
-x,1/2+y,-z
-x,-y,-z
x,1/2-y,z
loop_
_atom_site_type_symbol
_atom_site_label
_atom_site_fract_x
_atom_site_fract_y
_atom_site_fract_z
Si Si1 0.883392 0.617713 0.117695
Si Si2 0.373377 0.042170 0.173831
Si Si3 0.852361 0.442848 0.565331
Si Si4 0.326674 0.170781 0.472930
Si Si5 0.060976 0.677640 0.715422
O O1 0.716033 0.642451 0.283147
O O2 0.051847 0.592724 0.242149
O O3 0.799507 0.562800 0.958325
O O4 0.978743 0.673553 0.958532
O O5 0.413680 0.113615 0.302916
O O6 0.321622 0.985406 0.355298
O O7 0.500000 0.000000 0.000000
O O8 0.830966 0.388702 0.375903
O O9 0.000000 0.500000 0.500000
O O10 0.398886 0.250000 0.465050
O O11 0.120579 0.176122 0.408563
O O12 0.158635 0.750000 0.671488
#
# Coordination Sequence:
#
# PCOD9157522 Si02
#       5
#     4   4   4   4   4
#     4  10  18  33  61  79 107 142 184 219 274 314
#     4  11  23  36  54  84 112 144 179 224 271 321
#     4  11  19  36  56  81 109 140 180 229 264 317
#     4   9  18  34  54  80 109 139 182 224 263 323
#     4   9  18  31  54  83 108 137 182 227 267 316
#
# _framework density 22.31561
#
# number of rings (size 3 to 8) (size 9 to 14) (size 15 to 20)
#    0.000    2.000    6.000    1.200    0.000    2.400 
#    0.000    1.000    0.000    2.400    0.000    0.000 
#    0.000    0.000    0.000    0.000    0.000    0.000 
#
# Total GULP energy -111343.275337 kJ/mol
# GULP energy per Si atom -5567.163767 kJ/mol
# Density = 2.226482 g / cm^3
# Si number density = 22.315610 Si / 1000 Ang^3
#
#
#
# Elastic Constant Matrix: (Units=GPa)
#
#
# Indices 1 2 3 4 5 6 
#
# 1 41.2834 17.7706 8.2126 0.0000 -7.4637 0.0000
# 2 17.7706 177.6389 73.9482 0.0000 -31.6584 0.0000
# 3 8.2126 73.9482 111.8491 0.0000 -19.0783 0.0000
# 4 0.0000 0.0000 0.0000 17.9047 0.0000 -10.1171
# 5 -7.4637 -31.6584 -19.0783 0.0000 33.4694 0.0000
# 6 0.0000 0.0000 0.0000 -10.1171 0.0000 3.2940
#
#
#
# Elastic Compliance Matrix: (Units=1/GPa)
#
#
# Indices 1 2 3 4 5 6 
#
# 1 0.025745 -0.001879 0.000031 0.000000 0.003982 0.000000
# 2 -0.001879 0.008703 -0.004744 0.000000 0.005108 0.000000
# 3 0.000031 -0.004744 0.012529 0.000000 0.002661 0.000000
# 4 0.000000 0.000000 0.000000 -0.075934 0.000000 -0.233226
# 5 0.003982 0.005108 0.002661 0.000000 0.037115 0.000000
# 6 0.000000 0.000000 0.000000 -0.233226 0.000000 -0.412750
#
#
# Mechanical properties :
#
#
# Convention : Reuss Voigt Hill
#
# Bulk Modulus (GPa) = 29.59239 58.95936 44.27587
# Shear Modulus (GPa) = -13.15293 26.32295 6.58501
#
# Velocity S-wave (km/s) = -2.43040 3.43822 1.71967
# Velocity P-wave (km/s) = 2.32677 6.49922 4.88128
#
# Compressibility (1/GPa) = 0.03379248
#
# Stress axis : x y z
#
# Youngs Moduli (GPa) = 38.84208 114.90529 79.81479
#
# Poissons Ratio (x) = 0.21588 -0.00247
# Poissons Ratio (y) = 0.07297 0.37868
# Poissons Ratio (z) = -0.00120 0.54517
#
# Static dielectric constant tensor:
#      x y z
#    x 1.803430 0.000000 -0.018030 
#    y 0.000000 1.907550 0.000000 
#    z -0.018030 0.000000 1.943230 
# 
# From -- ./inp_files/1947.got.cif
#   From: 2010.05.17/outbox.cif.g08.bks.cpg/sg11_1_cif.got.tgz:1947.got - 2010.06.03 12:22:45.
