data_PCOD9157580
_publ_section_title
;
Structure prediction by ZEFSAII (Michael W. Deem and Ramdas Pophale) SiO2 
 PCOD9157580
Probable space group: P 21/M
;
_chemical_formula_sum "Si O2"
_cell_formula_units_Z 30
_cell_length_a 11.823633
_cell_length_b 12.568252
_cell_length_c 9.267038
_cell_angle_alpha 90.000000
_cell_angle_beta 112.313621
_cell_angle_gamma 90.000000
_cell_volume 1273.985815
_symmetry_space_group_name_H-M "P 21/M"
_symmetry_group_IT_number 11
_symmetry_cell_setting 'monoclinic'
loop_
_space_group_symop_operation_xyz
x,y,z
-x,1/2+y,-z
-x,-y,-z
x,1/2-y,z
loop_
_atom_site_type_symbol
_atom_site_label
_atom_site_fract_x
_atom_site_fract_y
_atom_site_fract_z
Si Si1 0.371522 0.129308 0.891992
Si Si2 0.888460 0.369282 0.866994
Si Si3 0.171634 0.084977 0.017427
Si Si4 0.096695 0.624520 0.667449
Si Si5 0.148285 0.014184 0.420552
Si Si6 0.452534 0.570218 0.755340
Si Si7 0.724396 0.250000 0.257337
Si Si8 0.649262 0.629816 0.636052
O O1 0.374970 0.250000 0.839978
O O2 0.409703 0.043095 0.793444
O O3 0.239544 0.106436 0.900070
O O4 0.465285 0.117807 0.072400
O O5 0.842426 0.250000 0.862519
O O6 0.839233 0.460930 0.947843
O O7 0.862356 0.417134 0.695777
O O8 0.035352 0.370564 0.952016
O O9 0.251602 0.133315 0.185107
O O10 0.107560 0.750000 0.603976
O O11 0.125066 0.533874 0.566523
O O12 0.213996 0.653086 0.817800
O O13 0.964721 0.597013 0.664126
O O14 0.275654 0.071641 0.453048
O O15 0.346049 0.655732 0.685679
O O16 0.536855 0.568635 0.654891
O O17 0.614366 0.750000 0.580840
#
# Coordination Sequence:
#
# PCOD9157580 Si02
#       8
#     4   4   4   4   4   4   2   4
#     4  10  19  34  54  79 118 148 188 229 264 331
#     4  10  19  32  49  75 112 142 179 224 275 333
#     4   9  19  32  47  78 110 147 179 215 273 330
#     4   9  21  37  57  80 109 137 181 238 279 334
#     4  10  20  36  56  83 103 144 183 224 289 329
#     4  10  19  35  56  83 109 154 187 219 281 327
#     4  10  20  38  58  82 112 144 184 240 276 330
#     4  10  18  34  57  77 110 144 178 219 265 340
#
# _framework density 23.548143
#
# number of rings (size 3 to 8) (size 9 to 14) (size 15 to 20)
#    0.400    1.867    1.333    2.800    1.867    0.000 
#    1.200    8.667    0.000    0.800    0.000    0.000 
#    0.000    0.000    0.000    0.000    0.000    0.000 
#
# Total GULP energy -167027.652779 kJ/mol
# GULP energy per Si atom -5567.588426 kJ/mol
# Density = 2.349455 g / cm^3
# Si number density = 23.548143 Si / 1000 Ang^3
#
#
#
# Elastic Constant Matrix: (Units=GPa)
#
#
# Indices 1 2 3 4 5 6 
#
# 1 123.5898 70.9209 16.3120 0.0000 -16.4195 0.0000
# 2 70.9209 190.8302 11.2403 0.0000 -24.1308 0.0000
# 3 16.3120 11.2403 39.5471 0.0000 -7.3344 0.0000
# 4 0.0000 0.0000 0.0000 42.5367 0.0000 35.5359
# 5 -16.4195 -24.1308 -7.3344 0.0000 24.3065 0.0000
# 6 0.0000 0.0000 0.0000 35.5359 0.0000 79.5615
#
#
#
# Elastic Compliance Matrix: (Units=1/GPa)
#
#
# Indices 1 2 3 4 5 6 
#
# 1 0.010881 -0.003492 -0.002940 0.000000 0.002997 0.000000
# 2 -0.003492 0.007128 0.000306 0.000000 0.004810 0.000000
# 3 -0.002940 0.000306 0.027647 0.000000 0.006661 0.000000
# 4 0.000000 0.000000 0.000000 0.037503 0.000000 -0.016751
# 5 0.002997 0.004810 0.006661 0.000000 0.049951 0.000000
# 6 0.000000 0.000000 0.000000 -0.016751 0.000000 0.020050
#
#
# Mechanical properties :
#
#
# Convention : Reuss Voigt Hill
#
# Bulk Modulus (GPa) = 29.93489 61.21260 45.57374
# Shear Modulus (GPa) = 28.32108 46.31385 37.31746
#
# Velocity S-wave (km/s) = 3.47174 4.43964 3.98519
# Velocity P-wave (km/s) = 5.36754 7.23406 6.36954
#
# Compressibility (1/GPa) = 0.03340584
#
# Stress axis : x y z
#
# Youngs Moduli (GPa) = 91.90175 140.28794 36.17011
#
# Poissons Ratio (x) = 0.48986 0.10634
# Poissons Ratio (y) = 0.32090 -0.01108
# Poissons Ratio (z) = 0.27018 -0.04298
#
# Static dielectric constant tensor:
#      x y z
#    x 2.019760 0.000000 -0.033600 
#    y 0.000000 1.954290 0.000000 
#    z -0.033600 0.000000 2.050780 
# 
# From -- ./inp_files/34901.got.cif
#   From: 2010.05.17/outbox.cif.g08.bks.cpg/sg11_18_cif.got.tgz:34901.got - 2010.06.03 12:22:45.
