data_PCOD9157657
_publ_section_title
;
Structure prediction by ZEFSAII (Michael W. Deem and Ramdas Pophale) SiO2 
 PCOD9157657
Probable space group: P 21/M
;
_chemical_formula_sum "Si O2"
_cell_formula_units_Z 24
_cell_length_a 12.699007
_cell_length_b 15.287148
_cell_length_c 7.009610
_cell_angle_alpha 90.000000
_cell_angle_beta 65.994279
_cell_angle_gamma 90.000000
_cell_volume 1243.085329
_symmetry_space_group_name_H-M "P 21/M"
_symmetry_group_IT_number 11
_symmetry_cell_setting 'monoclinic'
loop_
_space_group_symop_operation_xyz
x,y,z
-x,1/2+y,-z
-x,-y,-z
x,1/2-y,z
loop_
_atom_site_type_symbol
_atom_site_label
_atom_site_fract_x
_atom_site_fract_y
_atom_site_fract_z
Si Si1 0.223168 0.852037 0.043950
Si Si2 0.961529 0.150254 0.489399
Si Si3 0.657135 0.567260 0.418649
Si Si4 0.875896 0.035855 0.222405
Si Si5 0.447495 0.534001 0.843647
Si Si6 0.117687 0.346238 0.733956
O O1 0.233643 0.750000 0.991381
O O2 0.152820 0.900941 0.930115
O O3 0.346917 0.897306 0.961399
O O4 0.149392 0.860108 0.291462
O O5 0.962116 0.250000 0.413845
O O6 0.951578 0.080505 0.329483
O O7 0.069149 0.141674 0.555037
O O8 0.747530 0.488678 0.403162
O O9 0.550683 0.572437 0.638983
O O10 0.743846 0.648691 0.360035
O O11 0.609246 0.542368 0.245258
O O12 0.915761 0.937166 0.136511
O O13 0.500000 0.500000 0.000000
O O14 0.076766 0.250000 0.829015
#
# Coordination Sequence:
#
# PCOD9157657 Si02
#       6
#     4   4   4   4   4   4
#     4  10  21  34  53  81 105 135 174 214 258 308
#     4  10  19  33  54  80 110 135 168 214 255 308
#     4   8  19  33  52  76  99 136 172 212 256 301
#     4   9  18  35  55  76 102 141 172 208 259 307
#     4  10  18  35  54  73 103 134 172 217 257 305
#     4   9  19  35  54  79 107 138 174 212 256 306
#
# _framework density 19.306801
#
# number of rings (size 3 to 8) (size 9 to 14) (size 15 to 20)
#    1.000    1.667    0.000    2.000    0.000    1.333 
#    0.000    0.833    0.000    3.000    0.000    0.000 
#    0.000    0.000    0.000    0.000    0.000    0.000 
#
# Total GULP energy -133677.090066 kJ/mol
# GULP energy per Si atom -5569.878753 kJ/mol
# Density = 1.926286 g / cm^3
# Si number density = 19.306801 Si / 1000 Ang^3
#
#
#
# Elastic Constant Matrix: (Units=GPa)
#
#
# Indices 1 2 3 4 5 6 
#
# 1 117.1329 52.3598 39.9694 0.0000 -0.9811 0.0000
# 2 52.3598 149.9182 60.0209 0.0000 18.2700 0.0000
# 3 39.9694 60.0209 62.5401 0.0000 9.0297 0.0000
# 4 0.0000 0.0000 0.0000 12.7732 0.0000 -2.1964
# 5 -0.9811 18.2700 9.0297 0.0000 29.0227 0.0000
# 6 0.0000 0.0000 0.0000 -2.1964 0.0000 25.9860
#
#
#
# Elastic Compliance Matrix: (Units=1/GPa)
#
#
# Indices 1 2 3 4 5 6 
#
# 1 0.011502 -0.002112 -0.005834 0.000000 0.003533 0.000000
# 2 -0.002112 0.011625 -0.009151 0.000000 -0.004542 0.000000
# 3 -0.005834 -0.009151 0.029001 0.000000 -0.003459 0.000000
# 4 0.000000 0.000000 0.000000 0.079444 0.000000 0.006715
# 5 0.003533 -0.004542 -0.003459 0.000000 0.038511 0.000000
# 6 0.000000 0.000000 0.000000 0.006715 0.000000 0.039050
#
#
# Mechanical properties :
#
#
# Convention : Reuss Voigt Hill
#
# Bulk Modulus (GPa) = 55.76407 70.47683 63.12045
# Shear Modulus (GPa) = 20.05579 25.37245 22.71412
#
# Velocity S-wave (km/s) = 3.22653 3.62908 3.43371
# Velocity P-wave (km/s) = 6.54419 7.35821 6.96311
#
# Compressibility (1/GPa) = 0.01793269
#
# Stress axis : x y z
#
# Youngs Moduli (GPa) = 86.94348 86.01901 34.48211
#
# Poissons Ratio (x) = 0.18167 0.20117
# Poissons Ratio (y) = 0.18362 0.31556
# Poissons Ratio (z) = 0.50723 0.78720
#
# Static dielectric constant tensor:
#      x y z
#    x 1.710640 0.000000 -0.060170 
#    y 0.000000 1.700130 0.000000 
#    z -0.060170 0.000000 1.691270 
# 
# From -- ./inp_files/6578.got.cif
#   From: 2010.05.17/outbox.cif.g08.bks.cpg/sg11_4_cif.got.tgz:6578.got - 2010.06.03 12:22:45.
