data_PCOD9157872
_publ_section_title
;
Structure prediction by ZEFSAII (Michael W. Deem and Ramdas Pophale) SiO2 
 PCOD9157872
Probable space group: P 21/M
;
_chemical_formula_sum "Si O2"
_cell_formula_units_Z 28
_cell_length_a 12.480143
_cell_length_b 13.447059
_cell_length_c 21.131394
_cell_angle_alpha 90.000000
_cell_angle_beta 30.443279
_cell_angle_gamma 90.000000
_cell_volume 1796.855601
_symmetry_space_group_name_H-M "P 21/M"
_symmetry_group_IT_number 11
_symmetry_cell_setting 'monoclinic'
loop_
_space_group_symop_operation_xyz
x,y,z
-x,1/2+y,-z
-x,-y,-z
x,1/2-y,z
loop_
_atom_site_type_symbol
_atom_site_label
_atom_site_fract_x
_atom_site_fract_y
_atom_site_fract_z
Si Si1 0.144103 0.968784 0.520568
Si Si2 0.645621 0.635885 0.397686
Si Si3 0.027258 0.867435 0.849320
Si Si4 0.359083 0.475146 0.729787
Si Si5 0.170121 0.937269 0.647006
Si Si6 0.646114 0.867797 0.136361
Si Si7 0.155003 0.634235 0.382209
O O1 0.391267 0.999702 0.397590
O O2 0.996198 0.061748 0.579786
O O3 0.093250 0.922788 0.614801
O O4 0.124687 0.892605 0.471951
O O5 0.700445 0.750000 0.381307
O O6 0.671521 0.605476 0.310761
O O7 0.779110 0.554288 0.368237
O O8 0.398047 0.616614 0.538999
O O9 0.067885 0.750000 0.833381
O O10 0.215052 0.931510 0.785018
O O11 0.022731 0.898872 0.778141
O O12 0.811898 0.889922 0.996649
O O13 0.304817 0.429642 0.825420
O O14 0.660562 0.750000 0.143916
O O15 0.402164 0.886656 0.242266
O O16 0.112222 0.750000 0.392785
#
# Coordination Sequence:
#
# PCOD9157872 Si02
#       7
#     4   4   4   4   4   4   4
#     4   9  18  31  46  67  88 109 143 181 222 260
#     4   9  16  27  43  64  91 119 146 176 213 261
#     4  10  19  29  43  66  94 120 145 173 212 264
#     4   9  17  29  46  67  90 115 145 182 219 255
#     4   9  18  28  41  65  92 117 143 175 219 262
#     4   9  17  30  47  65  87 118 151 180 211 251
#     4   9  18  32  49  66  84 110 147 186 217 252
#
# _framework density 15.582777
#
# number of rings (size 3 to 8) (size 9 to 14) (size 15 to 20)
#    0.000    2.857    0.000    2.143    0.000    5.143 
#    0.000    0.714    0.000    0.000    0.000    0.000 
#    0.000    0.000    0.000    0.000    0.000    0.000 
#
# Total GULP energy -156008.247310 kJ/mol
# GULP energy per Si atom -5571.723118 kJ/mol
# Density = 1.554731 g / cm^3
# Si number density = 15.582777 Si / 1000 Ang^3
#
#
#
# Elastic Constant Matrix: (Units=GPa)
#
#
# Indices 1 2 3 4 5 6 
#
# 1 50.7756 1.1253 37.3400 0.0000 13.8267 0.0000
# 2 1.1253 60.0929 30.9781 0.0000 2.0903 0.0000
# 3 37.3400 30.9781 87.7163 0.0000 28.0962 0.0000
# 4 0.0000 0.0000 0.0000 20.4311 0.0000 -0.5332
# 5 13.8267 2.0903 28.0962 0.0000 22.7991 0.0000
# 6 0.0000 0.0000 0.0000 -0.5332 0.0000 10.9149
#
#
#
# Elastic Compliance Matrix: (Units=1/GPa)
#
#
# Indices 1 2 3 4 5 6 
#
# 1 0.031328 0.007710 -0.016103 0.000000 0.000139 0.000000
# 2 0.007710 0.024265 -0.015929 0.000000 0.012729 0.000000
# 3 -0.016103 -0.015929 0.033514 0.000000 -0.030074 0.000000
# 4 0.000000 0.000000 0.000000 0.049007 0.000000 0.002394
# 5 0.000139 0.012729 -0.030074 0.000000 0.079671 0.000000
# 6 0.000000 0.000000 0.000000 0.002394 0.000000 0.091735
#
#
# Mechanical properties :
#
#
# Convention : Reuss Voigt Hill
#
# Bulk Modulus (GPa) = 24.71430 37.49684 31.10557
# Shear Modulus (GPa) = 13.45341 19.43844 16.44592
#
# Velocity S-wave (km/s) = 2.94147 3.53573 3.25220
# Velocity P-wave (km/s) = 5.23744 6.38622 5.84014
#
# Compressibility (1/GPa) = 0.04046240
#
# Stress axis : x y z
#
# Youngs Moduli (GPa) = 31.92017 41.21145 29.83846
#
# Poissons Ratio (x) = -0.31773 0.48050
# Poissons Ratio (y) = -0.24610 0.47529
# Poissons Ratio (z) = 0.51402 0.65645
#
# Static dielectric constant tensor:
#      x y z
#    x 1.513920 0.000000 0.019070 
#    y 0.000000 1.505520 0.000000 
#    z 0.019070 0.000000 1.519390 
# 
# From -- ./inp_files/31651.got.cif
#   From: 2010.05.17/outbox.cif.g08.bks.cpg/sg11_16_cif.got.tgz:31651.got - 2010.06.03 12:22:45.
