data_PCOD9157387
_publ_section_title
;
Structure prediction by ZEFSAII (Michael W. Deem and Ramdas Pophale) SiO2 
 PCOD9157387
Probable space group: P 21/M
;
_chemical_formula_sum "Si O2"
_cell_formula_units_Z 24
_cell_length_a 9.409133
_cell_length_b 14.267553
_cell_length_c 9.907274
_cell_angle_alpha 90.000000
_cell_angle_beta 104.199470
_cell_angle_gamma 90.000000
_cell_volume 1289.370188
_symmetry_space_group_name_H-M "P 21/M"
_symmetry_group_IT_number 11
_symmetry_cell_setting 'monoclinic'
loop_
_space_group_symop_operation_xyz
x,y,z
-x,1/2+y,-z
-x,-y,-z
x,1/2-y,z
loop_
_atom_site_type_symbol
_atom_site_label
_atom_site_fract_x
_atom_site_fract_y
_atom_site_fract_z
Si Si1 0.790439 0.532008 0.199647
Si Si2 0.907855 0.859344 0.480394
Si Si3 0.882425 0.525214 0.751668
Si Si4 0.619344 0.142666 0.272222
Si Si5 0.704652 0.859107 0.923755
Si Si6 0.768948 0.357009 0.578290
O O1 0.812534 0.590795 0.342449
O O2 0.713567 0.434288 0.216304
O O3 0.954169 0.511879 0.183864
O O4 0.703691 0.590626 0.068091
O O5 0.871076 0.750000 0.486111
O O6 0.890861 0.913803 0.616258
O O7 0.076783 0.865423 0.468436
O O8 0.819318 0.587633 0.855647
O O9 0.779828 0.435698 0.694610
O O10 0.670327 0.250000 0.258891
O O11 0.452560 0.135466 0.185908
O O12 0.643501 0.126762 0.437822
O O13 0.743679 0.750000 0.949125
O O14 0.759393 0.250000 0.626516
#
# Coordination Sequence:
#
# PCOD9157387 Si02
#       6
#     4   4   4   4   4   4
#     4  11  20  39  58  83 105 149 190 226 263 325
#     4  10  18  32  59  85 110 139 186 234 269 316
#     4  11  20  36  58  85 109 142 183 231 280 317
#     4  10  20  37  59  81 109 150 185 221 269 329
#     4  11  25  38  53  81 120 148 175 223 286 329
#     4   9  17  33  57  84 108 141 187 230 269 319
#
# _framework density 18.613738999999999
#
# number of rings (size 3 to 8) (size 9 to 14) (size 15 to 20)
#    0.000    1.667    3.333    3.000    0.000    2.000 
#    0.000    0.833    0.000    1.000    0.000    0.000 
#    0.000    0.000    0.000    0.000    0.000    0.000 
#
# Total GULP energy -134039.153812 kJ/mol
# GULP energy per Si atom -5584.964742 kJ/mol
# Density = 1.857137 g / cm^3
# Si number density = 18.613739 Si / 1000 Ang^3
#
#
#
# Elastic Constant Matrix: (Units=GPa)
#
#
# Indices 1 2 3 4 5 6 
#
# 1 12.9444 16.7696 7.5805 0.0000 13.5119 0.0000
# 2 16.7696 119.5741 12.0592 0.0000 4.5692 0.0000
# 3 7.5805 12.0592 -13.0547 0.0000 -7.7972 0.0000
# 4 0.0000 0.0000 0.0000 26.1744 0.0000 10.4985
# 5 13.5119 4.5692 -7.7972 0.0000 12.8121 0.0000
# 6 0.0000 0.0000 0.0000 10.4985 0.0000 16.6331
#
#
#
# Elastic Compliance Matrix: (Units=1/GPa)
#
#
# Indices 1 2 3 4 5 6 
#
# 1 0.126886 -0.024465 0.092259 0.000000 -0.068944 0.000000
# 2 -0.024465 0.012391 -0.011391 0.000000 0.014450 0.000000
# 3 0.092259 -0.011391 0.016235 0.000000 -0.083355 0.000000
# 4 0.000000 0.000000 0.000000 0.051156 0.000000 -0.032289
# 5 -0.068944 0.014450 -0.083355 0.000000 0.094878 0.000000
# 6 0.000000 0.000000 0.000000 -0.032289 0.000000 0.080501
#
#
# Mechanical properties :
#
#
# Convention : Reuss Voigt Hill
#
# Bulk Modulus (GPa) = 3.72694 21.36471 12.54582
# Shear Modulus (GPa) = 13.93998 16.66089 15.30043
#
# Velocity S-wave (km/s) = 2.73959 2.99504 2.87016
# Velocity P-wave (km/s) = 3.46608 4.84389 4.21171
#
# Compressibility (1/GPa) = 0.26831673
#
# Stress axis : x y z
#
# Youngs Moduli (GPa) = 7.88111 80.70568 61.59604
#
# Poissons Ratio (x) = 1.97446 -5.68276
# Poissons Ratio (y) = 0.19281 0.70163
# Poissons Ratio (z) = -0.72710 0.91931
#
# Static dielectric constant tensor:
#      x y z
#    x 1.629010 0.000000 0.022420 
#    y 0.000000 1.647330 0.000000 
#    z 0.022420 0.000000 1.625230 
# 
# From -- ./inp_files/12441.got.cif
#   From: 2010.05.17/outbox.cif.g08.bks.cpg/sg11_7_cif.got.tgz:12441.got - 2010.06.03 12:22:45.
