data_PCOD9157828
_publ_section_title
;
Structure prediction by ZEFSAII (Michael W. Deem and Ramdas Pophale) SiO2 
 PCOD9157828
Probable space group: P 21/M
;
_chemical_formula_sum "Si O2"
_cell_formula_units_Z 24
_cell_length_a 11.810973
_cell_length_b 8.571851
_cell_length_c 27.185828
_cell_angle_alpha 90.000000
_cell_angle_beta 149.487283
_cell_angle_gamma 90.000000
_cell_volume 1397.446953
_symmetry_space_group_name_H-M "P 21/M"
_symmetry_group_IT_number 11
_symmetry_cell_setting 'monoclinic'
loop_
_space_group_symop_operation_xyz
x,y,z
-x,1/2+y,-z
-x,-y,-z
x,1/2-y,z
loop_
_atom_site_type_symbol
_atom_site_label
_atom_site_fract_x
_atom_site_fract_y
_atom_site_fract_z
Si Si1 0.668988 0.926666 0.600915
Si Si2 0.281290 0.437395 0.891514
Si Si3 0.806773 0.068179 0.751201
Si Si4 0.054504 0.436408 0.597785
Si Si5 0.345840 0.438855 0.612062
Si Si6 0.836076 0.074088 0.256466
O O1 0.607098 0.750000 0.593465
O O2 0.906554 0.917412 0.663457
O O3 0.500000 0.000000 0.500000
O O4 0.698730 0.043005 0.657288
O O5 0.275506 0.250000 0.890461
O O6 0.275557 0.490189 0.832254
O O7 0.056980 0.496908 0.836396
O O8 0.500000 0.500000 0.000000
O O9 0.833905 0.250000 0.773763
O O10 0.603333 0.004357 0.708215
O O11 0.038451 0.250000 0.592695
O O12 0.218189 0.484086 0.614279
O O13 0.154322 0.493488 0.686831
O O14 0.810455 0.501931 0.491257
O O15 0.350003 0.250000 0.610711
O O16 0.746849 0.250000 0.227449
#
# Coordination Sequence:
#
# PCOD9157828 Si02
#       6
#     4   4   4   4   4   4
#     4  10  19  28  41  64  94 125 155 191 233 278
#     4  10  20  35  55  76  96 120 154 198 249 298
#     4   9  18  32  49  68  92 124 158 192 234 285
#     4  10  19  30  47  72 101 133 167 200 233 273
#     4   9  18  32  48  69 100 135 167 197 231 276
#     4  10  20  33  48  68  96 128 161 197 238 284
#
# _framework density 17.174175999999999
#
# number of rings (size 3 to 8) (size 9 to 14) (size 15 to 20)
#    0.000    2.333    0.000    3.000    0.000    8.000 
#    0.000    0.000    0.000    1.000    0.000    0.000 
#    0.000    0.000    0.000    0.000    0.000    0.000 
#
# Total GULP energy -133633.444369 kJ/mol
# GULP energy per Si atom -5568.060182 kJ/mol
# Density = 1.713509 g / cm^3
# Si number density = 17.174176 Si / 1000 Ang^3
#
#
#
# Elastic Constant Matrix: (Units=GPa)
#
#
# Indices 1 2 3 4 5 6 
#
# 1 78.6845 12.9818 48.1901 0.0000 3.8991 0.0000
# 2 12.9818 32.9973 24.5995 0.0000 -3.9862 0.0000
# 3 48.1901 24.5995 124.3354 0.0000 1.2788 0.0000
# 4 0.0000 0.0000 0.0000 20.0014 0.0000 -5.2457
# 5 3.8991 -3.9862 1.2788 0.0000 25.6923 0.0000
# 6 0.0000 0.0000 0.0000 -5.2457 0.0000 20.4239
#
#
#
# Elastic Compliance Matrix: (Units=1/GPa)
#
#
# Indices 1 2 3 4 5 6 
#
# 1 0.016958 -0.002479 -0.006055 0.000000 -0.002657 0.000000
# 2 -0.002479 0.036818 -0.006390 0.000000 0.006407 0.000000
# 3 -0.006055 -0.006390 0.011660 0.000000 -0.000653 0.000000
# 4 0.000000 0.000000 0.000000 0.053607 0.000000 0.013769
# 5 -0.002657 0.006407 -0.000653 0.000000 0.040352 0.000000
# 6 0.000000 0.000000 0.000000 0.013769 0.000000 0.052499
#
#
# Mechanical properties :
#
#
# Convention : Reuss Voigt Hill
#
# Bulk Modulus (GPa) = 28.09767 45.28444 36.69105
# Shear Modulus (GPa) = 19.71581 23.23991 21.47786
#
# Velocity S-wave (km/s) = 3.39188 3.68256 3.54021
# Velocity P-wave (km/s) = 5.63345 6.67133 6.17424
#
# Compressibility (1/GPa) = 0.03559014
#
# Stress axis : x y z
#
# Youngs Moduli (GPa) = 58.96981 27.16064 85.76058
#
# Poissons Ratio (x) = 0.06732 0.51926
# Poissons Ratio (y) = 0.14616 0.54797
# Poissons Ratio (z) = 0.35705 0.17354
#
# Static dielectric constant tensor:
#      x y z
#    x 1.619060 0.000000 0.050210 
#    y 0.000000 1.368740 0.000000 
#    z 0.050210 0.000000 1.538600 
# 
# From -- ./inp_files/33786.got.cif
#   From: 2010.05.17/outbox.cif.g08.bks.cpg/sg11_17_cif.got.tgz:33786.got - 2010.06.03 12:22:45.
