data_PCOD9157558
_publ_section_title
;
Structure prediction by ZEFSAII (Michael W. Deem and Ramdas Pophale) SiO2 
 PCOD9157558
Probable space group: P 21/M
;
_chemical_formula_sum "Si O2"
_cell_formula_units_Z 32
_cell_length_a 7.737073
_cell_length_b 22.900708
_cell_length_c 8.910638
_cell_angle_alpha 90.000000
_cell_angle_beta 128.813868
_cell_angle_gamma 90.000000
_cell_volume 1230.199935
_symmetry_space_group_name_H-M "P 21/M"
_symmetry_group_IT_number 11
_symmetry_cell_setting 'monoclinic'
loop_
_space_group_symop_operation_xyz
x,y,z
-x,1/2+y,-z
-x,-y,-z
x,1/2-y,z
loop_
_atom_site_type_symbol
_atom_site_label
_atom_site_fract_x
_atom_site_fract_y
_atom_site_fract_z
Si Si1 0.950055 0.813465 0.485714
Si Si2 0.630735 0.977535 0.423637
Si Si3 0.779841 0.187102 0.021530
Si Si4 0.145456 0.436428 0.937630
Si Si5 0.253738 0.902897 0.514597
Si Si6 0.495263 0.143659 0.617877
Si Si7 0.332056 0.187028 0.969210
Si Si8 0.954424 0.440969 0.166387
O O1 0.044248 0.750000 0.569972
O O2 0.740114 0.826823 0.477851
O O3 0.845463 0.811472 0.262494
O O4 0.140455 0.860564 0.569991
O O5 0.511254 0.919737 0.300432
O O6 0.867337 0.953219 0.606245
O O7 0.500000 0.000000 0.500000
O O8 0.665894 0.038183 0.359844
O O9 0.897181 0.250000 0.090380
O O10 0.688880 0.179365 0.802457
O O11 0.563724 0.189158 0.008495
O O12 0.890206 0.126662 0.127514
O O13 0.294018 0.377675 0.015305
O O14 0.931738 0.422099 0.712653
O O15 0.210081 0.502499 0.920944
O O16 0.079195 0.445060 0.073929
O O17 0.442409 0.870908 0.518753
O O18 0.310088 0.250000 0.041877
#
# Coordination Sequence:
#
# PCOD9157558 Si02
#       8
#     4   4   4   4   4   4   4   4
#     4   9  18  30  50  80 109 139 186 230 267 329
#     4   9  20  35  57  80 110 144 181 225 277 337
#     4  10  20  34  55  82 108 140 186 228 271 332
#     4   9  17  30  52  79 110 140 177 227 280 326
#     4   9  17  33  52  80 111 140 180 230 281 325
#     4  10  18  34  55  80 108 144 181 225 279 325
#     4   8  16  31  49  76 111 141 177 230 278 325
#     4  10  19  33  54  82 110 138 182 231 274 330
#
# _framework density 26.012032999999999
#
# number of rings (size 3 to 8) (size 9 to 14) (size 15 to 20)
#    0.000    2.750    1.250    1.125    1.750    2.500 
#    0.000    1.250    5.500    0.750    0.000    0.000 
#    0.000    0.000    0.000    0.000    0.000    0.000 
#
# Total GULP energy -178746.692951 kJ/mol
# GULP energy per Si atom -5585.834155 kJ/mol
# Density = 2.595283 g / cm^3
# Si number density = 26.012033 Si / 1000 Ang^3
#
#
#
# Elastic Constant Matrix: (Units=GPa)
#
#
# Indices 1 2 3 4 5 6 
#
# 1 72.2117 51.3050 -5.8288 0.0000 -6.5724 0.0000
# 2 51.3050 257.5900 25.5330 0.0000 14.1696 0.0000
# 3 -5.8288 25.5330 61.8697 0.0000 -14.7574 0.0000
# 4 0.0000 0.0000 0.0000 107.6901 0.0000 29.1039
# 5 -6.5724 14.1696 -14.7574 0.0000 19.6282 0.0000
# 6 0.0000 0.0000 0.0000 29.1039 0.0000 44.5857
#
#
#
# Elastic Compliance Matrix: (Units=1/GPa)
#
#
# Indices 1 2 3 4 5 6 
#
# 1 0.020244 -0.005822 0.008443 0.000000 0.017330 0.000000
# 2 -0.005822 0.006188 -0.005645 0.000000 -0.010661 0.000000
# 3 0.008443 -0.005645 0.025509 0.000000 0.026081 0.000000
# 4 0.000000 0.000000 0.000000 0.011275 0.000000 -0.007360
# 5 0.017330 -0.010661 0.026081 0.000000 0.084055 0.000000
# 6 0.000000 0.000000 0.000000 -0.007360 0.000000 0.027233
#
#
# Mechanical properties :
#
#
# Convention : Reuss Voigt Hill
#
# Bulk Modulus (GPa) = 21.78979 59.29886 40.54433
# Shear Modulus (GPa) = 25.53001 55.75828 40.64414
#
# Velocity S-wave (km/s) = 3.13624 4.63488 3.95715
# Velocity P-wave (km/s) = 4.63785 7.17558 6.04147
#
# Compressibility (1/GPa) = 0.04589306
#
# Stress axis : x y z
#
# Youngs Moduli (GPa) = 49.39846 161.61039 39.20172
#
# Poissons Ratio (x) = 0.94093 -0.33100
# Poissons Ratio (y) = 0.28761 0.22129
# Poissons Ratio (z) = -0.41709 0.91228
#
# Static dielectric constant tensor:
#      x y z
#    x 2.009210 0.000000 0.040920 
#    y 0.000000 2.126090 0.000000 
#    z 0.040920 0.000000 2.077940 
# 
# From -- ./inp_files/32840.got.cif
#   From: 2010.05.17/outbox.cif.g08.bks.cpg/sg11_17_cif.got.tgz:32840.got - 2010.06.03 12:22:45.
