data_PCOD9157942
_publ_section_title
;
Structure prediction by ZEFSAII (Michael W. Deem and Ramdas Pophale) SiO2 
 PCOD9157942
Probable space group: P 21/M
;
_chemical_formula_sum "Si O2"
_cell_formula_units_Z 32
_cell_length_a 24.127782
_cell_length_b 10.086062
_cell_length_c 9.916640
_cell_angle_alpha 90.000000
_cell_angle_beta 143.620538
_cell_angle_gamma 90.000000
_cell_volume 1431.375942
_symmetry_space_group_name_H-M "P 21/M"
_symmetry_group_IT_number 11
_symmetry_cell_setting 'monoclinic'
loop_
_space_group_symop_operation_xyz
x,y,z
-x,1/2+y,-z
-x,-y,-z
x,1/2-y,z
loop_
_atom_site_type_symbol
_atom_site_label
_atom_site_fract_x
_atom_site_fract_y
_atom_site_fract_z
Si Si1 0.702108 0.600601 0.701557
Si Si2 0.868652 0.393307 0.299696
Si Si3 0.491663 0.600954 0.322211
Si Si4 0.860933 0.401754 0.962450
Si Si5 0.312259 0.469160 0.028857
Si Si6 0.738046 0.899772 0.370356
Si Si7 0.416741 0.599230 0.877442
Si Si8 0.064189 0.092806 0.346745
O O1 0.707838 0.750000 0.661604
O O2 0.594655 0.553430 0.481054
O O3 0.719693 0.603476 0.897817
O O4 0.777314 0.504540 0.782771
O O5 0.903904 0.250000 0.414215
O O6 0.881517 0.403054 0.164751
O O7 0.914231 0.508300 0.477042
O O8 0.757123 0.404855 0.107894
O O9 0.501995 0.750000 0.402072
O O10 0.420683 0.505387 0.261188
O O11 0.433972 0.615218 0.070507
O O12 0.835275 0.250000 0.876637
O O13 0.960286 0.438137 0.091808
O O14 0.294162 0.399609 0.851128
O O15 0.721283 0.750000 0.387543
O O16 0.848311 0.930390 0.580858
O O17 0.677738 0.014164 0.322180
O O18 0.417996 0.750000 0.821812
O O19 0.500000 0.500000 0.000000
O O20 0.065289 0.250000 0.380347
#
# Coordination Sequence:
#
# PCOD9157942 Si02
#       8
#     4   4   4   4   4   4   4   4
#     4  10  19  30  44  65  92 126 165 197 222 257
#     4   9  16  24  38  59  84 117 159 199 232 265
#     4   9  18  31  47  68  94 122 153 188 229 273
#     4   9  18  30  40  56  85 123 161 195 230 265
#     4   9  16  27  43  64  94 129 158 189 224 266
#     4   9  17  29  46  70  96 122 153 188 226 270
#     4  10  20  35  54  74  96 119 143 180 229 281
#     4   9  17  28  42  60  87 120 154 192 232 271
#
# _framework density 22.356110000000001
#
# number of rings (size 3 to 8) (size 9 to 14) (size 15 to 20)
#    0.000    2.750    0.000    1.875    0.000    7.000 
#    0.000    3.750    0.000    0.000    0.000    0.875 
#    0.000    0.000    0.000    0.000    0.000    0.000 
#
# Total GULP energy -178454.213554 kJ/mol
# GULP energy per Si atom -5576.694174 kJ/mol
# Density = 2.230523 g / cm^3
# Si number density = 22.356110 Si / 1000 Ang^3
#
#
#
# Elastic Constant Matrix: (Units=GPa)
#
#
# Indices 1 2 3 4 5 6 
#
# 1 66.4978 45.6889 40.1697 0.0000 19.0584 0.0000
# 2 45.6889 114.8420 60.8454 0.0000 41.3400 0.0000
# 3 40.1697 60.8454 125.5697 0.0000 48.6645 0.0000
# 4 0.0000 0.0000 0.0000 18.9324 0.0000 11.7297
# 5 19.0584 41.3400 48.6645 0.0000 51.7824 0.0000
# 6 0.0000 0.0000 0.0000 11.7297 0.0000 4.4318
#
#
#
# Elastic Compliance Matrix: (Units=1/GPa)
#
#
# Indices 1 2 3 4 5 6 
#
# 1 0.021998 -0.007066 -0.004187 0.000000 0.001479 0.000000
# 2 -0.007066 0.015466 -0.002291 0.000000 -0.007594 0.000000
# 3 -0.004187 -0.002291 0.014324 0.000000 -0.010092 0.000000
# 4 0.000000 0.000000 0.000000 -0.082557 0.000000 0.218505
# 5 0.001479 -0.007594 -0.010092 0.000000 0.034314 0.000000
# 6 0.000000 0.000000 0.000000 0.218505 0.000000 -0.352679
#
#
# Mechanical properties :
#
#
# Convention : Reuss Voigt Hill
#
# Bulk Modulus (GPa) = 40.48366 66.70194 53.59280
# Shear Modulus (GPa) = -15.93306 25.70967 4.88831
#
# Velocity S-wave (km/s) = -2.67253 3.39485 1.48031
# Velocity P-wave (km/s) = 2.93677 6.72812 5.19097
#
# Compressibility (1/GPa) = 0.02470132
#
# Stress axis : x y z
#
# Youngs Moduli (GPa) = 45.45854 64.65789 69.81232
#
# Poissons Ratio (x) = 0.45688 0.29227
# Poissons Ratio (y) = 0.32122 0.15992
# Poissons Ratio (z) = 0.19031 0.14812
#
# Static dielectric constant tensor:
#      x y z
#    x 1.887300 0.000000 0.009330 
#    y 0.000000 1.835470 0.000000 
#    z 0.009330 0.000000 1.848440 
# 
# From -- ./inp_files/51211.got.cif
#   From: 2010.05.17/outbox.cif.g08.bks.cpg/sg11_26_cif.got.tgz:51211.got - 2010.06.03 12:22:45.
