data_PCOD9157069
_publ_section_title
;
Structure prediction by ZEFSAII (Michael W. Deem and Ramdas Pophale) SiO2 
 PCOD9157069
Probable space group: P 21/M
;
_chemical_formula_sum "Si O2"
_cell_formula_units_Z 32
_cell_length_a 23.450950
_cell_length_b 7.478522
_cell_length_c 15.524071
_cell_angle_alpha 90.000000
_cell_angle_beta 148.238023
_cell_angle_gamma 90.000000
_cell_volume 1433.147344
_symmetry_space_group_name_H-M "P 21/M"
_symmetry_group_IT_number 11
_symmetry_cell_setting 'monoclinic'
loop_
_space_group_symop_operation_xyz
x,y,z
-x,1/2+y,-z
-x,-y,-z
x,1/2-y,z
loop_
_atom_site_type_symbol
_atom_site_label
_atom_site_fract_x
_atom_site_fract_y
_atom_site_fract_z
Si Si1 0.013509 0.969353 0.745911
Si Si2 0.651325 0.034511 0.048450
Si Si3 0.699328 0.531673 0.571113
Si Si4 0.249269 0.539944 0.000419
Si Si5 0.627681 0.538085 0.665587
Si Si6 0.218111 0.461438 0.616636
Si Si7 0.588228 0.968103 0.257053
Si Si8 0.062275 0.036965 0.167512
O O1 0.017142 0.750000 0.748558
O O2 0.903119 0.028559 0.556996
O O3 0.999291 0.027649 0.826918
O O4 0.127864 0.033735 0.855902
O O5 0.643647 0.250000 0.035594
O O6 0.685828 0.967378 0.998392
O O7 0.740275 0.987560 0.233533
O O8 0.531673 0.969695 0.921880
O O9 0.700456 0.750000 0.575537
O O10 0.676904 0.467657 0.638914
O O11 0.611486 0.482987 0.386294
O O12 0.815502 0.469798 0.685526
O O13 0.236260 0.750000 0.965723
O O14 0.314718 0.526915 0.173761
O O15 0.500000 0.500000 0.500000
O O16 0.642960 0.750000 0.685007
O O17 0.212371 0.250000 0.590882
O O18 0.312875 0.532845 0.675427
O O19 0.589637 0.750000 0.254232
O O20 0.071012 0.250000 0.189139
O O21 0.000000 0.000000 0.000000
#
# Coordination Sequence:
#
# PCOD9157069 Si02
#       8
#     4   4   4   4   4   4   4   4
#     4   9  18  34  56  79 106 142 181 223 268 319
#     4  10  21  35  53  77 106 142 179 224 279 326
#     4   9  17  31  53  78 103 137 178 215 259 320
#     4  10  21  38  56  77 110 148 185 222 268 325
#     4  11  22  36  56  82 112 146 184 224 267 317
#     4  10  19  34  57  80 102 136 182 227 271 323
#     4   9  16  31  54  77 103 136 178 220 266 325
#     4  10  18  31  52  77 104 135 174 216 261 313
#
# _framework density 22.328479000000002
#
# number of rings (size 3 to 8) (size 9 to 14) (size 15 to 20)
#    0.000    2.250    1.250    2.250    0.000    3.000 
#    0.000    1.875    0.000    2.250    0.000    0.000 
#    0.000    0.000    0.000    0.000    0.000    0.000 
#
# Total GULP energy -178782.077240 kJ/mol
# GULP energy per Si atom -5586.939914 kJ/mol
# Density = 2.227766 g / cm^3
# Si number density = 22.328479 Si / 1000 Ang^3
#
#
#
# Elastic Constant Matrix: (Units=GPa)
#
#
# Indices 1 2 3 4 5 6 
#
# 1 104.3693 1.9036 39.9237 0.0000 10.4154 0.0000
# 2 1.9036 60.1723 -9.8217 0.0000 6.8554 0.0000
# 3 39.9237 -9.8217 139.6744 0.0000 11.3359 0.0000
# 4 0.0000 0.0000 0.0000 16.8844 0.0000 -4.1024
# 5 10.4154 6.8554 11.3359 0.0000 41.8244 0.0000
# 6 0.0000 0.0000 0.0000 -4.1024 0.0000 -1.0906
#
#
#
# Elastic Compliance Matrix: (Units=1/GPa)
#
#
# Indices 1 2 3 4 5 6 
#
# 1 0.010929 -0.000634 -0.003022 0.000000 -0.001798 0.000000
# 2 -0.000634 0.017263 0.001648 0.000000 -0.003118 0.000000
# 3 -0.003022 0.001648 0.008282 0.000000 -0.001762 0.000000
# 4 0.000000 0.000000 0.000000 0.030945 0.000000 -0.116401
# 5 -0.001798 -0.003118 -0.001762 0.000000 0.025346 0.000000
# 6 0.000000 0.000000 0.000000 -0.116401 0.000000 -0.479081
#
#
# Mechanical properties :
#
#
# Convention : Reuss Voigt Hill
#
# Bulk Modulus (GPa) = 30.80937 40.91414 35.86176
# Shear Modulus (GPa) = -13.45967 29.67100 8.10567
#
# Velocity S-wave (km/s) = -2.45787 3.64928 1.90737
# Velocity P-wave (km/s) = 2.40279 6.00998 4.57675
#
# Compressibility (1/GPa) = 0.03245766
#
# Stress axis : x y z
#
# Youngs Moduli (GPa) = 91.50360 57.92628 120.73872
#
# Poissons Ratio (x) = 0.03674 0.36492
# Poissons Ratio (y) = 0.05803 -0.19901
# Poissons Ratio (z) = 0.27656 -0.09548
#
# Static dielectric constant tensor:
#      x y z
#    x 1.813120 0.000000 0.021430 
#    y 0.000000 1.868980 0.000000 
#    z 0.021430 0.000000 1.782180 
# 
# From -- ./inp_files/55625.got.cif
#   From: 2010.05.17/outbox.cif.g08.bks.cpg/sg11_28_cif.got.tgz:55625.got - 2010.06.03 12:22:45.
