data_PCOD9157219
_publ_section_title
;
Structure prediction by ZEFSAII (Michael W. Deem and Ramdas Pophale) SiO2 
 PCOD9157219
Probable space group: P 21/M
;
_chemical_formula_sum "Si O2"
_cell_formula_units_Z 32
_cell_length_a 12.399372
_cell_length_b 8.547466
_cell_length_c 22.193944
_cell_angle_alpha 90.000000
_cell_angle_beta 133.683529
_cell_angle_gamma 90.000000
_cell_volume 1701.019892
_symmetry_space_group_name_H-M "P 21/M"
_symmetry_group_IT_number 11
_symmetry_cell_setting 'monoclinic'
loop_
_space_group_symop_operation_xyz
x,y,z
-x,1/2+y,-z
-x,-y,-z
x,1/2-y,z
loop_
_atom_site_type_symbol
_atom_site_label
_atom_site_fract_x
_atom_site_fract_y
_atom_site_fract_z
Si Si1 0.770927 0.560904 0.929343
Si Si2 0.967191 0.936543 0.890498
Si Si3 0.071673 0.563144 0.257999
Si Si4 0.860079 0.561139 0.279226
Si Si5 0.562441 0.061057 0.223465
Si Si6 0.589511 0.059527 0.372802
Si Si7 0.609387 0.937712 0.593929
Si Si8 0.920698 0.061144 0.529288
O O1 0.778749 0.750000 0.936788
O O2 0.844624 0.516405 0.893464
O O3 0.598860 0.512558 0.863754
O O4 0.874744 0.488782 0.020798
O O5 0.038831 0.250000 0.117192
O O6 0.937999 0.008646 0.814358
O O7 0.077750 0.750000 0.262749
O O8 0.223045 0.499294 0.346157
O O9 0.927816 0.511716 0.241268
O O10 0.851852 0.750000 0.277215
O O11 0.700694 0.496708 0.237523
O O12 0.981968 0.510748 0.376196
O O13 0.565414 0.250000 0.225759
O O14 0.576986 0.006762 0.298775
O O15 0.587526 0.250000 0.370663
O O16 0.458540 0.011398 0.367435
O O17 0.748714 0.009827 0.461603
O O18 0.609828 0.750000 0.592227
O O19 0.500000 0.000000 0.500000
O O20 0.920540 0.250000 0.528334
O O21 0.000000 0.000000 0.500000
#
# Coordination Sequence:
#
# PCOD9157219 Si02
#       8
#     4   4   4   4   4   4   4   4
#     4   9  19  36  59  88 119 145 176 226 287 339
#     4  10  20  37  62  89 114 145 185 227 277 337
#     4  11  23  40  59  80 113 154 191 230 281 333
#     4  10  22  37  53  77 112 150 187 233 282 329
#     4  10  19  34  57  82 108 143 184 226 277 335
#     4   9  18  33  54  78 109 145 179 226 285 332
#     4  11  22  38  58  82 114 150 189 232 280 334
#     4  10  18  32  52  74 104 142 182 223 270 320
#
# _framework density 18.812244
#
# number of rings (size 3 to 8) (size 9 to 14) (size 15 to 20)
#    0.000    2.000    1.250    2.625    0.000    6.000 
#    0.000    5.625    0.000    0.000    0.000    0.000 
#    0.000    0.000    0.000    0.000    0.000    0.000 
#
# Total GULP energy -178696.449344 kJ/mol
# GULP energy per Si atom -5584.264042 kJ/mol
# Density = 1.876943 g / cm^3
# Si number density = 18.812244 Si / 1000 Ang^3
#
#
#
# Elastic Constant Matrix: (Units=GPa)
#
#
# Indices 1 2 3 4 5 6 
#
# 1 122.4231 25.2023 61.0646 0.0000 15.1526 0.0000
# 2 25.2023 24.3427 30.0435 0.0000 1.3976 0.0000
# 3 61.0646 30.0435 104.2526 0.0000 9.2994 0.0000
# 4 0.0000 0.0000 0.0000 28.4226 0.0000 0.0486
# 5 15.1526 1.3976 9.2994 0.0000 34.5896 0.0000
# 6 0.0000 0.0000 0.0000 0.0486 0.0000 28.2102
#
#
#
# Elastic Compliance Matrix: (Units=1/GPa)
#
#
# Indices 1 2 3 4 5 6 
#
# 1 0.012531 -0.006390 -0.005156 0.000000 -0.003845 0.000000
# 2 -0.006390 0.067214 -0.016018 0.000000 0.004390 0.000000
# 3 -0.005156 -0.016018 0.017386 0.000000 -0.001768 0.000000
# 4 0.000000 0.000000 0.000000 0.035183 0.000000 -0.000061
# 5 -0.003845 0.004390 -0.001768 0.000000 0.030893 0.000000
# 6 0.000000 0.000000 0.000000 -0.000061 0.000000 0.035448
#
#
# Mechanical properties :
#
#
# Convention : Reuss Voigt Hill
#
# Bulk Modulus (GPa) = 23.80797 53.73768 38.77283
# Shear Modulus (GPa) = 18.67173 27.22500 22.94837
#
# Velocity S-wave (km/s) = 3.15386 3.80833 3.49644
# Velocity P-wave (km/s) = 5.09367 6.92569 6.07909
#
# Compressibility (1/GPa) = 0.04200274
#
# Stress axis : x y z
#
# Youngs Moduli (GPa) = 79.79920 14.87795 57.51821
#
# Poissons Ratio (x) = 0.09507 0.29654
# Poissons Ratio (y) = 0.50993 0.92134
# Poissons Ratio (z) = 0.41141 0.23832
#
# Static dielectric constant tensor:
#      x y z
#    x 1.649130 0.000000 0.001150 
#    y 0.000000 1.642180 0.000000 
#    z 0.001150 0.000000 1.633530 
# 
# From -- ./inp_files/42808.got.cif
#   From: 2010.05.17/outbox.cif.g08.bks.cpg/sg11_22_cif.got.tgz:42808.got - 2010.06.03 12:22:45.
