data_PCOD9157416
_publ_section_title
;
Structure prediction by ZEFSAII (Michael W. Deem and Ramdas Pophale) SiO2 
 PCOD9157416
Probable space group: P 21/M
;
_chemical_formula_sum "Si O2"
_cell_formula_units_Z 28
_cell_length_a 9.754295
_cell_length_b 18.598545
_cell_length_c 12.026044
_cell_angle_alpha 90.000000
_cell_angle_beta 131.942036
_cell_angle_gamma 90.000000
_cell_volume 1622.804866
_symmetry_space_group_name_H-M "P 21/M"
_symmetry_group_IT_number 11
_symmetry_cell_setting 'monoclinic'
loop_
_space_group_symop_operation_xyz
x,y,z
-x,1/2+y,-z
-x,-y,-z
x,1/2-y,z
loop_
_atom_site_type_symbol
_atom_site_label
_atom_site_fract_x
_atom_site_fract_y
_atom_site_fract_z
Si Si1 0.626203 0.165889 0.198525
Si Si2 0.245916 0.329912 0.250534
Si Si3 0.883053 0.399424 0.149724
Si Si4 0.917022 0.452357 0.738838
Si Si5 0.224035 0.127615 0.992705
Si Si6 0.296077 0.973283 0.146014
Si Si7 0.418007 0.932109 0.609522
O O1 0.654017 0.250000 0.237994
O O2 0.765705 0.137221 0.182135
O O3 0.414149 0.154611 0.043703
O O4 0.639180 0.117033 0.316319
O O5 0.306795 0.250000 0.315723
O O6 0.196427 0.329655 0.092111
O O7 0.409823 0.388224 0.351630
O O8 0.062511 0.353863 0.213938
O O9 0.964272 0.477370 0.228798
O O10 0.754430 0.412606 0.970862
O O11 0.835745 0.465284 0.818929
O O12 0.747959 0.442074 0.564549
O O13 0.049937 0.382876 0.819398
O O14 0.255340 0.046920 0.057298
O O15 0.499179 0.991403 0.303275
#
# Coordination Sequence:
#
# PCOD9157416 Si02
#       7
#     4   4   4   4   4   4   4
#     4  10  22  39  52  74 107 145 185 215 256 321
#     4  10  18  33  53  76 101 143 185 210 256 316
#     4  11  19  33  58  80 107 135 177 229 271 300
#     4  11  18  33  57  87 110 128 177 224 272 316
#     4   9  17  33  56  76 102 138 172 223 257 300
#     4   9  17  32  54  85 109 125 168 227 266 306
#     4  10  21  33  57  79 110 147 165 217 269 321
#
# _framework density 17.254078
#
# number of rings (size 3 to 8) (size 9 to 14) (size 15 to 20)
#    0.000    2.286    4.286    3.429    0.000    5.714 
#    0.000    2.857    0.000    0.000    0.000    0.000 
#    0.000    0.000    0.000    0.000    0.000    0.000 
#
# Total GULP energy -155918.904259 kJ/mol
# GULP energy per Si atom -5568.532295 kJ/mol
# Density = 1.721481 g / cm^3
# Si number density = 17.254078 Si / 1000 Ang^3
#
#
#
# Elastic Constant Matrix: (Units=GPa)
#
#
# Indices 1 2 3 4 5 6 
#
# 1 132.6962 27.2071 28.0063 0.0000 9.0040 0.0000
# 2 27.2071 40.4745 9.1596 0.0000 6.6695 0.0000
# 3 28.0063 9.1596 100.9340 0.0000 22.3229 0.0000
# 4 0.0000 0.0000 0.0000 -3.4001 0.0000 -47.7618
# 5 9.0040 6.6695 22.3229 0.0000 14.7836 0.0000
# 6 0.0000 0.0000 0.0000 -47.7618 0.0000 -164.6664
#
#
#
# Elastic Compliance Matrix: (Units=1/GPa)
#
#
# Indices 1 2 3 4 5 6 
#
# 1 0.009126 -0.005687 -0.002033 0.000000 0.000078 0.000000
# 2 -0.005687 0.030244 0.001629 0.000000 -0.012640 0.000000
# 3 -0.002033 0.001629 0.015333 0.000000 -0.022649 0.000000
# 4 0.000000 0.000000 0.000000 0.095664 0.000000 -0.027747
# 5 0.000078 -0.012640 -0.022649 0.000000 0.107497 0.000000
# 6 0.000000 0.000000 0.000000 -0.027747 0.000000 0.001975
#
#
# Mechanical properties :
#
#
# Convention : Reuss Voigt Hill
#
# Bulk Modulus (GPa) = 23.51831 44.76118 34.13975
# Shear Modulus (GPa) = 17.47063 -16.67446 0.39809
#
# Velocity S-wave (km/s) = 3.18551 -3.11208 0.48086
# Velocity P-wave (km/s) = 5.21442 3.61736 4.48751
#
# Compressibility (1/GPa) = 0.04252006
#
# Stress axis : x y z
#
# Youngs Moduli (GPa) = 109.57800 33.06434 65.21927
#
# Poissons Ratio (x) = 0.18804 0.13261
# Poissons Ratio (y) = 0.62319 -0.10624
# Poissons Ratio (z) = 0.22280 -0.05386
#
# Static dielectric constant tensor:
#      x y z
#    x 1.582350 0.000000 0.019150 
#    y 0.000000 1.592180 0.000000 
#    z 0.019150 0.000000 1.635760 
# 
# From -- ./inp_files/32705.got.cif
#   From: 2010.05.17/outbox.cif.g08.bks.cpg/sg11_17_cif.got.tgz:32705.got - 2010.06.03 12:22:45.
