data_PCOD9157548
_publ_section_title
;
Structure prediction by ZEFSAII (Michael W. Deem and Ramdas Pophale) SiO2 
 PCOD9157548
Probable space group: P 21/M
;
_chemical_formula_sum "Si O2"
_cell_formula_units_Z 24
_cell_length_a 8.800596
_cell_length_b 18.795305
_cell_length_c 15.684738
_cell_angle_alpha 90.000000
_cell_angle_beta 23.582655
_cell_angle_gamma 90.000000
_cell_volume 1037.950066
_symmetry_space_group_name_H-M "P 21/M"
_symmetry_group_IT_number 11
_symmetry_cell_setting 'monoclinic'
loop_
_space_group_symop_operation_xyz
x,y,z
-x,1/2+y,-z
-x,-y,-z
x,1/2-y,z
loop_
_atom_site_type_symbol
_atom_site_label
_atom_site_fract_x
_atom_site_fract_y
_atom_site_fract_z
Si Si1 0.700137 0.088020 0.191547
Si Si2 0.684396 0.169408 0.028877
Si Si3 0.205386 0.834469 0.690914
Si Si4 0.234320 0.830056 0.485376
Si Si5 0.581461 0.420615 0.925557
Si Si6 0.553687 0.451288 0.756106
O O1 0.799044 0.140113 0.062153
O O2 0.587326 0.130485 0.334718
O O3 0.409178 0.029588 0.303664
O O4 0.099190 0.050455 0.009788
O O5 0.809844 0.250000 0.949767
O O6 0.791457 0.119249 0.894705
O O7 0.223625 0.169479 0.271937
O O8 0.162183 0.750000 0.726887
O O9 0.377341 0.843845 0.508036
O O10 0.792616 0.871832 0.896553
O O11 0.345301 0.750000 0.401139
O O12 0.355018 0.890810 0.358876
O O13 0.500000 0.500000 0.000000
O O14 0.747043 0.433076 0.746488
#
# Coordination Sequence:
#
# PCOD9157548 Si02
#       6
#     4   4   4   4   4   4
#     4  10  20  35  56  84 109 142 185 226 273 329
#     4  10  20  36  57  80 108 148 189 226 271 329
#     4   9  19  36  56  76 108 151 185 218 275 337
#     4   9  20  37  55  79 109 144 186 224 269 331
#     4  10  18  34  54  79 110 143 179 225 268 330
#     4  10  21  35  56  83 113 142 180 229 279 323
#
# _framework density 23.122499999999999
#
# number of rings (size 3 to 8) (size 9 to 14) (size 15 to 20)
#    0.000    2.333    1.667    2.000    0.000    5.333 
#    0.000    1.667    0.000    0.000    0.000    0.000 
#    0.000    0.000    0.000    0.000    0.000    0.000 
#
# Total GULP energy -134039.806322 kJ/mol
# GULP energy per Si atom -5584.991930 kJ/mol
# Density = 2.306987 g / cm^3
# Si number density = 23.122500 Si / 1000 Ang^3
#
#
#
# Elastic Constant Matrix: (Units=GPa)
#
#
# Indices 1 2 3 4 5 6 
#
# 1 128.0589 61.8184 30.5455 0.0000 40.6522 0.0000
# 2 61.8184 162.5103 44.9036 0.0000 43.8667 0.0000
# 3 30.5455 44.9036 58.4802 0.0000 11.5931 0.0000
# 4 0.0000 0.0000 0.0000 35.2609 0.0000 12.5672
# 5 40.6522 43.8667 11.5931 0.0000 57.6875 0.0000
# 6 0.0000 0.0000 0.0000 12.5672 0.0000 43.1591
#
#
#
# Elastic Compliance Matrix: (Units=1/GPa)
#
#
# Indices 1 2 3 4 5 6 
#
# 1 0.011374 -0.001774 -0.003393 0.000000 -0.005985 0.000000
# 2 -0.001774 0.009714 -0.005536 0.000000 -0.005024 0.000000
# 3 -0.003393 -0.005536 0.022720 0.000000 0.002035 0.000000
# 4 0.000000 0.000000 0.000000 0.031644 0.000000 -0.009214
# 5 -0.005985 -0.005024 0.002035 0.000000 0.024964 0.000000
# 6 0.000000 0.000000 0.000000 -0.009214 0.000000 0.025853
#
#
# Mechanical properties :
#
#
# Convention : Reuss Voigt Hill
#
# Bulk Modulus (GPa) = 44.63839 69.28715 56.96277
# Shear Modulus (GPa) = 32.22849 41.34029 36.78439
#
# Velocity S-wave (km/s) = 3.73743 4.23292 3.99287
# Velocity P-wave (km/s) = 6.16211 7.34306 6.77835
#
# Compressibility (1/GPa) = 0.02240224
#
# Stress axis : x y z
#
# Youngs Moduli (GPa) = 87.91751 102.94198 44.01497
#
# Poissons Ratio (x) = 0.18260 0.14933
# Poissons Ratio (y) = 0.15595 0.24369
# Poissons Ratio (z) = 0.29827 0.56993
#
# Static dielectric constant tensor:
#      x y z
#    x 1.909500 0.000000 -0.050030 
#    y 0.000000 1.802830 0.000000 
#    z -0.050030 0.000000 1.902700 
# 
# From -- ./inp_files/22327.got.cif
#   From: 2010.05.17/outbox.cif.g08.bks.cpg/sg11_12_cif.got.tgz:22327.got - 2010.06.03 12:22:45.
