data_PCOD9157149
_publ_section_title
;
Structure prediction by ZEFSAII (Michael W. Deem and Ramdas Pophale) SiO2 
 PCOD9157149
Probable space group: P 21/M
;
_chemical_formula_sum "Si O2"
_cell_formula_units_Z 24
_cell_length_a 10.488184
_cell_length_b 19.133526
_cell_length_c 8.718892
_cell_angle_alpha 90.000000
_cell_angle_beta 137.087593
_cell_angle_gamma 90.000000
_cell_volume 1191.315665
_symmetry_space_group_name_H-M "P 21/M"
_symmetry_group_IT_number 11
_symmetry_cell_setting 'monoclinic'
loop_
_space_group_symop_operation_xyz
x,y,z
-x,1/2+y,-z
-x,-y,-z
x,1/2-y,z
loop_
_atom_site_type_symbol
_atom_site_label
_atom_site_fract_x
_atom_site_fract_y
_atom_site_fract_z
Si Si1 0.215666 0.921513 0.521058
Si Si2 0.677182 0.397342 0.914378
Si Si3 0.840415 0.948827 0.036482
Si Si4 0.299683 0.071414 0.745792
Si Si5 0.969291 0.331041 0.377990
Si Si6 0.528894 0.582684 0.563157
O O1 0.137645 0.864843 0.570166
O O2 0.403170 0.901045 0.599794
O O3 0.058488 0.935746 0.252951
O O4 0.246711 0.994315 0.638116
O O5 0.514756 0.413659 0.896062
O O6 0.557360 0.378297 0.658176
O O7 0.790163 0.469225 0.983398
O O8 0.828320 0.344025 0.112763
O O9 0.746800 0.925011 0.115356
O O10 0.742567 0.911152 0.806464
O O11 0.160948 0.124916 0.537587
O O12 0.007911 0.250000 0.433703
O O13 0.500000 0.500000 0.500000
#
# Coordination Sequence:
#
# PCOD9157149 Si02
#       6
#     4   4   4   4   4   4
#     4  11  19  36  60  86 115 149 187 246 288 325
#     4  11  20  34  57  86 118 143 180 237 290 336
#     4  10  18  31  54  87 113 143 180 233 289 329
#     4  11  19  35  61  84 115 144 190 246 288 323
#     4  11  24  39  57  81 111 154 199 233 285 350
#     4  10  21  31  53  93 119 139 180 230 292 347
#
# _framework density 20.145793999999999
#
# number of rings (size 3 to 8) (size 9 to 14) (size 15 to 20)
#    0.000    1.333    6.667    2.500    0.000    4.667 
#    0.000    0.833    0.000    4.000    0.000    0.000 
#    0.000    0.000    0.000    0.000    0.000    0.000 
#
# Total GULP energy -134055.656229 kJ/mol
# GULP energy per Si atom -5585.652343 kJ/mol
# Density = 2.009994 g / cm^3
# Si number density = 20.145794 Si / 1000 Ang^3
#
#
#
# Elastic Constant Matrix: (Units=GPa)
#
#
# Indices 1 2 3 4 5 6 
#
# 1 26.3852 5.5208 1.4509 0.0000 1.6308 0.0000
# 2 5.5208 70.8533 22.2349 0.0000 -2.9553 0.0000
# 3 1.4509 22.2349 140.4248 0.0000 4.1877 0.0000
# 4 0.0000 0.0000 0.0000 14.1546 0.0000 -0.9899
# 5 1.6308 -2.9553 4.1877 0.0000 25.6604 0.0000
# 6 0.0000 0.0000 0.0000 -0.9899 0.0000 -0.7752
#
#
#
# Elastic Compliance Matrix: (Units=1/GPa)
#
#
# Indices 1 2 3 4 5 6 
#
# 1 0.038735 -0.003198 0.000191 0.000000 -0.002861 0.000000
# 2 -0.003198 0.015230 -0.002449 0.000000 0.002357 0.000000
# 3 0.000191 -0.002449 0.007553 0.000000 -0.001527 0.000000
# 4 0.000000 0.000000 0.000000 0.064857 0.000000 -0.082819
# 5 -0.002861 0.002357 -0.001527 0.000000 0.039673 0.000000
# 6 0.000000 0.000000 0.000000 -0.082819 0.000000 -1.184246
#
#
# Mechanical properties :
#
#
# Convention : Reuss Voigt Hill
#
# Bulk Modulus (GPa) = 19.75983 32.89739 26.32861
# Shear Modulus (GPa) = -5.04837 21.70505 8.32834
#
# Velocity S-wave (km/s) = -1.58473 3.28594 2.03544
# Velocity P-wave (km/s) = 2.54583 5.54631 4.31525
#
# Compressibility (1/GPa) = 0.05060771
#
# Stress axis : x y z
#
# Youngs Moduli (GPa) = 25.81614 65.66168 132.40591
#
# Poissons Ratio (x) = 0.20996 -0.02535
# Poissons Ratio (y) = 0.08255 0.32422
# Poissons Ratio (z) = -0.00494 0.16079
#
# Static dielectric constant tensor:
#      x y z
#    x 1.738280 0.000000 -0.023290 
#    y 0.000000 1.660130 0.000000 
#    z -0.023290 0.000000 1.780540 
# 
# From -- ./inp_files/19067.got.cif
#   From: 2010.05.17/outbox.cif.g08.bks.cpg/sg11_10_cif.got.tgz:19067.got - 2010.06.03 12:22:45.
