data_PCOD9157041
_publ_section_title
;
Structure prediction by ZEFSAII (Michael W. Deem and Ramdas Pophale) SiO2 
 PCOD9157041
Probable space group: P 21/M
;
_chemical_formula_sum "Si O2"
_cell_formula_units_Z 32
_cell_length_a 20.996529
_cell_length_b 8.056301
_cell_length_c 26.063656
_cell_angle_alpha 90.000000
_cell_angle_beta 22.762543
_cell_angle_gamma 90.000000
_cell_volume 1705.813962
_symmetry_space_group_name_H-M "P 21/M"
_symmetry_group_IT_number 11
_symmetry_cell_setting 'monoclinic'
loop_
_space_group_symop_operation_xyz
x,y,z
-x,1/2+y,-z
-x,-y,-z
x,1/2-y,z
loop_
_atom_site_type_symbol
_atom_site_label
_atom_site_fract_x
_atom_site_fract_y
_atom_site_fract_z
Si Si1 0.150934 0.448491 0.350834
Si Si2 0.638117 0.952674 0.715518
Si Si3 0.651610 0.450816 0.351026
Si Si4 0.058535 0.053644 0.583000
Si Si5 0.817798 0.054855 0.403897
Si Si6 0.321655 0.950215 0.889674
Si Si7 0.445417 0.946880 0.688609
Si Si8 0.043107 0.950499 0.808360
O O1 0.154536 0.250000 0.344020
O O2 0.309451 0.504685 0.265978
O O3 0.000000 0.500000 0.500000
O O4 0.102661 0.518976 0.331423
O O5 0.640278 0.750000 0.713971
O O6 0.783086 0.004565 0.568305
O O7 0.463546 0.009249 0.823456
O O8 0.500000 0.500000 0.500000
O O9 0.654703 0.250000 0.347015
O O10 0.621456 0.514807 0.315771
O O11 0.821046 0.507877 0.251274
O O12 0.075858 0.250000 0.576856
O O13 0.068275 0.972625 0.631320
O O14 0.785463 0.250000 0.421653
O O15 0.899049 0.992078 0.290969
O O16 0.641609 0.971350 0.544625
O O17 0.334783 0.750000 0.878567
O O18 0.364644 0.014405 0.800645
O O19 0.139527 0.995026 0.042118
O O20 0.412877 0.750000 0.712272
O O21 0.045534 0.750000 0.806229
#
# Coordination Sequence:
#
# PCOD9157041 Si02
#       8
#     4   4   4   4   4   4   4   4
#     4   9  16  27  45  74 109 143 177 219 273 322
#     4   8  15  29  49  73 106 140 171 217 265 310
#     4  10  20  36  57  80 109 141 177 223 273 320
#     4  10  18  31  51  77 109 139 176 228 272 317
#     4  11  21  34  54  79 108 141 179 224 274 324
#     4  10  20  36  55  79 108 144 184 219 263 323
#     4  10  20  35  58  82 106 139 181 225 268 319
#     4  10  23  39  52  77 113 143 176 225 274 321
#
# _framework density 18.759371999999999
#
# number of rings (size 3 to 8) (size 9 to 14) (size 15 to 20)
#    0.000    2.250    2.500    1.875    0.000    2.500 
#    0.000    1.250    0.000    0.750    0.000    0.000 
#    0.000    0.000    0.000    0.000    0.000    0.000 
#
# Total GULP energy -178469.608510 kJ/mol
# GULP energy per Si atom -5577.175266 kJ/mol
# Density = 1.871667 g / cm^3
# Si number density = 18.759372 Si / 1000 Ang^3
#
#
#
# Elastic Constant Matrix: (Units=GPa)
#
#
# Indices 1 2 3 4 5 6 
#
# 1 156.7099 -4.3366 57.4933 0.0000 -19.6264 0.0000
# 2 -4.3366 8.3933 -3.7999 0.0000 -1.8976 0.0000
# 3 57.4933 -3.7999 96.2384 0.0000 -8.5661 0.0000
# 4 0.0000 0.0000 0.0000 23.0144 0.0000 -0.5726
# 5 -19.6264 -1.8976 -8.5661 0.0000 26.4530 0.0000
# 6 0.0000 0.0000 0.0000 -0.5726 0.0000 16.8722
#
#
#
# Elastic Compliance Matrix: (Units=1/GPa)
#
#
# Indices 1 2 3 4 5 6 
#
# 1 0.008866 0.003667 -0.004678 0.000000 0.005326 0.000000
# 2 0.003667 0.125761 0.003933 0.000000 0.013016 0.000000
# 3 -0.004678 0.003933 0.013444 0.000000 0.001165 0.000000
# 4 0.000000 0.000000 0.000000 0.043488 0.000000 0.001476
# 5 0.005326 0.013016 0.001165 0.000000 0.043066 0.000000
# 6 0.000000 0.000000 0.000000 0.001476 0.000000 0.059319
#
#
# Mechanical properties :
#
#
# Convention : Reuss Voigt Hill
#
# Bulk Modulus (GPa) = 6.49699 40.00612 23.25156
# Shear Modulus (GPa) = 14.73170 27.40022 21.06596
#
# Velocity S-wave (km/s) = 2.80536 3.82595 3.35469
# Velocity P-wave (km/s) = 3.73687 6.39448 5.23706
#
# Compressibility (1/GPa) = 0.15391735
#
# Stress axis : x y z
#
# Youngs Moduli (GPa) = 112.79186 7.95157 74.38079
#
# Poissons Ratio (x) = -0.02916 0.34793
# Poissons Ratio (y) = -0.41363 -0.29257
# Poissons Ratio (z) = 0.52760 -0.03128
#
# Static dielectric constant tensor:
#      x y z
#    x 1.691910 0.000000 -0.012860 
#    y 0.000000 1.670330 0.000000 
#    z -0.012860 0.000000 1.603670 
# 
# From -- ./inp_files/72045.got.cif
#   From: 2010.05.17/outbox.cif.g08.bks.cpg/sg11_37_cif.got.tgz:72045.got - 2010.06.03 12:22:45.
