data_PCOD9157814
_publ_section_title
;
Structure prediction by ZEFSAII (Michael W. Deem and Ramdas Pophale) SiO2 
 PCOD9157814
Probable space group: P 21/M
;
_chemical_formula_sum "Si O2"
_cell_formula_units_Z 18
_cell_length_a 9.670657
_cell_length_b 9.858075
_cell_length_c 11.176142
_cell_angle_alpha 90.000000
_cell_angle_beta 141.481131
_cell_angle_gamma 90.000000
_cell_volume 663.543382
_symmetry_space_group_name_H-M "P 21/M"
_symmetry_group_IT_number 11
_symmetry_cell_setting 'monoclinic'
loop_
_space_group_symop_operation_xyz
x,y,z
-x,1/2+y,-z
-x,-y,-z
x,1/2-y,z
loop_
_atom_site_type_symbol
_atom_site_label
_atom_site_fract_x
_atom_site_fract_y
_atom_site_fract_z
Si Si1 0.302319 0.544049 0.659087
Si Si2 0.931350 0.250000 0.918843
Si Si3 0.674867 0.750000 0.972193
Si Si4 0.102737 0.750000 0.713632
Si Si5 0.706622 0.750000 0.630251
Si Si6 0.445596 0.250000 0.839814
Si Si7 0.663104 0.414297 0.585445
O O1 0.538262 0.622243 0.830792
O O2 0.153497 0.620215 0.660212
O O3 0.365452 0.388733 0.725777
O O4 0.224323 0.571505 0.471188
O O5 0.783816 0.382931 0.796890
O O6 0.076194 0.250000 0.897507
O O7 0.110637 0.250000 0.141327
O O8 0.663792 0.750000 0.105064
O O9 0.867981 0.750000 0.620654
O O10 0.291810 0.750000 0.947008
O O11 0.623566 0.583191 0.573123
O O12 0.581497 0.250000 0.512804
#
# Coordination Sequence:
#
# PCOD9157814 Si02
#       7
#     4   2   2   2   2   2   4
#     4  10  21  45  68 105 150 189 240 309 358 442
#     4  11  23  45  74 102 139 196 244 302 378 429
#     4  10  18  42  73 103 136 191 249 296 365 433
#     4  10  21  40  76 102 137 196 253 297 363 432
#     4  11  24  47  73 106 142 190 253 302 368 443
#     4  10  22  36  70 107 144 191 245 291 374 439
#     4  11  26  44  69 106 151 185 243 310 368 437
#
# _framework density 27.127091
#
# number of rings (size 3 to 8) (size 9 to 14) (size 15 to 20)
#    0.000    1.778    2.222    4.667    3.111    5.333 
#    0.000    6.667    0.000    1.333    0.000    0.000 
#    0.000    0.000    0.000    0.000    0.000    0.000 
#
# Total GULP energy -100612.259960 kJ/mol
# GULP energy per Si atom -5589.569998 kJ/mol
# Density = 2.706535 g / cm^3
# Si number density = 27.127091 Si / 1000 Ang^3
#
#
#
# Elastic Constant Matrix: (Units=GPa)
#
#
# Indices 1 2 3 4 5 6 
#
# 1 106.7390 90.7041 49.8456 0.0000 7.3660 0.0000
# 2 90.7041 260.9195 66.9883 0.0000 9.1220 0.0000
# 3 49.8456 66.9883 183.9796 0.0000 -6.6567 0.0000
# 4 0.0000 0.0000 0.0000 445.0392 0.0000 -289.9897
# 5 7.3660 9.1220 -6.6567 0.0000 31.6339 0.0000
# 6 0.0000 0.0000 0.0000 -289.9897 0.0000 218.2754
#
#
#
# Elastic Compliance Matrix: (Units=1/GPa)
#
#
# Indices 1 2 3 4 5 6 
#
# 1 0.014296 -0.004258 -0.002417 0.000000 -0.002610 0.000000
# 2 -0.004258 0.005573 -0.000905 0.000000 -0.000806 0.000000
# 3 -0.002417 -0.000905 0.006499 0.000000 0.002191 0.000000
# 4 0.000000 0.000000 0.000000 0.016730 0.000000 0.022226
# 5 -0.002610 -0.000806 0.002191 0.000000 0.032913 0.000000
# 6 0.000000 0.000000 0.000000 0.022226 0.000000 0.034110
#
#
# Mechanical properties :
#
#
# Convention : Reuss Voigt Hill
#
# Bulk Modulus (GPa) = 89.22066 107.41266 98.31666
# Shear Modulus (GPa) = 38.75462 161.92970 100.34216
#
# Velocity S-wave (km/s) = 3.78382 7.73451 6.08851
# Velocity P-wave (km/s) = 7.21464 10.92911 9.26004
#
# Compressibility (1/GPa) = 0.01120817
#
# Stress axis : x y z
#
# Youngs Moduli (GPa) = 69.95080 179.42847 153.86873
#
# Poissons Ratio (x) = 0.76398 0.37194
# Poissons Ratio (y) = 0.29784 0.13923
# Poissons Ratio (z) = 0.16909 0.16236
#
# Static dielectric constant tensor:
#      x y z
#    x 2.099400 0.000000 0.067080 
#    y 0.000000 2.145200 0.000000 
#    z 0.067080 0.000000 2.163040 
# 
# From -- ./inp_files/33625.got.cif
#   From: 2010.05.17/outbox.cif.g08.bks.cpg/sg11_17_cif.got.tgz:33625.got - 2010.06.03 12:22:45.
