data_PCOD9157862
_publ_section_title
;
Structure prediction by ZEFSAII (Michael W. Deem and Ramdas Pophale) SiO2 
 PCOD9157862
Probable space group: P 21/M
;
_chemical_formula_sum "Si O2"
_cell_formula_units_Z 32
_cell_length_a 15.162814
_cell_length_b 7.692645
_cell_length_c 14.137138
_cell_angle_alpha 90.000000
_cell_angle_beta 110.234243
_cell_angle_gamma 90.000000
_cell_volume 1547.221379
_symmetry_space_group_name_H-M "P 21/M"
_symmetry_group_IT_number 11
_symmetry_cell_setting 'monoclinic'
loop_
_space_group_symop_operation_xyz
x,y,z
-x,1/2+y,-z
-x,-y,-z
x,1/2-y,z
loop_
_atom_site_type_symbol
_atom_site_label
_atom_site_fract_x
_atom_site_fract_y
_atom_site_fract_z
Si Si1 0.591319 0.037431 0.424896
Si Si2 0.376378 0.543014 0.157833
Si Si3 0.883098 0.045994 0.252899
Si Si4 0.057526 0.544226 0.425592
Si Si5 0.274886 0.046708 0.929248
Si Si6 0.446272 0.458237 0.882023
Si Si7 0.772986 0.462699 0.396395
Si Si8 0.375848 0.551527 0.356096
O O1 0.581632 0.250000 0.422437
O O2 0.665430 0.985854 0.371896
O O3 0.634833 0.980008 0.542422
O O4 0.488829 0.955588 0.381915
O O5 0.387512 0.750000 0.175891
O O6 0.479916 0.470450 0.167635
O O7 0.339576 0.471344 0.244358
O O8 0.308377 0.523226 0.042646
O O9 0.867397 0.250000 0.246437
O O10 0.824849 0.972006 0.321493
O O11 0.992833 0.018913 0.315749
O O12 0.832512 0.977207 0.140821
O O13 0.062320 0.750000 0.417770
O O14 0.000000 0.500000 0.500000
O O15 0.162011 0.481902 0.490310
O O16 0.295251 0.250000 0.941506
O O17 0.342188 0.973830 0.869229
O O18 0.441508 0.250000 0.865620
O O19 0.500000 0.500000 0.000000
O O20 0.774518 0.250000 0.395416
O O21 0.341455 0.750000 0.349865
#
# Coordination Sequence:
#
# PCOD9157862 Si02
#       8
#     4   4   4   4   4   4   4   4
#     4   9  17  31  47  66  90 117 150 185 219 263
#     4   9  17  30  44  59  85 119 149 183 223 260
#     4  10  19  30  44  65  93 122 149 180 221 266
#     4   9  16  29  46  65  90 118 148 182 221 266
#     4  10  19  29  42  64  87 115 152 185 218 262
#     4   8  15  26  38  53  78 108 142 178 209 246
#     4   8  16  29  46  66  89 118 149 178 217 265
#     4   9  18  30  46  66  90 118 150 187 225 256
#
# _framework density 20.682236
#
# number of rings (size 3 to 8) (size 9 to 14) (size 15 to 20)
#    0.000    3.000    0.000    1.875    1.750    1.000 
#    0.000    3.125    0.000    0.000    0.000    0.875 
#    0.000    0.000    0.000    0.000    0.000    0.000 
#
# Total GULP energy -178162.947521 kJ/mol
# GULP energy per Si atom -5567.592110 kJ/mol
# Density = 2.063516 g / cm^3
# Si number density = 20.682236 Si / 1000 Ang^3
#
#
#
# Elastic Constant Matrix: (Units=GPa)
#
#
# Indices 1 2 3 4 5 6 
#
# 1 27.5465 -6.2547 -1.9276 0.0000 13.3770 0.0000
# 2 -6.2547 44.6128 -1.6749 0.0000 -3.6308 0.0000
# 3 -1.9276 -1.6749 94.2696 0.0000 11.8894 0.0000
# 4 0.0000 0.0000 0.0000 16.8756 0.0000 6.2684
# 5 13.3770 -3.6308 11.8894 0.0000 31.3186 0.0000
# 6 0.0000 0.0000 0.0000 6.2684 0.0000 10.3715
#
#
#
# Elastic Compliance Matrix: (Units=1/GPa)
#
#
# Indices 1 2 3 4 5 6 
#
# 1 0.048122 0.005148 0.003773 0.000000 -0.021390 0.000000
# 2 0.005148 0.023180 0.000478 0.000000 0.000307 0.000000
# 3 0.003773 0.000478 0.011437 0.000000 -0.005898 0.000000
# 4 0.000000 0.000000 0.000000 0.076412 0.000000 -0.046183
# 5 -0.021390 0.000307 -0.005898 0.000000 0.043341 0.000000
# 6 0.000000 0.000000 0.000000 -0.046183 0.000000 0.124331
#
#
# Mechanical properties :
#
#
# Convention : Reuss Voigt Hill
#
# Bulk Modulus (GPa) = 9.84855 16.30163 13.07509
# Shear Modulus (GPa) = 14.62541 23.46552 19.04546
#
# Velocity S-wave (km/s) = 2.66211 3.37200 3.03786
# Velocity P-wave (km/s) = 3.77111 4.80204 4.31745
#
# Compressibility (1/GPa) = 0.10153783
#
# Stress axis : x y z
#
# Youngs Moduli (GPa) = 20.78031 43.14116 87.43237
#
# Poissons Ratio (x) = -0.22207 -0.32990
# Poissons Ratio (y) = -0.10697 -0.04182
# Poissons Ratio (z) = -0.07841 -0.02064
#
# Static dielectric constant tensor:
#      x y z
#    x 1.751440 0.000000 0.010140 
#    y 0.000000 1.743870 0.000000 
#    z 0.010140 0.000000 1.783830 
# 
# From -- ./inp_files/52961.got.cif
#   From: 2010.05.17/outbox.cif.g08.bks.cpg/sg11_27_cif.got.tgz:52961.got - 2010.06.03 12:22:45.
