data_PCOD9157544
_publ_section_title
;
Structure prediction by ZEFSAII (Michael W. Deem and Ramdas Pophale) SiO2 
 PCOD9157544
Probable space group: P 21/M
;
_chemical_formula_sum "Si O2"
_cell_formula_units_Z 28
_cell_length_a 8.915601
_cell_length_b 13.046138
_cell_length_c 16.780909
_cell_angle_alpha 90.000000
_cell_angle_beta 47.766973
_cell_angle_gamma 90.000000
_cell_volume 1445.188898
_symmetry_space_group_name_H-M "P 21/M"
_symmetry_group_IT_number 11
_symmetry_cell_setting 'monoclinic'
loop_
_space_group_symop_operation_xyz
x,y,z
-x,1/2+y,-z
-x,-y,-z
x,1/2-y,z
loop_
_atom_site_type_symbol
_atom_site_label
_atom_site_fract_x
_atom_site_fract_y
_atom_site_fract_z
Si Si1 0.630092 0.867601 0.555538
Si Si2 0.980843 0.029539 0.656286
Si Si3 0.393343 0.136278 0.089063
Si Si4 0.129997 0.492324 0.872778
Si Si5 0.574500 0.950966 0.745559
Si Si6 0.819157 0.371940 0.299985
Si Si7 0.185195 0.579043 0.125415
O O1 0.661096 0.750000 0.521995
O O2 0.596319 0.877317 0.662341
O O3 0.413682 0.903254 0.598570
O O4 0.823514 0.930305 0.458378
O O5 0.903180 0.100956 0.756151
O O6 0.783823 0.013708 0.672925
O O7 0.044876 0.925772 0.681091
O O8 0.300809 0.250000 0.114349
O O9 0.431412 0.107642 0.167997
O O10 0.269172 0.040347 0.096614
O O11 0.613165 0.137563 0.969711
O O12 0.367534 0.483328 0.810162
O O13 0.134162 0.585265 0.805826
O O14 0.001545 0.409480 0.868405
O O15 0.000000 0.500000 0.000000
O O16 0.830875 0.250000 0.297259
#
# Coordination Sequence:
#
# PCOD9157544 Si02
#       7
#     4   4   4   4   4   4   4
#     4  10  20  35  55  82 110 142 181 227 275 327
#     4  10  20  35  57  77 112 145 183 223 276 322
#     4  10  19  34  54  77 105 137 179 227 269 316
#     4  10  18  34  54  75 112 144 171 225 273 321
#     4  10  20  33  55  80 107 142 187 222 274 314
#     4   9  20  36  57  83 108 140 188 228 269 322
#     4   9  20  34  52  78 104 141 178 216 270 327
#
# _framework density 19.374631000000001
#
# number of rings (size 3 to 8) (size 9 to 14) (size 15 to 20)
#    0.000    2.286    1.429    1.286    0.000    6.857 
#    0.000    0.000    0.000    0.857    0.000    2.000 
#    0.000    0.000    0.000    0.000    0.000    0.000 
#
# Total GULP energy -155870.313254 kJ/mol
# GULP energy per Si atom -5566.796902 kJ/mol
# Density = 1.933053 g / cm^3
# Si number density = 19.374631 Si / 1000 Ang^3
#
#
#
# Elastic Constant Matrix: (Units=GPa)
#
#
# Indices 1 2 3 4 5 6 
#
# 1 127.6720 16.0553 29.0500 0.0000 -32.5932 0.0000
# 2 16.0553 43.4529 19.8972 0.0000 -10.0694 0.0000
# 3 29.0500 19.8972 99.2281 0.0000 -30.8241 0.0000
# 4 0.0000 0.0000 0.0000 6.9602 0.0000 0.4336
# 5 -32.5932 -10.0694 -30.8241 0.0000 37.7818 0.0000
# 6 0.0000 0.0000 0.0000 0.4336 0.0000 8.7595
#
#
#
# Elastic Compliance Matrix: (Units=1/GPa)
#
#
# Indices 1 2 3 4 5 6 
#
# 1 0.010181 -0.001826 -0.000050 0.000000 0.008255 0.000000
# 2 -0.001826 0.026017 -0.004042 0.000000 0.002061 0.000000
# 3 -0.000050 -0.004042 0.014138 0.000000 0.010414 0.000000
# 4 0.000000 0.000000 0.000000 0.144119 0.000000 -0.007134
# 5 0.008255 0.002061 0.010414 0.000000 0.042635 0.000000
# 6 0.000000 0.000000 0.000000 -0.007134 0.000000 0.114515
#
#
# Mechanical properties :
#
#
# Convention : Reuss Voigt Hill
#
# Bulk Modulus (GPa) = 25.97423 44.48422 35.22923
# Shear Modulus (GPa) = 13.28821 24.39033 18.83927
#
# Velocity S-wave (km/s) = 2.62173 3.55192 3.12166
# Velocity P-wave (km/s) = 4.75395 6.31121 5.58710
#
# Compressibility (1/GPa) = 0.03849970
#
# Stress axis : x y z
#
# Youngs Moduli (GPa) = 98.22134 38.43713 70.73182
#
# Poissons Ratio (x) = 0.07018 0.00354
# Poissons Ratio (y) = 0.17933 0.28590
# Poissons Ratio (z) = 0.00491 0.15537
#
# Static dielectric constant tensor:
#      x y z
#    x 1.728120 0.000000 -0.017850 
#    y 0.000000 1.699840 0.000000 
#    z -0.017850 0.000000 1.696200 
# 
# From -- ./inp_files/47567.got.cif
#   From: 2010.05.17/outbox.cif.g08.bks.cpg/sg11_24_cif.got.tgz:47567.got - 2010.06.03 12:22:45.
