data_PCOD9157249
_publ_section_title
;
Structure prediction by ZEFSAII (Michael W. Deem and Ramdas Pophale) SiO2 
 PCOD9157249
Probable space group: P 21/M
;
_chemical_formula_sum "Si O2"
_cell_formula_units_Z 32
_cell_length_a 12.638873
_cell_length_b 8.508068
_cell_length_c 33.838710
_cell_angle_alpha 90.000000
_cell_angle_beta 29.470027
_cell_angle_gamma 90.000000
_cell_volume 1790.152872
_symmetry_space_group_name_H-M "P 21/M"
_symmetry_group_IT_number 11
_symmetry_cell_setting 'monoclinic'
loop_
_space_group_symop_operation_xyz
x,y,z
-x,1/2+y,-z
-x,-y,-z
x,1/2-y,z
loop_
_atom_site_type_symbol
_atom_site_label
_atom_site_fract_x
_atom_site_fract_y
_atom_site_fract_z
Si Si1 0.339346 0.937752 0.641975
Si Si2 0.547165 0.936582 0.817955
Si Si3 0.160814 0.559305 0.784764
Si Si4 0.993170 0.564612 0.314873
Si Si5 0.192427 0.437207 0.991178
Si Si6 0.284157 0.940830 0.831746
Si Si7 0.331010 0.563347 0.522428
Si Si8 0.294849 0.562616 0.043482
O O1 0.355823 0.750000 0.634581
O O2 0.283028 0.984407 0.704988
O O3 0.561454 0.009237 0.553285
O O4 0.145908 0.988630 0.675399
O O5 0.586704 0.750000 0.804583
O O6 0.480150 0.991756 0.795685
O O7 0.757764 0.019022 0.766631
O O8 0.340504 0.973822 0.911987
O O9 0.137124 0.750000 0.793030
O O10 0.276216 0.512030 0.788392
O O11 0.924727 0.483695 0.862710
O O12 0.963996 0.750000 0.321442
O O13 0.892472 0.505591 0.389206
O O14 0.200167 0.250000 0.981433
O O15 0.281721 0.476337 0.005617
O O16 0.943027 0.489227 0.074540
O O17 0.283992 0.750000 0.832282
O O18 0.500000 0.500000 0.500000
O O19 0.322012 0.750000 0.527027
O O20 0.305830 0.750000 0.034462
O O21 0.500000 0.500000 0.000000
#
# Coordination Sequence:
#
# PCOD9157249 Si02
#       8
#     4   4   4   4   4   4   4   4
#     4  10  19  33  56  82 109 138 171 210 257 318
#     4  11  21  34  54  79 106 137 176 220 268 314
#     4   9  19  36  56  78 104 136 176 216 258 311
#     4  11  22  35  51  76 110 141 174 214 262 311
#     4  10  20  36  54  75 102 136 179 220 264 313
#     4   8  17  35  56  76 102 137 177 221 264 309
#     4  10  18  32  53  77 107 138 171 209 257 314
#     4  11  22  35  51  72 104 141 176 216 264 311
#
# _framework density 17.875568000000001
#
# number of rings (size 3 to 8) (size 9 to 14) (size 15 to 20)
#    0.000    2.000    0.000    7.125    1.750    1.000 
#    0.000    5.625    0.000    0.750    0.000    0.000 
#    0.000    0.000    0.000    0.000    0.000    0.000 
#
# Total GULP energy -178557.394924 kJ/mol
# GULP energy per Si atom -5579.918591 kJ/mol
# Density = 1.783488 g / cm^3
# Si number density = 17.875568 Si / 1000 Ang^3
#
#
#
# Elastic Constant Matrix: (Units=GPa)
#
#
# Indices 1 2 3 4 5 6 
#
# 1 34.0780 -6.8589 24.4822 0.0000 2.1743 0.0000
# 2 -6.8589 48.5000 6.2430 0.0000 2.2587 0.0000
# 3 24.4822 6.2430 68.6392 0.0000 25.3413 0.0000
# 4 0.0000 0.0000 0.0000 29.5610 0.0000 3.2701
# 5 2.1743 2.2587 25.3413 0.0000 19.6240 0.0000
# 6 0.0000 0.0000 0.0000 3.2701 0.0000 10.8080
#
#
#
# Elastic Compliance Matrix: (Units=1/GPa)
#
#
# Indices 1 2 3 4 5 6 
#
# 1 0.052568 0.009998 -0.032651 0.000000 0.035188 0.000000
# 2 0.009998 0.022765 -0.008142 0.000000 0.006786 0.000000
# 3 -0.032651 -0.008142 0.048302 0.000000 -0.057820 0.000000
# 4 0.000000 0.000000 0.000000 0.035000 0.000000 -0.010590
# 5 0.035188 0.006786 -0.057820 0.000000 0.120943 0.000000
# 6 0.000000 0.000000 0.000000 -0.010590 0.000000 0.095728
#
#
# Mechanical properties :
#
#
# Convention : Reuss Voigt Hill
#
# Bulk Modulus (GPa) = 16.11709 22.10553 19.11131
# Shear Modulus (GPa) = 10.92713 20.48866 15.70789
#
# Velocity S-wave (km/s) = 2.47511 3.38920 2.96756
# Velocity P-wave (km/s) = 4.14778 5.26391 4.73882
#
# Compressibility (1/GPa) = 0.06204594
#
# Stress axis : x y z
#
# Youngs Moduli (GPa) = 19.02284 43.92793 20.70307
#
# Poissons Ratio (x) = -0.43921 0.67597
# Poissons Ratio (y) = -0.19020 0.16857
# Poissons Ratio (z) = 0.62111 0.35767
#
# Static dielectric constant tensor:
#      x y z
#    x 1.617070 0.000000 0.021860 
#    y 0.000000 1.598230 0.000000 
#    z 0.021860 0.000000 1.624730 
# 
# From -- ./inp_files/73088.got.cif
#   From: 2010.05.17/outbox.cif.g08.bks.cpg/sg11_37_cif.got.tgz:73088.got - 2010.06.03 12:22:45.
