data_PCOD9157320
_publ_section_title
;
Structure prediction by ZEFSAII (Michael W. Deem and Ramdas Pophale) SiO2 
 PCOD9157320
Probable space group: P 21/M
;
_chemical_formula_sum "Si O2"
_cell_formula_units_Z 28
_cell_length_a 15.509352
_cell_length_b 22.157810
_cell_length_c 9.587151
_cell_angle_alpha 90.000000
_cell_angle_beta 26.060996
_cell_angle_gamma 90.000000
_cell_volume 1447.433694
_symmetry_space_group_name_H-M "P 21/M"
_symmetry_group_IT_number 11
_symmetry_cell_setting 'monoclinic'
loop_
_space_group_symop_operation_xyz
x,y,z
-x,1/2+y,-z
-x,-y,-z
x,1/2-y,z
loop_
_atom_site_type_symbol
_atom_site_label
_atom_site_fract_x
_atom_site_fract_y
_atom_site_fract_z
Si Si1 0.010489 0.678923 0.539131
Si Si2 0.212743 0.001331 0.363580
Si Si3 0.260967 0.043966 0.599208
Si Si4 0.525508 0.933063 0.249411
Si Si5 0.870502 0.575227 0.931604
Si Si6 0.607518 0.679655 0.972167
Si Si7 0.582281 0.380354 0.014503
O O1 0.024173 0.750000 0.546595
O O2 0.936662 0.640178 0.779262
O O3 0.840045 0.670040 0.669981
O O4 0.226883 0.651965 0.198437
O O5 0.995937 0.974298 0.663814
O O6 0.205888 0.037947 0.517303
O O7 0.341288 0.939461 0.183038
O O8 0.320006 0.039491 0.089194
O O9 0.437595 0.092364 0.339584
O O10 0.345167 0.978291 0.516679
O O11 0.104475 0.064148 0.940939
O O12 0.644284 0.932600 0.220322
O O13 0.492766 0.865298 0.243538
O O14 0.567380 0.750000 0.055280
O O15 0.535624 0.661368 0.922553
#
# Coordination Sequence:
#
# PCOD9157320 Si02
#       7
#     4   4   4   4   4   4   4
#     4   9  20  36  54  77 104 140 188 223 255 323
#     4  10  18  33  54  74 108 138 176 214 260 319
#     4  11  19  33  51  82 114 133 169 224 281 319
#     4  10  18  34  51  76 107 140 183 219 257 326
#     4  10  21  31  53  81 108 143 171 216 283 315
#     4  10  18  32  55  78  99 136 186 226 258 306
#     4  10  18  34  56  77 104 139 178 221 265 314
#
# _framework density 19.344581999999999
#
# number of rings (size 3 to 8) (size 9 to 14) (size 15 to 20)
#    0.000    2.000    2.857    2.571    0.000    1.143 
#    0.000    1.429    0.000    0.000    0.000    9.000 
#    0.000    0.000    0.000    0.000    0.000    0.000 
#
# Total GULP energy -156055.634245 kJ/mol
# GULP energy per Si atom -5573.415509 kJ/mol
# Density = 1.930055 g / cm^3
# Si number density = 19.344582 Si / 1000 Ang^3
#
#
#
# Elastic Constant Matrix: (Units=GPa)
#
#
# Indices 1 2 3 4 5 6 
#
# 1 59.8685 23.4901 15.4682 0.0000 -3.4804 0.0000
# 2 23.4901 115.8713 17.6908 0.0000 -8.2658 0.0000
# 3 15.4682 17.6908 45.2478 0.0000 0.7991 0.0000
# 4 0.0000 0.0000 0.0000 18.6043 0.0000 -5.2869
# 5 -3.4804 -8.2658 0.7991 0.0000 25.8053 0.0000
# 6 0.0000 0.0000 0.0000 -5.2869 0.0000 25.3688
#
#
#
# Elastic Compliance Matrix: (Units=1/GPa)
#
#
# Indices 1 2 3 4 5 6 
#
# 1 0.019394 -0.002960 -0.005505 0.000000 0.001838 0.000000
# 2 -0.002960 0.009877 -0.002900 0.000000 0.002854 0.000000
# 3 -0.005505 -0.002900 0.025160 0.000000 -0.002450 0.000000
# 4 0.000000 0.000000 0.000000 0.057135 0.000000 0.011907
# 5 0.001838 0.002854 -0.002450 0.000000 0.039990 0.000000
# 6 0.000000 0.000000 0.000000 0.011907 0.000000 0.041900
#
#
# Mechanical properties :
#
#
# Convention : Reuss Voigt Hill
#
# Bulk Modulus (GPa) = 31.54587 37.14287 34.34437
# Shear Modulus (GPa) = 22.05057 24.91157 23.48107
#
# Velocity S-wave (km/s) = 3.37988 3.59246 3.48779
# Velocity P-wave (km/s) = 5.61909 6.03738 5.83199
#
# Compressibility (1/GPa) = 0.03169987
#
# Stress axis : x y z
#
# Youngs Moduli (GPa) = 51.56275 101.24817 39.74630
#
# Poissons Ratio (x) = 0.29970 0.21881
# Poissons Ratio (y) = 0.15263 0.11527
# Poissons Ratio (z) = 0.28386 0.29363
#
# Static dielectric constant tensor:
#      x y z
#    x 1.727600 0.000000 -0.042340 
#    y 0.000000 1.680030 0.000000 
#    z -0.042340 0.000000 1.690580 
# 
# From -- ./inp_files/23179.got.cif
#   From: 2010.05.17/outbox.cif.g08.bks.cpg/sg11_12_cif.got.tgz:23179.got - 2010.06.03 12:22:45.
