data_PCOD9157756
_publ_section_title
;
Structure prediction by ZEFSAII (Michael W. Deem and Ramdas Pophale) SiO2 
 PCOD9157756
Probable space group: P 21/M
;
_chemical_formula_sum "Si O2"
_cell_formula_units_Z 28
_cell_length_a 9.531738
_cell_length_b 26.932321
_cell_length_c 9.017731
_cell_angle_alpha 90.000000
_cell_angle_beta 35.054887
_cell_angle_gamma 90.000000
_cell_volume 1329.621448
_symmetry_space_group_name_H-M "P 21/M"
_symmetry_group_IT_number 11
_symmetry_cell_setting 'monoclinic'
loop_
_space_group_symop_operation_xyz
x,y,z
-x,1/2+y,-z
-x,-y,-z
x,1/2-y,z
loop_
_atom_site_type_symbol
_atom_site_label
_atom_site_fract_x
_atom_site_fract_y
_atom_site_fract_z
Si Si1 0.250000 0.471408 0.250002
Si Si2 0.749993 0.148492 0.750011
Si Si3 0.704050 0.694762 0.968916
Si Si4 0.204032 0.194762 0.468948
Si Si5 0.486869 0.400797 0.245079
Si Si6 0.013121 0.099203 0.254938
Si Si7 0.750001 0.031967 0.250001
O O1 0.282197 0.439406 0.372052
O O2 0.000000 0.500000 0.500000
O O3 0.217798 0.439405 0.127961
O O4 0.500000 0.500000 0.000000
O O5 0.897655 0.114139 0.511747
O O6 0.918327 0.181373 0.712785
O O7 0.581657 0.181376 0.787246
O O8 0.602325 0.114138 0.988277
O O9 0.755207 0.750000 0.980558
O O10 0.750012 0.694640 0.749982
O O11 0.860283 0.650565 0.907210
O O12 0.255183 0.250000 0.480596
O O13 0.360273 0.150564 0.407230
O O14 0.675329 0.430308 0.182790
O O15 0.824670 0.069692 0.317214
O O16 0.500000 0.000000 0.500000
O O17 0.000000 0.000000 0.000000
#
# Coordination Sequence:
#
# PCOD9157756 Si02
#       7
#     4   4   4   4   4   4   4
#     4  12  23  36  62  90 119 159 218 269 310 368
#     4  10  18  36  67  96 132 165 218 267 329 380
#     4   9  18  34  62  98 131 165 211 270 333 388
#     4   9  18  34  62  98 131 165 211 270 333 388
#     4  11  23  41  64  94 131 170 219 273 326 392
#     4  11  23  41  64  94 131 170 219 273 326 392
#     4  12  30  48  67  94 135 182 220 270 338 392
#
# _framework density 21.058624999999999
#
# number of rings (size 3 to 8) (size 9 to 14) (size 15 to 20)
#    0.000    1.429    4.286    3.000    4.000    1.143 
#    0.000    0.714    0.000    1.714    0.000    0.000 
#    0.000    0.000    0.000    0.000    0.000    0.000 
#
# Total GULP energy -156015.428147 kJ/mol
# GULP energy per Si atom -5571.979577 kJ/mol
# Density = 2.101069 g / cm^3
# Si number density = 21.058625 Si / 1000 Ang^3
#
#
#
# Elastic Constant Matrix: (Units=GPa)
#
#
# Indices 1 2 3 4 5 6 
#
# 1 100.3184 71.6389 15.7925 0.0000 -24.4822 0.0000
# 2 71.6389 179.7579 45.7257 0.0000 -29.9859 0.0000
# 3 15.7925 45.7257 63.1605 0.0000 -29.2904 0.0000
# 4 0.0000 0.0000 0.0000 16.9728 0.0000 -13.0125
# 5 -24.4822 -29.9859 -29.2904 0.0000 25.9449 0.0000
# 6 0.0000 0.0000 0.0000 -13.0125 0.0000 39.4918
#
#
#
# Elastic Compliance Matrix: (Units=1/GPa)
#
#
# Indices 1 2 3 4 5 6 
#
# 1 0.017815 -0.006092 0.009417 0.000000 0.020401 0.000000
# 2 -0.006092 0.009205 -0.006030 0.000000 -0.001918 0.000000
# 3 0.009417 -0.006030 0.039316 0.000000 0.046302 0.000000
# 4 0.000000 0.000000 0.000000 0.078832 0.000000 0.025975
# 5 0.020401 -0.001918 0.046302 0.000000 0.107850 0.000000
# 6 0.000000 0.000000 0.000000 0.025975 0.000000 0.033880
#
#
# Mechanical properties :
#
#
# Convention : Reuss Voigt Hill
#
# Bulk Modulus (GPa) = 16.41359 67.72789 42.07074
# Shear Modulus (GPa) = 15.99397 30.48721 23.24059
#
# Velocity S-wave (km/s) = 2.75889 3.80903 3.32567
# Velocity P-wave (km/s) = 4.23790 7.18167 5.89645
#
# Compressibility (1/GPa) = 0.06092514
#
# Stress axis : x y z
#
# Youngs Moduli (GPa) = 56.13265 108.63762 25.43489
#
# Poissons Ratio (x) = 0.66183 -0.23951
# Poissons Ratio (y) = 0.34196 0.15337
# Poissons Ratio (z) = -0.52858 0.65508
#
# Static dielectric constant tensor:
#      x y z
#    x 1.787040 0.000000 0.032210 
#    y 0.000000 1.845560 0.000000 
#    z 0.032210 0.000000 1.478720 
# 
# From -- ./inp_files/15273.got.cif
#   From: 2010.05.17/outbox.cif.g08.bks.cpg/sg11_8_cif.got.tgz:15273.got - 2010.06.03 12:22:45.
