data_PCOD9157266
_publ_section_title
;
Structure prediction by ZEFSAII (Michael W. Deem and Ramdas Pophale) SiO2 
 PCOD9157266
Probable space group: P 21/M
;
_chemical_formula_sum "Si O2"
_cell_formula_units_Z 24
_cell_length_a 7.848420
_cell_length_b 22.515399
_cell_length_c 6.902690
_cell_angle_alpha 90.000000
_cell_angle_beta 65.805943
_cell_angle_gamma 90.000000
_cell_volume 1112.634518
_symmetry_space_group_name_H-M "P 21/M"
_symmetry_group_IT_number 11
_symmetry_cell_setting 'monoclinic'
loop_
_space_group_symop_operation_xyz
x,y,z
-x,1/2+y,-z
-x,-y,-z
x,1/2-y,z
loop_
_atom_site_type_symbol
_atom_site_label
_atom_site_fract_x
_atom_site_fract_y
_atom_site_fract_z
Si Si1 0.509885 0.182616 0.208065
Si Si2 0.243382 0.611261 0.645118
Si Si3 0.467601 0.610300 0.190772
Si Si4 0.767700 0.680052 0.323457
Si Si5 0.318930 0.994679 0.837536
Si Si6 0.009864 0.919144 0.088205
O O1 0.519628 0.250000 0.134945
O O2 0.675642 0.168224 0.282019
O O3 0.322415 0.174526 0.421463
O O4 0.528802 0.138835 0.020757
O O5 0.277192 0.615967 0.403378
O O6 0.376248 0.556132 0.657706
O O7 0.048592 0.595972 0.840751
O O8 0.620201 0.648644 0.245295
O O9 0.534933 0.542038 0.156370
O O10 0.788743 0.750000 0.270599
O O11 0.955618 0.641758 0.214977
O O12 0.160571 0.035786 0.811016
O O13 0.197457 0.955891 0.048360
#
# Coordination Sequence:
#
# PCOD9157266 Si02
#       6
#     4   4   4   4   4   4
#     4  10  21  34  49  73 100 130 173 207 238 296
#     4   9  18  33  53  76 100 131 159 204 258 290
#     4  10  18  32  54  74 101 130 165 206 249 292
#     4   9  18  34  53  69  94 135 170 202 247 294
#     4   8  16  32  53  77 100 130 165 201 246 303
#     4   8  16  32  54  75  99 129 163 203 247 293
#
# _framework density 21.570423999999999
#
# number of rings (size 3 to 8) (size 9 to 14) (size 15 to 20)
#    1.000    2.000    0.000    1.000    0.000    2.000 
#    0.000    4.167    0.000    0.000    0.000    0.000 
#    0.000    0.000    0.000    0.000    0.000    0.000 
#
# Total GULP energy -133625.996439 kJ/mol
# GULP energy per Si atom -5567.749852 kJ/mol
# Density = 2.152133 g / cm^3
# Si number density = 21.570424 Si / 1000 Ang^3
#
#
#
# Elastic Constant Matrix: (Units=GPa)
#
#
# Indices 1 2 3 4 5 6 
#
# 1 31.8749 13.3932 13.6428 0.0000 -1.4990 0.0000
# 2 13.3932 124.7944 43.7809 0.0000 -10.0846 0.0000
# 3 13.6428 43.7809 89.6544 0.0000 2.4415 0.0000
# 4 0.0000 0.0000 0.0000 32.2974 0.0000 -8.4745
# 5 -1.4990 -10.0846 2.4415 0.0000 19.0922 0.0000
# 6 0.0000 0.0000 0.0000 -8.4745 0.0000 24.4256
#
#
#
# Elastic Compliance Matrix: (Units=1/GPa)
#
#
# Indices 1 2 3 4 5 6 
#
# 1 0.034143 -0.001985 -0.004286 0.000000 0.002181 0.000000
# 2 -0.001985 0.010453 -0.004966 0.000000 0.006001 0.000000
# 3 -0.004286 -0.004966 0.014362 0.000000 -0.004796 0.000000
# 4 0.000000 0.000000 0.000000 0.034063 0.000000 0.011818
# 5 0.002181 0.006001 -0.004796 0.000000 0.056332 0.000000
# 6 0.000000 0.000000 0.000000 0.011818 0.000000 0.045041
#
#
# Mechanical properties :
#
#
# Convention : Reuss Voigt Hill
#
# Bulk Modulus (GPa) = 27.40816 43.10640 35.25728
# Shear Modulus (GPa) = 21.83125 26.86350 24.34737
#
# Velocity S-wave (km/s) = 3.18479 3.53283 3.36332
# Velocity P-wave (km/s) = 5.12424 6.05546 5.60921
#
# Compressibility (1/GPa) = 0.03648549
#
# Stress axis : x y z
#
# Youngs Moduli (GPa) = 29.28822 95.66347 69.62895
#
# Poissons Ratio (x) = 0.18985 0.29842
# Poissons Ratio (y) = 0.05812 0.34578
# Poissons Ratio (z) = 0.12553 0.47507
#
# Static dielectric constant tensor:
#      x y z
#    x 1.826650 0.000000 -0.006750 
#    y 0.000000 1.786880 0.000000 
#    z -0.006750 0.000000 1.795980 
# 
# From -- ./inp_files/4809.got.cif
#   From: 2010.05.17/outbox.cif.g08.bks.cpg/sg11_3_cif.got.tgz:4809.got - 2010.06.03 12:22:45.
