data_PCOD9157146
_publ_section_title
;
Structure prediction by ZEFSAII (Michael W. Deem and Ramdas Pophale) SiO2 
 PCOD9157146
Probable space group: P 21/M
;
_chemical_formula_sum "Si O2"
_cell_formula_units_Z 28
_cell_length_a 20.998381
_cell_length_b 8.613726
_cell_length_c 14.896455
_cell_angle_alpha 90.000000
_cell_angle_beta 31.933788
_cell_angle_gamma 90.000000
_cell_volume 1425.165479
_symmetry_space_group_name_H-M "P 21/M"
_symmetry_group_IT_number 11
_symmetry_cell_setting 'monoclinic'
loop_
_space_group_symop_operation_xyz
x,y,z
-x,1/2+y,-z
-x,-y,-z
x,1/2-y,z
loop_
_atom_site_type_symbol
_atom_site_label
_atom_site_fract_x
_atom_site_fract_y
_atom_site_fract_z
Si Si1 0.721215 0.438607 0.890064
Si Si2 0.443436 0.436216 0.250081
Si Si3 0.252403 0.938004 0.343441
Si Si4 0.268649 0.563904 0.610489
Si Si5 0.366905 0.434038 0.673931
Si Si6 0.061878 0.936325 0.722900
Si Si7 0.190751 0.935457 0.027474
O O1 0.724789 0.250000 0.884496
O O2 0.759560 0.489787 0.744994
O O3 0.582443 0.482364 0.074289
O O4 0.800550 0.490661 0.879590
O O5 0.437267 0.250000 0.267061
O O6 0.368838 0.488839 0.251841
O O7 0.376360 0.513547 0.414793
O O8 0.265129 0.750000 0.330998
O O9 0.139258 0.978728 0.541706
O O10 0.270422 0.750000 0.617979
O O11 0.288111 0.485321 0.682535
O O12 0.145201 0.518024 0.707621
O O13 0.500000 0.500000 0.500000
O O14 0.372452 0.250000 0.673127
O O15 0.304706 0.501834 0.836660
O O16 0.050436 0.750000 0.738527
O O17 0.931274 0.009281 0.873208
O O18 0.195175 0.750000 0.021263
#
# Coordination Sequence:
#
# PCOD9157146 Si02
#       7
#     4   4   4   4   4   4   4
#     4   9  19  34  53  79 112 151 190 235 288 338
#     4  10  18  31  54  85 117 146 186 238 291 345
#     4   9  18  35  56  78 111 152 192 235 285 340
#     4  10  21  39  62  85 114 153 192 233 286 341
#     4  12  25  42  64  90 119 148 184 229 281 340
#     4   9  20  38  58  82 113 149 191 238 287 338
#     4  11  23  39  59  83 114 152 194 238 285 339
#
# _framework density 19.646843000000001
#
# number of rings (size 3 to 8) (size 9 to 14) (size 15 to 20)
#    0.000    2.000    0.000    4.714    0.000    5.143 
#    0.000    4.286    0.000    0.000    0.000    0.000 
#    0.000    0.000    0.000    0.000    0.000    0.000 
#
# Total GULP energy -156442.714496 kJ/mol
# GULP energy per Si atom -5587.239803 kJ/mol
# Density = 1.960213 g / cm^3
# Si number density = 19.646843 Si / 1000 Ang^3
#
#
#
# Elastic Constant Matrix: (Units=GPa)
#
#
# Indices 1 2 3 4 5 6 
#
# 1 80.1007 10.3537 17.4300 0.0000 7.1684 0.0000
# 2 10.3537 30.7510 9.8962 0.0000 -11.1392 0.0000
# 3 17.4300 9.8962 34.4016 0.0000 -15.8564 0.0000
# 4 0.0000 0.0000 0.0000 29.7819 0.0000 -2.4328
# 5 7.1684 -11.1392 -15.8564 0.0000 28.8235 0.0000
# 6 0.0000 0.0000 0.0000 -2.4328 0.0000 28.8607
#
#
#
# Elastic Compliance Matrix: (Units=1/GPa)
#
#
# Indices 1 2 3 4 5 6 
#
# 1 0.017644 -0.006806 -0.013687 0.000000 -0.014548 0.000000
# 2 -0.006806 0.041245 -0.000388 0.000000 0.017419 0.000000
# 3 -0.013687 -0.000388 0.050392 0.000000 0.030976 0.000000
# 4 0.000000 0.000000 0.000000 0.033810 0.000000 0.002850
# 5 -0.014548 0.017419 0.030976 0.000000 0.062084 0.000000
# 6 0.000000 0.000000 0.000000 0.002850 0.000000 0.034889
#
#
# Mechanical properties :
#
#
# Convention : Reuss Voigt Hill
#
# Bulk Modulus (GPa) = 14.81043 24.51255 19.66149
# Shear Modulus (GPa) = 16.42928 24.66479 20.54704
#
# Velocity S-wave (km/s) = 2.89490 3.54702 3.23742
# Velocity P-wave (km/s) = 4.32766 5.41099 4.89936
#
# Compressibility (1/GPa) = 0.06751997
#
# Stress axis : x y z
#
# Youngs Moduli (GPa) = 56.67559 24.24511 19.84431
#
# Poissons Ratio (x) = 0.16501 0.27162
# Poissons Ratio (y) = 0.38572 0.00770
# Poissons Ratio (z) = 0.77574 0.00940
#
# Static dielectric constant tensor:
#      x y z
#    x 1.694380 0.000000 0.009640 
#    y 0.000000 1.659170 0.000000 
#    z 0.009640 0.000000 1.661300 
# 
# From -- ./inp_files/54501.got.cif
#   From: 2010.05.17/outbox.cif.g08.bks.cpg/sg11_28_cif.got.tgz:54501.got - 2010.06.03 12:22:45.
