data_PCOD9157574
_publ_section_title
;
Structure prediction by ZEFSAII (Michael W. Deem and Ramdas Pophale) SiO2 
 PCOD9157574
Probable space group: P 21/M
;
_chemical_formula_sum "Si O2"
_cell_formula_units_Z 24
_cell_length_a 16.531736
_cell_length_b 14.124034
_cell_length_c 10.354618
_cell_angle_alpha 90.000000
_cell_angle_beta 36.006769
_cell_angle_gamma 90.000000
_cell_volume 1421.348558
_symmetry_space_group_name_H-M "P 21/M"
_symmetry_group_IT_number 11
_symmetry_cell_setting 'monoclinic'
loop_
_space_group_symop_operation_xyz
x,y,z
-x,1/2+y,-z
-x,-y,-z
x,1/2-y,z
loop_
_atom_site_type_symbol
_atom_site_label
_atom_site_fract_x
_atom_site_fract_y
_atom_site_fract_z
Si Si1 0.171619 0.460471 0.143201
Si Si2 0.140131 0.958020 0.468655
Si Si3 0.559246 0.447433 0.299718
Si Si4 0.397763 0.750000 0.349074
Si Si5 0.513611 0.750000 0.491751
Si Si6 0.117793 0.750000 0.573811
Si Si7 0.423668 0.961389 0.225476
Si Si8 0.802765 0.750000 0.986145
O O1 0.172392 0.491110 0.292004
O O2 0.207514 0.349037 0.079168
O O3 0.017225 0.480172 0.292124
O O4 0.283730 0.522019 0.924271
O O5 0.139858 0.843530 0.459298
O O6 0.261279 0.978924 0.412523
O O7 0.500000 0.500000 0.500000
O O8 0.533710 0.339381 0.365214
O O9 0.480110 0.483338 0.275549
O O10 0.443737 0.750000 0.439005
O O11 0.233040 0.750000 0.536436
O O12 0.447038 0.848679 0.220194
O O13 0.677750 0.750000 0.249423
O O14 0.961729 0.750000 0.828498
O O15 0.500000 0.000000 0.000000
#
# Coordination Sequence:
#
# PCOD9157574 Si02
#       8
#     4   4   4   2   2   2   4   2
#     4  10  19  36  58  85 119 153 195 239 295 350
#     4   9  19  35  59  88 116 151 191 246 298 344
#     4  12  23  39  59  88 118 155 197 238 290 354
#     4  10  20  37  58  82 118 159 198 233 301 354
#     4  12  24  38  60  84 122 161 197 232 294 360
#     4   8  18  33  56  83 115 148 199 237 292 349
#     4  11  21  38  61  89 119 152 199 251 292 344
#     4  10  18  34  56  81 111 164 194 232 285 361
#
# _framework density 16.885373000000001
#
# number of rings (size 3 to 8) (size 9 to 14) (size 15 to 20)
#    0.000    1.667    5.000    0.000    0.000    1.333 
#    0.000    4.167    0.000    0.000    0.000    0.000 
#    0.000    0.000    0.000    0.000    0.000    0.000 
#
# Total GULP energy -133736.685795 kJ/mol
# GULP energy per Si atom -5572.361908 kJ/mol
# Density = 1.684694 g / cm^3
# Si number density = 16.885373 Si / 1000 Ang^3
#
#
#
# Elastic Constant Matrix: (Units=GPa)
#
#
# Indices 1 2 3 4 5 6 
#
# 1 107.6872 59.9294 56.6895 0.0000 -1.5559 0.0000
# 2 59.9294 148.2468 77.5885 0.0000 -1.5114 0.0000
# 3 56.6895 77.5885 127.5736 0.0000 -7.6912 0.0000
# 4 0.0000 0.0000 0.0000 31.9883 0.0000 4.1367
# 5 -1.5559 -1.5114 -7.6912 0.0000 26.2128 0.0000
# 6 0.0000 0.0000 0.0000 4.1367 0.0000 21.7424
#
#
#
# Elastic Compliance Matrix: (Units=1/GPa)
#
#
# Indices 1 2 3 4 5 6 
#
# 1 0.013151 -0.003295 -0.003873 0.000000 -0.000546 0.000000
# 2 -0.003295 0.010759 -0.005145 0.000000 -0.001085 0.000000
# 3 -0.003873 -0.005145 0.012885 0.000000 0.003254 0.000000
# 4 0.000000 0.000000 0.000000 0.032050 0.000000 -0.006098
# 5 -0.000546 -0.001085 0.003254 0.000000 0.039009 0.000000
# 6 0.000000 0.000000 0.000000 -0.006098 0.000000 0.047153
#
#
# Mechanical properties :
#
#
# Convention : Reuss Voigt Hill
#
# Bulk Modulus (GPa) = 82.17171 85.76915 83.97043
# Shear Modulus (GPa) = 27.22009 28.60873 27.91441
#
# Velocity S-wave (km/s) = 4.01939 4.12064 4.07033
# Velocity P-wave (km/s) = 8.38515 8.57583 8.48102
#
# Compressibility (1/GPa) = 0.01216964
#
# Stress axis : x y z
#
# Youngs Moduli (GPa) = 76.04215 92.94492 77.61160
#
# Poissons Ratio (x) = 0.30624 0.30057
# Poissons Ratio (y) = 0.25055 0.39929
# Poissons Ratio (z) = 0.29449 0.47818
#
# Static dielectric constant tensor:
#      x y z
#    x 1.573520 0.000000 -0.044360 
#    y 0.000000 1.557130 0.000000 
#    z -0.044360 0.000000 1.557870 
# 
# From -- ./inp_files/22079.got.cif
#   From: 2010.05.17/outbox.cif.g08.bks.cpg/sg11_12_cif.got.tgz:22079.got - 2010.06.03 12:22:45.
