data_PCOD9157360
_publ_section_title
;
Structure prediction by ZEFSAII (Michael W. Deem and Ramdas Pophale) SiO2 
 PCOD9157360
Probable space group: P 21/M
;
_chemical_formula_sum "Si O2"
_cell_formula_units_Z 32
_cell_length_a 9.968366
_cell_length_b 18.596876
_cell_length_c 9.798700
_cell_angle_alpha 90.000000
_cell_angle_beta 120.490733
_cell_angle_gamma 90.000000
_cell_volume 1565.287759
_symmetry_space_group_name_H-M "P 21/M"
_symmetry_group_IT_number 11
_symmetry_cell_setting 'monoclinic'
loop_
_space_group_symop_operation_xyz
x,y,z
-x,1/2+y,-z
-x,-y,-z
x,1/2-y,z
loop_
_atom_site_type_symbol
_atom_site_label
_atom_site_fract_x
_atom_site_fract_y
_atom_site_fract_z
Si Si1 0.556942 0.978855 0.178514
Si Si2 0.733635 0.670387 0.819852
Si Si3 0.409465 0.668163 0.496053
Si Si4 0.235544 0.012908 0.093711
Si Si5 0.125432 0.973357 0.739661
Si Si6 0.854263 0.875768 0.599836
Si Si7 0.587513 0.827202 0.297090
Si Si8 0.819980 0.034635 0.639201
O O1 0.561658 0.893423 0.186494
O O2 0.421382 0.002608 0.209865
O O3 0.727824 0.012530 0.279646
O O4 0.500000 0.000000 0.000000
O O5 0.753728 0.750000 0.891510
O O6 0.553958 0.662996 0.676503
O O7 0.784381 0.599062 0.926650
O O8 0.832099 0.664839 0.730458
O O9 0.344597 0.750000 0.476125
O O10 0.487075 0.664511 0.384595
O O11 0.288312 0.602517 0.445449
O O12 0.157825 0.976439 0.185277
O O13 0.182597 0.976391 0.926107
O O14 0.029995 0.900505 0.666280
O O15 0.991529 0.034683 0.659616
O O16 0.765656 0.833139 0.438579
O O17 0.763057 0.953262 0.570891
O O18 0.552488 0.750000 0.218139
#
# Coordination Sequence:
#
# PCOD9157360 Si02
#       8
#     4   4   4   4   4   4   4   4
#     4  10  21  36  54  79 103 143 181 217 258 313
#     4   9  18  30  50  81 110 137 173 222 267 314
#     4   9  17  30  49  79 113 134 169 223 268 315
#     4  10  18  32  57  74 103 142 184 210 259 313
#     4   9  20  34  49  77 109 131 174 227 250 305
#     4   8  18  30  55  77 106 135 169 220 265 305
#     4  10  19  34  56  80 106 140 179 217 259 319
#     4   9  17  30  53  79 103 131 174 220 265 302
#
# _framework density 20.443525999999999
#
# number of rings (size 3 to 8) (size 9 to 14) (size 15 to 20)
#    0.750    2.000    1.250    1.500    1.750    2.000 
#    0.000    3.750    0.000    9.000    0.000    0.000 
#    0.000    0.000    0.000    0.000    0.000    0.000 
#
# Total GULP energy -178255.365431 kJ/mol
# GULP energy per Si atom -5570.480170 kJ/mol
# Density = 2.039700 g / cm^3
# Si number density = 20.443526 Si / 1000 Ang^3
#
#
#
# Elastic Constant Matrix: (Units=GPa)
#
#
# Indices 1 2 3 4 5 6 
#
# 1 83.1027 13.3586 -2.4317 0.0000 26.4774 0.0000
# 2 13.3586 114.7874 10.3022 0.0000 12.8054 0.0000
# 3 -2.4317 10.3022 31.2112 0.0000 -2.7908 0.0000
# 4 0.0000 0.0000 0.0000 15.2358 0.0000 -4.9428
# 5 26.4774 12.8054 -2.7908 0.0000 19.7395 0.0000
# 6 0.0000 0.0000 0.0000 -4.9428 0.0000 17.6024
#
#
#
# Elastic Compliance Matrix: (Units=1/GPa)
#
#
# Indices 1 2 3 4 5 6 
#
# 1 0.021121 0.000900 -0.001253 0.000000 -0.029091 0.000000
# 2 0.000900 0.009869 -0.003917 0.000000 -0.008163 0.000000
# 3 -0.001253 -0.003917 0.034043 0.000000 0.009035 0.000000
# 4 0.000000 0.000000 0.000000 0.072213 0.000000 0.020278
# 5 -0.029091 -0.008163 0.009035 0.000000 0.096253 0.000000
# 6 0.000000 0.000000 0.000000 0.020278 0.000000 0.062504
#
#
# Mechanical properties :
#
#
# Convention : Reuss Voigt Hill
#
# Bulk Modulus (GPa) = 17.70156 30.17329 23.93742
# Shear Modulus (GPa) = 15.46189 24.37371 19.91780
#
# Velocity S-wave (km/s) = 2.75311 3.45664 3.12474
# Velocity P-wave (km/s) = 4.33402 5.54279 4.97525
#
# Compressibility (1/GPa) = 0.05649218
#
# Stress axis : x y z
#
# Youngs Moduli (GPa) = 47.34707 101.32427 29.37452
#
# Poissons Ratio (x) = -0.09117 0.03680
# Poissons Ratio (y) = -0.04260 0.11507
# Poissons Ratio (z) = 0.05931 0.39694
#
# Static dielectric constant tensor:
#      x y z
#    x 1.802100 0.000000 0.012520 
#    y 0.000000 1.708530 0.000000 
#    z 0.012520 0.000000 1.778650 
# 
# From -- ./inp_files/35920.got.cif
#   From: 2010.05.17/outbox.cif.g08.bks.cpg/sg11_18_cif.got.tgz:35920.got - 2010.06.03 12:22:45.
