data_PCOD9157013
_publ_section_title
;
Structure prediction by ZEFSAII (Michael W. Deem and Ramdas Pophale) SiO2 
 PCOD9157013
Probable space group: P 21/M
;
_chemical_formula_sum "Si O2"
_cell_formula_units_Z 28
_cell_length_a 16.158372
_cell_length_b 9.128191
_cell_length_c 19.123010
_cell_angle_alpha 90.000000
_cell_angle_beta 33.707027
_cell_angle_gamma 90.000000
_cell_volume 1565.271424
_symmetry_space_group_name_H-M "P 21/M"
_symmetry_group_IT_number 11
_symmetry_cell_setting 'monoclinic'
loop_
_space_group_symop_operation_xyz
x,y,z
-x,1/2+y,-z
-x,-y,-z
x,1/2-y,z
loop_
_atom_site_type_symbol
_atom_site_label
_atom_site_fract_x
_atom_site_fract_y
_atom_site_fract_z
Si Si1 0.172836 0.410271 0.824073
Si Si2 0.884728 0.572054 0.363839
Si Si3 0.045606 0.574992 0.395500
Si Si4 0.628587 0.584459 0.450316
Si Si5 0.816856 0.416628 0.054864
Si Si6 0.660406 0.426854 0.897518
Si Si7 0.831932 0.925129 0.903368
O O1 0.201410 0.250000 0.835924
O O2 0.243603 0.413123 0.698542
O O3 0.238999 0.528586 0.830652
O O4 0.996177 0.423225 0.938089
O O5 0.899559 0.750000 0.343976
O O6 0.717583 0.530481 0.456539
O O7 0.934266 0.538975 0.408724
O O8 0.004734 0.489102 0.230966
O O9 0.039864 0.750000 0.408701
O O10 0.213232 0.538494 0.250247
O O11 0.000000 0.500000 0.500000
O O12 0.500000 0.500000 0.500000
O O13 0.577018 0.750000 0.500568
O O14 0.773337 0.250000 0.070105
O O15 0.783774 0.523088 0.014122
O O16 0.650092 0.250000 0.909137
O O17 0.726421 0.495494 0.921750
O O18 0.500000 0.500000 0.000000
O O19 0.830255 0.750000 0.898030
#
# Coordination Sequence:
#
# PCOD9157013 Si02
#       7
#     4   4   4   4   4   4   4
#     4   9  18  32  49  71 100 134 172 217 264 307
#     4   9  18  36  55  75 105 143 183 227 272 324
#     4   9  19  35  59  85 112 145 186 230 280 336
#     4  10  20  35  53  73 104 142 182 226 272 321
#     4  10  18  31  51  74 102 134 170 214 263 313
#     4  10  21  38  58  83 114 149 186 229 282 336
#     4  11  20  31  53  82 108 138 179 224 269 326
#
# _framework density 17.888273000000002
#
# number of rings (size 3 to 8) (size 9 to 14) (size 15 to 20)
#    0.000    2.286    1.429    3.000    0.000    4.571 
#    0.000    1.429    0.000    6.857    0.000    0.000 
#    0.000    0.000    0.000    0.000    0.000    0.000 
#
# Total GULP energy -155942.116117 kJ/mol
# GULP energy per Si atom -5569.361290 kJ/mol
# Density = 1.784756 g / cm^3
# Si number density = 17.888273 Si / 1000 Ang^3
#
#
#
# Elastic Constant Matrix: (Units=GPa)
#
#
# Indices 1 2 3 4 5 6 
#
# 1 122.0953 54.4675 47.1155 0.0000 -7.9908 0.0000
# 2 54.4675 77.6687 27.3664 0.0000 -1.8074 0.0000
# 3 47.1155 27.3664 40.1487 0.0000 5.3741 0.0000
# 4 0.0000 0.0000 0.0000 27.7023 0.0000 3.1509
# 5 -7.9908 -1.8074 5.3741 0.0000 36.1986 0.0000
# 6 0.0000 0.0000 0.0000 3.1509 0.0000 32.9254
#
#
#
# Elastic Compliance Matrix: (Units=1/GPa)
#
#
# Indices 1 2 3 4 5 6 
#
# 1 0.018497 -0.006406 -0.018205 0.000000 0.006466 0.000000
# 2 -0.006406 0.019409 -0.005767 0.000000 0.000411 0.000000
# 3 -0.018205 -0.005767 0.051808 0.000000 -0.011998 0.000000
# 4 0.000000 0.000000 0.000000 0.036495 0.000000 -0.003493
# 5 0.006466 0.000411 -0.011998 0.000000 0.030855 0.000000
# 6 0.000000 0.000000 0.000000 -0.003493 0.000000 0.030706
#
#
# Mechanical properties :
#
#
# Convention : Reuss Voigt Hill
#
# Bulk Modulus (GPa) = 34.53308 55.31241 44.92275
# Shear Modulus (GPa) = 19.36639 26.76281 23.06460
#
# Velocity S-wave (km/s) = 3.29390 3.87215 3.59467
# Velocity P-wave (km/s) = 5.81491 7.14000 6.51125
#
# Compressibility (1/GPa) = 0.02895774
#
# Stress axis : x y z
#
# Youngs Moduli (GPa) = 54.06412 51.52152 19.30190
#
# Poissons Ratio (x) = 0.33006 0.35139
# Poissons Ratio (y) = 0.34635 0.11131
# Poissons Ratio (z) = 0.98424 0.29712
#
# Static dielectric constant tensor:
#      x y z
#    x 1.657350 0.000000 -0.010510 
#    y 0.000000 1.635020 0.000000 
#    z -0.010510 0.000000 1.628040 
# 
# From -- ./inp_files/42584.got.cif
#   From: 2010.05.17/outbox.cif.g08.bks.cpg/sg11_22_cif.got.tgz:42584.got - 2010.06.03 12:22:45.
