data_PCOD9157037
_publ_section_title
;
Structure prediction by ZEFSAII (Michael W. Deem and Ramdas Pophale) SiO2 
 PCOD9157037
Probable space group: P 21/M
;
_chemical_formula_sum "Si O2"
_cell_formula_units_Z 22
_cell_length_a 8.054165
_cell_length_b 7.460773
_cell_length_c 15.764935
_cell_angle_alpha 90.000000
_cell_angle_beta 115.538304
_cell_angle_gamma 90.000000
_cell_volume 854.763912
_symmetry_space_group_name_H-M "P 21/M"
_symmetry_group_IT_number 11
_symmetry_cell_setting 'monoclinic'
loop_
_space_group_symop_operation_xyz
x,y,z
-x,1/2+y,-z
-x,-y,-z
x,1/2-y,z
loop_
_atom_site_type_symbol
_atom_site_label
_atom_site_fract_x
_atom_site_fract_y
_atom_site_fract_z
Si Si1 0.501359 0.030592 0.698011
Si Si2 0.869851 0.045265 0.708398
Si Si3 0.194141 0.463254 0.495908
Si Si4 0.280599 0.466048 0.811924
Si Si5 0.868193 0.750000 0.916280
Si Si6 0.245446 0.559441 0.990929
O O1 0.508867 0.250000 0.697994
O O2 0.707096 0.958904 0.727690
O O3 0.362840 0.977174 0.592142
O O4 0.409774 0.971570 0.764884
O O5 0.889781 0.250000 0.743852
O O6 0.072708 0.965538 0.750271
O O7 0.802239 0.047078 0.596298
O O8 0.208974 0.250000 0.488259
O O9 0.000000 0.500000 0.500000
O O10 0.273308 0.250000 0.804056
O O11 0.329416 0.518033 0.917870
O O12 0.749709 0.594578 0.939937
O O13 0.027012 0.596831 0.924749
O O14 0.316158 0.750000 0.041267
#
# Coordination Sequence:
#
# PCOD9157037 Si02
#       6
#     4   4   4   4   2   4
#     4   9  19  34  51  74 104 140 178 218 269 319
#     4  10  20  35  53  74 104 139 175 220 271 316
#     4  11  20  34  53  72  99 139 185 225 264 314
#     4  10  18  31  51  77 107 141 174 214 266 320
#     4   8  16  30  50  82 110 138 176 212 260 322
#     4   9  16  29  51  80 112 138 174 219 259 316
#
# _framework density 25.738098999999998
#
# number of rings (size 3 to 8) (size 9 to 14) (size 15 to 20)
#    0.545    1.818    2.727    1.091    0.000    0.727 
#    0.000    1.818    0.000    0.000    0.000    7.636 
#    0.000    0.000    0.000    0.000    0.000    0.000 
#
# Total GULP energy -122653.754420 kJ/mol
# GULP energy per Si atom -5575.170655 kJ/mol
# Density = 2.567952 g / cm^3
# Si number density = 25.738099 Si / 1000 Ang^3
#
#
#
# Elastic Constant Matrix: (Units=GPa)
#
#
# Indices 1 2 3 4 5 6 
#
# 1 224.3765 4.8979 84.7564 0.0000 -7.6269 0.0000
# 2 4.8979 113.8062 -6.4470 0.0000 -7.2067 0.0000
# 3 84.7564 -6.4470 109.9776 0.0000 6.3189 0.0000
# 4 0.0000 0.0000 0.0000 10.6408 0.0000 -23.2390
# 5 -7.6269 -7.2067 6.3189 0.0000 55.9322 0.0000
# 6 0.0000 0.0000 0.0000 -23.2390 0.0000 15.6965
#
#
#
# Elastic Compliance Matrix: (Units=1/GPa)
#
#
# Indices 1 2 3 4 5 6 
#
# 1 0.006425 -0.000475 -0.005059 0.000000 0.001387 0.000000
# 2 -0.000475 0.008917 0.000832 0.000000 0.000990 0.000000
# 3 -0.005059 0.000832 0.013160 0.000000 -0.002069 0.000000
# 4 0.000000 0.000000 0.000000 -0.042078 0.000000 -0.062298
# 5 0.001387 0.000990 -0.002069 0.000000 0.018429 0.000000
# 6 0.000000 0.000000 0.000000 -0.062298 0.000000 -0.028525
#
#
# Mechanical properties :
#
#
# Convention : Reuss Voigt Hill
#
# Bulk Modulus (GPa) = 52.36417 68.28608 60.32512
# Shear Modulus (GPa) = -632.80480 40.78410 -296.01035
#
# Velocity S-wave (km/s) = -15.69703 3.98500 -10.73584
# Velocity P-wave (km/s) = 17.55391 6.91103 11.41003
#
# Compressibility (1/GPa) = 0.01909703
#
# Stress axis : x y z
#
# Youngs Moduli (GPa) = 155.63079 112.14322 75.99015
#
# Poissons Ratio (x) = 0.05331 0.38447
# Poissons Ratio (y) = 0.07398 -0.06324
# Poissons Ratio (z) = 0.78740 -0.09332
#
# Static dielectric constant tensor:
#      x y z
#    x 2.029490 0.000000 0.061810 
#    y 0.000000 1.973190 0.000000 
#    z 0.061810 0.000000 2.025670 
# 
# From -- ./inp_files/57416.got.cif
#   From: 2010.05.17/outbox.cif.g08.bks.cpg/sg11_29_cif.got.tgz:57416.got - 2010.06.03 12:22:45.
