data_PCOD9157504
_publ_section_title
;
Structure prediction by ZEFSAII (Michael W. Deem and Ramdas Pophale) SiO2 
 PCOD9157504
Probable space group: P 21/M
;
_chemical_formula_sum "Si O2"
_cell_formula_units_Z 24
_cell_length_a 12.625626
_cell_length_b 17.144874
_cell_length_c 8.365715
_cell_angle_alpha 90.000000
_cell_angle_beta 136.483315
_cell_angle_gamma 90.000000
_cell_volume 1246.911757
_symmetry_space_group_name_H-M "P 21/M"
_symmetry_group_IT_number 11
_symmetry_cell_setting 'monoclinic'
loop_
_space_group_symop_operation_xyz
x,y,z
-x,1/2+y,-z
-x,-y,-z
x,1/2-y,z
loop_
_atom_site_type_symbol
_atom_site_label
_atom_site_fract_x
_atom_site_fract_y
_atom_site_fract_z
Si Si1 0.557405 0.603753 0.722876
Si Si2 0.102598 0.163103 0.946921
Si Si3 0.573762 0.413803 0.083490
Si Si4 0.996594 0.425463 0.114793
Si Si5 0.092689 0.534837 0.456799
Si Si6 0.361939 0.918474 0.198299
O O1 0.716336 0.647392 0.864492
O O2 0.498920 0.625554 0.837433
O O3 0.596700 0.510860 0.763535
O O4 0.437558 0.614625 0.444665
O O5 0.064761 0.250000 0.853240
O O6 0.049444 0.147505 0.070330
O O7 0.012993 0.098967 0.744816
O O8 0.751223 0.426031 0.321027
O O9 0.500000 0.500000 0.000000
O O10 0.573685 0.383681 0.899312
O O11 0.117253 0.457590 0.375674
O O12 0.824157 0.414229 0.992788
O O13 0.000000 0.500000 0.000000
O O14 0.000000 0.500000 0.500000
#
# Coordination Sequence:
#
# PCOD9157504 Si02
#       6
#     4   4   4   4   4   4
#     4  10  19  34  56  84 123 157 196 248 306 368
#     4  11  24  40  59  88 125 166 204 256 326 373
#     4  10  20  32  57  95 122 147 198 262 307 357
#     4  10  18  34  59  87 114 153 203 250 294 366
#     4  11  19  37  65  93 120 155 209 262 305 366
#     4  10  18  33  58  91 115 148 204 258 296 352
#
# _framework density 19.247551999999999
#
# number of rings (size 3 to 8) (size 9 to 14) (size 15 to 20)
#    0.000    1.667    5.000    3.000    4.667    0.000 
#    0.000    4.167    0.000    2.000    0.000    0.000 
#    0.000    0.000    0.000    0.000    0.000    0.000 
#
# Total GULP energy -133667.143778 kJ/mol
# GULP energy per Si atom -5569.464324 kJ/mol
# Density = 1.920374 g / cm^3
# Si number density = 19.247552 Si / 1000 Ang^3
#
#
#
# Elastic Constant Matrix: (Units=GPa)
#
#
# Indices 1 2 3 4 5 6 
#
# 1 136.7354 16.3311 28.5587 0.0000 -15.1663 0.0000
# 2 16.3311 48.5058 19.6353 0.0000 -5.2631 0.0000
# 3 28.5587 19.6353 66.3590 0.0000 -7.8280 0.0000
# 4 0.0000 0.0000 0.0000 8.2805 0.0000 -1.0027
# 5 -15.1663 -5.2631 -7.8280 0.0000 34.5386 0.0000
# 6 0.0000 0.0000 0.0000 -1.0027 0.0000 6.0103
#
#
#
# Elastic Compliance Matrix: (Units=1/GPa)
#
#
# Indices 1 2 3 4 5 6 
#
# 1 0.008389 -0.001353 -0.002877 0.000000 0.002826 0.000000
# 2 -0.001353 0.023782 -0.006265 0.000000 0.001610 0.000000
# 3 -0.002877 -0.006265 0.018391 0.000000 0.001950 0.000000
# 4 0.000000 0.000000 0.000000 0.123255 0.000000 0.020563
# 5 0.002826 0.001610 0.001950 0.000000 0.030881 0.000000
# 6 0.000000 0.000000 0.000000 0.020563 0.000000 0.169811
#
#
# Mechanical properties :
#
#
# Convention : Reuss Voigt Hill
#
# Bulk Modulus (GPa) = 33.81420 42.29449 38.05434
# Shear Modulus (GPa) = 12.33476 22.23755 17.28615
#
# Velocity S-wave (km/s) = 2.53424 3.40272 3.00008
# Velocity P-wave (km/s) = 5.11560 6.12043 5.64044
#
# Compressibility (1/GPa) = 0.02957338
#
# Stress axis : x y z
#
# Youngs Moduli (GPa) = 119.19986 42.04783 54.37335
#
# Poissons Ratio (x) = 0.05691 0.15641
# Poissons Ratio (y) = 0.16133 0.34063
# Poissons Ratio (z) = 0.34290 0.26342
#
# Static dielectric constant tensor:
#      x y z
#    x 1.960120 0.000000 -0.783680 
#    y 0.000000 1.663230 0.000000 
#    z -0.783680 0.000000 4.433270 
# 
# From -- ./inp_files/19262.got.cif
#   From: 2010.05.17/outbox.cif.g08.bks.cpg/sg11_10_cif.got.tgz:19262.got - 2010.06.03 12:22:45.
