data_PCOD9157936
_publ_section_title
;
Structure prediction by ZEFSAII (Michael W. Deem and Ramdas Pophale) SiO2 
 PCOD9157936
Probable space group: P 21/M
;
_chemical_formula_sum "Si O2"
_cell_formula_units_Z 32
_cell_length_a 16.645216
_cell_length_b 9.040676
_cell_length_c 14.216003
_cell_angle_alpha 90.000000
_cell_angle_beta 87.578637
_cell_angle_gamma 90.000000
_cell_volume 2137.371001
_symmetry_space_group_name_H-M "P 21/M"
_symmetry_group_IT_number 11
_symmetry_cell_setting 'monoclinic'
loop_
_space_group_symop_operation_xyz
x,y,z
-x,1/2+y,-z
-x,-y,-z
x,1/2-y,z
loop_
_atom_site_type_symbol
_atom_site_label
_atom_site_fract_x
_atom_site_fract_y
_atom_site_fract_z
Si Si1 0.949724 0.420105 0.639506
Si Si2 0.431359 0.572973 0.567095
Si Si3 0.418491 0.072373 0.963349
Si Si4 0.265323 0.074143 0.514084
Si Si5 0.210775 0.072808 0.302109
Si Si6 0.894143 0.420228 0.422761
Si Si7 0.471558 0.572544 0.781678
Si Si8 0.350671 0.429003 0.158341
O O1 0.960292 0.250000 0.666637
O O2 0.875740 0.495639 0.696809
O O3 0.923425 0.421867 0.530492
O O4 0.033409 0.507775 0.639396
O O5 0.500000 0.500000 0.500000
O O6 0.432388 0.750000 0.555097
O O7 0.345658 0.507522 0.541776
O O8 0.449539 0.540489 0.675595
O O9 0.425764 0.250000 0.959481
O O10 0.413232 0.006265 0.859517
O O11 0.353610 0.033931 0.047326
O O12 0.500000 0.000000 0.000000
O O13 0.273041 0.250000 0.526327
O O14 0.248356 0.046507 0.403975
O O15 0.187942 0.012504 0.573420
O O16 0.200026 0.250000 0.293919
O O17 0.274321 0.018579 0.221244
O O18 0.880435 0.250000 0.397034
O O19 0.467650 0.750000 0.796560
O O20 0.563877 0.525424 0.799659
O O21 0.349647 0.250000 0.164771
#
# Coordination Sequence:
#
# PCOD9157936 Si02
#       8
#     4   4   4   4   4   4   4   4
#     4   9  16  25  38  59  84 108 138 176 213 250
#     4  11  22  34  47  63  86 116 150 186 221 257
#     4   9  16  27  44  64  84 108 140 178 218 260
#     4  10  19  30  44  62  85 115 149 182 215 251
#     4   9  16  27  42  59  84 117 145 170 208 258
#     4   9  16  27  42  58  79 110 145 177 211 252
#     4   9  18  32  46  60  82 113 147 183 220 256
#     4   8  14  26  43  61  82 109 140 172 210 255
#
# _framework density 14.971664000000001
#
# number of rings (size 3 to 8) (size 9 to 14) (size 15 to 20)
#    0.000    2.750    0.000    3.375    0.000    6.500 
#    0.000    3.125    0.000    0.000    0.000    0.000 
#    0.000    1.000    0.000    3.000    0.000    4.625 
#
# Total GULP energy -178224.380326 kJ/mol
# GULP energy per Si atom -5569.511885 kJ/mol
# Density = 1.493759 g / cm^3
# Si number density = 14.971664 Si / 1000 Ang^3
#
#
#
# Elastic Constant Matrix: (Units=GPa)
#
#
# Indices 1 2 3 4 5 6 
#
# 1 110.1989 45.7184 58.0164 0.0000 -28.8318 0.0000
# 2 45.7184 61.3925 52.9233 0.0000 -11.7552 0.0000
# 3 58.0164 52.9233 88.2261 0.0000 -24.4060 0.0000
# 4 0.0000 0.0000 0.0000 19.7705 0.0000 -3.1779
# 5 -28.8318 -11.7552 -24.4060 0.0000 24.7298 0.0000
# 6 0.0000 0.0000 0.0000 -3.1779 0.0000 26.5570
#
#
#
# Elastic Compliance Matrix: (Units=1/GPa)
#
#
# Indices 1 2 3 4 5 6 
#
# 1 0.017483 -0.007769 -0.003053 0.000000 0.013677 0.000000
# 2 -0.007769 0.037719 -0.020720 0.000000 -0.011577 0.000000
# 3 -0.003053 -0.020720 0.030347 0.000000 0.016541 0.000000
# 4 0.000000 0.000000 0.000000 0.051572 0.000000 0.006171
# 5 0.013677 -0.011577 0.016541 0.000000 0.067205 0.000000
# 6 0.000000 0.000000 0.000000 0.006171 0.000000 0.038393
#
#
# Mechanical properties :
#
#
# Convention : Reuss Voigt Hill
#
# Bulk Modulus (GPa) = 44.51215 63.68152 54.09683
# Shear Modulus (GPa) = 15.95959 21.08875 18.52417
#
# Velocity S-wave (km/s) = 3.26849 3.75717 3.52132
# Velocity P-wave (km/s) = 6.63622 7.83893 7.26252
#
# Compressibility (1/GPa) = 0.02246578
#
# Stress axis : x y z
#
# Youngs Moduli (GPa) = 57.19701 26.51194 32.95250
#
# Poissons Ratio (x) = 0.20597 0.10060
# Poissons Ratio (y) = 0.44437 0.68276
# Poissons Ratio (z) = 0.17462 0.54932
#
# Static dielectric constant tensor:
#      x y z
#    x 1.484720 0.000000 -0.016970 
#    y 0.000000 1.502580 0.000000 
#    z -0.016970 0.000000 1.503150 
# 
# From -- ./inp_files/51353.got.cif
#   From: 2010.05.17/outbox.cif.g08.bks.cpg/sg11_26_cif.got.tgz:51353.got - 2010.06.03 12:22:45.
