data_PCOD9157039
_publ_section_title
;
Structure prediction by ZEFSAII (Michael W. Deem and Ramdas Pophale) SiO2 
 PCOD9157039
Probable space group: P 21/M
;
_chemical_formula_sum "Si O2"
_cell_formula_units_Z 28
_cell_length_a 15.580848
_cell_length_b 7.788118
_cell_length_c 23.341632
_cell_angle_alpha 90.000000
_cell_angle_beta 28.065184
_cell_angle_gamma 90.000000
_cell_volume 1332.576316
_symmetry_space_group_name_H-M "P 21/M"
_symmetry_group_IT_number 11
_symmetry_cell_setting 'monoclinic'
loop_
_space_group_symop_operation_xyz
x,y,z
-x,1/2+y,-z
-x,-y,-z
x,1/2-y,z
loop_
_atom_site_type_symbol
_atom_site_label
_atom_site_fract_x
_atom_site_fract_y
_atom_site_fract_z
Si Si1 0.735943 0.950376 0.200768
Si Si2 0.979482 0.050736 0.702037
Si Si3 0.355371 0.539619 0.177955
Si Si4 0.211627 0.956473 0.384209
Si Si5 0.342852 0.546318 0.429922
Si Si6 0.134421 0.956628 0.997726
Si Si7 0.242327 0.454096 0.062138
O O1 0.738863 0.750000 0.215336
O O2 0.539318 0.025073 0.333226
O O3 0.753793 0.967248 0.121405
O O4 0.925345 0.022349 0.113933
O O5 0.995267 0.250000 0.677861
O O6 0.814286 0.978307 0.760288
O O7 0.912035 0.031830 0.806510
O O8 0.174648 0.973968 0.571917
O O9 0.355947 0.750000 0.176156
O O10 0.321177 0.484803 0.263664
O O11 0.555120 0.482045 0.040444
O O12 0.225680 0.750000 0.377159
O O13 0.282466 0.024430 0.403313
O O14 0.000000 0.000000 0.500000
O O15 0.370938 0.750000 0.405485
O O16 0.136860 0.750000 0.990043
O O17 0.210404 0.005834 0.014528
O O18 0.237151 0.250000 0.073206
#
# Coordination Sequence:
#
# PCOD9157039 Si02
#       7
#     4   4   4   4   4   4   4
#     4   9  19  37  61  85 113 145 177 220 274 330
#     4  11  22  37  55  78 111 145 185 234 273 317
#     4   9  19  35  55  78 108 145 182 223 273 324
#     4  10  18  31  51  77 108 139 173 213 261 316
#     4  10  20  35  56  81 111 149 185 217 268 334
#     4  10  20  36  59  88 114 138 178 229 276 321
#     4  11  22  38  58  78 107 148 188 225 273 330
#
# _framework density 21.01193
#
# number of rings (size 3 to 8) (size 9 to 14) (size 15 to 20)
#    0.000    2.000    1.429    2.571    0.000    3.429 
#    0.000    5.714    0.000    0.000    0.000    0.000 
#    0.000    0.000    0.000    0.000    0.000    0.000 
#
# Total GULP energy -156377.060405 kJ/mol
# GULP energy per Si atom -5584.895014 kJ/mol
# Density = 2.096411 g / cm^3
# Si number density = 21.011930 Si / 1000 Ang^3
#
#
#
# Elastic Constant Matrix: (Units=GPa)
#
#
# Indices 1 2 3 4 5 6 
#
# 1 42.0342 -8.2121 32.5226 0.0000 -13.0517 0.0000
# 2 -8.2121 30.2370 -13.5647 0.0000 -6.1610 0.0000
# 3 32.5226 -13.5647 114.3445 0.0000 -29.2552 0.0000
# 4 0.0000 0.0000 0.0000 14.4482 0.0000 1.0397
# 5 -13.0517 -6.1610 -29.2552 0.0000 31.1392 0.0000
# 6 0.0000 0.0000 0.0000 1.0397 0.0000 17.5981
#
#
#
# Elastic Compliance Matrix: (Units=1/GPa)
#
#
# Indices 1 2 3 4 5 6 
#
# 1 0.033067 0.008406 -0.005840 0.000000 0.010036 0.000000
# 2 0.008406 0.042612 0.007534 0.000000 0.019032 0.000000
# 3 -0.005840 0.007534 0.014554 0.000000 0.012716 0.000000
# 4 0.000000 0.000000 0.000000 0.069508 0.000000 -0.004107
# 5 0.010036 0.019032 0.012716 0.000000 0.052032 0.000000
# 6 0.000000 0.000000 0.000000 -0.004107 0.000000 0.057067
#
#
# Mechanical properties :
#
#
# Convention : Reuss Voigt Hill
#
# Bulk Modulus (GPa) = 9.05539 23.12303 16.08921
# Shear Modulus (GPa) = 17.51600 24.36178 20.93889
#
# Velocity S-wave (km/s) = 2.89038 3.40873 3.16020
# Velocity P-wave (km/s) = 3.93168 5.14987 4.58144
#
# Compressibility (1/GPa) = 0.11043149
#
# Stress axis : x y z
#
# Youngs Moduli (GPa) = 30.24136 23.46730 68.71097
#
# Poissons Ratio (x) = -0.19726 0.40129
# Poissons Ratio (y) = -0.25420 -0.51765
# Poissons Ratio (z) = 0.17662 -0.17680
#
# Static dielectric constant tensor:
#      x y z
#    x 1.748890 0.000000 -0.030660 
#    y 0.000000 1.772720 0.000000 
#    z -0.030660 0.000000 1.753840 
# 
# From -- ./inp_files/37513.got.cif
#   From: 2010.05.17/outbox.cif.g08.bks.cpg/sg11_19_cif.got.tgz:37513.got - 2010.06.03 12:22:45.
