data_PCOD9157811
_publ_section_title
;
Structure prediction by ZEFSAII (Michael W. Deem and Ramdas Pophale) SiO2 
 PCOD9157811
Probable space group: P 21/M
;
_chemical_formula_sum "Si O2"
_cell_formula_units_Z 24
_cell_length_a 14.676409
_cell_length_b 14.392229
_cell_length_c 8.848060
_cell_angle_alpha 90.000000
_cell_angle_beta 137.516858
_cell_angle_gamma 90.000000
_cell_volume 1262.233731
_symmetry_space_group_name_H-M "P 21/M"
_symmetry_group_IT_number 11
_symmetry_cell_setting 'monoclinic'
loop_
_space_group_symop_operation_xyz
x,y,z
-x,1/2+y,-z
-x,-y,-z
x,1/2-y,z
loop_
_atom_site_type_symbol
_atom_site_label
_atom_site_fract_x
_atom_site_fract_y
_atom_site_fract_z
Si Si1 0.383458 0.750000 0.718604
Si Si2 0.683022 0.609444 0.595425
Si Si3 0.181674 0.250000 0.706524
Si Si4 0.004671 0.858783 0.940366
Si Si5 0.228455 0.934847 0.435454
Si Si6 0.938120 0.939582 0.556274
Si Si7 0.429665 0.250000 0.778629
Si Si8 0.634149 0.750000 0.795065
O O1 0.299820 0.842869 0.581851
O O2 0.508234 0.750000 0.753719
O O3 0.437272 0.750000 0.956737
O O4 0.681225 0.499194 0.565283
O O5 0.596779 0.661316 0.360380
O O6 0.636521 0.658536 0.692437
O O7 0.843285 0.634326 0.772840
O O8 0.103678 0.342588 0.568365
O O9 0.310172 0.250000 0.753958
O O10 0.231828 0.250000 0.939008
O O11 0.038278 0.750000 0.967848
O O12 0.029127 0.912159 0.812420
O O13 0.094252 0.904394 0.180270
O O14 0.184320 0.002179 0.518686
O O15 0.000000 0.000000 0.500000
#
# Coordination Sequence:
#
# PCOD9157811 Si02
#       8
#     2   4   2   4   4   4   2   2
#     4  11  26  42  56  93 124 161 207 254 308 352
#     4  10  19  40  67  90 110 162 210 242 303 371
#     4  11  20  38  56  88 125 150 206 260 283 359
#     4  11  19  39  65  92 126 160 191 254 313 374
#     4  11  24  40  63  90 129 162 197 250 320 369
#     4  11  23  37  61  96 125 159 201 247 316 369
#     4  10  18  41  63  79 115 163 207 248 289 354
#     4  10  24  37  63  88 114 160 214 252 290 353
#
# _framework density 19.013911
#
# number of rings (size 3 to 8) (size 9 to 14) (size 15 to 20)
#    0.000    1.333    6.667    2.000    4.667    2.000 
#    0.000    3.333    0.000    0.000    0.000    0.000 
#    0.000    0.000    0.000    0.000    0.000    0.000 
#
# Total GULP energy -133902.199265 kJ/mol
# GULP energy per Si atom -5579.258303 kJ/mol
# Density = 1.897063 g / cm^3
# Si number density = 19.013911 Si / 1000 Ang^3
#
#
#
# Elastic Constant Matrix: (Units=GPa)
#
#
# Indices 1 2 3 4 5 6 
#
# 1 53.4495 27.7310 25.6662 0.0000 -16.7216 0.0000
# 2 27.7310 166.9102 68.8486 0.0000 -6.0518 0.0000
# 3 25.6662 68.8486 140.0283 0.0000 -17.8783 0.0000
# 4 0.0000 0.0000 0.0000 22.8922 0.0000 4.6624
# 5 -16.7216 -6.0518 -17.8783 0.0000 20.3530 0.0000
# 6 0.0000 0.0000 0.0000 4.6624 0.0000 2.6104
#
#
#
# Elastic Compliance Matrix: (Units=1/GPa)
#
#
# Indices 1 2 3 4 5 6 
#
# 1 0.027379 -0.003540 -0.000609 0.000000 0.020907 0.000000
# 2 -0.003540 0.007997 -0.003774 0.000000 -0.003845 0.000000
# 3 -0.000609 -0.003774 0.010026 0.000000 0.007185 0.000000
# 4 0.000000 0.000000 0.000000 0.068658 0.000000 -0.122625
# 5 0.020907 -0.003845 0.007185 0.000000 0.071477 0.000000
# 6 0.000000 0.000000 0.000000 -0.122625 0.000000 0.602090
#
#
# Mechanical properties :
#
#
# Convention : Reuss Voigt Hill
#
# Bulk Modulus (GPa) = 33.83347 67.20883 50.52115
# Shear Modulus (GPa) = 6.14763 25.04727 15.59745
#
# Velocity S-wave (km/s) = 1.80007 3.63342 2.86723
# Velocity P-wave (km/s) = 4.70670 7.28191 6.13104
#
# Compressibility (1/GPa) = 0.02955653
#
# Stress axis : x y z
#
# Youngs Moduli (GPa) = 36.52489 125.05298 99.74242
#
# Poissons Ratio (x) = 0.44265 0.06071
# Poissons Ratio (y) = 0.12929 0.37642
# Poissons Ratio (z) = 0.02223 0.47194
#
# Static dielectric constant tensor:
#      x y z
#    x 1.668810 0.000000 -0.004220 
#    y 0.000000 1.665880 0.000000 
#    z -0.004220 0.000000 1.665350 
# 
# From -- ./inp_files/22378.got.cif
#   From: 2010.05.17/outbox.cif.g08.bks.cpg/sg11_12_cif.got.tgz:22378.got - 2010.06.03 12:22:45.
