data_PCOD9157261
_publ_section_title
;
Structure prediction by ZEFSAII (Michael W. Deem and Ramdas Pophale) SiO2 
 PCOD9157261
Probable space group: P 21/M
;
_chemical_formula_sum "Si O2"
_cell_formula_units_Z 20
_cell_length_a 14.462195
_cell_length_b 19.980573
_cell_length_c 12.369751
_cell_angle_alpha 90.000000
_cell_angle_beta 20.968553
_cell_angle_gamma 90.000000
_cell_volume 1279.118562
_symmetry_space_group_name_H-M "P 21/M"
_symmetry_group_IT_number 11
_symmetry_cell_setting 'monoclinic'
loop_
_space_group_symop_operation_xyz
x,y,z
-x,1/2+y,-z
-x,-y,-z
x,1/2-y,z
loop_
_atom_site_type_symbol
_atom_site_label
_atom_site_fract_x
_atom_site_fract_y
_atom_site_fract_z
Si Si1 0.404798 0.957437 0.785586
Si Si2 0.071098 0.829087 0.786720
Si Si3 0.286254 0.491797 0.141237
Si Si4 0.031299 0.428443 0.906118
Si Si5 0.618938 0.607762 0.143205
O O1 0.681432 0.927147 0.456222
O O2 0.416388 0.038086 0.750812
O O3 0.180889 0.927146 0.956769
O O4 0.338056 0.956523 0.985832
O O5 0.062454 0.750000 0.812647
O O6 0.353472 0.852125 0.438467
O O7 0.013720 0.869935 0.958834
O O8 0.854616 0.852125 0.937317
O O9 0.000000 0.500000 0.500000
O O10 0.500000 0.500000 0.000000
O O11 0.318641 0.420699 0.044077
O O12 0.000000 0.500000 0.000000
#
# Coordination Sequence:
#
# PCOD9157261 Si02
#       5
#     4   4   4   4   4
#     4  10  20  29  53  78 102 137 167 218 271 302
#     4  12  23  34  51  78 112 150 178 208 263 338
#     4  10  18  32  53  81 107 125 168 224 279 311
#     4  12  17  33  51  74 107 137 174 210 262 309
#     4  10  20  35  50  79 110 139 170 226 267 316
#
# _framework density 15.635767
#
# number of rings (size 3 to 8) (size 9 to 14) (size 15 to 20)
#    1.200    0.000    4.000    4.800    0.000    0.000 
#    0.000    0.000    0.000    0.000    0.000   28.000 
#    0.000    0.000    0.000    0.000    0.000    0.000 
#
# Total GULP energy -111487.039053 kJ/mol
# GULP energy per Si atom -5574.351953 kJ/mol
# Density = 1.560018 g / cm^3
# Si number density = 15.635767 Si / 1000 Ang^3
#
#
#
# Elastic Constant Matrix: (Units=GPa)
#
#
# Indices 1 2 3 4 5 6 
#
# 1 158.6973 52.0516 102.6036 0.0000 -13.9929 0.0000
# 2 52.0516 105.9384 53.0109 0.0000 -1.9267 0.0000
# 3 102.6036 53.0109 173.7138 0.0000 -16.0268 0.0000
# 4 0.0000 0.0000 0.0000 12.0138 0.0000 5.0610
# 5 -13.9929 -1.9267 -16.0268 0.0000 35.6065 0.0000
# 6 0.0000 0.0000 0.0000 5.0610 0.0000 14.5485
#
#
#
# Elastic Compliance Matrix: (Units=1/GPa)
#
#
# Indices 1 2 3 4 5 6 
#
# 1 0.010810 -0.002553 -0.005453 0.000000 0.001656 0.000000
# 2 -0.002553 0.011775 -0.002211 0.000000 -0.001361 0.000000
# 3 -0.005453 -0.002211 0.009853 0.000000 0.002172 0.000000
# 4 0.000000 0.000000 0.000000 0.097530 0.000000 -0.033928
# 5 0.001656 -0.001361 0.002172 0.000000 0.029639 0.000000
# 6 0.000000 0.000000 0.000000 -0.033928 0.000000 0.080538
#
#
# Mechanical properties :
#
#
# Convention : Reuss Voigt Hill
#
# Bulk Modulus (GPa) = 83.30582 94.85353 89.07968
# Shear Modulus (GPa) = 18.89772 27.81265 23.35519
#
# Velocity S-wave (km/s) = 3.48029 4.22214 3.86904
# Velocity P-wave (km/s) = 8.33934 9.19591 8.77808
#
# Compressibility (1/GPa) = 0.01200396
#
# Stress axis : x y z
#
# Youngs Moduli (GPa) = 92.50402 84.92281 101.49350
#
# Poissons Ratio (x) = 0.21677 0.55349
# Poissons Ratio (y) = 0.23612 0.22444
# Poissons Ratio (z) = 0.50446 0.18779
#
# Static dielectric constant tensor:
#      x y z
#    x 1.518990 0.000000 0.006110 
#    y 0.000000 1.498310 0.000000 
#    z 0.006110 0.000000 1.515910 
# 
# From -- ./inp_files/39878.got.cif
#   From: 2010.05.17/outbox.cif.g08.bks.cpg/sg11_20_cif.got.tgz:39878.got - 2010.06.03 12:22:45.
