data_PCOD9157059
_publ_section_title
;
Structure prediction by ZEFSAII (Michael W. Deem and Ramdas Pophale) SiO2 
 PCOD9157059
Probable space group: P 21/M
;
_chemical_formula_sum "Si O2"
_cell_formula_units_Z 28
_cell_length_a 12.346595
_cell_length_b 13.871077
_cell_length_c 7.967320
_cell_angle_alpha 90.000000
_cell_angle_beta 111.367798
_cell_angle_gamma 90.000000
_cell_volume 1270.693886
_symmetry_space_group_name_H-M "P 21/M"
_symmetry_group_IT_number 11
_symmetry_cell_setting 'monoclinic'
loop_
_space_group_symop_operation_xyz
x,y,z
-x,1/2+y,-z
-x,-y,-z
x,1/2-y,z
loop_
_atom_site_type_symbol
_atom_site_label
_atom_site_fract_x
_atom_site_fract_y
_atom_site_fract_z
Si Si1 0.953403 0.866087 0.971035
Si Si2 0.380255 0.137867 0.732168
Si Si3 0.851062 0.556669 0.258347
Si Si4 0.927512 0.361895 0.447264
Si Si5 0.580931 0.476788 0.705330
Si Si6 0.275606 0.359670 0.296688
Si Si7 0.187303 0.636745 0.248034
O O1 0.964023 0.750000 0.975190
O O2 0.890445 0.900294 0.104292
O O3 0.085521 0.901245 0.066368
O O4 0.859431 0.893150 0.776814
O O5 0.395651 0.250000 0.788990
O O6 0.280722 0.084678 0.779633
O O7 0.500652 0.078732 0.791926
O O8 0.329253 0.137431 0.512447
O O9 0.874957 0.442904 0.295912
O O10 0.939117 0.609897 0.438314
O O11 0.919275 0.250000 0.387965
O O12 0.860731 0.372678 0.588720
O O13 0.500000 0.500000 0.500000
O O14 0.644052 0.577246 0.780090
O O15 0.690064 0.413129 0.708507
O O16 0.276094 0.250000 0.238848
O O17 0.202993 0.750000 0.225976
#
# Coordination Sequence:
#
# PCOD9157059 Si02
#       7
#     4   4   4   4   4   4   4
#     4   9  18  34  55  76  98 130 170 209 253 307
#     4  10  19  32  52  78 105 133 168 210 251 295
#     4  10  18  31  52  75  99 132 169 208 255 298
#     4   9  17  29  48  74 102 131 168 211 251 297
#     4  10  19  31  48  72 101 133 168 205 246 293
#     4   9  19  34  51  74 102 132 170 210 250 299
#     4   9  17  31  51  74 100 131 167 207 251 300
#
# _framework density 22.035205000000001
#
# number of rings (size 3 to 8) (size 9 to 14) (size 15 to 20)
#    0.000    2.571    0.000    4.286    0.000    1.143 
#    0.000    1.429    0.000    1.714    0.000    0.000 
#    0.000    0.000    0.000    0.000    0.000    0.000 
#
# Total GULP energy -156387.600187 kJ/mol
# GULP energy per Si atom -5585.271435 kJ/mol
# Density = 2.198505 g / cm^3
# Si number density = 22.035205 Si / 1000 Ang^3
#
#
#
# Elastic Constant Matrix: (Units=GPa)
#
#
# Indices 1 2 3 4 5 6 
#
# 1 153.2766 33.7063 28.9498 0.0000 22.5407 0.0000
# 2 33.7063 52.0796 6.3433 0.0000 9.7160 0.0000
# 3 28.9498 6.3433 39.5323 0.0000 8.9117 0.0000
# 4 0.0000 0.0000 0.0000 -80.4740 0.0000 80.7051
# 5 22.5407 9.7160 8.9117 0.0000 30.6870 0.0000
# 6 0.0000 0.0000 0.0000 80.7051 0.0000 -14.8068
#
#
#
# Elastic Compliance Matrix: (Units=1/GPa)
#
#
# Indices 1 2 3 4 5 6 
#
# 1 0.009020 -0.004528 -0.005038 0.000000 -0.003729 0.000000
# 2 -0.004528 0.022821 0.000571 0.000000 -0.004065 0.000000
# 3 -0.005038 0.000571 0.030069 0.000000 -0.005212 0.000000
# 4 0.000000 0.000000 0.000000 0.002782 0.000000 0.015165
# 5 -0.003729 -0.004065 -0.005212 0.000000 0.038127 0.000000
# 6 0.000000 0.000000 0.000000 0.015165 0.000000 0.015122
#
#
# Mechanical properties :
#
#
# Convention : Reuss Voigt Hill
#
# Bulk Modulus (GPa) = 22.76981 42.54302 32.65641
# Shear Modulus (GPa) = 33.20687 -1.19282 16.00702
#
# Velocity S-wave (km/s) = 3.88621 -0.73655 2.69816
# Velocity P-wave (km/s) = 5.52202 4.31572 4.95571
#
# Compressibility (1/GPa) = 0.04391780
#
# Stress axis : x y z
#
# Youngs Moduli (GPa) = 110.86625 43.81918 33.25719
#
# Poissons Ratio (x) = 0.19843 0.16756
# Poissons Ratio (y) = 0.50206 -0.01898
# Poissons Ratio (z) = 0.55856 -0.02501
#
# Static dielectric constant tensor:
#      x y z
#    x 1.795720 0.000000 -0.006210 
#    y 0.000000 1.854300 0.000000 
#    z -0.006210 0.000000 1.844140 
# 
# From -- ./inp_files/17792.got.cif
#   From: 2010.05.17/outbox.cif.g08.bks.cpg/sg11_9_cif.got.tgz:17792.got - 2010.06.03 12:22:45.
