data_PCOD9157272
_publ_section_title
;
Structure prediction by ZEFSAII (Michael W. Deem and Ramdas Pophale) SiO2 
 PCOD9157272
Probable space group: P 21/M
;
_chemical_formula_sum "Si O2"
_cell_formula_units_Z 32
_cell_length_a 15.580833
_cell_length_b 7.438933
_cell_length_c 12.036330
_cell_angle_alpha 90.000000
_cell_angle_beta 93.239873
_cell_angle_gamma 90.000000
_cell_volume 1392.838322
_symmetry_space_group_name_H-M "P 21/M"
_symmetry_group_IT_number 11
_symmetry_cell_setting 'monoclinic'
loop_
_space_group_symop_operation_xyz
x,y,z
-x,1/2+y,-z
-x,-y,-z
x,1/2-y,z
loop_
_atom_site_type_symbol
_atom_site_label
_atom_site_fract_x
_atom_site_fract_y
_atom_site_fract_z
Si Si1 0.974564 0.530181 0.299035
Si Si2 0.089067 0.464453 0.942887
Si Si3 0.720117 0.967013 0.016592
Si Si4 0.324059 0.030607 0.737752
Si Si5 0.833084 0.455182 0.691080
Si Si6 0.501822 0.534499 0.368358
Si Si7 0.827035 0.532276 0.440722
Si Si8 0.662001 0.038352 0.778912
O O1 0.976405 0.750000 0.301853
O O2 0.924071 0.475054 0.184663
O O3 0.919970 0.473888 0.401629
O O4 0.071856 0.463417 0.296697
O O5 0.097042 0.250000 0.940522
O O6 0.180828 0.531206 0.995031
O O7 0.000000 0.500000 0.000000
O O8 0.720708 0.750000 0.017542
O O9 0.658837 0.022259 0.911173
O O10 0.689431 0.027331 0.136156
O O11 0.324408 0.250000 0.739709
O O12 0.411654 0.968969 0.685552
O O13 0.244166 0.979223 0.654296
O O14 0.843119 0.250000 0.732376
O O15 0.808560 0.456481 0.559975
O O16 0.754119 0.541351 0.750084
O O17 0.500000 0.500000 0.500000
O O18 0.502698 0.750000 0.355698
O O19 0.417695 0.465137 0.297203
O O20 0.826134 0.750000 0.449050
O O21 0.666226 0.250000 0.751152
#
# Coordination Sequence:
#
# PCOD9157272 Si02
#       8
#     4   4   4   4   4   4   4   4
#     4   9  17  31  50  71  99 137 174 212 264 319
#     4  10  19  33  53  76 105 143 185 225 268 320
#     4  10  20  36  58  81 106 141 188 230 265 319
#     4   9  18  35  58  81 106 140 181 228 274 316
#     4  10  20  33  49  72 106 142 172 211 267 323
#     4  10  21  38  60  84 112 144 180 222 273 330
#     4  10  18  32  54  76 100 133 177 222 264 313
#     4  10  22  38  54  78 113 146 175 217 278 331
#
# _framework density 22.974668999999999
#
# number of rings (size 3 to 8) (size 9 to 14) (size 15 to 20)
#    0.000    2.250    1.250    1.875    0.000    3.000 
#    0.000    2.500    0.000    0.000    0.000    0.000 
#    0.000    0.000    0.000    0.000    0.000    0.000 
#
# Total GULP energy -178814.344511 kJ/mol
# GULP energy per Si atom -5587.948266 kJ/mol
# Density = 2.292238 g / cm^3
# Si number density = 22.974669 Si / 1000 Ang^3
#
#
#
# Elastic Constant Matrix: (Units=GPa)
#
#
# Indices 1 2 3 4 5 6 
#
# 1 155.1132 6.6480 61.7818 0.0000 5.6857 0.0000
# 2 6.6480 72.7874 -11.3623 0.0000 -1.3837 0.0000
# 3 61.7818 -11.3623 116.7803 0.0000 18.9435 0.0000
# 4 0.0000 0.0000 0.0000 17.3261 0.0000 2.7821
# 5 5.6857 -1.3837 18.9435 0.0000 37.0920 0.0000
# 6 0.0000 0.0000 0.0000 2.7821 0.0000 -4.2910
#
#
#
# Elastic Compliance Matrix: (Units=1/GPa)
#
#
# Indices 1 2 3 4 5 6 
#
# 1 0.008360 -0.001483 -0.004743 0.000000 0.001086 0.000000
# 2 -0.001483 0.014215 0.002230 0.000000 -0.000381 0.000000
# 3 -0.004743 0.002230 0.012166 0.000000 -0.005403 0.000000
# 4 0.000000 0.000000 0.000000 0.052274 0.000000 0.033893
# 5 0.001086 -0.000381 -0.005403 0.000000 0.029539 0.000000
# 6 0.000000 0.000000 0.000000 0.033893 0.000000 -0.211072
#
#
# Mechanical properties :
#
#
# Convention : Reuss Voigt Hill
#
# Bulk Modulus (GPa) = 37.38753 50.97952 44.18353
# Shear Modulus (GPa) = -64.42488 29.19967 -17.61260
#
# Velocity S-wave (km/s) = -5.30119 3.56891 -2.77178
# Velocity P-wave (km/s) = 4.60015 6.26262 3.00491
#
# Compressibility (1/GPa) = 0.02674688
#
# Stress axis : x y z
#
# Youngs Moduli (GPa) = 119.61872 70.34860 82.19752
#
# Poissons Ratio (x) = 0.10435 0.38988
# Poissons Ratio (y) = 0.17743 -0.18327
# Poissons Ratio (z) = 0.56737 -0.15685
#
# Static dielectric constant tensor:
#      x y z
#    x 1.869090 0.000000 -0.006070 
#    y 0.000000 1.892980 0.000000 
#    z -0.006070 0.000000 1.819630 
# 
# From -- ./inp_files/38206.got.cif
#   From: 2010.05.17/outbox.cif.g08.bks.cpg/sg11_20_cif.got.tgz:38206.got - 2010.06.03 12:22:45.
