data_PCOD9157018
_publ_section_title
;
Structure prediction by ZEFSAII (Michael W. Deem and Ramdas Pophale) SiO2 
 PCOD9157018
Probable space group: P 21/M
;
_chemical_formula_sum "Si O2"
_cell_formula_units_Z 24
_cell_length_a 16.389880
_cell_length_b 8.616591
_cell_length_c 18.911700
_cell_angle_alpha 90.000000
_cell_angle_beta 150.030146
_cell_angle_gamma 90.000000
_cell_volume 1334.184246
_symmetry_space_group_name_H-M "P 21/M"
_symmetry_group_IT_number 11
_symmetry_cell_setting 'monoclinic'
loop_
_space_group_symop_operation_xyz
x,y,z
-x,1/2+y,-z
-x,-y,-z
x,1/2-y,z
loop_
_atom_site_type_symbol
_atom_site_label
_atom_site_fract_x
_atom_site_fract_y
_atom_site_fract_z
Si Si1 0.013395 0.436992 0.175486
Si Si2 0.336720 0.936713 0.843583
Si Si3 0.842828 0.435778 0.424357
Si Si4 0.837547 0.935773 0.917313
Si Si5 0.662944 0.435844 0.658602
Si Si6 0.993830 0.436686 0.324483
O O1 0.015750 0.250000 0.171212
O O2 0.180920 0.503767 0.268643
O O3 0.002526 0.481752 0.249345
O O4 0.863691 0.502372 0.016211
O O5 0.340158 0.750000 0.848525
O O6 0.306524 0.982347 0.738908
O O7 0.178046 0.987673 0.769686
O O8 0.500000 0.000000 0.000000
O O9 0.850542 0.250000 0.431955
O O10 0.000000 0.500000 0.500000
O O11 0.861733 0.499423 0.517411
O O12 0.837568 0.750000 0.916032
O O13 0.690692 0.000623 0.759227
O O14 0.000000 0.000000 0.000000
O O15 0.500000 0.500000 0.500000
O O16 0.662535 0.250000 0.659461
O O17 0.999271 0.250000 0.332312
#
# Coordination Sequence:
#
# PCOD9157018 Si02
#       6
#     4   4   4   4   4   4
#     4  10  19  34  54  76 102 134 169 209 253 301
#     4   9  18  32  49  73  99 128 164 203 244 291
#     4   9  17  30  49  71  97 128 167 207 247 297
#     4  10  18  31  51  75 101 133 170 206 246 299
#     4  11  21  35  54  77 103 132 168 210 253 302
#     4   9  19  34  52  74 101 131 167 205 247 298
#
# _framework density 17.988520000000001
#
# number of rings (size 3 to 8) (size 9 to 14) (size 15 to 20)
#    0.000    2.333    0.000    7.000    0.000    4.667 
#    0.000    1.667    0.000    6.000    0.000    0.000 
#    0.000    0.000    0.000    0.000    0.000    0.000 
#
# Total GULP energy -133773.402621 kJ/mol
# GULP energy per Si atom -5573.891776 kJ/mol
# Density = 1.794758 g / cm^3
# Si number density = 17.988520 Si / 1000 Ang^3
#
#
#
# Elastic Constant Matrix: (Units=GPa)
#
#
# Indices 1 2 3 4 5 6 
#
# 1 63.3306 29.7501 62.7493 0.0000 -33.7560 0.0000
# 2 29.7501 86.9283 56.6917 0.0000 -18.5545 0.0000
# 3 62.7493 56.6917 205.5638 0.0000 -39.5479 0.0000
# 4 0.0000 0.0000 0.0000 37.2445 0.0000 -4.6057
# 5 -33.7560 -18.5545 -39.5479 0.0000 36.5877 0.0000
# 6 0.0000 0.0000 0.0000 -4.6057 0.0000 21.0201
#
#
#
# Elastic Compliance Matrix: (Units=1/GPa)
#
#
# Indices 1 2 3 4 5 6 
#
# 1 0.036632 -0.003555 -0.005109 0.000000 0.026472 0.000000
# 2 -0.003555 0.014780 -0.002752 0.000000 0.001241 0.000000
# 3 -0.005109 -0.002752 0.007585 0.000000 0.002090 0.000000
# 4 0.000000 0.000000 0.000000 0.027597 0.000000 0.006047
# 5 0.026472 0.001241 0.002090 0.000000 0.054643 0.000000
# 6 0.000000 0.000000 0.000000 0.006047 0.000000 0.048898
#
#
# Mechanical properties :
#
#
# Convention : Reuss Voigt Hill
#
# Bulk Modulus (GPa) = 27.65066 72.68944 50.17005
# Shear Modulus (GPa) = 22.22000 32.74590 27.48295
#
# Velocity S-wave (km/s) = 3.51840 4.27122 3.91295
# Velocity P-wave (km/s) = 5.64891 8.05114 6.95453
#
# Compressibility (1/GPa) = 0.03616550
#
# Stress axis : x y z
#
# Youngs Moduli (GPa) = 27.29873 67.65855 131.83432
#
# Poissons Ratio (x) = 0.24050 0.67352
# Poissons Ratio (y) = 0.09704 0.36286
# Poissons Ratio (z) = 0.13946 0.18622
#
# Static dielectric constant tensor:
#      x y z
#    x 1.611290 0.000000 -0.037340 
#    y 0.000000 1.599490 0.000000 
#    z -0.037340 0.000000 1.650010 
# 
# From -- ./inp_files/25612.got.cif
#   From: 2010.05.17/outbox.cif.g08.bks.cpg/sg11_13_cif.got.tgz:25612.got - 2010.06.03 12:22:45.
