data_PCOD9157144
_publ_section_title
;
Structure prediction by ZEFSAII (Michael W. Deem and Ramdas Pophale) SiO2 
 PCOD9157144
Probable space group: P 21/M
;
_chemical_formula_sum "Si O2"
_cell_formula_units_Z 32
_cell_length_a 15.604924
_cell_length_b 7.517941
_cell_length_c 22.169953
_cell_angle_alpha 90.000000
_cell_angle_beta 27.268858
_cell_angle_gamma 90.000000
_cell_volume 1191.649874
_symmetry_space_group_name_H-M "P 21/M"
_symmetry_group_IT_number 11
_symmetry_cell_setting 'monoclinic'
loop_
_space_group_symop_operation_xyz
x,y,z
-x,1/2+y,-z
-x,-y,-z
x,1/2-y,z
loop_
_atom_site_type_symbol
_atom_site_label
_atom_site_fract_x
_atom_site_fract_y
_atom_site_fract_z
Si Si1 0.801640 0.547324 0.878529
Si Si2 0.008423 0.041687 0.128364
Si Si3 0.706632 0.538395 0.812068
Si Si4 0.891274 0.035135 0.483588
Si Si5 0.786496 0.958841 0.418581
Si Si6 0.730747 0.456355 0.135841
Si Si7 0.617841 0.031508 0.339064
Si Si8 0.412264 0.537742 0.238478
O O1 0.732003 0.750000 0.930114
O O2 0.695278 0.463824 0.887362
O O3 0.843130 0.461424 0.917483
O O4 0.019685 0.552507 0.719142
O O5 0.999250 0.250000 0.148919
O O6 0.798375 0.970432 0.263616
O O7 0.087884 0.031731 0.011287
O O8 0.724674 0.750000 0.808813
O O9 0.563350 0.511293 0.846960
O O10 0.901414 0.467547 0.661536
O O11 0.899817 0.250000 0.480728
O O12 0.784702 0.970490 0.609923
O O13 0.769867 0.980808 0.501352
O O14 0.809106 0.750000 0.391278
O O15 0.590956 0.027560 0.513936
O O16 0.767863 0.250000 0.121952
O O17 0.665450 0.528666 0.240925
O O18 0.567221 0.477625 0.188813
O O19 0.613187 0.250000 0.342679
O O20 0.412075 0.750000 0.240539
#
# Coordination Sequence:
#
# PCOD9157144 Si02
#       8
#     4   4   4   4   4   4   4   4
#     4   9  20  38  57  79 112 149 185 227 273 320
#     4  10  21  40  61  79 106 147 190 230 274 324
#     4   9  18  33  52  77 109 144 179 221 274 323
#     4   9  18  32  50  77 113 146 180 219 270 328
#     4  10  18  31  54  83 115 148 181 219 271 328
#     4  11  22  38  57  82 115 144 180 229 279 326
#     4   9  19  35  57  85 114 143 177 225 281 328
#     4  11  21  33  53  82 110 143 184 223 271 330
#
# _framework density 26.853525999999999
#
# number of rings (size 3 to 8) (size 9 to 14) (size 15 to 20)
#    0.000    2.250    1.250    2.625    0.000    3.500 
#    0.000    2.500    0.000    0.000    0.000    0.000 
#    0.000    0.000    0.000    0.000    0.000    0.000 
#
# Total GULP energy -178993.098470 kJ/mol
# GULP energy per Si atom -5593.534327 kJ/mol
# Density = 2.679241 g / cm^3
# Si number density = 26.853526 Si / 1000 Ang^3
#
#
#
# Elastic Constant Matrix: (Units=GPa)
#
#
# Indices 1 2 3 4 5 6 
#
# 1 134.5681 1.5703 43.6610 0.0000 -4.8640 0.0000
# 2 1.5703 91.4023 -3.6247 0.0000 4.6341 0.0000
# 3 43.6610 -3.6247 91.8428 0.0000 -1.3355 0.0000
# 4 0.0000 0.0000 0.0000 16.2341 0.0000 1.6192
# 5 -4.8640 4.6341 -1.3355 0.0000 63.7813 0.0000
# 6 0.0000 0.0000 0.0000 1.6192 0.0000 17.1684
#
#
#
# Elastic Compliance Matrix: (Units=1/GPa)
#
#
# Indices 1 2 3 4 5 6 
#
# 1 0.008819 -0.000349 -0.004197 0.000000 0.000610 0.000000
# 2 -0.000349 0.011011 0.000589 0.000000 -0.000814 0.000000
# 3 -0.004197 0.000589 0.012905 0.000000 -0.000093 0.000000
# 4 0.000000 0.000000 0.000000 0.062184 0.000000 -0.005865
# 5 0.000610 -0.000814 -0.000093 0.000000 0.015782 0.000000
# 6 0.000000 0.000000 0.000000 -0.005865 0.000000 0.058800
#
#
# Mechanical properties :
#
#
# Convention : Reuss Voigt Hill
#
# Bulk Modulus (GPa) = 40.28939 44.55849 42.42394
# Shear Modulus (GPa) = 26.92653 37.85053 32.38853
#
# Velocity S-wave (km/s) = 3.17001 3.75843 3.47669
# Velocity P-wave (km/s) = 5.33241 5.95513 5.65235
#
# Compressibility (1/GPa) = 0.02482043
#
# Stress axis : x y z
#
# Youngs Moduli (GPa) = 113.38938 90.81611 77.48660
#
# Poissons Ratio (x) = 0.03169 0.32524
# Poissons Ratio (y) = 0.03956 -0.04561
# Poissons Ratio (z) = 0.47594 -0.05345
#
# Static dielectric constant tensor:
#      x y z
#    x 2.174540 0.000000 -0.016230 
#    y 0.000000 1.838360 0.000000 
#    z -0.016230 0.000000 2.148550 
# 
# From -- ./inp_files/68981.got.cif
#   From: 2010.05.17/outbox.cif.g08.bks.cpg/sg11_35_cif.got.tgz:68981.got - 2010.06.03 12:22:45.
