data_PCOD9157783
_publ_section_title
;
Structure prediction by ZEFSAII (Michael W. Deem and Ramdas Pophale) SiO2 
 PCOD9157783
Probable space group: P 21/M
;
_chemical_formula_sum "Si O2"
_cell_formula_units_Z 24
_cell_length_a 9.497639
_cell_length_b 14.803274
_cell_length_c 8.328148
_cell_angle_alpha 90.000000
_cell_angle_beta 98.007766
_cell_angle_gamma 90.000000
_cell_volume 1159.488295
_symmetry_space_group_name_H-M "P 21/M"
_symmetry_group_IT_number 11
_symmetry_cell_setting 'monoclinic'
loop_
_space_group_symop_operation_xyz
x,y,z
-x,1/2+y,-z
-x,-y,-z
x,1/2-y,z
loop_
_atom_site_type_symbol
_atom_site_label
_atom_site_fract_x
_atom_site_fract_y
_atom_site_fract_z
Si Si1 0.766795 0.851473 0.632131
Si Si2 0.909930 0.020010 0.826915
Si Si3 0.402574 0.041316 0.847604
Si Si4 0.855564 0.856282 0.273243
Si Si5 0.551228 0.088722 0.412841
Si Si6 0.342383 0.648391 0.252178
O O1 0.811767 0.750000 0.682677
O O2 0.792844 0.862667 0.444418
O O3 0.598227 0.861844 0.644652
O O4 0.855650 0.928668 0.734787
O O5 0.769535 0.078880 0.837857
O O6 0.003934 0.083865 0.725376
O O7 0.000000 0.000000 0.000000
O O8 0.259649 0.095478 0.861155
O O9 0.502510 0.115965 0.778152
O O10 0.372710 0.955097 0.727968
O O11 0.500000 0.000000 0.000000
O O12 0.877195 0.750000 0.241086
O O13 0.651604 0.140675 0.552699
O O14 0.500000 0.000000 0.500000
O O15 0.312714 0.750000 0.198460
#
# Coordination Sequence:
#
# PCOD9157783 Si02
#       6
#     4   4   4   4   4   4
#     4  11  22  41  67  93 122 165 216 261 309 370
#     4  12  25  42  60  93 130 170 204 255 317 373
#     4  11  21  38  62  93 130 164 200 257 322 366
#     4  11  23  40  64  93 126 166 214 258 308 373
#     4  10  18  37  65  93 118 157 209 258 310 360
#     4  11  21  40  66  88 121 165 213 255 305 371
#
# _framework density 20.698785000000001
#
# number of rings (size 3 to 8) (size 9 to 14) (size 15 to 20)
#    0.000    1.000    6.667    3.000    0.000    1.333 
#    0.000    2.500    0.000    1.000    0.000    0.000 
#    0.000    0.000    0.000    0.000    0.000    0.000 
#
# Total GULP energy -133989.752785 kJ/mol
# GULP energy per Si atom -5582.906366 kJ/mol
# Density = 2.065167 g / cm^3
# Si number density = 20.698785 Si / 1000 Ang^3
#
#
#
# Elastic Constant Matrix: (Units=GPa)
#
#
# Indices 1 2 3 4 5 6 
#
# 1 84.1166 42.2682 1.1092 0.0000 17.6777 0.0000
# 2 42.2682 160.3718 38.7282 0.0000 14.1892 0.0000
# 3 1.1092 38.7282 57.7119 0.0000 24.5528 0.0000
# 4 0.0000 0.0000 0.0000 5.9279 0.0000 -5.2760
# 5 17.6777 14.1892 24.5528 0.0000 28.8714 0.0000
# 6 0.0000 0.0000 0.0000 -5.2760 0.0000 22.2621
#
#
#
# Elastic Compliance Matrix: (Units=1/GPa)
#
#
# Indices 1 2 3 4 5 6 
#
# 1 0.018583 -0.006050 0.011405 0.000000 -0.018103 0.000000
# 2 -0.006050 0.009427 -0.009111 0.000000 0.006820 0.000000
# 3 0.011405 -0.009111 0.038057 0.000000 -0.034870 0.000000
# 4 0.000000 0.000000 0.000000 0.213791 0.000000 0.050668
# 5 -0.018103 0.006820 -0.034870 0.000000 0.072023 0.000000
# 6 0.000000 0.000000 0.000000 0.050668 0.000000 0.056927
#
#
# Mechanical properties :
#
#
# Convention : Reuss Voigt Hill
#
# Bulk Modulus (GPa) = 17.07832 51.82351 34.45092
# Shear Modulus (GPa) = 11.47211 26.08524 18.77867
#
# Velocity S-wave (km/s) = 2.35679 3.55382 3.01530
# Velocity P-wave (km/s) = 3.95913 6.47541 5.36682
#
# Compressibility (1/GPa) = 0.05855378
#
# Stress axis : x y z
#
# Youngs Moduli (GPa) = 53.81390 106.07873 26.27608
#
# Poissons Ratio (x) = 0.64178 -0.29967
# Poissons Ratio (y) = 0.32558 0.23941
# Poissons Ratio (z) = -0.61373 0.96650
#
# Static dielectric constant tensor:
#      x y z
#    x 1.766320 0.000000 -0.029080 
#    y 0.000000 1.731950 0.000000 
#    z -0.029080 0.000000 1.830990 
# 
# From -- ./inp_files/12623.got.cif
#   From: 2010.05.17/outbox.cif.g08.bks.cpg/sg11_7_cif.got.tgz:12623.got - 2010.06.03 12:22:45.
