data_PCOD9157534
_publ_section_title
;
Structure prediction by ZEFSAII (Michael W. Deem and Ramdas Pophale) SiO2 
 PCOD9157534
Probable space group: P 21/M
;
_chemical_formula_sum "Si O2"
_cell_formula_units_Z 32
_cell_length_a 18.142819
_cell_length_b 8.787797
_cell_length_c 24.381886
_cell_angle_alpha 90.000000
_cell_angle_beta 148.849597
_cell_angle_gamma 90.000000
_cell_volume 2010.865989
_symmetry_space_group_name_H-M "P 21/M"
_symmetry_group_IT_number 11
_symmetry_cell_setting 'monoclinic'
loop_
_space_group_symop_operation_xyz
x,y,z
-x,1/2+y,-z
-x,-y,-z
x,1/2-y,z
loop_
_atom_site_type_symbol
_atom_site_label
_atom_site_fract_x
_atom_site_fract_y
_atom_site_fract_z
Si Si1 0.117428 0.934978 0.806662
Si Si2 0.611765 0.067897 0.614877
Si Si3 0.388483 0.067450 0.557973
Si Si4 0.167422 0.433207 0.318972
Si Si5 0.668499 0.433557 0.247423
Si Si6 0.954564 0.433447 0.363821
Si Si7 0.442282 0.932981 0.020419
Si Si8 0.261086 0.931900 0.585467
O O1 0.115498 0.750000 0.805462
O O2 0.078041 0.981423 0.719518
O O3 0.991883 0.983976 0.767550
O O4 0.277673 0.982109 0.922635
O O5 0.611229 0.250000 0.610400
O O6 0.541356 0.027273 0.628489
O O7 0.500000 0.000000 0.500000
O O8 0.762279 0.004067 0.690434
O O9 0.382049 0.250000 0.560587
O O10 0.267802 0.027961 0.435464
O O11 0.351215 0.990381 0.591258
O O12 0.171441 0.250000 0.316558
O O13 0.654490 0.250000 0.234677
O O14 0.819454 0.473853 0.315237
O O15 0.542574 0.509091 0.132885
O O16 0.674617 0.478602 0.314920
O O17 0.969049 0.250000 0.373346
O O18 0.101418 0.504087 0.477706
O O19 0.446099 0.750000 0.019717
O O20 0.500000 0.000000 0.000000
O O21 0.254576 0.750000 0.580342
#
# Coordination Sequence:
#
# PCOD9157534 Si02
#       8
#     4   4   4   4   4   4   4   4
#     4   9  17  31  51  72  96 130 162 195 244 293
#     4   9  17  28  43  66  95 127 159 192 233 285
#     4   9  17  30  47  66  95 135 163 184 236 300
#     4   9  16  29  47  68  95 127 159 192 237 290
#     4  10  22  38  51  68  98 133 167 209 251 285
#     4  10  18  34  53  66  96 136 164 197 246 297
#     4  11  21  35  55  75  96 127 168 208 247 292
#     4  11  22  32  47  74 102 127 166 211 244 283
#
# _framework density 15.913542
#
# number of rings (size 3 to 8) (size 9 to 14) (size 15 to 20)
#    0.000    2.250    2.500    2.250    0.000    4.000 
#    0.000    1.250    0.000    0.000    0.000    0.875 
#    0.000    0.000    0.000    0.000    0.000    0.000 
#
# Total GULP energy -178418.150410 kJ/mol
# GULP energy per Si atom -5575.567200 kJ/mol
# Density = 1.587732 g / cm^3
# Si number density = 15.913542 Si / 1000 Ang^3
#
#
#
# Elastic Constant Matrix: (Units=GPa)
#
#
# Indices 1 2 3 4 5 6 
#
# 1 137.9936 42.0616 86.5582 0.0000 23.4342 0.0000
# 2 42.0616 25.4224 33.6144 0.0000 2.4008 0.0000
# 3 86.5582 33.6144 110.8880 0.0000 1.8442 0.0000
# 4 0.0000 0.0000 0.0000 22.2868 0.0000 1.5729
# 5 23.4342 2.4008 1.8442 0.0000 22.9253 0.0000
# 6 0.0000 0.0000 0.0000 1.5729 0.0000 26.8997
#
#
#
# Elastic Compliance Matrix: (Units=1/GPa)
#
#
# Indices 1 2 3 4 5 6 
#
# 1 0.027621 -0.025732 -0.013353 0.000000 -0.024465 0.000000
# 2 -0.025732 0.090266 -0.007567 0.000000 0.017459 0.000000
# 3 -0.013353 -0.007567 0.021524 0.000000 0.012711 0.000000
# 4 0.000000 0.000000 0.000000 0.045056 0.000000 -0.002635
# 5 -0.024465 0.017459 0.012711 0.000000 0.065777 0.000000
# 6 0.000000 0.000000 0.000000 -0.002635 0.000000 0.037329
#
#
# Mechanical properties :
#
#
# Convention : Reuss Voigt Hill
#
# Bulk Modulus (GPa) = 21.68926 66.53027 44.10977
# Shear Modulus (GPa) = 12.61841 21.89368 17.25604
#
# Velocity S-wave (km/s) = 2.81897 3.71319 3.29654
# Velocity P-wave (km/s) = 4.92488 7.76413 6.50139
#
# Compressibility (1/GPa) = 0.04610576
#
# Stress axis : x y z
#
# Youngs Moduli (GPa) = 36.20476 11.07834 46.45978
#
# Poissons Ratio (x) = 0.28507 0.62038
# Poissons Ratio (y) = 0.93163 0.35157
# Poissons Ratio (z) = 0.48345 0.08383
#
# Static dielectric constant tensor:
#      x y z
#    x 1.550900 0.000000 0.020890 
#    y 0.000000 1.537350 0.000000 
#    z 0.020890 0.000000 1.510020 
# 
# From -- ./inp_files/43766.got.cif
#   From: 2010.05.17/outbox.cif.g08.bks.cpg/sg11_22_cif.got.tgz:43766.got - 2010.06.03 12:22:45.
