data_PCOD9157162
_publ_section_title
;
Structure prediction by ZEFSAII (Michael W. Deem and Ramdas Pophale) SiO2 
 PCOD9157162
Probable space group: P 21/M
;
_chemical_formula_sum "Si O2"
_cell_formula_units_Z 28
_cell_length_a 17.307849
_cell_length_b 19.331296
_cell_length_c 9.679650
_cell_angle_alpha 90.000000
_cell_angle_beta 22.243616
_cell_angle_gamma 90.000000
_cell_volume 1225.975520
_symmetry_space_group_name_H-M "P 21/M"
_symmetry_group_IT_number 11
_symmetry_cell_setting 'monoclinic'
loop_
_space_group_symop_operation_xyz
x,y,z
-x,1/2+y,-z
-x,-y,-z
x,1/2-y,z
loop_
_atom_site_type_symbol
_atom_site_label
_atom_site_fract_x
_atom_site_fract_y
_atom_site_fract_z
Si Si1 0.376803 0.956368 0.850501
Si Si2 0.688334 0.610378 0.001557
Si Si3 0.700365 0.832507 0.271580
Si Si4 0.976348 0.436735 0.778022
Si Si5 0.475255 0.826303 0.110611
Si Si6 0.291990 0.542975 0.305965
Si Si7 0.104436 0.329044 0.763376
O O1 0.528460 0.891853 0.579663
O O2 0.433420 0.038340 0.768359
O O3 0.284734 0.943298 0.154460
O O4 0.216648 0.957229 0.991122
O O5 0.773189 0.646420 0.998202
O O6 0.552395 0.662926 0.138477
O O7 0.866904 0.589260 0.600259
O O8 0.640343 0.750000 0.374131
O O9 0.854201 0.842309 0.144435
O O10 0.092771 0.498163 0.664656
O O11 0.952862 0.377493 0.929938
O O12 0.395650 0.750000 0.218098
O O13 0.315794 0.885338 0.342205
O O14 0.672381 0.836950 0.682596
O O15 0.500000 0.500000 0.000000
O O16 0.042284 0.250000 0.848232
#
# Coordination Sequence:
#
# PCOD9157162 Si02
#       7
#     4   4   4   4   4   4   4
#     4  11  21  36  59  90 117 153 192 239 296 354
#     4  10  20  36  58  87 116 146 192 245 287 339
#     4  11  22  37  59  84 115 152 197 243 287 343
#     4  10  21  36  60  88 116 152 192 243 294 344
#     4  10  18  31  56  84 109 146 195 238 279 332
#     4  11  16  32  57  85 113 144 196 243 275 328
#     4   9  18  34  56  80 110 154 200 233 277 347
#
# _framework density 22.838954999999999
#
# number of rings (size 3 to 8) (size 9 to 14) (size 15 to 20)
#    0.000    1.714    5.714    2.571    0.000    1.143 
#    0.000    0.714    3.143    5.143    0.000    0.000 
#    0.000    0.000    0.000    0.000    0.000    0.000 
#
# Total GULP energy -156412.036621 kJ/mol
# GULP energy per Si atom -5586.144165 kJ/mol
# Density = 2.278697 g / cm^3
# Si number density = 22.838955 Si / 1000 Ang^3
#
#
#
# Elastic Constant Matrix: (Units=GPa)
#
#
# Indices 1 2 3 4 5 6 
#
# 1 149.5307 40.1482 5.4697 0.0000 16.8218 0.0000
# 2 40.1482 103.2307 -1.7117 0.0000 14.5439 0.0000
# 3 5.4697 -1.7117 31.8872 0.0000 13.3338 0.0000
# 4 0.0000 0.0000 0.0000 1.2418 0.0000 0.5105
# 5 16.8218 14.5439 13.3338 0.0000 21.3761 0.0000
# 6 0.0000 0.0000 0.0000 0.5105 0.0000 47.4545
#
#
#
# Elastic Compliance Matrix: (Units=1/GPa)
#
#
# Indices 1 2 3 4 5 6 
#
# 1 0.007853 -0.002346 0.000600 0.000000 -0.004959 0.000000
# 2 -0.002346 0.012013 0.004996 0.000000 -0.009444 0.000000
# 3 0.000600 0.004996 0.044841 0.000000 -0.031842 0.000000
# 4 0.000000 0.000000 0.000000 0.808852 0.000000 -0.008702
# 5 -0.004959 -0.009444 -0.031842 0.000000 0.076971 0.000000
# 6 0.000000 0.000000 0.000000 -0.008702 0.000000 0.021166
#
#
# Mechanical properties :
#
#
# Convention : Reuss Voigt Hill
#
# Bulk Modulus (GPa) = 14.04328 41.38455 27.71392
# Shear Modulus (GPa) = 5.05597 30.06398 17.55997
#
# Velocity S-wave (km/s) = 1.48948 3.63208 2.77584
# Velocity P-wave (km/s) = 3.01997 5.97904 4.73651
#
# Compressibility (1/GPa) = 0.07120843
#
# Stress axis : x y z
#
# Youngs Moduli (GPa) = 127.33551 83.24547 22.30119
#
# Poissons Ratio (x) = 0.19527 -0.01339
# Poissons Ratio (y) = 0.29869 -0.11142
# Poissons Ratio (z) = -0.07646 -0.41591
#
# Static dielectric constant tensor:
#      x y z
#    x 1.808410 0.000000 0.024820 
#    y 0.000000 1.849930 0.000000 
#    z 0.024820 0.000000 1.927380 
# 
# From -- ./inp_files/23175.got.cif
#   From: 2010.05.17/outbox.cif.g08.bks.cpg/sg11_12_cif.got.tgz:23175.got - 2010.06.03 12:22:45.
