data_PCOD9157627
_publ_section_title
;
Structure prediction by ZEFSAII (Michael W. Deem and Ramdas Pophale) SiO2 
 PCOD9157627
Probable space group: P 21/M
;
_chemical_formula_sum "Si O2"
_cell_formula_units_Z 32
_cell_length_a 19.230830
_cell_length_b 7.497225
_cell_length_c 14.623922
_cell_angle_alpha 90.000000
_cell_angle_beta 136.122219
_cell_angle_gamma 90.000000
_cell_volume 1461.410888
_symmetry_space_group_name_H-M "P 21/M"
_symmetry_group_IT_number 11
_symmetry_cell_setting 'monoclinic'
loop_
_space_group_symop_operation_xyz
x,y,z
-x,1/2+y,-z
-x,-y,-z
x,1/2-y,z
loop_
_atom_site_type_symbol
_atom_site_label
_atom_site_fract_x
_atom_site_fract_y
_atom_site_fract_z
Si Si1 0.045097 0.036868 0.943947
Si Si2 0.813176 0.968391 0.209099
Si Si3 0.781836 0.540825 0.384815
Si Si4 0.596054 0.538226 0.324236
Si Si5 0.400966 0.036468 0.465717
Si Si6 0.372085 0.464415 0.092312
Si Si7 0.729140 0.968232 0.819764
Si Si8 0.021975 0.965888 0.312825
O O1 0.050638 0.250000 0.938990
O O2 0.159384 0.970854 0.050791
O O3 0.983323 0.972026 0.797608
O O4 0.000000 0.000000 0.000000
O O5 0.814565 0.750000 0.208534
O O6 0.803349 0.031447 0.304041
O O7 0.918372 0.023296 0.263357
O O8 0.716288 0.025554 0.058728
O O9 0.760527 0.750000 0.349850
O O10 0.685690 0.464519 0.346965
O O11 0.880260 0.526344 0.540498
O O12 0.613541 0.750000 0.348811
O O13 0.595737 0.465073 0.427995
O O14 0.485639 0.514678 0.177650
O O15 0.392586 0.250000 0.464197
O O16 0.309422 0.971934 0.315593
O O17 0.500000 0.000000 0.500000
O O18 0.367939 0.250000 0.088644
O O19 0.345126 0.525419 0.169590
O O20 0.729366 0.750000 0.819497
O O21 0.024125 0.750000 0.316433
#
# Coordination Sequence:
#
# PCOD9157627 Si02
#       8
#     4   4   4   4   4   4   4   4
#     4  10  21  36  55  81 111 142 178 221 270 322
#     4   9  18  36  61  84 105 138 186 232 272 323
#     4  10  22  38  56  80 112 148 181 221 280 334
#     4  10  22  36  50  78 116 144 173 223 277 322
#     4  10  19  32  51  74 100 135 175 213 255 310
#     4  10  18  34  60  81 101 140 188 224 263 322
#     4   9  17  32  54  75  99 138 181 215 258 319
#     4  10  20  37  59  83 110 141 184 232 269 316
#
# _framework density 21.896647000000002
#
# number of rings (size 3 to 8) (size 9 to 14) (size 15 to 20)
#    0.000    2.250    2.500    0.375    1.750    1.500 
#    0.000    2.500    0.000    0.000    0.000    0.000 
#    0.000    0.000    0.000    0.000    0.000    0.000 
#
# Total GULP energy -178747.312867 kJ/mol
# GULP energy per Si atom -5585.853527 kJ/mol
# Density = 2.184681 g / cm^3
# Si number density = 21.896647 Si / 1000 Ang^3
#
#
#
# Elastic Constant Matrix: (Units=GPa)
#
#
# Indices 1 2 3 4 5 6 
#
# 1 152.3035 -4.4901 64.3708 0.0000 -3.8306 0.0000
# 2 -4.4901 56.0869 -15.6747 0.0000 -2.6642 0.0000
# 3 64.3708 -15.6747 108.4867 0.0000 6.9614 0.0000
# 4 0.0000 0.0000 0.0000 18.9478 0.0000 2.5640
# 5 -3.8306 -2.6642 6.9614 0.0000 28.8569 0.0000
# 6 0.0000 0.0000 0.0000 2.5640 0.0000 16.1690
#
#
#
# Elastic Compliance Matrix: (Units=1/GPa)
#
#
# Indices 1 2 3 4 5 6 
#
# 1 0.008966 -0.000725 -0.005584 0.000000 0.002470 0.000000
# 2 -0.000725 0.018672 0.003071 0.000000 0.000887 0.000000
# 3 -0.005584 0.003071 0.013208 0.000000 -0.003644 0.000000
# 4 0.000000 0.000000 0.000000 0.053934 0.000000 -0.008553
# 5 0.002470 0.000887 -0.003644 0.000000 0.035943 0.000000
# 6 0.000000 0.000000 0.000000 -0.008553 0.000000 0.063203
#
#
# Mechanical properties :
#
#
# Convention : Reuss Voigt Hill
#
# Bulk Modulus (GPa) = 29.09394 45.03213 37.06304
# Shear Modulus (GPa) = 23.60064 30.97281 27.28672
#
# Velocity S-wave (km/s) = 3.28658 3.76506 3.53393
# Velocity P-wave (km/s) = 5.26478 6.28581 5.79781
#
# Compressibility (1/GPa) = 0.03437142
#
# Stress axis : x y z
#
# Youngs Moduli (GPa) = 111.52657 53.55657 75.70979
#
# Poissons Ratio (x) = 0.03884 0.42273
# Poissons Ratio (y) = 0.08089 -0.23252
# Poissons Ratio (z) = 0.62272 -0.16449
#
# Static dielectric constant tensor:
#      x y z
#    x 1.794420 0.000000 -0.018950 
#    y 0.000000 1.847240 0.000000 
#    z -0.018950 0.000000 1.780130 
# 
# From -- ./inp_files/54373.got.cif
#   From: 2010.05.17/outbox.cif.g08.bks.cpg/sg11_28_cif.got.tgz:54373.got - 2010.06.03 12:22:45.
