data_PCOD9157570
_publ_section_title
;
Structure prediction by ZEFSAII (Michael W. Deem and Ramdas Pophale) SiO2 
 PCOD9157570
Probable space group: P 21/M
;
_chemical_formula_sum "Si O2"
_cell_formula_units_Z 32
_cell_length_a 12.575422
_cell_length_b 19.235174
_cell_length_c 8.518918
_cell_angle_alpha 90.000000
_cell_angle_beta 126.663414
_cell_angle_gamma 90.000000
_cell_volume 1652.960793
_symmetry_space_group_name_H-M "P 21/M"
_symmetry_group_IT_number 11
_symmetry_cell_setting 'monoclinic'
loop_
_space_group_symop_operation_xyz
x,y,z
-x,1/2+y,-z
-x,-y,-z
x,1/2-y,z
loop_
_atom_site_type_symbol
_atom_site_label
_atom_site_fract_x
_atom_site_fract_y
_atom_site_fract_z
Si Si1 0.657536 0.958191 0.531429
Si Si2 0.143996 0.566614 0.720542
Si Si3 0.478178 0.903409 0.638561
Si Si4 0.636098 0.330192 0.998012
Si Si5 0.157900 0.081313 0.576310
Si Si6 0.371064 0.166716 0.941160
Si Si7 0.866899 0.038118 0.926314
Si Si8 0.256877 0.670428 0.261821
O O1 0.560271 0.911987 0.549557
O O2 0.758775 0.916528 0.511351
O O3 0.573321 0.018337 0.367619
O O4 0.744713 0.001045 0.733994
O O5 0.263928 0.620753 0.818085
O O6 0.159712 0.500580 0.622385
O O7 0.997601 0.599435 0.571356
O O8 0.148792 0.537657 0.901738
O O9 0.567832 0.868742 0.850104
O O10 0.353131 0.855380 0.484543
O O11 0.660514 0.250000 0.062499
O O12 0.484626 0.345647 0.908652
O O13 0.668609 0.336946 0.841700
O O14 0.237733 0.128152 0.769888
O O15 0.354158 0.250000 0.944552
O O16 0.864103 0.117108 0.861621
O O17 0.000000 0.000000 0.000000
O O18 0.219087 0.750000 0.248687
#
# Coordination Sequence:
#
# PCOD9157570 Si02
#       8
#     4   4   4   4   4   4   4   4
#     4  10  20  34  57  88 109 145 187 242 289 335
#     4  10  21  36  58  85 112 154 185 241 288 338
#     4  10  20  34  56  83 115 144 184 233 292 342
#     4   9  19  36  58  83 110 144 187 229 284 343
#     4  11  22  36  56  84 115 146 196 232 285 345
#     4  11  23  38  57  82 116 155 189 237 288 344
#     4  10  18  34  56  79 111 146 188 237 284 338
#     4   9  18  33  55  80 107 142 186 233 279 339
#
# _framework density 19.359200000000001
#
# number of rings (size 3 to 8) (size 9 to 14) (size 15 to 20)
#    0.000    2.000    1.250    2.625    0.000    4.500 
#    0.000    0.625    0.000    3.750    0.000    0.000 
#    0.000    0.000    0.000    0.000    0.000    0.000 
#
# Total GULP energy -178640.042532 kJ/mol
# GULP energy per Si atom -5582.501329 kJ/mol
# Density = 1.931514 g / cm^3
# Si number density = 19.359200 Si / 1000 Ang^3
#
#
#
# Elastic Constant Matrix: (Units=GPa)
#
#
# Indices 1 2 3 4 5 6 
#
# 1 46.7182 23.2614 9.2065 0.0000 12.7680 0.0000
# 2 23.2614 66.8235 26.2561 0.0000 12.6274 0.0000
# 3 9.2065 26.2561 81.7245 0.0000 12.0102 0.0000
# 4 0.0000 0.0000 0.0000 24.5955 0.0000 4.4786
# 5 12.7680 12.6274 12.0102 0.0000 23.4381 0.0000
# 6 0.0000 0.0000 0.0000 4.4786 0.0000 23.8878
#
#
#
# Elastic Compliance Matrix: (Units=1/GPa)
#
#
# Indices 1 2 3 4 5 6 
#
# 1 0.028423 -0.008129 0.001126 0.000000 -0.011681 0.000000
# 2 -0.008129 0.020560 -0.005096 0.000000 -0.004037 0.000000
# 3 0.001126 -0.005096 0.014527 0.000000 -0.005312 0.000000
# 4 0.000000 0.000000 0.000000 0.042095 0.000000 -0.007892
# 5 -0.011681 -0.004037 -0.005312 0.000000 0.053926 0.000000
# 6 0.000000 0.000000 0.000000 -0.007892 0.000000 0.043342
#
#
# Mechanical properties :
#
#
# Convention : Reuss Voigt Hill
#
# Bulk Modulus (GPa) = 25.43768 34.74602 30.09185
# Shear Modulus (GPa) = 20.81812 23.48711 22.15261
#
# Velocity S-wave (km/s) = 3.28283 3.48692 3.38641
# Velocity P-wave (km/s) = 5.24763 5.84795 5.55590
#
# Compressibility (1/GPa) = 0.03931177
#
# Stress axis : x y z
#
# Youngs Moduli (GPa) = 35.18269 48.63840 68.83572
#
# Poissons Ratio (x) = 0.39540 -0.07754
# Poissons Ratio (y) = 0.28601 0.35081
# Poissons Ratio (z) = -0.03963 0.24788
#
# Static dielectric constant tensor:
#      x y z
#    x 1.697960 0.000000 -0.010210 
#    y 0.000000 1.680470 0.000000 
#    z -0.010210 0.000000 1.680910 
# 
# From -- ./inp_files/19429.got.cif
#   From: 2010.05.17/outbox.cif.g08.bks.cpg/sg11_10_cif.got.tgz:19429.got - 2010.06.03 12:22:45.
