data_PCOD9157824
_publ_section_title
;
Structure prediction by ZEFSAII (Michael W. Deem and Ramdas Pophale) SiO2 
 PCOD9157824
Probable space group: P 21/M
;
_chemical_formula_sum "Si O2"
_cell_formula_units_Z 32
_cell_length_a 19.110676
_cell_length_b 9.035089
_cell_length_c 13.994838
_cell_angle_alpha 90.000000
_cell_angle_beta 68.676721
_cell_angle_gamma 90.000000
_cell_volume 2251.020911
_symmetry_space_group_name_H-M "P 21/M"
_symmetry_group_IT_number 11
_symmetry_cell_setting 'monoclinic'
loop_
_space_group_symop_operation_xyz
x,y,z
-x,1/2+y,-z
-x,-y,-z
x,1/2-y,z
loop_
_atom_site_type_symbol
_atom_site_label
_atom_site_fract_x
_atom_site_fract_y
_atom_site_fract_z
Si Si1 0.256541 0.074694 0.734971
Si Si2 0.577528 0.573376 0.364235
Si Si3 0.113649 0.926657 0.895495
Si Si4 0.738585 0.926437 0.494949
Si Si5 0.970269 0.072479 0.872563
Si Si6 0.115244 0.573231 0.491105
Si Si7 0.028719 0.572734 0.344010
Si Si8 0.585826 0.424819 0.566588
O O1 0.242070 0.250000 0.751140
O O2 0.342480 0.045863 0.724964
O O3 0.253259 0.038992 0.622893
O O4 0.193615 0.987496 0.823213
O O5 0.577438 0.750000 0.390603
O O6 0.579363 0.475977 0.459251
O O7 0.498195 0.544660 0.351842
O O8 0.112153 0.750000 0.887812
O O9 0.089811 0.967427 0.015789
O O10 0.048493 0.995782 0.861693
O O11 0.740538 0.750000 0.503212
O O12 0.807094 0.000007 0.516612
O O13 0.657857 0.987949 0.568735
O O14 0.981105 0.250000 0.872065
O O15 0.948450 0.034748 0.775186
O O16 0.119603 0.750000 0.499269
O O17 0.089851 0.537994 0.395063
O O18 0.047969 0.509560 0.589683
O O19 0.015033 0.750000 0.355321
O O20 0.599908 0.250000 0.565684
#
# Coordination Sequence:
#
# PCOD9157824 Si02
#       8
#     4   4   4   4   4   4   4   4
#     4   9  17  28  40  55  80 112 137 158 193 238
#     4   8  15  26  38  54  78 108 136 161 196 239
#     4  10  19  28  41  62  81 100 134 172 197 226
#     4  10  19  29  40  56  82 113 138 162 199 241
#     4   9  18  32  45  56  77 108 134 160 201 244
#     4  10  19  29  43  63  81 100 134 172 199 232
#     4   9  18  32  46  58  78 108 134 161 203 246
#     4   9  15  24  39  57  77 103 137 170 194 226
#
# _framework density 14.215771999999999
#
# number of rings (size 3 to 8) (size 9 to 14) (size 15 to 20)
#    0.000    2.750    0.000    3.000    0.000    7.500 
#    0.000    0.000    0.000    0.000    0.000    0.000 
#    0.000    1.000    0.000    2.000    0.000    3.000 
#
# Total GULP energy -178172.224482 kJ/mol
# GULP energy per Si atom -5567.882015 kJ/mol
# Density = 1.418342 g / cm^3
# Si number density = 14.215772 Si / 1000 Ang^3
#
#
#
# Elastic Constant Matrix: (Units=GPa)
#
#
# Indices 1 2 3 4 5 6 
#
# 1 128.3920 47.3637 50.2456 0.0000 -15.6816 0.0000
# 2 47.3637 32.8184 29.7691 0.0000 -5.6260 0.0000
# 3 50.2456 29.7691 70.2388 0.0000 -6.0776 0.0000
# 4 0.0000 0.0000 0.0000 17.8863 0.0000 -4.0607
# 5 -15.6816 -5.6260 -6.0776 0.0000 20.8549 0.0000
# 6 0.0000 0.0000 0.0000 -4.0607 0.0000 25.4103
#
#
#
# Elastic Compliance Matrix: (Units=1/GPa)
#
#
# Indices 1 2 3 4 5 6 
#
# 1 0.017840 -0.022018 -0.002855 0.000000 0.006643 0.000000
# 2 -0.022018 0.077823 -0.017285 0.000000 -0.000599 0.000000
# 3 -0.002855 -0.017285 0.023612 0.000000 0.000071 0.000000
# 4 0.000000 0.000000 0.000000 0.058014 0.000000 0.009271
# 5 0.006643 -0.000599 0.000071 0.000000 0.052804 0.000000
# 6 0.000000 0.000000 0.000000 0.009271 0.000000 0.040836
#
#
# Mechanical properties :
#
#
# Convention : Reuss Voigt Hill
#
# Bulk Modulus (GPa) = 28.60524 54.02291 41.31407
# Shear Modulus (GPa) = 13.62786 19.76835 16.69810
#
# Velocity S-wave (km/s) = 3.09956 3.73311 3.43099
# Velocity P-wave (km/s) = 5.74243 7.52769 6.69483
#
# Compressibility (1/GPa) = 0.03495863
#
# Stress axis : x y z
#
# Youngs Moduli (GPa) = 56.05503 12.84972 42.35213
#
# Poissons Ratio (x) = 0.28292 0.12092
# Poissons Ratio (y) = 1.23420 0.73205
# Poissons Ratio (z) = 0.16005 0.22211
#
# Static dielectric constant tensor:
#      x y z
#    x 1.480710 0.000000 -0.010890 
#    y 0.000000 1.473830 0.000000 
#    z -0.010890 0.000000 1.460400 
# 
# From -- ./inp_files/52928.got.cif
#   From: 2010.05.17/outbox.cif.g08.bks.cpg/sg11_27_cif.got.tgz:52928.got - 2010.06.03 12:22:45.
