data_PCOD9157970
_publ_section_title
;
Structure prediction by ZEFSAII (Michael W. Deem and Ramdas Pophale) SiO2 
 PCOD9157970
Probable space group: P 21/M
;
_chemical_formula_sum "Si O2"
_cell_formula_units_Z 32
_cell_length_a 12.016209
_cell_length_b 7.830681
_cell_length_c 19.016694
_cell_angle_alpha 90.000000
_cell_angle_beta 89.708579
_cell_angle_gamma 90.000000
_cell_volume 1789.354569
_symmetry_space_group_name_H-M "P 21/M"
_symmetry_group_IT_number 11
_symmetry_cell_setting 'monoclinic'
loop_
_space_group_symop_operation_xyz
x,y,z
-x,1/2+y,-z
-x,-y,-z
x,1/2-y,z
loop_
_atom_site_type_symbol
_atom_site_label
_atom_site_fract_x
_atom_site_fract_y
_atom_site_fract_z
Si Si1 0.871208 0.045836 0.994974
Si Si2 0.860331 0.452447 0.270814
Si Si3 0.735006 0.459243 0.133089
Si Si4 0.495549 0.043955 0.082585
Si Si5 0.737460 0.949134 0.858284
Si Si6 0.879712 0.042143 0.574107
Si Si7 0.140026 0.951339 0.575647
Si Si8 0.884650 0.449951 0.727383
O O1 0.859516 0.250000 0.989857
O O2 0.815688 0.968441 0.926037
O O3 0.806983 0.987839 0.065187
O O4 0.000000 0.000000 0.000000
O O5 0.838139 0.250000 0.273633
O O6 0.792085 0.521029 0.204677
O O7 0.828268 0.525022 0.348069
O O8 0.993514 0.470368 0.259531
O O9 0.736441 0.250000 0.134031
O O10 0.608305 0.514156 0.120329
O O11 0.492962 0.250000 0.086239
O O12 0.382739 0.977793 0.119107
O O13 0.500000 0.000000 0.000000
O O14 0.722678 0.750000 0.842752
O O15 0.799926 0.024757 0.791048
O O16 0.882943 0.250000 0.570066
O O17 0.823418 0.981401 0.501367
O O18 0.836766 0.991967 0.651551
O O19 0.006194 0.973908 0.574341
O O20 0.166840 0.750000 0.577138
O O21 0.908061 0.250000 0.720341
#
# Coordination Sequence:
#
# PCOD9157970 Si02
#       8
#     4   4   4   4   4   4   4   4
#     4  11  21  33  50  70  97 126 153 184 225 279
#     4   9  16  28  47  70  97 124 150 185 230 279
#     4   9  18  32  49  68  90 117 148 187 232 273
#     4  10  20  36  54  69  86 113 153 200 240 277
#     4  11  22  34  49  68  90 118 157 199 236 276
#     4   8  14  24  38  60  90 122 153 182 217 266
#     4   8  13  22  39  63  90 120 151 181 217 267
#     4  10  19  30  45  66  96 128 155 188 230 276
#
# _framework density 17.883541999999998
#
# number of rings (size 3 to 8) (size 9 to 14) (size 15 to 20)
#    0.000    2.500    1.250    1.875    0.000    2.000 
#    0.000    1.250    0.000    0.000    0.000    0.875 
#    0.000    0.000    0.000    0.000    0.000    0.000 
#
# Total GULP energy -178260.192618 kJ/mol
# GULP energy per Si atom -5570.631019 kJ/mol
# Density = 1.784284 g / cm^3
# Si number density = 17.883542 Si / 1000 Ang^3
#
#
#
# Elastic Constant Matrix: (Units=GPa)
#
#
# Indices 1 2 3 4 5 6 
#
# 1 94.7030 -7.3146 65.0417 0.0000 -2.0935 0.0000
# 2 -7.3146 20.2222 -2.7216 0.0000 2.3918 0.0000
# 3 65.0417 -2.7216 188.7509 0.0000 0.7719 0.0000
# 4 0.0000 0.0000 0.0000 -0.1274 0.0000 6.9197
# 5 -2.0935 2.3918 0.7719 0.0000 1.8314 0.0000
# 6 0.0000 0.0000 0.0000 6.9197 0.0000 7.3260
#
#
#
# Elastic Compliance Matrix: (Units=1/GPa)
#
#
# Indices 1 2 3 4 5 6 
#
# 1 0.014574 0.002804 -0.005044 0.000000 0.015124 0.000000
# 2 0.002804 0.059277 0.000192 0.000000 -0.074289 0.000000
# 3 -0.005044 0.000192 0.007076 0.000000 -0.008999 0.000000
# 4 0.000000 0.000000 0.000000 -0.150074 0.000000 0.141751
# 5 0.015124 -0.074289 -0.008999 0.000000 0.664118 0.000000
# 6 0.000000 0.000000 0.000000 0.141751 0.000000 0.002610
#
#
# Mechanical properties :
#
#
# Convention : Reuss Voigt Hill
#
# Bulk Modulus (GPa) = 13.01533 45.96523 29.49028
# Shear Modulus (GPa) = 7.97085 18.38405 13.17745
#
# Velocity S-wave (km/s) = 2.11347 3.20970 2.71744
# Velocity P-wave (km/s) = 3.63996 6.28447 5.13536
#
# Compressibility (1/GPa) = 0.07683250
#
# Stress axis : x y z
#
# Youngs Moduli (GPa) = 68.61485 16.86991 141.33261
#
# Poissons Ratio (x) = -0.04731 0.71281
# Poissons Ratio (y) = -0.19240 -0.02717
# Poissons Ratio (z) = 0.34606 -0.00324
#
# Static dielectric constant tensor:
#      x y z
#    x 1.578800 0.000000 0.000990 
#    y 0.000000 1.665320 0.000000 
#    z 0.000990 0.000000 1.669000 
# 
# From -- ./inp_files/40677.got.cif
#   From: 2010.05.17/outbox.cif.g08.bks.cpg/sg11_21_cif.got.tgz:40677.got - 2010.06.03 12:22:45.
