data_PCOD9157732
_publ_section_title
;
Structure prediction by ZEFSAII (Michael W. Deem and Ramdas Pophale) SiO2 
 PCOD9157732
Probable space group: P 21/M
;
_chemical_formula_sum "Si O2"
_cell_formula_units_Z 24
_cell_length_a 11.429894
_cell_length_b 15.513852
_cell_length_c 10.241365
_cell_angle_alpha 90.000000
_cell_angle_beta 35.736499
_cell_angle_gamma 90.000000
_cell_volume 1060.659473
_symmetry_space_group_name_H-M "P 21/M"
_symmetry_group_IT_number 11
_symmetry_cell_setting 'monoclinic'
loop_
_space_group_symop_operation_xyz
x,y,z
-x,1/2+y,-z
-x,-y,-z
x,1/2-y,z
loop_
_atom_site_type_symbol
_atom_site_label
_atom_site_fract_x
_atom_site_fract_y
_atom_site_fract_z
Si Si1 0.172599 0.250000 0.847469
Si Si2 0.419869 0.057878 0.902877
Si Si3 0.113155 0.932200 0.306736
Si Si4 0.316321 0.250000 0.004043
Si Si5 0.291312 0.432676 0.473213
Si Si6 0.975281 0.250000 0.513971
Si Si7 0.670291 0.750000 0.593552
Si Si8 0.168741 0.068052 0.865433
O O1 0.318348 0.250000 0.842944
O O2 0.263651 0.250000 0.619182
O O3 0.060910 0.160935 0.962202
O O4 0.408753 0.157091 0.962278
O O5 0.287210 0.058911 0.891180
O O6 0.630272 0.018262 0.667493
O O7 0.310383 0.984406 0.087375
O O8 0.945295 0.919156 0.344118
O O9 0.138403 0.839292 0.352758
O O10 0.000000 0.000000 0.500000
O O11 0.091030 0.250000 0.269849
O O12 0.413703 0.347125 0.315423
O O13 0.311535 0.437681 0.610330
O O14 0.155299 0.250000 0.456682
O O15 0.000000 0.000000 0.000000
#
# Coordination Sequence:
#
# PCOD9157732 Si02
#       8
#     2   4   4   2   4   2   2   4
#     4   8  18  32  57  81 114 155 188 232 300 342
#     4  11  22  38  62  86 117 156 197 238 296 349
#     4  11  22  39  60  84 116 157 195 239 289 346
#     4  10  20  38  57  83 120 158 187 245 298 341
#     4  10  21  38  61  88 118 150 197 241 290 350
#     4  10  20  37  60  84 122 151 194 243 295 343
#     4   8  18  37  56  82 120 152 181 246 297 336
#     4  10  18  36  60  87 116 152 191 239 294 348
#
# _framework density 22.627431999999999
#
# number of rings (size 3 to 8) (size 9 to 14) (size 15 to 20)
#    0.000    2.000    3.333    0.500    0.000    1.333 
#    0.000    3.333    0.000    0.000    0.000    0.000 
#    0.000    0.000    0.000    0.000    0.000    0.000 
#
# Total GULP energy -133713.650485 kJ/mol
# GULP energy per Si atom -5571.402104 kJ/mol
# Density = 2.257593 g / cm^3
# Si number density = 22.627432 Si / 1000 Ang^3
#
#
#
# Elastic Constant Matrix: (Units=GPa)
#
#
# Indices 1 2 3 4 5 6 
#
# 1 62.9951 6.2126 13.6980 0.0000 9.2224 0.0000
# 2 6.2126 218.1568 35.5163 0.0000 -9.1961 0.0000
# 3 13.6980 35.5163 44.4324 0.0000 5.8292 0.0000
# 4 0.0000 0.0000 0.0000 38.6643 0.0000 6.9915
# 5 9.2224 -9.1961 5.8292 0.0000 32.8856 0.0000
# 6 0.0000 0.0000 0.0000 6.9915 0.0000 17.8770
#
#
#
# Elastic Compliance Matrix: (Units=1/GPa)
#
#
# Indices 1 2 3 4 5 6 
#
# 1 0.017531 0.000146 -0.004998 0.000000 -0.003989 0.000000
# 2 0.000146 0.005442 -0.004699 0.000000 0.002314 0.000000
# 3 -0.004998 -0.004699 0.028453 0.000000 -0.004956 0.000000
# 4 0.000000 0.000000 0.000000 0.027832 0.000000 -0.010885
# 5 -0.003989 0.002314 -0.004956 0.000000 0.033053 0.000000
# 6 0.000000 0.000000 0.000000 -0.010885 0.000000 0.060194
#
#
# Mechanical properties :
#
#
# Convention : Reuss Voigt Hill
#
# Bulk Modulus (GPa) = 30.93603 48.49315 39.71459
# Shear Modulus (GPa) = 24.70588 35.89588 30.30088
#
# Velocity S-wave (km/s) = 3.30791 3.98727 3.66337
# Velocity P-wave (km/s) = 5.31895 6.53264 5.95679
#
# Compressibility (1/GPa) = 0.03232477
#
# Stress axis : x y z
#
# Youngs Moduli (GPa) = 57.04286 183.74946 35.14569
#
# Poissons Ratio (x) = -0.02688 0.17566
# Poissons Ratio (y) = -0.00834 0.16514
# Poissons Ratio (z) = 0.28510 0.86340
#
# Static dielectric constant tensor:
#      x y z
#    x 1.898450 0.000000 0.011150 
#    y 0.000000 1.886460 0.000000 
#    z 0.011150 0.000000 1.872500 
# 
# From -- ./inp_files/39429.got.cif
#   From: 2010.05.17/outbox.cif.g08.bks.cpg/sg11_20_cif.got.tgz:39429.got - 2010.06.03 12:22:45.
