data_PCOD9157422
_publ_section_title
;
Structure prediction by ZEFSAII (Michael W. Deem and Ramdas Pophale) SiO2 
 PCOD9157422
Probable space group: P 21/M
;
_chemical_formula_sum "Si O2"
_cell_formula_units_Z 32
_cell_length_a 29.508391
_cell_length_b 7.567101
_cell_length_c 13.015293
_cell_angle_alpha 90.000000
_cell_angle_beta 29.563214
_cell_angle_gamma 90.000000
_cell_volume 1433.882769
_symmetry_space_group_name_H-M "P 21/M"
_symmetry_group_IT_number 11
_symmetry_cell_setting 'monoclinic'
loop_
_space_group_symop_operation_xyz
x,y,z
-x,1/2+y,-z
-x,-y,-z
x,1/2-y,z
loop_
_atom_site_type_symbol
_atom_site_label
_atom_site_fract_x
_atom_site_fract_y
_atom_site_fract_z
Si Si1 0.727339 0.958909 0.938379
Si Si2 0.246737 0.043571 0.676509
Si Si3 0.479416 0.554158 0.925388
Si Si4 0.037578 0.960817 0.040661
Si Si5 0.141642 0.034860 0.502511
Si Si6 0.515916 0.035221 0.304236
Si Si7 0.319736 0.033272 0.751388
Si Si8 0.290537 0.035759 0.369237
O O1 0.746156 0.750000 0.904967
O O2 0.733672 0.029253 0.042136
O O3 0.619155 0.977113 0.124646
O O4 0.797675 0.030051 0.713593
O O5 0.271248 0.250000 0.631025
O O6 0.276708 0.972220 0.728103
O O7 0.294456 0.971113 0.478819
O O8 0.138426 0.032103 0.866466
O O9 0.516709 0.750000 0.844407
O O10 0.369411 0.544738 0.143488
O O11 0.500000 0.500000 0.000000
O O12 0.508560 0.465922 0.762454
O O13 0.044053 0.750000 0.035664
O O14 0.962122 0.024652 0.272730
O O15 0.000000 0.000000 0.000000
O O16 0.140293 0.250000 0.499635
O O17 0.195909 0.991323 0.500387
O O18 0.518725 0.250000 0.297849
O O19 0.427715 0.982088 0.545163
O O20 0.317704 0.250000 0.756222
O O21 0.300759 0.250000 0.347408
#
# Coordination Sequence:
#
# PCOD9157422 Si02
#       8
#     4   4   4   4   4   4   4   4
#     4  10  19  35  58  80 103 140 185 222 256 313
#     4  10  20  37  57  79 109 145 179 218 268 323
#     4  11  22  33  48  74 109 145 180 219 266 319
#     4  11  21  36  57  83 110 140 176 219 270 325
#     4   9  18  33  54  79 106 135 170 214 268 316
#     4  10  20  35  53  78 108 140 177 222 268 310
#     4   9  19  35  56  78 105 143 183 217 261 317
#     4  10  18  33  54  74 105 143 173 211 267 321
#
# _framework density 22.317025999999998
#
# number of rings (size 3 to 8) (size 9 to 14) (size 15 to 20)
#    0.000    2.000    2.500    1.875    0.000    3.000 
#    0.000    3.125    0.000    0.000    0.000    0.000 
#    0.000    0.000    0.000    0.000    0.000    0.000 
#
# Total GULP energy -178565.095059 kJ/mol
# GULP energy per Si atom -5580.159221 kJ/mol
# Density = 2.226623 g / cm^3
# Si number density = 22.317026 Si / 1000 Ang^3
#
#
#
# Elastic Constant Matrix: (Units=GPa)
#
#
# Indices 1 2 3 4 5 6 
#
# 1 89.0761 -3.3120 50.7875 0.0000 21.1728 0.0000
# 2 -3.3120 50.2688 -5.0947 0.0000 6.3873 0.0000
# 3 50.7875 -5.0947 152.8684 0.0000 22.1090 0.0000
# 4 0.0000 0.0000 0.0000 12.9812 0.0000 -8.2898
# 5 21.1728 6.3873 22.1090 0.0000 44.6370 0.0000
# 6 0.0000 0.0000 0.0000 -8.2898 0.0000 11.5744
#
#
#
# Elastic Compliance Matrix: (Units=1/GPa)
#
#
# Indices 1 2 3 4 5 6 
#
# 1 0.014867 0.001216 -0.004151 0.000000 -0.005170 0.000000
# 2 0.001216 0.020560 0.000851 0.000000 -0.003940 0.000000
# 3 -0.004151 0.000851 0.008275 0.000000 -0.002251 0.000000
# 4 0.000000 0.000000 0.000000 0.141966 0.000000 0.101679
# 5 -0.005170 -0.003940 -0.002251 0.000000 0.026534 0.000000
# 6 0.000000 0.000000 0.000000 0.101679 0.000000 0.159221
#
#
# Mechanical properties :
#
#
# Convention : Reuss Voigt Hill
#
# Bulk Modulus (GPa) = 25.29496 41.88609 33.59052
# Shear Modulus (GPa) = 12.86107 30.49402 21.67754
#
# Velocity S-wave (km/s) = 2.40321 3.70050 3.12002
# Velocity P-wave (km/s) = 4.36572 6.08832 5.29751
#
# Compressibility (1/GPa) = 0.03953357
#
# Stress axis : x y z
#
# Youngs Moduli (GPa) = 67.26213 48.63795 120.85076
#
# Poissons Ratio (x) = -0.05913 0.50166
# Poissons Ratio (y) = -0.08177 -0.10287
# Poissons Ratio (z) = 0.27921 -0.04140
#
# Static dielectric constant tensor:
#      x y z
#    x 1.860400 0.000000 0.011690 
#    y 0.000000 1.850460 0.000000 
#    z 0.011690 0.000000 1.851420 
# 
# From -- ./inp_files/38146.got.cif
#   From: 2010.05.17/outbox.cif.g08.bks.cpg/sg11_20_cif.got.tgz:38146.got - 2010.06.03 12:22:45.
