data_PCOD9157257
_publ_section_title
;
Structure prediction by ZEFSAII (Michael W. Deem and Ramdas Pophale) SiO2 
 PCOD9157257
Probable space group: P 21/M
;
_chemical_formula_sum "Si O2"
_cell_formula_units_Z 28
_cell_length_a 8.534080
_cell_length_b 16.695911
_cell_length_c 9.984708
_cell_angle_alpha 90.000000
_cell_angle_beta 118.630193
_cell_angle_gamma 90.000000
_cell_volume 1248.715314
_symmetry_space_group_name_H-M "P 21/M"
_symmetry_group_IT_number 11
_symmetry_cell_setting 'monoclinic'
loop_
_space_group_symop_operation_xyz
x,y,z
-x,1/2+y,-z
-x,-y,-z
x,1/2-y,z
loop_
_atom_site_type_symbol
_atom_site_label
_atom_site_fract_x
_atom_site_fract_y
_atom_site_fract_z
Si Si1 0.591093 0.976898 0.399360
Si Si2 0.820883 0.833877 0.451154
Si Si3 0.851262 0.398004 0.532451
Si Si4 0.666032 0.838992 0.085222
Si Si5 0.083199 0.487468 0.826059
Si Si6 0.240224 0.661979 0.928049
Si Si7 0.761136 0.399314 0.792221
O O1 0.735484 0.908735 0.488740
O O2 0.428258 0.940069 0.251944
O O3 0.500000 0.000000 0.500000
O O4 0.695225 0.054988 0.393329
O O5 0.776293 0.750000 0.499976
O O6 0.726419 0.834758 0.265958
O O7 0.030979 0.840506 0.508366
O O8 0.773957 0.365662 0.644187
O O9 0.001227 0.460750 0.648576
O O10 0.719457 0.750000 0.051125
O O11 0.452783 0.844987 0.986838
O O12 0.768084 0.919312 0.077968
O O13 0.911669 0.467896 0.848166
O O14 0.147814 0.578263 0.849503
O O15 0.181498 0.750000 0.853301
O O16 0.208972 0.661321 0.076357
#
# Coordination Sequence:
#
# PCOD9157257 Si02
#       7
#     4   4   4   4   4   4   4
#     4  10  18  34  54  78 103 137 171 211 261 321
#     4  10  18  32  53  80 106 131 171 222 265 305
#     4   8  19  33  54  75 103 137 178 207 261 314
#     4   9  18  32  52  78 104 134 176 224 269 306
#     4   9  19  34  50  75 107 141 175 214 265 325
#     4  11  20  32  52  77 105 137 178 224 266 312
#     4   9  19  31  51  76 103 135 177 219 261 311
#
# _framework density 22.423045999999999
#
# number of rings (size 3 to 8) (size 9 to 14) (size 15 to 20)
#    0.857    1.714    1.429    1.286    0.000    1.143 
#    0.000    2.857    0.000    0.857    0.000    1.000 
#    0.000    0.000    0.000    0.000    0.000    0.000 
#
# Total GULP energy -155875.662277 kJ/mol
# GULP energy per Si atom -5566.987938 kJ/mol
# Density = 2.237201 g / cm^3
# Si number density = 22.423046 Si / 1000 Ang^3
#
#
#
# Elastic Constant Matrix: (Units=GPa)
#
#
# Indices 1 2 3 4 5 6 
#
# 1 87.4748 44.3500 13.4036 0.0000 18.6697 0.0000
# 2 44.3500 156.8119 27.7721 0.0000 18.4663 0.0000
# 3 13.4036 27.7721 27.1489 0.0000 2.8640 0.0000
# 4 0.0000 0.0000 0.0000 12.3823 0.0000 -5.4832
# 5 18.6697 18.4663 2.8640 0.0000 25.7706 0.0000
# 6 0.0000 0.0000 0.0000 -5.4832 0.0000 18.3165
#
#
#
# Elastic Compliance Matrix: (Units=1/GPa)
#
#
# Indices 1 2 3 4 5 6 
#
# 1 0.015206 -0.002572 -0.003955 0.000000 -0.008734 0.000000
# 2 -0.002572 0.008844 -0.007392 0.000000 -0.003653 0.000000
# 3 -0.003955 -0.007392 0.046027 0.000000 0.003047 0.000000
# 4 0.000000 0.000000 0.000000 0.093102 0.000000 0.027871
# 5 -0.008734 -0.003653 0.003047 0.000000 0.047410 0.000000
# 6 0.000000 0.000000 0.000000 0.027871 0.000000 0.062939
#
#
# Mechanical properties :
#
#
# Convention : Reuss Voigt Hill
#
# Bulk Modulus (GPa) = 23.67484 49.16522 36.42003
# Shear Modulus (GPa) = 15.85072 23.68788 19.76930
#
# Velocity S-wave (km/s) = 2.66163 3.25377 2.97248
# Velocity P-wave (km/s) = 4.47514 6.00748 5.29701
#
# Compressibility (1/GPa) = 0.04223894
#
# Stress axis : x y z
#
# Youngs Moduli (GPa) = 65.76471 113.07619 21.72657
#
# Poissons Ratio (x) = 0.29078 0.08593
# Poissons Ratio (y) = 0.16912 0.16060
# Poissons Ratio (z) = 0.26011 0.83583
#
# Static dielectric constant tensor:
#      x y z
#    x 1.850420 0.000000 0.005870 
#    y 0.000000 1.874000 0.000000 
#    z 0.005870 0.000000 1.924770 
# 
# From -- ./inp_files/47509.got.cif
#   From: 2010.05.17/outbox.cif.g08.bks.cpg/sg11_24_cif.got.tgz:47509.got - 2010.06.03 12:22:45.
