data_PCOD9157726
_publ_section_title
;
Structure prediction by ZEFSAII (Michael W. Deem and Ramdas Pophale) SiO2 
 PCOD9157726
Probable space group: P 21/M
;
_chemical_formula_sum "Si O2"
_cell_formula_units_Z 32
_cell_length_a 14.852880
_cell_length_b 18.147349
_cell_length_c 5.412789
_cell_angle_alpha 90.000000
_cell_angle_beta 84.670822
_cell_angle_gamma 90.000000
_cell_volume 1452.658961
_symmetry_space_group_name_H-M "P 21/M"
_symmetry_group_IT_number 11
_symmetry_cell_setting 'monoclinic'
loop_
_space_group_symop_operation_xyz
x,y,z
-x,1/2+y,-z
-x,-y,-z
x,1/2-y,z
loop_
_atom_site_type_symbol
_atom_site_label
_atom_site_fract_x
_atom_site_fract_y
_atom_site_fract_z
Si Si1 0.797726 0.831717 0.930771
Si Si2 0.769079 0.162556 0.703734
Si Si3 0.132682 0.611023 0.819059
Si Si4 0.705427 0.933645 0.618391
Si Si5 0.569801 0.965641 0.290543
Si Si6 0.025470 0.329663 0.441847
Si Si7 0.608229 0.428231 0.895444
Si Si8 0.884368 0.945227 0.292974
O O1 0.780578 0.750000 0.035782
O O2 0.838765 0.887706 0.117418
O O3 0.713525 0.869371 0.815468
O O4 0.875611 0.825113 0.702797
O O5 0.780322 0.250000 0.680738
O O6 0.800630 0.127597 0.433230
O O7 0.665998 0.141424 0.801395
O O8 0.825877 0.133264 0.927369
O O9 0.103437 0.525183 0.827084
O O10 0.044988 0.657292 0.759661
O O11 0.644505 0.914692 0.396853
O O12 0.806711 0.955966 0.519345
O O13 0.656008 0.004749 0.737496
O O14 0.499702 0.925621 0.123230
O O15 0.500000 0.000000 0.500000
O O16 0.618484 0.037858 0.165601
O O17 0.006525 0.250000 0.569156
O O18 0.030074 0.401736 0.614984
#
# Coordination Sequence:
#
# PCOD9157726 Si02
#       8
#     4   4   4   4   4   4   4   4
#     4  10  22  37  58  88 126 168 214 271 336 391
#     4  12  26  44  67  97 135 178 218 274 337 392
#     4  12  26  44  68  96 129 175 228 275 327 400
#     4  10  18  36  59  90 120 161 207 262 317 388
#     4   9  19  34  63  93 120 158 205 259 317 382
#     4  10  23  41  60  90 129 171 217 274 335 392
#     4  10  20  38  62  93 126 163 216 263 319 392
#     4  11  22  38  65  91 124 169 220 272 324 388
#
# _framework density 22.028569000000001
#
# number of rings (size 3 to 8) (size 9 to 14) (size 15 to 20)
#    0.000    1.500    1.250    4.125    5.250    1.000 
#    0.000    0.625    0.000    9.750    0.000    0.000 
#    0.000    0.000    0.000    0.000    0.000    0.000 
#
# Total GULP energy -178559.814486 kJ/mol
# GULP energy per Si atom -5579.994203 kJ/mol
# Density = 2.197843 g / cm^3
# Si number density = 22.028569 Si / 1000 Ang^3
#
#
#
# Elastic Constant Matrix: (Units=GPa)
#
#
# Indices 1 2 3 4 5 6 
#
# 1 57.7880 -2.8978 -0.4364 0.0000 7.0037 0.0000
# 2 -2.8978 122.6074 9.2137 0.0000 2.8025 0.0000
# 3 -0.4364 9.2137 66.2544 0.0000 2.8319 0.0000
# 4 0.0000 0.0000 0.0000 25.6425 0.0000 -1.9347
# 5 7.0037 2.8025 2.8319 0.0000 31.8644 0.0000
# 6 0.0000 0.0000 0.0000 -1.9347 0.0000 -4.7571
#
#
#
# Elastic Compliance Matrix: (Units=1/GPa)
#
#
# Indices 1 2 3 4 5 6 
#
# 1 0.017813 0.000496 0.000218 0.000000 -0.003978 0.000000
# 2 0.000496 0.008268 -0.001115 0.000000 -0.000737 0.000000
# 3 0.000218 -0.001115 0.015306 0.000000 -0.001310 0.000000
# 4 0.000000 0.000000 0.000000 0.037837 0.000000 -0.015388
# 5 -0.003978 -0.000737 -0.001310 0.000000 0.032439 0.000000
# 6 0.000000 0.000000 0.000000 -0.015388 0.000000 -0.203954
#
#
# Mechanical properties :
#
#
# Convention : Reuss Voigt Hill
#
# Bulk Modulus (GPa) = 24.63938 28.71207 26.67573
# Shear Modulus (GPa) = -64.13486 26.60133 -18.76677
#
# Velocity S-wave (km/s) = -5.40163 3.47880 -2.92195
# Velocity P-wave (km/s) = 5.26251 5.40355 0.86729
#
# Compressibility (1/GPa) = 0.04058544
#
# Stress axis : x y z
#
# Youngs Moduli (GPa) = 56.13788 120.94138 65.33447
#
# Poissons Ratio (x) = -0.05993 -0.01427
# Poissons Ratio (y) = -0.02782 0.07285
# Poissons Ratio (z) = -0.01226 0.13486
#
# Static dielectric constant tensor:
#      x y z
#    x 1.853940 0.000000 0.023070 
#    y 0.000000 1.866520 0.000000 
#    z 0.023070 0.000000 1.942000 
# 
# From -- ./inp_files/6840.got.cif
#   From: 2010.05.17/outbox.cif.g08.bks.cpg/sg11_4_cif.got.tgz:6840.got - 2010.06.03 12:22:45.
