data_PCOD9157606
_publ_section_title
;
Structure prediction by ZEFSAII (Michael W. Deem and Ramdas Pophale) SiO2 
 PCOD9157606
Probable space group: P 21/M
;
_chemical_formula_sum "Si O2"
_cell_formula_units_Z 32
_cell_length_a 16.071438
_cell_length_b 14.400084
_cell_length_c 9.348956
_cell_angle_alpha 90.000000
_cell_angle_beta 131.162892
_cell_angle_gamma 90.000000
_cell_volume 1628.869707
_symmetry_space_group_name_H-M "P 21/M"
_symmetry_group_IT_number 11
_symmetry_cell_setting 'monoclinic'
loop_
_space_group_symop_operation_xyz
x,y,z
-x,1/2+y,-z
-x,-y,-z
x,1/2-y,z
loop_
_atom_site_type_symbol
_atom_site_label
_atom_site_fract_x
_atom_site_fract_y
_atom_site_fract_z
Si Si1 0.949728 0.639463 0.998893
Si Si2 0.601328 0.597058 0.549084
Si Si3 0.581206 0.112448 0.455277
Si Si4 0.221383 0.033144 0.014542
Si Si5 0.459468 0.645103 0.914758
Si Si6 0.815270 0.143411 0.851709
Si Si7 0.787603 0.646209 0.552096
Si Si8 0.684656 0.966719 0.194439
O O1 0.944007 0.750000 0.019586
O O2 0.882218 0.622908 0.774826
O O3 0.887979 0.586517 0.056160
O O4 0.076040 0.613048 0.112376
O O5 0.494409 0.643094 0.497262
O O6 0.568510 0.499408 0.439425
O O7 0.675826 0.649295 0.520142
O O8 0.680921 0.571920 0.772723
O O9 0.543415 0.148905 0.260897
O O10 0.707528 0.135790 0.630411
O O11 0.257795 0.045171 0.893639
O O12 0.204741 0.926151 0.040249
O O13 0.446259 0.750000 0.956365
O O14 0.364308 0.570965 0.848391
O O15 0.577408 0.600305 0.087925
O O16 0.831431 0.250000 0.914177
O O17 0.808041 0.750000 0.515558
O O18 0.767906 0.567494 0.411915
#
# Coordination Sequence:
#
# PCOD9157606 Si02
#       8
#     4   4   4   4   4   4   4   4
#     4   9  20  39  62  87 113 146 195 247 287 333
#     4   9  18  34  56  86 114 143 186 238 283 338
#     4  10  18  34  58  85 117 147 184 236 290 340
#     4  10  20  37  61  84 114 150 188 240 288 332
#     4  11  23  37  56  82 123 162 186 228 292 348
#     4  10  21  36  60  89 115 147 193 240 291 343
#     4  10  20  36  59  82 113 153 190 237 288 334
#     4  11  23  39  55  86 120 154 196 235 276 349
#
# _framework density 19.645524999999999
#
# number of rings (size 3 to 8) (size 9 to 14) (size 15 to 20)
#    0.000    2.000    2.500    1.125    0.000    2.500 
#    0.000    0.625    0.000    0.000    0.000    0.000 
#    0.000    0.000    0.000    0.000    0.000    0.000 
#
# Total GULP energy -178673.101116 kJ/mol
# GULP energy per Si atom -5583.534410 kJ/mol
# Density = 1.960081 g / cm^3
# Si number density = 19.645525 Si / 1000 Ang^3
#
#
#
# Elastic Constant Matrix: (Units=GPa)
#
#
# Indices 1 2 3 4 5 6 
#
# 1 92.7964 29.2081 37.0173 0.0000 6.6593 0.0000
# 2 29.2081 108.4905 15.4354 0.0000 -3.8344 0.0000
# 3 37.0173 15.4354 36.2394 0.0000 -2.3171 0.0000
# 4 0.0000 0.0000 0.0000 11.9283 0.0000 3.6690
# 5 6.6593 -3.8344 -2.3171 0.0000 32.4294 0.0000
# 6 0.0000 0.0000 0.0000 3.6690 0.0000 0.8175
#
#
#
# Elastic Compliance Matrix: (Units=1/GPa)
#
#
# Indices 1 2 3 4 5 6 
#
# 1 0.019815 -0.002775 -0.019428 0.000000 -0.005785 0.000000
# 2 -0.002775 0.010225 -0.001413 0.000000 0.001678 0.000000
# 3 -0.019428 -0.001413 0.048508 0.000000 0.007288 0.000000
# 4 0.000000 0.000000 0.000000 -0.220361 0.000000 0.988980
# 5 -0.005785 0.001678 0.007288 0.000000 0.032743 0.000000
# 6 0.000000 0.000000 0.000000 0.988980 0.000000 -3.215313
#
#
# Mechanical properties :
#
#
# Convention : Reuss Voigt Hill
#
# Bulk Modulus (GPa) = 31.93419 44.53865 38.23642
# Shear Modulus (GPa) = -1.53059 19.42607 8.94774
#
# Velocity S-wave (km/s) = -0.88363 3.14798 2.13646
# Velocity P-wave (km/s) = 3.90505 5.99445 5.05879
#
# Compressibility (1/GPa) = 0.03131440
#
# Stress axis : x y z
#
# Youngs Moduli (GPa) = 50.46680 97.80097 20.61534
#
# Poissons Ratio (x) = 0.27140 0.40052
# Poissons Ratio (y) = 0.14004 0.02913
# Poissons Ratio (z) = 0.98048 0.13821
#
# Static dielectric constant tensor:
#      x y z
#    x 1.679570 0.000000 0.020220 
#    y 0.000000 1.735040 0.000000 
#    z 0.020220 0.000000 1.670000 
# 
# From -- ./inp_files/22203.got.cif
#   From: 2010.05.17/outbox.cif.g08.bks.cpg/sg11_12_cif.got.tgz:22203.got - 2010.06.03 12:22:45.
