data_PCOD9157245
_publ_section_title
;
Structure prediction by ZEFSAII (Michael W. Deem and Ramdas Pophale) SiO2 
 PCOD9157245
Probable space group: P 21/M
;
_chemical_formula_sum "Si O2"
_cell_formula_units_Z 24
_cell_length_a 13.064396
_cell_length_b 7.710665
_cell_length_c 24.898828
_cell_angle_alpha 90.000000
_cell_angle_beta 29.136519
_cell_angle_gamma 90.000000
_cell_volume 1221.217156
_symmetry_space_group_name_H-M "P 21/M"
_symmetry_group_IT_number 11
_symmetry_cell_setting 'monoclinic'
loop_
_space_group_symop_operation_xyz
x,y,z
-x,1/2+y,-z
-x,-y,-z
x,1/2-y,z
loop_
_atom_site_type_symbol
_atom_site_label
_atom_site_fract_x
_atom_site_fract_y
_atom_site_fract_z
Si Si1 0.097758 0.962977 0.760897
Si Si2 0.866308 0.459744 0.378539
Si Si3 0.754399 0.540895 0.620224
Si Si4 0.487246 0.456695 0.373454
Si Si5 0.704850 0.956483 0.762274
Si Si6 0.373990 0.043870 0.003457
O O1 0.097178 0.750000 0.761426
O O2 0.145574 0.016976 0.677722
O O3 0.283728 0.023271 0.714647
O O4 0.864516 0.022874 0.883624
O O5 0.871846 0.250000 0.375422
O O6 0.672313 0.514081 0.504196
O O7 0.083515 0.523875 0.305919
O O8 0.734938 0.750000 0.628647
O O9 0.619035 0.472550 0.632115
O O10 0.685502 0.475640 0.710523
O O11 0.000000 0.500000 0.500000
O O12 0.508365 0.250000 0.356712
O O13 0.734490 0.750000 0.744101
O O14 0.507398 0.984986 0.891197
O O15 0.360672 0.250000 0.006953
O O16 0.500000 0.000000 0.000000
#
# Coordination Sequence:
#
# PCOD9157245 Si02
#       6
#     4   4   4   4   4   4
#     4   9  19  35  52  74 107 140 169 211 267 312
#     4  10  18  32  53  76 109 141 164 210 270 312
#     4  10  20  34  54  77 105 139 174 216 259 307
#     4  10  20  34  53  78 105 137 177 213 256 315
#     4  10  20  35  53  78 109 138 172 216 264 307
#     4  11  21  36  57  79 105 139 177 217 260 310
#
# _framework density 19.652522000000001
#
# number of rings (size 3 to 8) (size 9 to 14) (size 15 to 20)
#    0.000    2.000    3.333    1.000    0.000    1.333 
#    0.000    2.500    0.000    0.000    0.000    0.000 
#    0.000    0.000    0.000    0.000    0.000    0.000 
#
# Total GULP energy -134015.780206 kJ/mol
# GULP energy per Si atom -5583.990842 kJ/mol
# Density = 1.960779 g / cm^3
# Si number density = 19.652522 Si / 1000 Ang^3
#
#
#
# Elastic Constant Matrix: (Units=GPa)
#
#
# Indices 1 2 3 4 5 6 
#
# 1 183.0993 3.0677 116.9348 0.0000 -13.9317 0.0000
# 2 3.0677 26.3001 -9.2545 0.0000 -3.2777 0.0000
# 3 116.9348 -9.2545 153.5218 0.0000 -5.7140 0.0000
# 4 0.0000 0.0000 0.0000 26.8862 0.0000 3.5027
# 5 -13.9317 -3.2777 -5.7140 0.0000 39.2856 0.0000
# 6 0.0000 0.0000 0.0000 3.5027 0.0000 -0.0568
#
#
#
# Elastic Compliance Matrix: (Units=1/GPa)
#
#
# Indices 1 2 3 4 5 6 
#
# 1 0.011321 -0.004112 -0.008782 0.000000 0.002394 0.000000
# 2 -0.004112 0.040854 0.005698 0.000000 0.002779 0.000000
# 3 -0.008782 0.005698 0.013521 0.000000 -0.000672 0.000000
# 4 0.000000 0.000000 0.000000 0.004119 0.000000 0.253875
# 5 0.002394 0.002779 -0.000672 0.000000 0.026438 0.000000
# 6 0.000000 0.000000 0.000000 0.253875 0.000000 -1.948708
#
#
# Mechanical properties :
#
#
# Convention : Reuss Voigt Hill
#
# Bulk Modulus (GPa) = 19.49142 64.93523 42.21333
# Shear Modulus (GPa) = -2.74580 30.03456 13.64438
#
# Velocity S-wave (km/s) = -1.18330 3.91356 2.63778
# Velocity P-wave (km/s) = 2.84123 7.31674 5.55010
#
# Compressibility (1/GPa) = 0.05130461
#
# Stress axis : x y z
#
# Youngs Moduli (GPa) = 88.33149 24.47755 73.95833
#
# Poissons Ratio (x) = 0.10066 0.64948
# Poissons Ratio (y) = 0.36324 -0.42144
# Poissons Ratio (z) = 0.77571 -0.13948
#
# Static dielectric constant tensor:
#      x y z
#    x 1.695510 0.000000 -0.014830 
#    y 0.000000 1.732090 0.000000 
#    z -0.014830 0.000000 1.650210 
# 
# From -- ./inp_files/33673.got.cif
#   From: 2010.05.17/outbox.cif.g08.bks.cpg/sg11_17_cif.got.tgz:33673.got - 2010.06.03 12:22:45.
