data_PCOD9157186
_publ_section_title
;
Structure prediction by ZEFSAII (Michael W. Deem and Ramdas Pophale) SiO2 
 PCOD9157186
Probable space group: P 21/M
;
_chemical_formula_sum "Si O2"
_cell_formula_units_Z 32
_cell_length_a 17.487657
_cell_length_b 7.223663
_cell_length_c 17.236204
_cell_angle_alpha 90.000000
_cell_angle_beta 32.977984
_cell_angle_gamma 90.000000
_cell_volume 1185.174818
_symmetry_space_group_name_H-M "P 21/M"
_symmetry_group_IT_number 11
_symmetry_cell_setting 'monoclinic'
loop_
_space_group_symop_operation_xyz
x,y,z
-x,1/2+y,-z
-x,-y,-z
x,1/2-y,z
loop_
_atom_site_type_symbol
_atom_site_label
_atom_site_fract_x
_atom_site_fract_y
_atom_site_fract_z
Si Si1 0.309451 0.024950 0.217672
Si Si2 0.730353 0.526592 0.313860
Si Si3 0.646352 0.975689 0.558865
Si Si4 0.122820 0.474999 0.509331
Si Si5 0.034556 0.973182 0.079813
Si Si6 0.890352 0.025949 0.816712
Si Si7 0.655324 0.037679 0.213416
Si Si8 0.400562 0.542031 0.966918
O O1 0.314256 0.250000 0.208391
O O2 0.172691 0.967439 0.381734
O O3 0.336220 0.952083 0.109226
O O4 0.445317 0.963406 0.152435
O O5 0.728356 0.750000 0.315121
O O6 0.689393 0.467476 0.435226
O O7 0.634406 0.462930 0.324465
O O8 0.891799 0.462222 0.161252
O O9 0.645846 0.750000 0.559587
O O10 0.757212 0.029733 0.530318
O O11 0.484758 0.036897 0.707635
O O12 0.120447 0.250000 0.511105
O O13 0.974172 0.538600 0.669847
O O14 0.036034 0.750000 0.069742
O O15 0.018949 0.013163 0.184702
O O16 0.189481 0.045413 0.928261
O O17 0.879011 0.250000 0.821851
O O18 0.731943 0.956856 0.963727
O O19 0.668304 0.250000 0.176335
O O20 0.423675 0.750000 0.917869
#
# Coordination Sequence:
#
# PCOD9157186 Si02
#       8
#     4   4   4   4   4   4   4   4
#     4   9  18  31  49  73  98 123 151 187 229 272
#     4  10  18  32  50  66  91 126 156 186 231 284
#     4   9  17  29  46  70  95 119 153 196 235 268
#     4   9  16  28  47  71  95 120 155 196 230 264
#     4   9  17  29  46  70  95 119 153 196 235 268
#     4   9  16  28  47  71  95 120 155 196 230 264
#     4  10  20  30  46  72  95 118 152 196 237 272
#     4   9  18  31  49  73  98 123 151 187 229 272
#
# _framework density 27.000238
#
# number of rings (size 3 to 8) (size 9 to 14) (size 15 to 20)
#    0.000    2.750    1.250    0.750    1.750    0.500 
#    0.000    0.000    0.000    3.000    0.000    0.000 
#    0.000    0.000    0.000    0.000    0.000    0.000 
#
# Total GULP energy -178993.592436 kJ/mol
# GULP energy per Si atom -5593.549764 kJ/mol
# Density = 2.693878 g / cm^3
# Si number density = 27.000238 Si / 1000 Ang^3
#
#
#
# Elastic Constant Matrix: (Units=GPa)
#
#
# Indices 1 2 3 4 5 6 
#
# 1 77.1827 -5.2211 -4.3273 0.0000 -8.4047 0.0000
# 2 -5.2211 138.3085 -3.4558 0.0000 -0.1009 0.0000
# 3 -4.3273 -3.4558 116.6108 0.0000 -0.1631 0.0000
# 4 0.0000 0.0000 0.0000 -8.4873 0.0000 8.1690
# 5 -8.4047 -0.1009 -0.1631 0.0000 54.0781 0.0000
# 6 0.0000 0.0000 0.0000 8.1690 0.0000 -0.5030
#
#
#
# Elastic Compliance Matrix: (Units=1/GPa)
#
#
# Indices 1 2 3 4 5 6 
#
# 1 0.013244 0.000514 0.000510 0.000000 0.002061 0.000000
# 2 0.000514 0.007256 0.000234 0.000000 0.000094 0.000000
# 3 0.000510 0.000234 0.008602 0.000000 0.000106 0.000000
# 4 0.000000 0.000000 0.000000 0.008053 0.000000 0.130780
# 5 0.002061 0.000094 0.000106 0.000000 0.018813 0.000000
# 6 0.000000 0.000000 0.000000 0.130780 0.000000 0.135875
#
#
# Mechanical properties :
#
#
# Convention : Reuss Voigt Hill
#
# Bulk Modulus (GPa) = 31.62840 34.01040 32.81940
# Shear Modulus (GPa) = 25.01693 32.02463 28.52078
#
# Velocity S-wave (km/s) = 3.04722 3.44770 3.25363
# Velocity P-wave (km/s) = 4.91124 5.33596 5.12800
#
# Compressibility (1/GPa) = 0.03161716
#
# Stress axis : x y z
#
# Youngs Moduli (GPa) = 75.50564 137.82558 116.25836
#
# Poissons Ratio (x) = -0.07087 -0.05924
# Poissons Ratio (y) = -0.03882 -0.02723
# Poissons Ratio (z) = -0.03848 -0.03228
#
# Static dielectric constant tensor:
#      x y z
#    x 2.070650 0.000000 0.024090 
#    y 0.000000 2.047650 0.000000 
#    z 0.024090 0.000000 2.111300 
# 
# From -- ./inp_files/26394.got.cif
#   From: 2010.05.17/outbox.cif.g08.bks.cpg/sg11_14_cif.got.tgz:26394.got - 2010.06.03 12:22:45.
