data_PCOD9157796
_publ_section_title
;
Structure prediction by ZEFSAII (Michael W. Deem and Ramdas Pophale) SiO2 
 PCOD9157796
Probable space group: P 21/M
;
_chemical_formula_sum "Si O2"
_cell_formula_units_Z 28
_cell_length_a 8.725400
_cell_length_b 30.193468
_cell_length_c 5.271217
_cell_angle_alpha 90.000000
_cell_angle_beta 54.453184
_cell_angle_gamma 90.000000
_cell_volume 1129.905012
_symmetry_space_group_name_H-M "P 21/M"
_symmetry_group_IT_number 11
_symmetry_cell_setting 'monoclinic'
loop_
_space_group_symop_operation_xyz
x,y,z
-x,1/2+y,-z
-x,-y,-z
x,1/2-y,z
loop_
_atom_site_type_symbol
_atom_site_label
_atom_site_fract_x
_atom_site_fract_y
_atom_site_fract_z
Si Si1 0.335875 0.250000 0.898320
Si Si2 0.747245 0.656415 0.241670
Si Si3 0.253878 0.892929 0.468614
Si Si4 0.380891 0.433160 0.943156
Si Si5 0.593882 0.250000 0.155114
Si Si6 0.115126 0.988043 0.134981
Si Si7 0.643641 0.158651 0.129610
Si Si8 0.062771 0.097397 0.573221
O O1 0.442486 0.250000 0.067634
O O2 0.231938 0.201876 0.944098
O O3 0.496493 0.250000 0.525699
O O4 0.575807 0.666214 0.598627
O O5 0.909466 0.639692 0.277158
O O6 0.679173 0.611472 0.156722
O O7 0.285305 0.867079 0.694870
O O8 0.035637 0.896976 0.606447
O O9 0.392989 0.935229 0.311598
O O10 0.335144 0.865170 0.155304
O O11 0.297670 0.481047 0.948945
O O12 0.269888 0.423522 0.317174
O O13 0.723967 0.207163 0.016818
O O14 0.093824 0.935198 0.154113
O O15 0.000000 0.000000 0.500000
O O16 0.000000 0.000000 0.000000
#
# Coordination Sequence:
#
# PCOD9157796 Si02
#       8
#     2   4   4   4   2   4   4   4
#     4  10  22  32  62  99 113 160 212 246 304 380
#     4  10  20  38  64  85 127 161 205 254 312 362
#     4  11  24  37  62  93 122 161 210 244 315 369
#     4  10  21  41  64  87 126 165 210 255 309 366
#     4  10  18  38  62  87 123 156 210 258 304 360
#     4  10  21  37  62  92 118 163 213 248 309 370
#     4  10  21  39  60  91 118 162 208 252 305 372
#     4  11  23  39  64  90 129 164 203 262 310 367
#
# _framework density 24.780842
#
# number of rings (size 3 to 8) (size 9 to 14) (size 15 to 20)
#    0.000    1.714    2.857    2.571    4.000    0.571 
#    0.000    1.429    0.000    6.000    0.000    0.000 
#    0.000    0.000    0.000    0.000    0.000    0.000 
#
# Total GULP energy -156109.659774 kJ/mol
# GULP energy per Si atom -5575.344992 kJ/mol
# Density = 2.472444 g / cm^3
# Si number density = 24.780842 Si / 1000 Ang^3
#
#
#
# Elastic Constant Matrix: (Units=GPa)
#
#
# Indices 1 2 3 4 5 6 
#
# 1 98.9941 24.3871 39.3518 0.0000 13.6346 0.0000
# 2 24.3871 114.0208 23.2215 0.0000 16.7731 0.0000
# 3 39.3518 23.2215 82.2142 0.0000 16.8910 0.0000
# 4 0.0000 0.0000 0.0000 24.4625 0.0000 3.7912
# 5 13.6346 16.7731 16.8910 0.0000 46.1925 0.0000
# 6 0.0000 0.0000 0.0000 3.7912 0.0000 29.6841
#
#
#
# Elastic Compliance Matrix: (Units=1/GPa)
#
#
# Indices 1 2 3 4 5 6 
#
# 1 0.012801 -0.001440 -0.005462 0.000000 -0.001258 0.000000
# 2 -0.001440 0.009769 -0.001544 0.000000 -0.002557 0.000000
# 3 -0.005462 -0.001544 0.015967 0.000000 -0.003666 0.000000
# 4 0.000000 0.000000 0.000000 0.041704 0.000000 -0.005326
# 5 -0.001258 -0.002557 -0.003666 0.000000 0.024289 0.000000
# 6 0.000000 0.000000 0.000000 -0.005326 0.000000 0.034368
#
#
# Mechanical properties :
#
#
# Convention : Reuss Voigt Hill
#
# Bulk Modulus (GPa) = 46.20285 52.12776 49.16530
# Shear Modulus (GPa) = 30.67360 33.95240 32.31300
#
# Velocity S-wave (km/s) = 3.52205 3.70551 3.61494
# Velocity P-wave (km/s) = 5.93505 6.27606 6.10794
#
# Compressibility (1/GPa) = 0.02164369
#
# Stress axis : x y z
#
# Youngs Moduli (GPa) = 78.11938 102.36291 62.62933
#
# Poissons Ratio (x) = 0.14745 0.34207
# Poissons Ratio (y) = 0.11253 0.09673
# Poissons Ratio (z) = 0.42667 0.15809
#
# Static dielectric constant tensor:
#      x y z
#    x 2.135020 0.000000 0.020300 
#    y 0.000000 2.392010 0.000000 
#    z 0.020300 0.000000 2.032090 
# 
# From -- ./inp_files/3353.got.cif
#   From: 2010.05.17/outbox.cif.g08.bks.cpg/sg11_2_cif.got.tgz:3353.got - 2010.06.03 12:22:45.
