data_PCOD9157270
_publ_section_title
;
Structure prediction by ZEFSAII (Michael W. Deem and Ramdas Pophale) SiO2 
 PCOD9157270
Probable space group: P 21/M
;
_chemical_formula_sum "Si O2"
_cell_formula_units_Z 32
_cell_length_a 20.686888
_cell_length_b 7.532799
_cell_length_c 11.969976
_cell_angle_alpha 90.000000
_cell_angle_beta 131.042640
_cell_angle_gamma 90.000000
_cell_volume 1406.836137
_symmetry_space_group_name_H-M "P 21/M"
_symmetry_group_IT_number 11
_symmetry_cell_setting 'monoclinic'
loop_
_space_group_symop_operation_xyz
x,y,z
-x,1/2+y,-z
-x,-y,-z
x,1/2-y,z
loop_
_atom_site_type_symbol
_atom_site_label
_atom_site_fract_x
_atom_site_fract_y
_atom_site_fract_z
Si Si1 0.029903 0.965361 0.353483
Si Si2 0.166564 0.954940 0.872112
Si Si3 0.419238 0.960389 0.329544
Si Si4 0.916752 0.462498 0.830275
Si Si5 0.766762 0.032042 0.815648
Si Si6 0.369159 0.546379 0.785697
Si Si7 0.543618 0.959761 0.886373
Si Si8 0.196357 0.968744 0.669760
O O1 0.023990 0.750000 0.348229
O O2 0.063561 0.026618 0.271109
O O3 0.102304 0.020788 0.522792
O O4 0.934947 0.036740 0.262148
O O5 0.194072 0.750000 0.908051
O O6 0.209802 0.033242 0.811366
O O7 0.190438 0.028957 0.019244
O O8 0.410999 0.750000 0.312968
O O9 0.331630 0.026676 0.288123
O O10 0.500000 0.000000 0.500000
O O11 0.429747 0.019380 0.212259
O O12 0.908669 0.250000 0.813355
O O13 0.829657 0.529301 0.788755
O O14 0.000000 0.500000 0.000000
O O15 0.767854 0.250000 0.812241
O O16 0.360207 0.750000 0.738030
O O17 0.446839 0.470429 0.800672
O O18 0.273773 0.469362 0.679204
O O19 0.399386 0.543301 0.950129
O O20 0.543724 0.750000 0.911753
O O21 0.197851 0.750000 0.671554
#
# Coordination Sequence:
#
# PCOD9157270 Si02
#       8
#     4   4   4   4   4   4   4   4
#     4  10  20  32  49  76 106 136 171 221 273 315
#     4  10  18  32  54  75 101 138 178 215 258 321
#     4  11  23  40  60  83 114 150 190 236 284 339
#     4  10  19  34  55  77 103 137 180 226 269 319
#     4   9  19  35  57  79 100 140 188 221 267 334
#     4   9  18  35  59  82 107 146 189 228 273 334
#     4  10  20  35  58  86 113 143 183 232 285 337
#     4   9  18  32  51  76 105 140 182 218 260 321
#
# _framework density 22.746074
#
# number of rings (size 3 to 8) (size 9 to 14) (size 15 to 20)
#    0.000    2.250    1.250    1.875    0.000    3.500 
#    0.000    8.750    0.000    1.500    0.000    0.000 
#    0.000    0.000    0.000    0.000    0.000    0.000 
#
# Total GULP energy -178679.775816 kJ/mol
# GULP energy per Si atom -5583.742994 kJ/mol
# Density = 2.269430 g / cm^3
# Si number density = 22.746074 Si / 1000 Ang^3
#
#
#
# Elastic Constant Matrix: (Units=GPa)
#
#
# Indices 1 2 3 4 5 6 
#
# 1 142.7934 -10.8268 15.8571 0.0000 9.4357 0.0000
# 2 -10.8268 61.9089 -14.2042 0.0000 -3.5969 0.0000
# 3 15.8571 -14.2042 35.2773 0.0000 5.6144 0.0000
# 4 0.0000 0.0000 0.0000 17.3325 0.0000 4.2014
# 5 9.4357 -3.5969 5.6144 0.0000 43.1974 0.0000
# 6 0.0000 0.0000 0.0000 4.2014 0.0000 10.8421
#
#
#
# Elastic Compliance Matrix: (Units=1/GPa)
#
#
# Indices 1 2 3 4 5 6 
#
# 1 0.007451 0.000560 -0.002932 0.000000 -0.001200 0.000000
# 2 0.000560 0.017852 0.006861 0.000000 0.000472 0.000000
# 3 -0.002932 0.006861 0.032916 0.000000 -0.003066 0.000000
# 4 0.000000 0.000000 0.000000 0.063676 0.000000 -0.024675
# 5 -0.001200 0.000472 -0.003066 0.000000 0.023849 0.000000
# 6 0.000000 0.000000 0.000000 -0.024675 0.000000 0.101795
#
#
# Mechanical properties :
#
#
# Convention : Reuss Voigt Hill
#
# Bulk Modulus (GPa) = 14.88167 24.62575 19.75371
# Shear Modulus (GPa) = 19.16006 30.88463 25.02234
#
# Velocity S-wave (km/s) = 2.90547 3.68883 3.32033
# Velocity P-wave (km/s) = 4.22047 5.38453 4.83764
#
# Compressibility (1/GPa) = 0.06719676
#
# Stress axis : x y z
#
# Youngs Moduli (GPa) = 134.21850 56.01485 30.38075
#
# Poissons Ratio (x) = -0.03139 0.08909
# Poissons Ratio (y) = -0.07523 -0.20844
# Poissons Ratio (z) = 0.39359 -0.38432
#
# Static dielectric constant tensor:
#      x y z
#    x 1.830270 0.000000 0.036610 
#    y 0.000000 1.897460 0.000000 
#    z 0.036610 0.000000 1.948400 
# 
# From -- ./inp_files/42912.got.cif
#   From: 2010.05.17/outbox.cif.g08.bks.cpg/sg11_22_cif.got.tgz:42912.got - 2010.06.03 12:22:45.
