data_PCOD9157892
_publ_section_title
;
Structure prediction by ZEFSAII (Michael W. Deem and Ramdas Pophale) SiO2 
 PCOD9157892
Probable space group: P 21/M
;
_chemical_formula_sum "Si O2"
_cell_formula_units_Z 28
_cell_length_a 18.392030
_cell_length_b 8.977142
_cell_length_c 17.057325
_cell_angle_alpha 90.000000
_cell_angle_beta 139.608021
_cell_angle_gamma 90.000000
_cell_volume 1824.998850
_symmetry_space_group_name_H-M "P 21/M"
_symmetry_group_IT_number 11
_symmetry_cell_setting 'monoclinic'
loop_
_space_group_symop_operation_xyz
x,y,z
-x,1/2+y,-z
-x,-y,-z
x,1/2-y,z
loop_
_atom_site_type_symbol
_atom_site_label
_atom_site_fract_x
_atom_site_fract_y
_atom_site_fract_z
Si Si1 0.050287 0.926792 0.162000
Si Si2 0.839891 0.071325 0.899804
Si Si3 0.329622 0.426986 0.819463
Si Si4 0.940491 0.428219 0.210935
Si Si5 0.296237 0.927783 0.067387
Si Si6 0.464254 0.426438 0.091421
Si Si7 0.087409 0.929167 0.631767
O O1 0.046207 0.750000 0.168249
O O2 0.152585 0.963315 0.186474
O O3 0.036340 0.002034 0.234820
O O4 0.940932 0.983372 0.024504
O O5 0.861786 0.250000 0.926037
O O6 0.731483 0.040377 0.864133
O O7 0.315106 0.250000 0.798446
O O8 0.420425 0.489194 0.832653
O O9 0.211742 0.509991 0.717184
O O10 0.383614 0.455023 0.949858
O O11 0.948872 0.250000 0.212440
O O12 0.943440 0.472023 0.304001
O O13 0.818143 0.467888 0.074171
O O14 0.312725 0.750000 0.071670
O O15 0.398972 0.013595 0.113346
O O16 0.483566 0.250000 0.111660
O O17 0.086269 0.750000 0.625816
O O18 0.000000 0.000000 0.500000
#
# Coordination Sequence:
#
# PCOD9157892 Si02
#       7
#     4   4   4   4   4   4   4
#     4   9  15  23  38  57  80 111 149 185 215 258
#     4   8  15  25  35  54  84 117 146 177 219 262
#     4  10  20  33  48  66  89 118 152 188 230 274
#     4   9  18  30  43  59  85 118 149 183 227 271
#     4   9  15  26  42  60  87 120 151 180 220 269
#     4  10  19  29  45  68  92 117 151 190 225 268
#     4  11  22  36  51  67  90 119 154 195 234 272
#
# _framework density 15.342475
#
# number of rings (size 3 to 8) (size 9 to 14) (size 15 to 20)
#    0.000    2.571    1.429    2.571    0.000    5.143 
#    0.000    0.000    0.000    0.000    0.000    0.000 
#    0.000    1.143    0.000    3.429    0.000    5.571 
#
# Total GULP energy -155921.609336 kJ/mol
# GULP energy per Si atom -5568.628905 kJ/mol
# Density = 1.530756 g / cm^3
# Si number density = 15.342475 Si / 1000 Ang^3
#
#
#
# Elastic Constant Matrix: (Units=GPa)
#
#
# Indices 1 2 3 4 5 6 
#
# 1 161.6360 50.2722 45.2907 0.0000 -14.4339 0.0000
# 2 50.2722 36.7897 27.8041 0.0000 0.2622 0.0000
# 3 45.2907 27.8041 48.7533 0.0000 -2.4489 0.0000
# 4 0.0000 0.0000 0.0000 16.8656 0.0000 -0.1231
# 5 -14.4339 0.2622 -2.4489 0.0000 10.9519 0.0000
# 6 0.0000 0.0000 0.0000 -0.1231 0.0000 30.9902
#
#
#
# Elastic Compliance Matrix: (Units=1/GPa)
#
#
# Indices 1 2 3 4 5 6 
#
# 1 0.013803 -0.017559 -0.001895 0.000000 0.018188 0.000000
# 2 -0.017559 0.070695 -0.025540 0.000000 -0.030545 0.000000
# 3 -0.001895 -0.025540 0.037160 0.000000 0.006422 0.000000
# 4 0.000000 0.000000 0.000000 0.059294 0.000000 0.000236
# 5 0.018188 -0.030545 0.006422 0.000000 0.117446 0.000000
# 6 0.000000 0.000000 0.000000 0.000236 0.000000 0.032269
#
#
# Mechanical properties :
#
#
# Convention : Reuss Voigt Hill
#
# Bulk Modulus (GPa) = 31.57560 54.87923 43.22742
# Shear Modulus (GPa) = 11.59519 20.01567 15.80543
#
# Velocity S-wave (km/s) = 2.75209 3.61583 3.21312
# Velocity P-wave (km/s) = 5.54291 7.29928 6.48087
#
# Compressibility (1/GPa) = 0.03167003
#
# Stress axis : x y z
#
# Youngs Moduli (GPa) = 72.44691 14.14530 26.91049
#
# Poissons Ratio (x) = 0.24838 0.05101
# Poissons Ratio (y) = 1.27209 0.68729
# Poissons Ratio (z) = 0.13732 0.36127
#
# Static dielectric constant tensor:
#      x y z
#    x 1.551200 0.000000 -0.023390 
#    y 0.000000 1.509880 0.000000 
#    z -0.023390 0.000000 1.476310 
# 
# From -- ./inp_files/53287.got.cif
#   From: 2010.05.17/outbox.cif.g08.bks.cpg/sg11_27_cif.got.tgz:53287.got - 2010.06.03 12:22:45.
