data_PCOD9157406
_publ_section_title
;
Structure prediction by ZEFSAII (Michael W. Deem and Ramdas Pophale) SiO2 
 PCOD9157406
Probable space group: P 21/M
;
_chemical_formula_sum "Si O2"
_cell_formula_units_Z 32
_cell_length_a 14.654964
_cell_length_b 12.064673
_cell_length_c 14.563256
_cell_angle_alpha 90.000000
_cell_angle_beta 137.662982
_cell_angle_gamma 90.000000
_cell_volume 1734.163737
_symmetry_space_group_name_H-M "P 21/M"
_symmetry_group_IT_number 11
_symmetry_cell_setting 'monoclinic'
loop_
_space_group_symop_operation_xyz
x,y,z
-x,1/2+y,-z
-x,-y,-z
x,1/2-y,z
loop_
_atom_site_type_symbol
_atom_site_label
_atom_site_fract_x
_atom_site_fract_y
_atom_site_fract_z
Si Si1 0.048685 0.086125 0.684724
Si Si2 0.385677 0.623779 0.166080
Si Si3 0.422183 0.617224 0.411002
Si Si4 0.617409 0.122696 0.154393
Si Si5 0.682405 0.544965 0.355401
Si Si6 0.029248 0.364286 0.457330
Si Si7 0.766206 0.127248 0.564050
Si Si8 0.325144 0.464873 0.970341
O O1 0.019095 0.131734 0.560320
O O2 0.925545 0.116252 0.660340
O O3 0.195723 0.102866 0.837464
O O4 0.041852 0.957437 0.654107
O O5 0.340792 0.750000 0.113064
O O6 0.392232 0.608218 0.280647
O O7 0.540886 0.607672 0.246617
O O8 0.306249 0.526417 0.053726
O O9 0.500000 0.500000 0.500000
O O10 0.477261 0.750000 0.464255
O O11 0.286148 0.618068 0.371351
O O12 0.656745 0.250000 0.187144
O O13 0.639601 0.065910 0.072870
O O14 0.695898 0.043666 0.283489
O O15 0.459916 0.109671 0.066822
O O16 0.811493 0.622838 0.444499
O O17 0.693251 0.470072 0.453887
O O18 0.973214 0.250000 0.382251
O O19 0.724519 0.250000 0.498997
#
# Coordination Sequence:
#
# PCOD9157406 Si02
#       8
#     4   4   4   4   4   4   4   4
#     4  10  21  37  49  76 109 144 187 221 263 326
#     4  10  20  34  57  81 109 142 179 227 279 330
#     4  10  20  38  61  88 112 142 183 235 290 335
#     4  10  20  33  52  75 107 146 181 221 264 317
#     4  10  18  33  52  82 112 133 184 214 278 318
#     4  10  20  33  52  75 107 146 181 221 264 317
#     4  10  20  34  57  81 109 142 179 227 279 330
#     4  10  21  37  49  76 109 144 187 221 263 326
#
# _framework density 18.452698000000002
#
# number of rings (size 3 to 8) (size 9 to 14) (size 15 to 20)
#    0.000    2.000    2.500    1.500    0.000    2.000 
#    0.000    0.625    0.000    0.000    0.000    0.000 
#    0.000    0.000    0.000    0.000    0.000    0.000 
#
# Total GULP energy -178172.153735 kJ/mol
# GULP energy per Si atom -5567.879804 kJ/mol
# Density = 1.841070 g / cm^3
# Si number density = 18.452698 Si / 1000 Ang^3
#
#
#
# Elastic Constant Matrix: (Units=GPa)
#
#
# Indices 1 2 3 4 5 6 
#
# 1 85.5544 15.6530 8.7953 0.0000 -9.1719 0.0000
# 2 15.6530 107.4051 1.4123 0.0000 -8.9135 0.0000
# 3 8.7953 1.4123 42.2441 0.0000 1.4370 0.0000
# 4 0.0000 0.0000 0.0000 -39.8445 0.0000 -26.9021
# 5 -9.1719 -8.9135 1.4370 0.0000 29.2901 0.0000
# 6 0.0000 0.0000 0.0000 -26.9021 0.0000 24.5563
#
#
#
# Elastic Compliance Matrix: (Units=1/GPa)
#
#
# Indices 1 2 3 4 5 6 
#
# 1 0.012631 -0.001504 -0.002703 0.000000 0.003630 0.000000
# 2 -0.001504 0.009738 -0.000097 0.000000 0.002497 0.000000
# 3 -0.002703 -0.000097 0.024308 0.000000 -0.002069 0.000000
# 4 0.000000 0.000000 0.000000 -0.014427 0.000000 -0.015805
# 5 0.003630 0.002497 -0.002069 0.000000 0.036139 0.000000
# 6 0.000000 0.000000 0.000000 -0.015805 0.000000 0.023408
#
#
# Mechanical properties :
#
#
# Convention : Reuss Voigt Hill
#
# Bulk Modulus (GPa) = 26.26831 31.88053 29.07442
# Shear Modulus (GPa) = 44.21007 16.75660 30.48333
#
# Velocity S-wave (km/s) = 4.90006 3.01671 4.06885
# Velocity P-wave (km/s) = 6.80298 5.42664 6.15341
#
# Compressibility (1/GPa) = 0.03806868
#
# Stress axis : x y z
#
# Youngs Moduli (GPa) = 79.17233 102.68771 41.13822
#
# Poissons Ratio (x) = 0.15444 0.11119
# Poissons Ratio (y) = 0.11907 0.00401
# Poissons Ratio (z) = 0.21400 0.01000
#
# Static dielectric constant tensor:
#      x y z
#    x 1.646220 0.000000 0.000270 
#    y 0.000000 1.595050 0.000000 
#    z 0.000270 0.000000 1.643140 
# 
# From -- ./inp_files/43168.got.cif
#   From: 2010.05.17/outbox.cif.g08.bks.cpg/sg11_22_cif.got.tgz:43168.got - 2010.06.03 12:22:45.
