data_PCOD9157831
_publ_section_title
;
Structure prediction by ZEFSAII (Michael W. Deem and Ramdas Pophale) SiO2 
 PCOD9157831
Probable space group: P 21/M
;
_chemical_formula_sum "Si O2"
_cell_formula_units_Z 28
_cell_length_a 14.008559
_cell_length_b 9.060945
_cell_length_c 16.658952
_cell_angle_alpha 90.000000
_cell_angle_beta 64.269097
_cell_angle_gamma 90.000000
_cell_volume 1904.862969
_symmetry_space_group_name_H-M "P 21/M"
_symmetry_group_IT_number 11
_symmetry_cell_setting 'monoclinic'
loop_
_space_group_symop_operation_xyz
x,y,z
-x,1/2+y,-z
-x,-y,-z
x,1/2-y,z
loop_
_atom_site_type_symbol
_atom_site_label
_atom_site_fract_x
_atom_site_fract_y
_atom_site_fract_z
Si Si1 0.514836 0.072435 0.685420
Si Si2 0.398568 0.426612 0.494191
Si Si3 0.335162 0.427205 0.050264
Si Si4 0.714767 0.926088 0.307629
Si Si5 0.129461 0.427371 0.030282
Si Si6 0.468039 0.927242 0.135438
Si Si7 0.885247 0.073966 0.135405
O O1 0.525684 0.250000 0.674622
O O2 0.395624 0.036612 0.698120
O O3 0.528355 0.028516 0.772949
O O4 0.598104 0.994669 0.595545
O O5 0.500000 0.500000 0.500000
O O6 0.411271 0.250000 0.486437
O O7 0.303883 0.458658 0.591197
O O8 0.336971 0.250000 0.058984
O O9 0.219993 0.471391 0.060028
O O10 0.374623 0.501216 0.117573
O O11 0.422458 0.466135 0.950265
O O12 0.729597 0.750000 0.293477
O O13 0.810889 0.009967 0.231562
O O14 0.136698 0.250000 0.016597
O O15 0.009805 0.462591 0.101105
O O16 0.147421 0.503234 0.937856
O O17 0.458577 0.750000 0.136185
O O18 0.875310 0.250000 0.134894
#
# Coordination Sequence:
#
# PCOD9157831 Si02
#       7
#     4   4   4   4   4   4   4
#     4   9  17  29  44  62  87 117 142 169 210 254
#     4   9  17  28  42  61  85 113 143 173 208 251
#     4   9  17  30  45  59  82 115 143 169 204 247
#     4   9  17  29  43  60  87 118 140 165 209 255
#     4   9  18  32  45  59  85 116 142 172 212 251
#     4   9  17  28  43  64  86 109 140 173 206 245
#     4  10  19  28  43  66  85 108 145 179 206 244
#
# _framework density 14.699221
#
# number of rings (size 3 to 8) (size 9 to 14) (size 15 to 20)
#    0.000    2.857    0.000    2.571    0.000    6.857 
#    0.000    2.857    0.000    0.000    0.000    1.000 
#    0.000    0.000    0.000    0.000    0.000    0.000 
#
# Total GULP energy -155953.458373 kJ/mol
# GULP energy per Si atom -5569.766370 kJ/mol
# Density = 1.466576 g / cm^3
# Si number density = 14.699221 Si / 1000 Ang^3
#
#
#
# Elastic Constant Matrix: (Units=GPa)
#
#
# Indices 1 2 3 4 5 6 
#
# 1 76.1072 22.6953 45.3106 0.0000 9.6085 0.0000
# 2 22.6953 21.1347 40.0894 0.0000 -0.9219 0.0000
# 3 45.3106 40.0894 128.3483 0.0000 7.4225 0.0000
# 4 0.0000 0.0000 0.0000 29.6104 0.0000 0.8683
# 5 9.6085 -0.9219 7.4225 0.0000 22.3886 0.0000
# 6 0.0000 0.0000 0.0000 0.8683 0.0000 20.8798
#
#
#
# Elastic Compliance Matrix: (Units=1/GPa)
#
#
# Indices 1 2 3 4 5 6 
#
# 1 0.021450 -0.025244 0.000923 0.000000 -0.010551 0.000000
# 2 -0.025244 0.152640 -0.040532 0.000000 0.030557 0.000000
# 3 0.000923 -0.040532 0.020641 0.000000 -0.008908 0.000000
# 4 0.000000 0.000000 0.000000 0.033813 0.000000 -0.001406
# 5 -0.010551 0.030557 -0.008908 0.000000 0.053405 0.000000
# 6 0.000000 0.000000 0.000000 -0.001406 0.000000 0.047952
#
#
# Mechanical properties :
#
#
# Convention : Reuss Voigt Hill
#
# Bulk Modulus (GPa) = 15.37905 49.08676 32.23290
# Shear Modulus (GPa) = 10.38890 22.40875 16.39883
#
# Velocity S-wave (km/s) = 2.66139 3.90870 3.34372
# Velocity P-wave (km/s) = 4.46421 7.33739 6.07316
#
# Compressibility (1/GPa) = 0.06502354
#
# Stress axis : x y z
#
# Youngs Moduli (GPa) = 46.62015 6.55136 48.44762
#
# Poissons Ratio (x) = 0.16538 -0.04471
# Poissons Ratio (y) = 1.17689 1.96368
# Poissons Ratio (z) = -0.04302 0.26554
#
# Static dielectric constant tensor:
#      x y z
#    x 1.472430 0.000000 -0.001050 
#    y 0.000000 1.491080 0.000000 
#    z -0.001050 0.000000 1.495230 
# 
# From -- ./inp_files/51109.got.cif
#   From: 2010.05.17/outbox.cif.g08.bks.cpg/sg11_26_cif.got.tgz:51109.got - 2010.06.03 12:22:45.
