data_PCOD9157235
_publ_section_title
;
Structure prediction by ZEFSAII (Michael W. Deem and Ramdas Pophale) SiO2 
 PCOD9157235
Probable space group: P 21/M
;
_chemical_formula_sum "Si O2"
_cell_formula_units_Z 32
_cell_length_a 30.437174
_cell_length_b 8.623927
_cell_length_c 20.828978
_cell_angle_alpha 90.000000
_cell_angle_beta 17.199782
_cell_angle_gamma 90.000000
_cell_volume 1616.721334
_symmetry_space_group_name_H-M "P 21/M"
_symmetry_group_IT_number 11
_symmetry_cell_setting 'monoclinic'
loop_
_space_group_symop_operation_xyz
x,y,z
-x,1/2+y,-z
-x,-y,-z
x,1/2-y,z
loop_
_atom_site_type_symbol
_atom_site_label
_atom_site_fract_x
_atom_site_fract_y
_atom_site_fract_z
Si Si1 0.883651 0.065448 0.352005
Si Si2 0.453922 0.566099 0.132784
Si Si3 0.352587 0.068339 0.639889
Si Si4 0.183632 0.565760 0.990928
Si Si5 0.425945 0.576364 0.910736
Si Si6 0.385268 0.938005 0.823966
Si Si7 0.762575 0.921192 0.399947
Si Si8 0.134514 0.573035 0.852954
O O1 0.887430 0.250000 0.333341
O O2 0.721970 0.029035 0.608988
O O3 0.878323 0.967373 0.293368
O O4 0.029772 0.017505 0.187345
O O5 0.461518 0.750000 0.121226
O O6 0.567990 0.510268 0.029594
O O7 0.500000 0.500000 0.000000
O O8 0.376470 0.250000 0.618828
O O9 0.478422 0.012661 0.413644
O O10 0.318321 0.981558 0.754310
O O11 0.197638 0.037940 0.819077
O O12 0.162812 0.750000 0.013914
O O13 0.240326 0.529863 0.983486
O O14 0.360941 0.750000 0.008748
O O15 0.375370 0.507501 0.911952
O O16 0.602120 0.592073 0.654108
O O17 0.404947 0.750000 0.802035
O O18 0.794801 0.750000 0.326546
O O19 0.747493 0.057071 0.369622
O O20 0.120509 0.750000 0.893143
O O21 0.000000 0.500000 0.000000
#
# Coordination Sequence:
#
# PCOD9157235 Si02
#       8
#     4   4   4   4   4   4   4   4
#     4  10  21  37  55  80 114 147 182 224 275 332
#     4  10  21  37  61  92 119 143 173 216 270 335
#     4  11  21  37  54  73 105 146 195 245 287 326
#     4  11  22  36  54  79 109 148 196 238 280 327
#     4   9  17  34  58  82 110 143 176 218 273 329
#     4   9  19  36  57  79 108 148 194 239 281 326
#     4  10  18  32  53  74  99 133 173 216 270 328
#     4  12  23  33  46  67  97 134 177 226 280 331
#
# _framework density 19.793144999999999
#
# number of rings (size 3 to 8) (size 9 to 14) (size 15 to 20)
#    0.000    1.750    1.250    4.125    0.000    2.000 
#    0.000    3.125    0.000    0.750    0.000    0.000 
#    0.000    0.000    0.000    0.000    0.000    0.000 
#
# Total GULP energy -178204.992119 kJ/mol
# GULP energy per Si atom -5568.906004 kJ/mol
# Density = 1.974810 g / cm^3
# Si number density = 19.793145 Si / 1000 Ang^3
#
#
#
# Elastic Constant Matrix: (Units=GPa)
#
#
# Indices 1 2 3 4 5 6 
#
# 1 171.1718 31.7438 32.1027 0.0000 -4.7111 0.0000
# 2 31.7438 56.6249 16.7087 0.0000 2.8746 0.0000
# 3 32.1027 16.7087 33.3252 0.0000 -1.5780 0.0000
# 4 0.0000 0.0000 0.0000 21.1900 0.0000 3.2309
# 5 -4.7111 2.8746 -1.5780 0.0000 31.1133 0.0000
# 6 0.0000 0.0000 0.0000 3.2309 0.0000 27.1367
#
#
#
# Elastic Compliance Matrix: (Units=1/GPa)
#
#
# Indices 1 2 3 4 5 6 
#
# 1 0.007432 -0.002491 -0.005861 0.000000 0.001058 0.000000
# 2 -0.002491 0.021749 -0.008639 0.000000 -0.002825 0.000000
# 3 -0.005861 -0.008639 0.040076 0.000000 0.001943 0.000000
# 4 0.000000 0.000000 0.000000 0.048065 0.000000 -0.005723
# 5 0.001058 -0.002825 0.001943 0.000000 0.032660 0.000000
# 6 0.000000 0.000000 0.000000 -0.005723 0.000000 0.037532
#
#
# Mechanical properties :
#
#
# Convention : Reuss Voigt Hill
#
# Bulk Modulus (GPa) = 28.34711 46.91468 37.63089
# Shear Modulus (GPa) = 21.43585 27.92578 24.68082
#
# Velocity S-wave (km/s) = 3.29446 3.76025 3.53503
# Velocity P-wave (km/s) = 5.36880 6.52737 5.97623
#
# Compressibility (1/GPa) = 0.03527697
#
# Stress axis : x y z
#
# Youngs Moduli (GPa) = 134.54806 45.97915 24.95236
#
# Poissons Ratio (x) = 0.11453 0.14624
# Poissons Ratio (y) = 0.33515 0.21556
# Poissons Ratio (z) = 0.78854 0.39720
#
# Static dielectric constant tensor:
#      x y z
#    x 1.780450 0.000000 0.019780 
#    y 0.000000 1.731550 0.000000 
#    z 0.019780 0.000000 1.830000 
# 
# From -- ./inp_files/67397.got.cif
#   From: 2010.05.17/outbox.cif.g08.bks.cpg/sg11_34_cif.got.tgz:67397.got - 2010.06.03 12:22:45.
