data_PCOD9157621
_publ_section_title
;
Structure prediction by ZEFSAII (Michael W. Deem and Ramdas Pophale) SiO2 
 PCOD9157621
Probable space group: P 21/M
;
_chemical_formula_sum "Si O2"
_cell_formula_units_Z 32
_cell_length_a 22.982672
_cell_length_b 14.576223
_cell_length_c 15.883471
_cell_angle_alpha 90.000000
_cell_angle_beta 162.141482
_cell_angle_gamma 90.000000
_cell_volume 1631.769499
_symmetry_space_group_name_H-M "P 21/M"
_symmetry_group_IT_number 11
_symmetry_cell_setting 'monoclinic'
loop_
_space_group_symop_operation_xyz
x,y,z
-x,1/2+y,-z
-x,-y,-z
x,1/2-y,z
loop_
_atom_site_type_symbol
_atom_site_label
_atom_site_fract_x
_atom_site_fract_y
_atom_site_fract_z
Si Si1 0.020592 0.396556 0.060125
Si Si2 0.813476 0.466385 0.130333
Si Si3 0.020013 0.459016 0.238510
Si Si4 0.456582 0.389254 0.040343
Si Si5 0.464690 0.149511 0.681883
Si Si6 0.458361 0.403627 0.859211
Si Si7 0.141915 0.849108 0.333830
Si Si8 0.083376 0.145514 0.625896
O O1 0.241271 0.367671 0.359615
O O2 0.960440 0.398347 0.075213
O O3 0.000000 0.500000 0.000000
O O4 0.901656 0.345960 0.825344
O O5 0.898596 0.450963 0.155092
O O6 0.858807 0.570160 0.223641
O O7 0.916630 0.399739 0.340374
O O8 0.594967 0.433726 0.829202
O O9 0.235422 0.429015 0.555544
O O10 0.033828 0.565004 0.226968
O O11 0.432969 0.499545 0.000500
O O12 0.636144 0.367868 0.345331
O O13 0.505369 0.358814 0.012770
O O14 0.265703 0.350782 0.815652
O O15 0.518403 0.250000 0.721531
O O16 0.490881 0.150063 0.818807
O O17 0.090925 0.750000 0.300654
O O18 0.039500 0.250000 0.593302
#
# Coordination Sequence:
#
# PCOD9157621 Si02
#       8
#     4   4   4   4   4   4   4   4
#     4   9  20  40  64  84 111 151 198 255 304 350
#     4  11  23  40  58  88 127 165 200 250 297 363
#     4   9  19  38  61  83 114 158 197 241 304 354
#     4  10  18  34  59  87 120 155 194 247 302 359
#     4  11  22  38  62  89 119 158 202 250 303 358
#     4   9  18  35  58  86 118 151 197 247 299 353
#     4  10  20  34  59  90 116 147 200 255 302 357
#     4  11  23  37  57  86 128 171 200 239 304 371
#
# _framework density 19.610612
#
# number of rings (size 3 to 8) (size 9 to 14) (size 15 to 20)
#    0.000    2.000    2.500    1.875    0.000    1.500 
#    0.000    4.375    0.000    0.000    0.000    0.000 
#    0.000    0.000    0.000    0.000    0.000    0.000 
#
# Total GULP energy -178466.521273 kJ/mol
# GULP energy per Si atom -5577.078790 kJ/mol
# Density = 1.956598 g / cm^3
# Si number density = 19.610612 Si / 1000 Ang^3
#
#
#
# Elastic Constant Matrix: (Units=GPa)
#
#
# Indices 1 2 3 4 5 6 
#
# 1 89.2811 22.3857 38.0625 0.0000 -2.3342 0.0000
# 2 22.3857 108.4692 20.8288 0.0000 -4.7278 0.0000
# 3 38.0625 20.8288 69.1559 0.0000 -17.2512 0.0000
# 4 0.0000 0.0000 0.0000 -2.4874 0.0000 4.8759
# 5 -2.3342 -4.7278 -17.2512 0.0000 26.8479 0.0000
# 6 0.0000 0.0000 0.0000 4.8759 0.0000 2.3262
#
#
#
# Elastic Compliance Matrix: (Units=1/GPa)
#
#
# Indices 1 2 3 4 5 6 
#
# 1 0.015403 -0.001624 -0.009201 0.000000 -0.004859 0.000000
# 2 -0.001624 0.009957 -0.002028 0.000000 0.000309 0.000000
# 3 -0.009201 -0.002028 0.023634 0.000000 0.014029 0.000000
# 4 0.000000 0.000000 0.000000 -0.078691 0.000000 0.164946
# 5 -0.004859 0.000309 0.014029 0.000000 0.045893 0.000000
# 6 0.000000 0.000000 0.000000 0.164946 0.000000 0.084146
#
#
# Mechanical properties :
#
#
# Convention : Reuss Voigt Hill
#
# Bulk Modulus (GPa) = 42.93753 47.71783 45.32768
# Shear Modulus (GPa) = 37.36581 17.71260 27.53921
#
# Velocity S-wave (km/s) = 4.36981 3.00861 3.75147
# Velocity P-wave (km/s) = 6.88498 6.03776 6.47524
#
# Compressibility (1/GPa) = 0.02328965
#
# Stress axis : x y z
#
# Youngs Moduli (GPa) = 64.92183 100.42918 42.31106
#
# Poissons Ratio (x) = 0.16309 0.38929
# Poissons Ratio (y) = 0.10543 0.08581
# Poissons Ratio (z) = 0.59732 0.20368
#
# Static dielectric constant tensor:
#      x y z
#    x 1.683060 0.000000 -0.021500 
#    y 0.000000 1.766900 0.000000 
#    z -0.021500 0.000000 1.680370 
# 
# From -- ./inp_files/55043.got.cif
#   From: 2010.05.17/outbox.cif.g08.bks.cpg/sg11_28_cif.got.tgz:55043.got - 2010.06.03 12:22:45.
