data_PCOD9157884
_publ_section_title
;
Structure prediction by ZEFSAII (Michael W. Deem and Ramdas Pophale) SiO2 
 PCOD9157884
Probable space group: P 21/M
;
_chemical_formula_sum "Si O2"
_cell_formula_units_Z 32
_cell_length_a 26.877293
_cell_length_b 8.716943
_cell_length_c 14.060270
_cell_angle_alpha 90.000000
_cell_angle_beta 147.244844
_cell_angle_gamma 90.000000
_cell_volume 1782.300451
_symmetry_space_group_name_H-M "P 21/M"
_symmetry_group_IT_number 11
_symmetry_cell_setting 'monoclinic'
loop_
_space_group_symop_operation_xyz
x,y,z
-x,1/2+y,-z
-x,-y,-z
x,1/2-y,z
loop_
_atom_site_type_symbol
_atom_site_label
_atom_site_fract_x
_atom_site_fract_y
_atom_site_fract_z
Si Si1 0.230170 0.434057 0.879163
Si Si2 0.615046 0.433415 0.988342
Si Si3 0.894946 0.064933 0.930841
Si Si4 0.872606 0.064560 0.102663
Si Si5 0.051932 0.434634 0.491542
Si Si6 0.547264 0.066362 0.171142
Si Si7 0.891039 0.932516 0.724844
Si Si8 0.274548 0.566283 0.643478
O O1 0.234989 0.250000 0.886926
O O2 0.328084 0.504147 0.009360
O O3 0.188267 0.490677 0.912011
O O4 0.156470 0.485258 0.678428
O O5 0.611280 0.250000 0.981255
O O6 0.674702 0.481940 0.177707
O O7 0.512845 0.498815 0.839942
O O8 0.891695 0.250000 0.917040
O O9 0.858139 0.992155 0.775005
O O10 0.848294 0.021581 0.955697
O O11 0.002587 0.018346 0.112058
O O12 0.866401 0.250000 0.101401
O O13 0.980696 0.022601 0.294079
O O14 0.054053 0.250000 0.496487
O O15 0.000000 0.500000 0.500000
O O16 0.539473 0.250000 0.158383
O O17 0.654359 0.027121 0.328077
O O18 0.500000 0.000000 0.000000
O O19 0.889651 0.750000 0.719445
O O20 0.823615 0.993940 0.535422
O O21 0.265249 0.750000 0.631578
#
# Coordination Sequence:
#
# PCOD9157884 Si02
#       8
#     4   4   4   4   4   4   4   4
#     4  10  19  29  44  68  96 125 159 199 237 280
#     4  10  20  32  47  70 100 132 163 195 234 282
#     4   9  19  34  50  67  94 128 161 202 246 281
#     4   9  17  31  48  63  88 126 163 198 238 283
#     4   8  15  26  40  58  84 116 153 191 226 268
#     4   9  17  31  49  70  97 127 158 194 237 284
#     4  10  20  32  50  73  95 122 160 203 242 285
#     4   9  19  33  49  70  97 127 158 193 238 286
#
# _framework density 17.954322999999999
#
# number of rings (size 3 to 8) (size 9 to 14) (size 15 to 20)
#    0.000    2.750    0.000    2.250    1.750    4.500 
#    0.000    0.000    0.000    0.000    0.000    0.875 
#    0.000    0.000    0.000    0.000    0.000    0.000 
#
# Total GULP energy -178220.802711 kJ/mol
# GULP energy per Si atom -5569.400085 kJ/mol
# Density = 1.791346 g / cm^3
# Si number density = 17.954323 Si / 1000 Ang^3
#
#
#
# Elastic Constant Matrix: (Units=GPa)
#
#
# Indices 1 2 3 4 5 6 
#
# 1 84.5804 15.3814 3.7494 0.0000 8.6396 0.0000
# 2 15.3814 18.9995 6.1659 0.0000 4.7186 0.0000
# 3 3.7494 6.1659 21.6710 0.0000 2.3699 0.0000
# 4 0.0000 0.0000 0.0000 21.3587 0.0000 1.2559
# 5 8.6396 4.7186 2.3699 0.0000 29.4514 0.0000
# 6 0.0000 0.0000 0.0000 1.2559 0.0000 20.6840
#
#
#
# Elastic Compliance Matrix: (Units=1/GPa)
#
#
# Indices 1 2 3 4 5 6 
#
# 1 0.014043 -0.011089 0.000990 0.000000 -0.002423 0.000000
# 2 -0.011089 0.068690 -0.016927 0.000000 -0.006390 0.000000
# 3 0.000990 -0.016927 0.050973 0.000000 -0.001680 0.000000
# 4 0.000000 0.000000 0.000000 0.046987 0.000000 -0.002853
# 5 -0.002423 -0.006390 -0.001680 0.000000 0.035824 0.000000
# 6 0.000000 0.000000 0.000000 -0.002853 0.000000 0.048520
#
#
# Mechanical properties :
#
#
# Convention : Reuss Voigt Hill
#
# Bulk Modulus (GPa) = 12.55389 19.53824 16.04607
# Shear Modulus (GPa) = 14.46592 20.96243 17.71417
#
# Velocity S-wave (km/s) = 2.84158 3.42064 3.14447
# Velocity P-wave (km/s) = 4.21585 5.14848 4.70533
#
# Compressibility (1/GPa) = 0.07965658
#
# Stress axis : x y z
#
# Youngs Moduli (GPa) = 71.20895 14.55806 19.61817
#
# Poissons Ratio (x) = 0.16143 -0.01943
# Poissons Ratio (y) = 0.78961 0.33207
# Poissons Ratio (z) = -0.07052 0.24642
#
# Static dielectric constant tensor:
#      x y z
#    x 1.669720 0.000000 0.013460 
#    y 0.000000 1.595910 0.000000 
#    z 0.013460 0.000000 1.626370 
# 
# From -- ./inp_files/56204.got.cif
#   From: 2010.05.17/outbox.cif.g08.bks.cpg/sg11_29_cif.got.tgz:56204.got - 2010.06.03 12:22:45.
