data_PCOD9157378
_publ_section_title
;
Structure prediction by ZEFSAII (Michael W. Deem and Ramdas Pophale) SiO2 
 PCOD9157378
Probable space group: P 21/M
;
_chemical_formula_sum "Si O2"
_cell_formula_units_Z 26
_cell_length_a 9.245900
_cell_length_b 20.599784
_cell_length_c 11.475529
_cell_angle_alpha 90.000000
_cell_angle_beta 36.659569
_cell_angle_gamma 90.000000
_cell_volume 1304.974376
_symmetry_space_group_name_H-M "P 21/M"
_symmetry_group_IT_number 11
_symmetry_cell_setting 'monoclinic'
loop_
_space_group_symop_operation_xyz
x,y,z
-x,1/2+y,-z
-x,-y,-z
x,1/2-y,z
loop_
_atom_site_type_symbol
_atom_site_label
_atom_site_fract_x
_atom_site_fract_y
_atom_site_fract_z
Si Si1 0.275389 0.328783 0.979866
Si Si2 0.196122 0.880923 0.358766
Si Si3 0.006248 0.357392 0.930260
Si Si4 0.919727 0.750000 0.496698
Si Si5 0.610725 0.250000 0.201834
Si Si6 0.740112 0.053867 0.935263
Si Si7 0.211832 0.421380 0.222078
Si Si8 0.725443 0.750000 0.375198
O O1 0.279103 0.250000 0.969502
O O2 0.533781 0.360826 0.780068
O O3 0.080390 0.358565 0.016742
O O4 0.222905 0.354146 0.143740
O O5 0.205778 0.909688 0.222191
O O6 0.049141 0.814209 0.452215
O O7 0.036632 0.926117 0.545741
O O8 0.220982 0.314844 0.731882
O O9 0.925994 0.421095 0.912717
O O10 0.771056 0.311863 0.072155
O O11 0.636726 0.750000 0.709749
O O12 0.918751 0.750000 0.356047
O O13 0.525421 0.250000 0.392394
O O14 0.767034 0.978370 0.887442
O O15 0.455138 0.069459 0.142864
#
# Coordination Sequence:
#
# PCOD9157378 Si02
#       8
#     4   4   4   2   2   4   4   2
#     4  11  24  39  55  88 125 160 189 243 306 353
#     4  11  21  39  60  87 120 154 196 246 297 352
#     4  11  20  38  60  82 123 155 190 249 294 347
#     4  10  18  32  57  91 105 146 197 240 291 340
#     4   9  19  31  54  89 113 143 191 238 290 341
#     4  10  21  41  65  86 118 154 205 253 289 350
#     4  10  24  40  61  90 117 160 200 243 304 355
#     4   9  19  33  51  90 110 145 196 234 297 337
#
# _framework density 19.923763000000001
#
# number of rings (size 3 to 8) (size 9 to 14) (size 15 to 20)
#    0.462    1.231    3.846    1.385    1.077    1.846 
#    1.385    0.769    0.000    0.000    0.000    0.000 
#    0.000    0.000    0.000    0.000    0.000    0.000 
#
# Total GULP energy -144998.226062 kJ/mol
# GULP energy per Si atom -5576.854849 kJ/mol
# Density = 1.987842 g / cm^3
# Si number density = 19.923763 Si / 1000 Ang^3
#
#
#
# Elastic Constant Matrix: (Units=GPa)
#
#
# Indices 1 2 3 4 5 6 
#
# 1 58.3074 25.2558 -3.0587 0.0000 -11.7278 0.0000
# 2 25.2558 68.1706 8.5169 0.0000 -5.8994 0.0000
# 3 -3.0587 8.5169 74.4337 0.0000 -7.8699 0.0000
# 4 0.0000 0.0000 0.0000 -14.3655 0.0000 -20.4353
# 5 -11.7278 -5.8994 -7.8699 0.0000 20.8081 0.0000
# 6 0.0000 0.0000 0.0000 -20.4353 0.0000 1.4523
#
#
#
# Elastic Compliance Matrix: (Units=1/GPa)
#
#
# Indices 1 2 3 4 5 6 
#
# 1 0.023163 -0.007935 0.003127 0.000000 0.011988 0.000000
# 2 -0.007935 0.017882 -0.002405 0.000000 -0.000312 0.000000
# 3 0.003127 -0.002405 0.014534 0.000000 0.006578 0.000000
# 4 0.000000 0.000000 0.000000 -0.003312 0.000000 -0.046606
# 5 0.011988 -0.000312 0.006578 0.000000 0.057214 0.000000
# 6 0.000000 0.000000 0.000000 -0.046606 0.000000 0.032763
#
#
# Mechanical properties :
#
#
# Convention : Reuss Voigt Hill
#
# Bulk Modulus (GPa) = 24.29909 29.14884 26.72397
# Shear Modulus (GPa) = 29.34503 12.92550 21.13526
#
# Velocity S-wave (km/s) = 3.84196 2.54982 3.26054
# Velocity P-wave (km/s) = 5.64831 4.83019 5.25519
#
# Compressibility (1/GPa) = 0.04115381
#
# Stress axis : x y z
#
# Youngs Moduli (GPa) = 43.17298 55.92168 68.80446
#
# Poissons Ratio (x) = 0.44371 -0.21517
# Poissons Ratio (y) = 0.34256 0.16548
# Poissons Ratio (z) = -0.13501 0.13450
#
# Static dielectric constant tensor:
#      x y z
#    x 1.700900 0.000000 0.007810 
#    y 0.000000 1.716420 0.000000 
#    z 0.007810 0.000000 1.725260 
# 
# From -- ./inp_files/32977.got.cif
#   From: 2010.05.17/outbox.cif.g08.bks.cpg/sg11_17_cif.got.tgz:32977.got - 2010.06.03 12:22:45.
