data_PCOD9157672
_publ_section_title
;
Structure prediction by ZEFSAII (Michael W. Deem and Ramdas Pophale) SiO2 
 PCOD9157672
Probable space group: P 21/M
;
_chemical_formula_sum "Si O2"
_cell_formula_units_Z 28
_cell_length_a 10.809420
_cell_length_b 18.667718
_cell_length_c 7.483897
_cell_angle_alpha 90.000000
_cell_angle_beta 102.971681
_cell_angle_gamma 90.000000
_cell_volume 1471.617213
_symmetry_space_group_name_H-M "P 21/M"
_symmetry_group_IT_number 11
_symmetry_cell_setting 'monoclinic'
loop_
_space_group_symop_operation_xyz
x,y,z
-x,1/2+y,-z
-x,-y,-z
x,1/2-y,z
loop_
_atom_site_type_symbol
_atom_site_label
_atom_site_fract_x
_atom_site_fract_y
_atom_site_fract_z
Si Si1 0.133198 0.963058 0.493700
Si Si2 0.391410 0.947314 0.710586
Si Si3 0.032655 0.165041 0.586876
Si Si4 0.780421 0.599449 0.644021
Si Si5 0.504133 0.904926 0.380002
Si Si6 0.782010 0.666603 0.030101
Si Si7 0.487987 0.831662 0.024418
O O1 0.242843 0.966113 0.678905
O O2 0.094888 0.881617 0.445385
O O3 0.189973 0.014870 0.360712
O O4 0.000000 0.000000 0.500000
O O5 0.412831 0.914285 0.519551
O O6 0.433022 0.890790 0.872022
O O7 0.473406 0.020305 0.721241
O O8 0.012419 0.250000 0.577118
O O9 0.116084 0.141311 0.442128
O O10 0.117491 0.145275 0.786971
O O11 0.641951 0.612852 0.511543
O O12 0.785817 0.623483 0.848690
O O13 0.456059 0.849015 0.219059
O O14 0.805191 0.750000 0.994331
O O15 0.640666 0.661555 0.063047
O O16 0.453618 0.750000 0.964139
#
# Coordination Sequence:
#
# PCOD9157672 Si02
#       7
#     4   4   4   4   4   4   4
#     4   9  21  39  59  83 109 150 201 235 273 334
#     4  10  21  39  59  83 116 152 187 236 289 338
#     4  10  20  36  56  78 113 153 188 235 286 337
#     4  10  18  35  58  83 113 144 190 242 283 334
#     4  10  20  36  59  86 116 147 187 234 291 346
#     4  10  20  32  54  87 115 145 186 231 290 346
#     4  11  22  35  56  90 122 148 184 233 292 353
#
# _framework density 19.026686999999999
#
# number of rings (size 3 to 8) (size 9 to 14) (size 15 to 20)
#    0.000    2.000    2.857    0.857    0.000    2.286 
#    0.000    2.857    0.000    3.429    0.000    0.000 
#    0.000    0.000    0.000    0.000    0.000    0.000 
#
# Total GULP energy -156166.322220 kJ/mol
# GULP energy per Si atom -5577.368651 kJ/mol
# Density = 1.898338 g / cm^3
# Si number density = 19.026687 Si / 1000 Ang^3
#
#
#
# Elastic Constant Matrix: (Units=GPa)
#
#
# Indices 1 2 3 4 5 6 
#
# 1 43.3228 5.8455 5.8066 0.0000 7.7827 0.0000
# 2 5.8455 60.4714 24.9952 0.0000 2.5570 0.0000
# 3 5.8066 24.9952 55.4216 0.0000 -14.8911 0.0000
# 4 0.0000 0.0000 0.0000 35.8116 0.0000 2.8270
# 5 7.7827 2.5570 -14.8911 0.0000 16.8056 0.0000
# 6 0.0000 0.0000 0.0000 2.8270 0.0000 25.5367
#
#
#
# Elastic Compliance Matrix: (Units=1/GPa)
#
#
# Indices 1 2 3 4 5 6 
#
# 1 0.028088 0.002340 -0.009960 0.000000 -0.022189 0.000000
# 2 0.002340 0.023734 -0.016026 0.000000 -0.018895 0.000000
# 3 -0.009960 -0.016026 0.037024 0.000000 0.039857 0.000000
# 4 0.000000 0.000000 0.000000 0.028170 0.000000 -0.003119
# 5 -0.022189 -0.018895 0.039857 0.000000 0.107971 0.000000
# 6 0.000000 0.000000 0.000000 -0.003119 0.000000 0.039505
#
#
# Mechanical properties :
#
#
# Convention : Reuss Voigt Hill
#
# Bulk Modulus (GPa) = 24.06541 25.83447 24.94994
# Shear Modulus (GPa) = 15.35466 23.80203 19.57834
#
# Velocity S-wave (km/s) = 2.84387 3.54076 3.21127
# Velocity P-wave (km/s) = 4.84346 5.50667 5.18568
#
# Compressibility (1/GPa) = 0.04155341
#
# Stress axis : x y z
#
# Youngs Moduli (GPa) = 35.60251 42.13428 27.00963
#
# Poissons Ratio (x) = -0.09860 0.26902
# Poissons Ratio (y) = -0.08331 0.43285
# Poissons Ratio (z) = 0.35460 0.67524
#
# Static dielectric constant tensor:
#      x y z
#    x 1.694060 0.000000 -0.007280 
#    y 0.000000 1.701070 0.000000 
#    z -0.007280 0.000000 1.651150 
# 
# From -- ./inp_files/5098.got.cif
#   From: 2010.05.17/outbox.cif.g08.bks.cpg/sg11_3_cif.got.tgz:5098.got - 2010.06.03 12:22:45.
