data_PCOD9157383
_publ_section_title
;
Structure prediction by ZEFSAII (Michael W. Deem and Ramdas Pophale) SiO2 
 PCOD9157383
Probable space group: P 21/M
;
_chemical_formula_sum "Si O2"
_cell_formula_units_Z 32
_cell_length_a 23.841689
_cell_length_b 7.600082
_cell_length_c 11.145181
_cell_angle_alpha 90.000000
_cell_angle_beta 38.199223
_cell_angle_gamma 90.000000
_cell_volume 1248.850106
_symmetry_space_group_name_H-M "P 21/M"
_symmetry_group_IT_number 11
_symmetry_cell_setting 'monoclinic'
loop_
_space_group_symop_operation_xyz
x,y,z
-x,1/2+y,-z
-x,-y,-z
x,1/2-y,z
loop_
_atom_site_type_symbol
_atom_site_label
_atom_site_fract_x
_atom_site_fract_y
_atom_site_fract_z
Si Si1 0.808981 0.537015 0.787395
Si Si2 0.141486 0.956626 0.951729
Si Si3 0.369445 0.463228 0.045850
Si Si4 0.306664 0.444871 0.802337
Si Si5 0.965032 0.534522 0.367948
Si Si6 0.355608 0.463947 0.332032
Si Si7 0.529525 0.050562 0.627744
Si Si8 0.855118 0.961617 0.316433
O O1 0.819186 0.750000 0.781035
O O2 0.735391 0.502917 0.806459
O O3 0.906811 0.471162 0.579554
O O4 0.755626 0.463101 0.992442
O O5 0.156771 0.750000 0.942808
O O6 0.237717 0.050587 0.806010
O O7 0.105138 0.982002 0.878514
O O8 0.067810 0.024036 0.171670
O O9 0.378340 0.250000 0.031780
O O10 0.393918 0.522617 0.138189
O O11 0.435067 0.534097 0.830517
O O12 0.317644 0.250000 0.831891
O O13 0.405159 0.493000 0.589386
O O14 0.967547 0.750000 0.365231
O O15 0.909428 0.479800 0.342196
O O16 0.359662 0.250000 0.332643
O O17 0.409889 0.537828 0.353271
O O18 0.250082 0.518130 0.508444
O O19 0.508932 0.250000 0.633644
O O20 0.855230 0.750000 0.320418
#
# Coordination Sequence:
#
# PCOD9157383 Si02
#       8
#     4   4   4   4   4   4   4   4
#     4   9  18  36  59  80 104 139 188 231 266 319
#     4  11  22  35  55  83 116 145 175 221 275 326
#     4   9  18  34  57  85 111 141 179 223 273 322
#     4  11  23  38  57  78 104 145 192 231 266 315
#     4   9  18  34  57  85 111 141 179 223 273 322
#     4  10  18  32  58  85 111 142 178 217 264 326
#     4  11  22  35  55  83 116 145 175 221 275 326
#     4  10  18  32  58  85 111 142 178 217 264 326
#
# _framework density 25.623571999999999
#
# number of rings (size 3 to 8) (size 9 to 14) (size 15 to 20)
#    0.000    2.000    2.500    1.875    0.000    1.000 
#    0.000    1.250    0.000    7.500    0.000    0.000 
#    0.000    0.000    0.000    0.000    0.000    0.000 
#
# Total GULP energy -178893.735430 kJ/mol
# GULP energy per Si atom -5590.429232 kJ/mol
# Density = 2.556525 g / cm^3
# Si number density = 25.623572 Si / 1000 Ang^3
#
#
#
# Elastic Constant Matrix: (Units=GPa)
#
#
# Indices 1 2 3 4 5 6 
#
# 1 66.4229 0.7884 19.1619 0.0000 -4.5088 0.0000
# 2 0.7884 57.5700 10.4801 0.0000 -5.8807 0.0000
# 3 19.1619 10.4801 211.4207 0.0000 -5.1673 0.0000
# 4 0.0000 0.0000 0.0000 13.1984 0.0000 0.1969
# 5 -4.5088 -5.8807 -5.1673 0.0000 52.0410 0.0000
# 6 0.0000 0.0000 0.0000 0.1969 0.0000 5.6953
#
#
#
# Elastic Compliance Matrix: (Units=1/GPa)
#
#
# Indices 1 2 3 4 5 6 
#
# 1 0.015536 0.000165 -0.001386 0.000000 0.001227 0.000000
# 2 0.000165 0.017719 -0.000846 0.000000 0.001933 0.000000
# 3 -0.001386 -0.000846 0.004904 0.000000 0.000271 0.000000
# 4 0.000000 0.000000 0.000000 0.075806 0.000000 -0.002621
# 5 0.001227 0.001933 0.000271 0.000000 0.019567 0.000000
# 6 0.000000 0.000000 0.000000 -0.002621 0.000000 0.175673
#
#
# Mechanical properties :
#
#
# Convention : Reuss Voigt Hill
#
# Bulk Modulus (GPa) = 29.39026 44.03052 36.71039
# Shear Modulus (GPa) = 15.39965 34.51916 24.95941
#
# Velocity S-wave (km/s) = 2.45418 3.67436 3.12441
# Velocity P-wave (km/s) = 4.41878 5.93482 5.23200
#
# Compressibility (1/GPa) = 0.03402487
#
# Stress axis : x y z
#
# Youngs Moduli (GPa) = 64.36538 56.43557 203.91011
#
# Poissons Ratio (x) = -0.00931 0.28268
# Poissons Ratio (y) = -0.01062 0.17252
# Poissons Ratio (z) = 0.08923 0.04775
#
# Static dielectric constant tensor:
#      x y z
#    x 2.020270 0.000000 0.039230 
#    y 0.000000 1.976140 0.000000 
#    z 0.039230 0.000000 2.085610 
# 
# From -- ./inp_files/45110.got.cif
#   From: 2010.05.17/outbox.cif.g08.bks.cpg/sg11_23_cif.got.tgz:45110.got - 2010.06.03 12:22:45.
