data_PCOD9157984
_publ_section_title
;
Structure prediction by ZEFSAII (Michael W. Deem and Ramdas Pophale) SiO2 
 PCOD9157984
Probable space group: P 21/M
;
_chemical_formula_sum "Si O2"
_cell_formula_units_Z 28
_cell_length_a 19.233610
_cell_length_b 7.783604
_cell_length_c 15.321116
_cell_angle_alpha 90.000000
_cell_angle_beta 141.358403
_cell_angle_gamma 90.000000
_cell_volume 1432.278250
_symmetry_space_group_name_H-M "P 21/M"
_symmetry_group_IT_number 11
_symmetry_cell_setting 'monoclinic'
loop_
_space_group_symop_operation_xyz
x,y,z
-x,1/2+y,-z
-x,-y,-z
x,1/2-y,z
loop_
_atom_site_type_symbol
_atom_site_label
_atom_site_fract_x
_atom_site_fract_y
_atom_site_fract_z
Si Si1 0.784814 0.548156 0.071058
Si Si2 0.395320 0.950236 0.230458
Si Si3 0.973783 0.956889 0.375239
Si Si4 0.233323 0.048868 0.225464
Si Si5 0.135871 0.957250 0.381016
Si Si6 0.043182 0.046567 0.923345
Si Si7 0.646652 0.543967 0.485548
O O1 0.762286 0.750000 0.061020
O O2 0.854134 0.480118 0.221646
O O3 0.872623 0.532343 0.076972
O O4 0.671603 0.465908 0.925818
O O5 0.398412 0.750000 0.257819
O O6 0.520984 0.018883 0.349908
O O7 0.321097 0.039337 0.231851
O O8 0.970379 0.750000 0.363978
O O9 0.069109 0.017364 0.400993
O O10 0.000000 0.000000 0.500000
O O11 0.212562 0.250000 0.222094
O O12 0.295269 0.971995 0.369724
O O13 0.115845 0.972644 0.074893
O O14 0.127948 0.750000 0.370856
O O15 0.070775 0.024004 0.229991
O O16 0.264301 0.006206 0.502312
O O17 0.028471 0.250000 0.924950
O O18 0.638866 0.750000 0.486649
#
# Coordination Sequence:
#
# PCOD9157984 Si02
#       7
#     4   4   4   4   4   4   4
#     4   8  15  30  50  70  94 124 154 185 230 283
#     4  10  19  30  45  68  96 124 163 208 237 265
#     4   9  18  33  55  81 102 119 145 186 234 286
#     4   9  17  31  48  64  89 127 166 202 242 282
#     4   9  18  32  48  68  95 125 156 188 229 285
#     4   7  12  26  46  64  86 118 154 192 228 267
#     4  10  21  32  43  65  97 130 162 200 241 275
#
# _framework density 19.549274
#
# number of rings (size 3 to 8) (size 9 to 14) (size 15 to 20)
#    0.000    3.143    0.000    3.429    0.000    3.429 
#    0.000    5.714    0.000    0.857    0.000    0.000 
#    0.000    0.000    0.000    0.000    0.000    0.000 
#
# Total GULP energy -156037.438997 kJ/mol
# GULP energy per Si atom -5572.765678 kJ/mol
# Density = 1.950478 g / cm^3
# Si number density = 19.549274 Si / 1000 Ang^3
#
#
#
# Elastic Constant Matrix: (Units=GPa)
#
#
# Indices 1 2 3 4 5 6 
#
# 1 70.2403 -2.6445 71.5580 0.0000 7.1236 0.0000
# 2 -2.6445 27.4726 7.1895 0.0000 -0.6924 0.0000
# 3 71.5580 7.1895 144.0834 0.0000 11.4196 0.0000
# 4 0.0000 0.0000 0.0000 19.3525 0.0000 -0.9428
# 5 7.1236 -0.6924 11.4196 0.0000 38.4379 0.0000
# 6 0.0000 0.0000 0.0000 -0.9428 0.0000 17.8145
#
#
#
# Elastic Compliance Matrix: (Units=1/GPa)
#
#
# Indices 1 2 3 4 5 6 
#
# 1 0.030084 0.006852 -0.015209 0.000000 -0.000934 0.000000
# 2 0.006852 0.038500 -0.005406 0.000000 0.001030 0.000000
# 3 -0.015209 -0.005406 0.014899 0.000000 -0.001705 0.000000
# 4 0.000000 0.000000 0.000000 0.051807 0.000000 0.002742
# 5 -0.000934 0.001030 -0.001705 0.000000 0.026714 0.000000
# 6 0.000000 0.000000 0.000000 0.002742 0.000000 0.056279
#
#
# Mechanical properties :
#
#
# Convention : Reuss Voigt Hill
#
# Bulk Modulus (GPa) = 17.87060 43.77806 30.82433
# Shear Modulus (GPa) = 18.90652 26.16720 22.53686
#
# Velocity S-wave (km/s) = 3.11323 3.66256 3.39901
# Velocity P-wave (km/s) = 4.69937 6.35044 5.58624
#
# Compressibility (1/GPa) = 0.05595783
#
# Stress axis : x y z
#
# Youngs Moduli (GPa) = 33.24074 25.97393 67.12035
#
# Poissons Ratio (x) = -0.17798 1.02082
# Poissons Ratio (y) = -0.22778 0.36284
# Poissons Ratio (z) = 0.50555 0.14041
#
# Static dielectric constant tensor:
#      x y z
#    x 1.687350 0.000000 0.003210 
#    y 0.000000 1.717380 0.000000 
#    z 0.003210 0.000000 1.744730 
# 
# From -- ./inp_files/53239.got.cif
#   From: 2010.05.17/outbox.cif.g08.bks.cpg/sg11_27_cif.got.tgz:53239.got - 2010.06.03 12:22:45.
