data_PCOD9157011
_publ_section_title
;
Structure prediction by ZEFSAII (Michael W. Deem and Ramdas Pophale) SiO2 
 PCOD9157011
Probable space group: P 21/M
;
_chemical_formula_sum "Si O2"
_cell_formula_units_Z 24
_cell_length_a 16.479937
_cell_length_b 8.536094
_cell_length_c 19.017359
_cell_angle_alpha 90.000000
_cell_angle_beta 150.090990
_cell_angle_gamma 90.000000
_cell_volume 1333.945753
_symmetry_space_group_name_H-M "P 21/M"
_symmetry_group_IT_number 11
_symmetry_cell_setting 'monoclinic'
loop_
_space_group_symop_operation_xyz
x,y,z
-x,1/2+y,-z
-x,-y,-z
x,1/2-y,z
loop_
_atom_site_type_symbol
_atom_site_label
_atom_site_fract_x
_atom_site_fract_y
_atom_site_fract_z
Si Si1 0.659633 0.938896 0.079384
Si Si2 0.163338 0.562871 0.158607
Si Si3 0.513165 0.561336 0.675619
Si Si4 0.337631 0.437111 0.417211
Si Si5 0.516852 0.060491 0.185578
Si Si6 0.834606 0.562295 0.343570
O O1 0.658491 0.750000 0.078749
O O2 0.805756 0.988932 0.240395
O O3 0.631737 0.988652 0.977822
O O4 0.500000 0.000000 0.000000
O O5 0.163390 0.750000 0.159669
O O6 0.319087 0.502565 0.231384
O O7 0.191321 0.500833 0.259282
O O8 0.000000 0.500000 0.000000
O O9 0.515867 0.750000 0.673637
O O10 0.363990 0.499471 0.515806
O O11 0.500172 0.510670 0.746759
O O12 0.500000 0.500000 0.500000
O O13 0.337520 0.250000 0.416324
O O14 0.523616 0.250000 0.190478
O O15 0.681952 0.998192 0.274407
O O16 0.834903 0.750000 0.345579
O O17 0.000000 0.500000 0.500000
#
# Coordination Sequence:
#
# PCOD9157011 Si02
#       6
#     4   4   4   4   4   4
#     4   8  15  29  48  70  93 125 164 201 240 289
#     4  11  21  35  54  76 102 133 169 210 252 299
#     4  10  19  33  53  77 102 132 167 207 253 303
#     4  10  18  31  51  74 100 132 168 205 245 299
#     4   9  18  33  53  74  99 129 165 205 248 297
#     4  10  19  31  50  73 100 131 167 208 251 297
#
# _framework density 17.991734999999998
#
# number of rings (size 3 to 8) (size 9 to 14) (size 15 to 20)
#    0.000    2.333    0.000    6.000    0.000    2.000 
#    0.000    1.667    0.000    8.000    0.000    0.000 
#    0.000    0.000    0.000    0.000    0.000    0.000 
#
# Total GULP energy -133721.202601 kJ/mol
# GULP energy per Si atom -5571.716775 kJ/mol
# Density = 1.795079 g / cm^3
# Si number density = 17.991735 Si / 1000 Ang^3
#
#
#
# Elastic Constant Matrix: (Units=GPa)
#
#
# Indices 1 2 3 4 5 6 
#
# 1 67.1015 24.1479 66.4805 0.0000 -34.7067 0.0000
# 2 24.1479 80.0314 46.9415 0.0000 -15.1837 0.0000
# 3 66.4805 46.9415 209.7797 0.0000 -40.4387 0.0000
# 4 0.0000 0.0000 0.0000 30.5597 0.0000 -0.0940
# 5 -34.7067 -15.1837 -40.4387 0.0000 36.8613 0.0000
# 6 0.0000 0.0000 0.0000 -0.0940 0.0000 20.0718
#
#
#
# Elastic Compliance Matrix: (Units=1/GPa)
#
#
# Indices 1 2 3 4 5 6 
#
# 1 0.034213 -0.002332 -0.005448 0.000000 0.025276 0.000000
# 2 -0.002332 0.014815 -0.002312 0.000000 0.001370 0.000000
# 3 -0.005448 -0.002312 0.007404 0.000000 0.002041 0.000000
# 4 0.000000 0.000000 0.000000 0.032723 0.000000 0.000153
# 5 0.025276 0.001370 0.002041 0.000000 0.053730 0.000000
# 6 0.000000 0.000000 0.000000 0.000153 0.000000 0.049822
#
#
# Mechanical properties :
#
#
# Convention : Reuss Voigt Hill
#
# Bulk Modulus (GPa) = 27.58799 70.22808 48.90803
# Shear Modulus (GPa) = 22.22476 32.12141 27.17308
#
# Velocity S-wave (km/s) = 3.51846 4.22992 3.89049
# Velocity P-wave (km/s) = 5.64563 7.93565 6.88649
#
# Compressibility (1/GPa) = 0.03624766
#
# Stress axis : x y z
#
# Youngs Moduli (GPa) = 29.22860 67.50042 135.05955
#
# Poissons Ratio (x) = 0.15743 0.73582
# Poissons Ratio (y) = 0.06817 0.31223
# Poissons Ratio (z) = 0.15924 0.15605
#
# Static dielectric constant tensor:
#      x y z
#    x 1.607620 0.000000 -0.051390 
#    y 0.000000 1.612510 0.000000 
#    z -0.051390 0.000000 1.666380 
# 
# From -- ./inp_files/27247.got.cif
#   From: 2010.05.17/outbox.cif.g08.bks.cpg/sg11_14_cif.got.tgz:27247.got - 2010.06.03 12:22:45.
