data_PCOD9157135
_publ_section_title
;
Structure prediction by ZEFSAII (Michael W. Deem and Ramdas Pophale) SiO2 
 PCOD9157135
Probable space group: P 21/M
;
_chemical_formula_sum "Si O2"
_cell_formula_units_Z 32
_cell_length_a 14.755933
_cell_length_b 7.464778
_cell_length_c 15.005026
_cell_angle_alpha 90.000000
_cell_angle_beta 121.316556
_cell_angle_gamma 90.000000
_cell_volume 1412.001442
_symmetry_space_group_name_H-M "P 21/M"
_symmetry_group_IT_number 11
_symmetry_cell_setting 'monoclinic'
loop_
_space_group_symop_operation_xyz
x,y,z
-x,1/2+y,-z
-x,-y,-z
x,1/2-y,z
loop_
_atom_site_type_symbol
_atom_site_label
_atom_site_fract_x
_atom_site_fract_y
_atom_site_fract_z
Si Si1 0.347046 0.468971 0.666819
Si Si2 0.401487 0.464784 0.885469
Si Si3 0.884557 0.963186 0.479732
Si Si4 0.032120 0.034254 0.295287
Si Si5 0.120644 0.464907 0.030237
Si Si6 0.206529 0.468565 0.253937
Si Si7 0.808113 0.958785 0.125534
Si Si8 0.385738 0.464226 0.483895
O O1 0.352761 0.250000 0.667425
O O2 0.410271 0.528827 0.787272
O O3 0.224251 0.526977 0.618920
O O4 0.378152 0.529628 0.582696
O O5 0.390140 0.250000 0.872790
O O6 0.294665 0.535791 0.878557
O O7 0.500000 0.500000 0.000000
O O8 0.873609 0.750000 0.475618
O O9 0.894555 0.026945 0.586217
O O10 0.000000 0.000000 0.500000
O O11 0.027546 0.250000 0.295139
O O12 0.093108 0.978871 0.237894
O O13 0.912729 0.968033 0.240082
O O14 0.127957 0.250000 0.029583
O O15 0.201281 0.527328 0.149048
O O16 0.154295 0.536588 0.950475
O O17 0.000000 0.500000 0.000000
O O18 0.210919 0.250000 0.256221
O O19 0.298086 0.531164 0.367894
O O20 0.784045 0.750000 0.097659
O O21 0.500000 0.500000 0.500000
O O22 0.368826 0.250000 0.480701
#
# Coordination Sequence:
#
# PCOD9157135 Si02
#       8
#     4   4   4   4   4   4   4   4
#     4   9  18  36  59  78 106 147 181 213 270 338
#     4  10  22  40  59  79 107 145 186 228 273 321
#     4  10  19  32  53  81 109 141 178 214 262 323
#     4  10  18  31  54  80 106 141 180 215 259 326
#     4  10  19  32  52  78 109 146 182 219 269 326
#     4   9  17  32  53  75 104 142 178 215 263 319
#     4  10  21  35  53  81 113 144 180 226 277 319
#     4  10  20  37  59  82 108 143 185 226 270 323
#
# _framework density 22.662866999999999
#
# number of rings (size 3 to 8) (size 9 to 14) (size 15 to 20)
#    0.000    2.250    2.500    0.750    0.000    3.000 
#    0.000    4.375    0.000    0.000    0.000    0.000 
#    0.000    0.000    0.000    0.000    0.000    0.000 
#
# Total GULP energy -178561.186510 kJ/mol
# GULP energy per Si atom -5580.037078 kJ/mol
# Density = 2.261129 g / cm^3
# Si number density = 22.662867 Si / 1000 Ang^3
#
#
#
# Elastic Constant Matrix: (Units=GPa)
#
#
# Indices 1 2 3 4 5 6 
#
# 1 102.3329 -2.5037 61.8052 0.0000 7.4531 0.0000
# 2 -2.5037 63.4857 4.2055 0.0000 -7.2582 0.0000
# 3 61.8052 4.2055 182.0026 0.0000 0.4106 0.0000
# 4 0.0000 0.0000 0.0000 11.6649 0.0000 6.1964
# 5 7.4531 -7.2582 0.4106 0.0000 32.8670 0.0000
# 6 0.0000 0.0000 0.0000 6.1964 0.0000 17.8919
#
#
#
# Elastic Compliance Matrix: (Units=1/GPa)
#
#
# Indices 1 2 3 4 5 6 
#
# 1 0.012558 0.000470 -0.004269 0.000000 -0.002690 0.000000
# 2 0.000470 0.016204 -0.000542 0.000000 0.003478 0.000000
# 3 -0.004269 -0.000542 0.006955 0.000000 0.000762 0.000000
# 4 0.000000 0.000000 0.000000 0.105054 0.000000 -0.036383
# 5 -0.002690 0.003478 0.000762 0.000000 0.031794 0.000000
# 6 0.000000 0.000000 0.000000 -0.036383 0.000000 0.068491
#
#
# Mechanical properties :
#
#
# Convention : Reuss Voigt Hill
#
# Bulk Modulus (GPa) = 36.98903 52.75945 44.87424
# Shear Modulus (GPa) = 19.32369 31.43903 25.38136
#
# Velocity S-wave (km/s) = 2.92320 3.72862 3.35020
# Velocity P-wave (km/s) = 5.26786 6.47051 5.89991
#
# Compressibility (1/GPa) = 0.02703504
#
# Stress axis : x y z
#
# Youngs Moduli (GPa) = 79.63057 61.71417 143.78106
#
# Poissons Ratio (x) = -0.02903 0.61384
# Poissons Ratio (y) = -0.03746 0.07793
# Poissons Ratio (z) = 0.33997 0.03345
#
# Static dielectric constant tensor:
#      x y z
#    x 1.835540 0.000000 -0.034780 
#    y 0.000000 1.852520 0.000000 
#    z -0.034780 0.000000 1.870540 
# 
# From -- ./inp_files/51747.got.cif
#   From: 2010.05.17/outbox.cif.g08.bks.cpg/sg11_26_cif.got.tgz:51747.got - 2010.06.03 12:22:45.
