data_PCOD9157253
_publ_section_title
;
Structure prediction by ZEFSAII (Michael W. Deem and Ramdas Pophale) SiO2 
 PCOD9157253
Probable space group: P 21/M
;
_chemical_formula_sum "Si O2"
_cell_formula_units_Z 32
_cell_length_a 17.068665
_cell_length_b 15.006512
_cell_length_c 11.422586
_cell_angle_alpha 90.000000
_cell_angle_beta 32.155781
_cell_angle_gamma 90.000000
_cell_volume 1557.175038
_symmetry_space_group_name_H-M "P 21/M"
_symmetry_group_IT_number 11
_symmetry_cell_setting 'monoclinic'
loop_
_space_group_symop_operation_xyz
x,y,z
-x,1/2+y,-z
-x,-y,-z
x,1/2-y,z
loop_
_atom_site_type_symbol
_atom_site_label
_atom_site_fract_x
_atom_site_fract_y
_atom_site_fract_z
Si Si1 0.944195 0.893874 0.341606
Si Si2 0.198822 0.346646 0.240191
Si Si3 0.091107 0.856811 0.791577
Si Si4 0.762917 0.352243 0.164224
Si Si5 0.619543 0.479121 0.950994
Si Si6 0.472715 0.642721 0.717970
Si Si7 0.080446 0.915662 0.544637
Si Si8 0.805166 0.643441 0.284814
O O1 0.855698 0.845604 0.555744
O O2 0.838461 0.906398 0.364002
O O3 0.986450 0.986620 0.347681
O O4 0.088516 0.851657 0.101823
O O5 0.261556 0.250000 0.129579
O O6 0.314798 0.427233 0.083119
O O7 0.048429 0.362415 0.357073
O O8 0.095643 0.750000 0.796419
O O9 0.196657 0.893215 0.761012
O O10 0.120590 0.879563 0.621505
O O11 0.925716 0.884654 0.037389
O O12 0.717377 0.250000 0.242938
O O13 0.638561 0.392043 0.239958
O O14 0.767181 0.429580 0.716879
O O15 0.500000 0.500000 0.000000
O O16 0.550284 0.415212 0.136554
O O17 0.447840 0.750000 0.771682
O O18 0.637761 0.632382 0.462989
O O19 0.827381 0.750000 0.280756
#
# Coordination Sequence:
#
# PCOD9157253 Si02
#       8
#     4   4   4   4   4   4   4   4
#     4  10  18  32  53  78 107 138 187 243 286 336
#     4  11  22  38  60  84 115 158 204 250 298 352
#     4   9  19  36  55  80 114 151 193 239 291 352
#     4   9  17  30  52  79 107 142 188 239 283 333
#     4  11  24  40  59  89 127 157 195 249 304 368
#     4  10  19  34  58  86 115 153 201 248 294 344
#     4  11  22  36  57  84 115 151 190 237 298 365
#     4   9  18  33  56  82 110 150 196 240 287 342
#
# _framework density 20.550032999999999
#
# number of rings (size 3 to 8) (size 9 to 14) (size 15 to 20)
#    0.000    2.000    0.000    6.750    0.000    5.500 
#    0.000    1.250    0.000    4.500    0.000    0.000 
#    0.000    1.000    0.000    0.000    0.000    0.000 
#
# Total GULP energy -178537.154170 kJ/mol
# GULP energy per Si atom -5579.286068 kJ/mol
# Density = 2.050326 g / cm^3
# Si number density = 20.550033 Si / 1000 Ang^3
#
#
#
# Elastic Constant Matrix: (Units=GPa)
#
#
# Indices 1 2 3 4 5 6 
#
# 1 74.2385 11.2664 28.9448 0.0000 -22.4703 0.0000
# 2 11.2664 57.0966 8.9038 0.0000 -5.8284 0.0000
# 3 28.9448 8.9038 37.2081 0.0000 -10.3944 0.0000
# 4 0.0000 0.0000 0.0000 -36.5919 0.0000 5.6145
# 5 -22.4703 -5.8284 -10.3944 0.0000 32.7125 0.0000
# 6 0.0000 0.0000 0.0000 5.6145 0.0000 27.9966
#
#
#
# Elastic Compliance Matrix: (Units=1/GPa)
#
#
# Indices 1 2 3 4 5 6 
#
# 1 0.022399 -0.001119 -0.014172 0.000000 0.010683 0.000000
# 2 -0.001119 0.018374 -0.003102 0.000000 0.001519 0.000000
# 3 -0.014172 -0.003102 0.039253 0.000000 0.002185 0.000000
# 4 0.000000 0.000000 0.000000 -0.026513 0.000000 0.005317
# 5 0.010683 0.001519 0.002185 0.000000 0.038873 0.000000
# 6 0.000000 0.000000 0.000000 0.005317 0.000000 0.034652
#
#
# Mechanical properties :
#
#
# Convention : Reuss Voigt Hill
#
# Bulk Modulus (GPa) = 23.12686 29.64149 26.38418
# Shear Modulus (GPa) = 28.05220 12.78532 20.41876
#
# Velocity S-wave (km/s) = 3.69869 2.49701 3.15558
# Velocity P-wave (km/s) = 5.43312 4.77167 5.11310
#
# Compressibility (1/GPa) = 0.04323976
#
# Stress axis : x y z
#
# Youngs Moduli (GPa) = 44.64430 54.42535 25.47545
#
# Poissons Ratio (x) = 0.06091 0.36105
# Poissons Ratio (y) = 0.04997 0.07902
# Poissons Ratio (z) = 0.63272 0.16881
#
# Static dielectric constant tensor:
#      x y z
#    x 1.746230 0.000000 -0.003980 
#    y 0.000000 1.822320 0.000000 
#    z -0.003980 0.000000 1.701790 
# 
# From -- ./inp_files/41632.got.cif
#   From: 2010.05.17/outbox.cif.g08.bks.cpg/sg11_21_cif.got.tgz:41632.got - 2010.06.03 12:22:45.
