data_PCOD9157296
_publ_section_title
;
Structure prediction by ZEFSAII (Michael W. Deem and Ramdas Pophale) SiO2 
 PCOD9157296
Probable space group: P 21/M
;
_chemical_formula_sum "Si O2"
_cell_formula_units_Z 32
_cell_length_a 21.186859
_cell_length_b 8.535547
_cell_length_c 12.604434
_cell_angle_alpha 90.000000
_cell_angle_beta 127.803522
_cell_angle_gamma 90.000000
_cell_volume 1800.996518
_symmetry_space_group_name_H-M "P 21/M"
_symmetry_group_IT_number 11
_symmetry_cell_setting 'monoclinic'
loop_
_space_group_symop_operation_xyz
x,y,z
-x,1/2+y,-z
-x,-y,-z
x,1/2-y,z
loop_
_atom_site_type_symbol
_atom_site_label
_atom_site_fract_x
_atom_site_fract_y
_atom_site_fract_z
Si Si1 0.266937 0.437723 0.853697
Si Si2 0.473151 0.562005 0.587199
Si Si3 0.877413 0.940018 0.139580
Si Si4 0.375771 0.936514 0.145354
Si Si5 0.213267 0.939608 0.576579
Si Si6 0.030326 0.560257 0.417897
Si Si7 0.238417 0.438090 0.159594
Si Si8 0.709673 0.439197 0.565782
O O1 0.271306 0.250000 0.860946
O O2 0.186235 0.485660 0.834620
O O3 0.259387 0.497036 0.726631
O O4 0.339818 0.506534 0.996697
O O5 0.500000 0.500000 0.500000
O O6 0.475169 0.750000 0.587280
O O7 0.536920 0.500689 0.737844
O O8 0.382717 0.510892 0.518290
O O9 0.878703 0.750000 0.139335
O O10 0.965318 0.992929 0.263608
O O11 0.838705 0.990546 0.988397
O O12 0.375649 0.750000 0.150420
O O13 0.315216 0.001275 0.173054
O O14 0.214818 0.750000 0.581756
O O15 0.120729 0.990919 0.489007
O O16 0.252411 0.990335 0.506308
O O17 0.029851 0.750000 0.419534
O O18 0.000000 0.500000 0.500000
O O19 0.241089 0.250000 0.162056
O O20 0.243138 0.499460 0.283359
O O21 0.711192 0.250000 0.570206
#
# Coordination Sequence:
#
# PCOD9157296 Si02
#       8
#     4   4   4   4   4   4   4   4
#     4  10  19  34  55  80 111 144 180 222 272 327
#     4  11  21  35  56  81 109 142 185 232 274 326
#     4   8  16  30  50  78 108 137 172 223 270 310
#     4  11  21  34  55  83 112 139 177 229 278 325
#     4  10  21  36  55  80 111 148 184 223 275 330
#     4  10  18  32  54  80 109 141 182 227 270 318
#     4  10  19  33  54  79 108 143 184 224 270 324
#     4  10  22  38  54  77 112 148 181 223 277 331
#
# _framework density 17.767942000000001
#
# number of rings (size 3 to 8) (size 9 to 14) (size 15 to 20)
#    0.000    2.000    2.500    3.000    0.000    1.000 
#    0.000    1.875    0.000    0.000    0.000    0.000 
#    0.000    0.000    0.000    0.000    0.000    0.000 
#
# Total GULP energy -178595.916255 kJ/mol
# GULP energy per Si atom -5581.122383 kJ/mol
# Density = 1.772750 g / cm^3
# Si number density = 17.767942 Si / 1000 Ang^3
#
#
#
# Elastic Constant Matrix: (Units=GPa)
#
#
# Indices 1 2 3 4 5 6 
#
# 1 113.1983 26.8870 84.0289 0.0000 -9.6281 0.0000
# 2 26.8870 29.9252 30.0944 0.0000 -2.1034 0.0000
# 3 84.0289 30.0944 184.8218 0.0000 -8.7327 0.0000
# 4 0.0000 0.0000 0.0000 28.6511 0.0000 -4.5659
# 5 -9.6281 -2.1034 -8.7327 0.0000 27.8383 0.0000
# 6 0.0000 0.0000 0.0000 -4.5659 0.0000 17.0954
#
#
#
# Elastic Compliance Matrix: (Units=1/GPa)
#
#
# Indices 1 2 3 4 5 6 
#
# 1 0.014925 -0.007797 -0.005380 0.000000 0.002885 0.000000
# 2 -0.007797 0.044060 -0.003654 0.000000 -0.000514 0.000000
# 3 -0.005380 -0.003654 0.008476 0.000000 0.000522 0.000000
# 4 0.000000 0.000000 0.000000 0.036454 0.000000 0.009736
# 5 0.002885 -0.000514 0.000522 0.000000 0.037045 0.000000
# 6 0.000000 0.000000 0.000000 0.009736 0.000000 0.061096
#
#
# Mechanical properties :
#
#
# Convention : Reuss Voigt Hill
#
# Bulk Modulus (GPa) = 29.58518 67.77399 48.67959
# Shear Modulus (GPa) = 20.24435 27.17930 23.71183
#
# Velocity S-wave (km/s) = 3.37913 3.91536 3.65708
# Velocity P-wave (km/s) = 5.64904 7.65943 6.72973
#
# Compressibility (1/GPa) = 0.03380071
#
# Stress axis : x y z
#
# Youngs Moduli (GPa) = 67.00291 22.69630 117.97891
#
# Poissons Ratio (x) = 0.17695 0.63469
# Poissons Ratio (y) = 0.52240 0.43107
# Poissons Ratio (z) = 0.36045 0.08293
#
# Static dielectric constant tensor:
#      x y z
#    x 1.584300 0.000000 0.014310 
#    y 0.000000 1.578660 0.000000 
#    z 0.014310 0.000000 1.616600 
# 
# From -- ./inp_files/42884.got.cif
#   From: 2010.05.17/outbox.cif.g08.bks.cpg/sg11_22_cif.got.tgz:42884.got - 2010.06.03 12:22:45.
