data_PCOD9157139
_publ_section_title
;
Structure prediction by ZEFSAII (Michael W. Deem and Ramdas Pophale) SiO2 
 PCOD9157139
Probable space group: P 21/M
;
_chemical_formula_sum "Si O2"
_cell_formula_units_Z 28
_cell_length_a 19.502425
_cell_length_b 8.856055
_cell_length_c 23.124714
_cell_angle_alpha 90.000000
_cell_angle_beta 26.482902
_cell_angle_gamma 90.000000
_cell_volume 1781.035981
_symmetry_space_group_name_H-M "P 21/M"
_symmetry_group_IT_number 11
_symmetry_cell_setting 'monoclinic'
loop_
_space_group_symop_operation_xyz
x,y,z
-x,1/2+y,-z
-x,-y,-z
x,1/2-y,z
loop_
_atom_site_type_symbol
_atom_site_label
_atom_site_fract_x
_atom_site_fract_y
_atom_site_fract_z
Si Si1 0.249916 0.570778 0.814591
Si Si2 0.538651 0.068455 0.533865
Si Si3 0.934506 0.928584 0.606998
Si Si4 0.980622 0.929192 0.922663
Si Si5 0.966145 0.071405 0.699875
Si Si6 0.125374 0.432178 0.699687
Si Si7 0.335221 0.572040 0.129924
O O1 0.275205 0.750000 0.802677
O O2 0.406531 0.489234 0.677306
O O3 0.126971 0.550282 0.855121
O O4 0.165355 0.501369 0.934389
O O5 0.539352 0.250000 0.530307
O O6 0.293693 0.993693 0.575898
O O7 0.500000 0.000000 0.500000
O O8 0.937055 0.750000 0.602384
O O9 0.018760 0.985338 0.602154
O O10 0.762163 0.991117 0.746490
O O11 0.000000 0.000000 0.500000
O O12 0.958470 0.750000 0.931581
O O13 0.025388 0.008189 0.829011
O O14 0.993251 0.250000 0.670940
O O15 0.780463 0.049474 0.837485
O O16 0.043952 0.026166 0.700661
O O17 0.138332 0.250000 0.693200
O O18 0.346291 0.750000 0.132031
O O19 0.500000 0.500000 0.000000
#
# Coordination Sequence:
#
# PCOD9157139 Si02
#       7
#     4   4   4   4   4   4   4
#     4  10  20  35  53  75 102 134 174 222 271 319
#     4  12  23  35  53  79 107 139 181 229 271 318
#     4  10  18  31  54  81 109 142 176 216 258 309
#     4  10  20  33  53  78 104 135 172 219 268 319
#     4   8  19  35  53  78 110 142 178 217 264 321
#     4  11  21  36  57  78 106 144 179 220 272 324
#     4   9  17  32  53  81 108 136 172 212 255 307
#
# _framework density 15.721188
#
# number of rings (size 3 to 8) (size 9 to 14) (size 15 to 20)
#    0.857    1.143    1.429    3.857    0.000    2.286 
#    0.000    0.000    3.143    0.000    0.000    0.000 
#    0.000    0.000    0.000    0.000    0.000    0.000 
#
# Total GULP energy -155960.599759 kJ/mol
# GULP energy per Si atom -5570.021420 kJ/mol
# Density = 1.568541 g / cm^3
# Si number density = 15.721188 Si / 1000 Ang^3
#
#
#
# Elastic Constant Matrix: (Units=GPa)
#
#
# Indices 1 2 3 4 5 6 
#
# 1 110.6513 75.9643 78.9040 0.0000 8.0833 0.0000
# 2 75.9643 120.5392 77.1997 0.0000 7.4198 0.0000
# 3 78.9040 77.1997 153.0563 0.0000 12.9091 0.0000
# 4 0.0000 0.0000 0.0000 33.7323 0.0000 1.4566
# 5 8.0833 7.4198 12.9091 0.0000 21.4212 0.0000
# 6 0.0000 0.0000 0.0000 1.4566 0.0000 22.9416
#
#
#
# Elastic Compliance Matrix: (Units=1/GPa)
#
#
# Indices 1 2 3 4 5 6 
#
# 1 0.018555 -0.008213 -0.005344 0.000000 -0.000936 0.000000
# 2 -0.008213 0.015897 -0.003773 0.000000 -0.000133 0.000000
# 3 -0.005344 -0.003773 0.011495 0.000000 -0.003604 0.000000
# 4 0.000000 0.000000 0.000000 0.029727 0.000000 -0.001887
# 5 -0.000936 -0.000133 -0.003604 0.000000 0.049254 0.000000
# 6 0.000000 0.000000 0.000000 -0.001887 0.000000 0.043709
#
#
# Mechanical properties :
#
#
# Convention : Reuss Voigt Hill
#
# Bulk Modulus (GPa) = 88.59559 94.26476 91.43018
# Shear Modulus (GPa) = 24.14777 25.76430 24.95603
#
# Velocity S-wave (km/s) = 3.92344 4.05263 3.98856
# Velocity P-wave (km/s) = 8.77503 9.05477 8.91600
#
# Compressibility (1/GPa) = 0.01128724
#
# Stress axis : x y z
#
# Youngs Moduli (GPa) = 53.89360 62.90690 86.99235
#
# Poissons Ratio (x) = 0.51668 0.46488
# Poissons Ratio (y) = 0.44265 0.32819
# Poissons Ratio (z) = 0.28800 0.23732
#
# Static dielectric constant tensor:
#      x y z
#    x 1.512070 0.000000 -0.003720 
#    y 0.000000 1.521650 0.000000 
#    z -0.003720 0.000000 1.503360 
# 
# From -- ./inp_files/65985.got.cif
#   From: 2010.05.17/outbox.cif.g08.bks.cpg/sg11_33_cif.got.tgz:65985.got - 2010.06.03 12:22:45.
