data_PCOD9157924
_publ_section_title
;
Structure prediction by ZEFSAII (Michael W. Deem and Ramdas Pophale) SiO2 
 PCOD9157924
Probable space group: P 21/M
;
_chemical_formula_sum "Si O2"
_cell_formula_units_Z 20
_cell_length_a 8.438619
_cell_length_b 23.441889
_cell_length_c 5.271337
_cell_angle_alpha 90.000000
_cell_angle_beta 65.410782
_cell_angle_gamma 90.000000
_cell_volume 948.197594
_symmetry_space_group_name_H-M "P 21/M"
_symmetry_group_IT_number 11
_symmetry_cell_setting 'monoclinic'
loop_
_space_group_symop_operation_xyz
x,y,z
-x,1/2+y,-z
-x,-y,-z
x,1/2-y,z
loop_
_atom_site_type_symbol
_atom_site_label
_atom_site_fract_x
_atom_site_fract_y
_atom_site_fract_z
Si Si1 0.775612 0.489320 0.867929
Si Si2 0.035588 0.921892 0.862772
Si Si3 0.890102 0.814067 0.747911
Si Si4 0.736497 0.639570 0.336774
Si Si5 0.518600 0.052978 0.673224
O O1 0.626070 0.537487 0.013941
O O2 0.804164 0.446065 0.084384
O O3 0.947510 0.528149 0.757483
O O4 0.704898 0.451482 0.684115
O O5 0.035815 0.862459 0.710075
O O6 0.886977 0.908012 0.179779
O O7 0.956302 0.750000 0.668107
O O8 0.778755 0.833397 0.578537
O O9 0.771310 0.817753 0.079805
O O10 0.551621 0.609044 0.418973
O O11 0.500000 0.000000 0.500000
#
# Coordination Sequence:
#
# PCOD9157924 Si02
#       5
#     4   4   4   4   4
#     4   9  17  33  49  80 109 138 170 210 271 321
#     4   8  18  32  53  78 106 137 175 216 263 318
#     4  10  19  35  56  77 101 138 184 227 260 307
#     4   9  20  33  54  80 102 135 178 218 262 312
#     4  10  19  29  52  78 115 141 168 211 269 328
#
# _framework density 21.092651
#
# number of rings (size 3 to 8) (size 9 to 14) (size 15 to 20)
#    1.200    1.600    0.000    1.800    2.800    1.600 
#    0.000    6.000    0.000    2.400    0.000    0.000 
#    0.000    0.000    0.000    0.000    0.000    0.000 
#
# Total GULP energy -111368.344649 kJ/mol
# GULP energy per Si atom -5568.417232 kJ/mol
# Density = 2.104464 g / cm^3
# Si number density = 21.092651 Si / 1000 Ang^3
#
#
#
# Elastic Constant Matrix: (Units=GPa)
#
#
# Indices 1 2 3 4 5 6 
#
# 1 105.7984 43.0502 37.1892 0.0000 30.8133 0.0000
# 2 43.0502 141.5915 41.7604 0.0000 31.8778 0.0000
# 3 37.1892 41.7604 88.1366 0.0000 40.9371 0.0000
# 4 0.0000 0.0000 0.0000 19.7697 0.0000 -2.9764
# 5 30.8133 31.8778 40.9371 0.0000 41.5416 0.0000
# 6 0.0000 0.0000 0.0000 -2.9764 0.0000 16.9234
#
#
#
# Elastic Compliance Matrix: (Units=1/GPa)
#
#
# Indices 1 2 3 4 5 6 
#
# 1 0.012631 -0.001971 -0.001377 0.000000 -0.006500 0.000000
# 2 -0.001971 0.009012 -0.001669 0.000000 -0.003808 0.000000
# 3 -0.001377 -0.001669 0.021481 0.000000 -0.018866 0.000000
# 4 0.000000 0.000000 0.000000 0.051958 0.000000 0.009138
# 5 -0.006500 -0.003808 -0.018866 0.000000 0.050407 0.000000
# 6 0.000000 0.000000 0.000000 0.009138 0.000000 0.060697
#
#
# Mechanical properties :
#
#
# Convention : Reuss Voigt Hill
#
# Bulk Modulus (GPa) = 30.22181 64.39180 47.30681
# Shear Modulus (GPa) = 22.00234 29.88207 25.94221
#
# Velocity S-wave (km/s) = 3.23325 3.76800 3.51082
# Velocity P-wave (km/s) = 5.31957 7.03738 6.23789
#
# Compressibility (1/GPa) = 0.03308868
#
# Stress axis : x y z
#
# Youngs Moduli (GPa) = 79.17090 110.96859 46.55384
#
# Poissons Ratio (x) = 0.21871 0.06410
# Poissons Ratio (y) = 0.15604 0.07772
# Poissons Ratio (z) = 0.10900 0.18525
#
# Static dielectric constant tensor:
#      x y z
#    x 1.836660 0.000000 -0.096710 
#    y 0.000000 1.751230 0.000000 
#    z -0.096710 0.000000 1.903440 
# 
# From -- ./inp_files/2854.got.cif
#   From: 2010.05.17/outbox.cif.g08.bks.cpg/sg11_2_cif.got.tgz:2854.got - 2010.06.03 12:22:45.
