data_PCOD9157655
_publ_section_title
;
Structure prediction by ZEFSAII (Michael W. Deem and Ramdas Pophale) SiO2 
 PCOD9157655
Probable space group: P 21/M
;
_chemical_formula_sum "Si O2"
_cell_formula_units_Z 32
_cell_length_a 7.454380
_cell_length_b 13.675665
_cell_length_c 14.988291
_cell_angle_alpha 90.000000
_cell_angle_beta 84.203297
_cell_angle_gamma 90.000000
_cell_volume 1520.147206
_symmetry_space_group_name_H-M "P 21/M"
_symmetry_group_IT_number 11
_symmetry_cell_setting 'monoclinic'
loop_
_space_group_symop_operation_xyz
x,y,z
-x,1/2+y,-z
-x,-y,-z
x,1/2-y,z
loop_
_atom_site_type_symbol
_atom_site_label
_atom_site_fract_x
_atom_site_fract_y
_atom_site_fract_z
Si Si1 0.648836 0.867226 0.917515
Si Si2 0.219372 0.554721 0.498901
Si Si3 0.016043 0.013260 0.176036
Si Si4 0.381142 0.356758 0.690344
Si Si5 0.475633 0.062795 0.385758
Si Si6 0.349411 0.636507 0.796086
Si Si7 0.008089 0.076880 0.639612
Si Si8 0.234161 0.136667 0.893655
O O1 0.667533 0.750000 0.902321
O O2 0.465546 0.896431 0.876024
O O3 0.821908 0.922160 0.868559
O O4 0.654582 0.885454 0.022944
O O5 0.387867 0.597324 0.544066
O O6 0.287381 0.455662 0.443951
O O7 0.088499 0.517418 0.583362
O O8 0.126412 0.618702 0.427507
O O9 0.835133 0.076344 0.206945
O O10 0.077194 0.958821 0.263575
O O11 0.938332 0.932974 0.111002
O O12 0.462395 0.250000 0.670311
O O13 0.476862 0.451085 0.645576
O O14 0.179781 0.359924 0.659076
O O15 0.352314 0.371745 0.797727
O O16 0.516827 0.123209 0.295341
O O17 0.302665 0.750000 0.808349
O O18 0.175258 0.250000 0.902180
#
# Coordination Sequence:
#
# PCOD9157655 Si02
#       8
#     4   4   4   4   4   4   4   4
#     4  10  22  36  56  84 114 147 186 230 272 325
#     4   9  17  31  56  74 104 138 175 223 265 328
#     4  11  19  37  59  83 110 152 182 225 280 334
#     4   9  17  33  55  73 102 138 174 216 271 326
#     4  10  18  35  52  76 106 142 175 220 278 316
#     4  11  22  37  55  81 113 147 188 229 274 328
#     4   9  17  32  54  77 101 139 177 216 275 318
#     4   9  18  35  58  83 110 144 184 228 275 326
#
# _framework density 21.050592000000002
#
# number of rings (size 3 to 8) (size 9 to 14) (size 15 to 20)
#    0.000    2.250    3.750    1.500    0.000    0.500 
#    0.000    6.875    0.000    3.750    0.000    0.000 
#    0.000    0.000    0.000    0.000    0.000    0.000 
#
# Total GULP energy -178428.624446 kJ/mol
# GULP energy per Si atom -5575.894514 kJ/mol
# Density = 2.100268 g / cm^3
# Si number density = 21.050592 Si / 1000 Ang^3
#
#
#
# Elastic Constant Matrix: (Units=GPa)
#
#
# Indices 1 2 3 4 5 6 
#
# 1 43.2905 0.4147 19.5259 0.0000 5.8393 0.0000
# 2 0.4147 60.6214 15.4115 0.0000 3.2418 0.0000
# 3 19.5259 15.4115 118.7094 0.0000 25.6458 0.0000
# 4 0.0000 0.0000 0.0000 -1.3499 0.0000 -4.1647
# 5 5.8393 3.2418 25.6458 0.0000 22.0648 0.0000
# 6 0.0000 0.0000 0.0000 -4.1647 0.0000 20.6146
#
#
#
# Elastic Compliance Matrix: (Units=1/GPa)
#
#
# Indices 1 2 3 4 5 6 
#
# 1 0.025098 0.000904 -0.003715 0.000000 -0.002457 0.000000
# 2 0.000904 0.017092 -0.002368 0.000000 0.000002 0.000000
# 3 -0.003715 -0.002368 0.012091 0.000000 -0.012722 0.000000
# 4 0.000000 0.000000 0.000000 -0.456353 0.000000 -0.092196
# 5 -0.002457 0.000002 -0.012722 0.000000 0.060758 0.000000
# 6 0.000000 0.000000 0.000000 -0.092196 0.000000 0.029883
#
#
# Mechanical properties :
#
#
# Convention : Reuss Voigt Hill
#
# Bulk Modulus (GPa) = 22.76714 32.59172 27.67943
# Shear Modulus (GPa) = -17.45611 20.75053 1.64721
#
# Velocity S-wave (km/s) = -2.88279 3.14306 0.88555
# Velocity P-wave (km/s) = 0.49162 5.35612 3.77136
#
# Compressibility (1/GPa) = 0.04392296
#
# Stress axis : x y z
#
# Youngs Moduli (GPa) = 39.84373 58.50846 82.70716
#
# Poissons Ratio (x) = -0.05290 0.30724
# Poissons Ratio (y) = -0.03602 0.19586
# Poissons Ratio (z) = 0.14801 0.13855
#
# Static dielectric constant tensor:
#      x y z
#    x 1.817810 0.000000 0.008260 
#    y 0.000000 1.772200 0.000000 
#    z 0.008260 0.000000 1.781620 
# 
# From -- ./inp_files/47465.got.cif
#   From: 2010.05.17/outbox.cif.g08.bks.cpg/sg11_24_cif.got.tgz:47465.got - 2010.06.03 12:22:45.
