data_PCOD9157835
_publ_section_title
;
Structure prediction by ZEFSAII (Michael W. Deem and Ramdas Pophale) SiO2 
 PCOD9157835
Probable space group: P 21/M
;
_chemical_formula_sum "Si O2"
_cell_formula_units_Z 32
_cell_length_a 5.497710
_cell_length_b 28.253048
_cell_length_c 11.512507
_cell_angle_alpha 90.000000
_cell_angle_beta 61.487279
_cell_angle_gamma 90.000000
_cell_volume 1571.314722
_symmetry_space_group_name_H-M "P 21/M"
_symmetry_group_IT_number 11
_symmetry_cell_setting 'monoclinic'
loop_
_space_group_symop_operation_xyz
x,y,z
-x,1/2+y,-z
-x,-y,-z
x,1/2-y,z
loop_
_atom_site_type_symbol
_atom_site_label
_atom_site_fract_x
_atom_site_fract_y
_atom_site_fract_z
Si Si1 0.810561 0.358634 0.689502
Si Si2 0.512920 0.645939 0.986857
Si Si3 0.858746 0.524998 0.141226
Si Si4 0.014382 0.441825 0.485592
Si Si5 0.308608 0.305237 0.691456
Si Si6 0.566146 0.051499 0.933904
Si Si7 0.987081 0.304475 0.013140
Si Si8 0.611002 0.458407 0.388934
O O1 0.649238 0.357076 0.850908
O O2 0.599227 0.331510 0.650499
O O3 0.883721 0.409483 0.616268
O O4 0.099895 0.331518 0.650497
O O5 0.547335 0.590688 0.952442
O O6 0.804100 0.670667 0.944776
O O7 0.305864 0.670663 0.944772
O O8 0.606565 0.554578 0.145915
O O9 0.748211 0.485536 0.251649
O O10 0.101568 0.554547 0.145990
O O11 0.000000 0.500000 0.000000
O O12 0.339933 0.430910 0.409907
O O13 0.000000 0.500000 0.500000
O O14 0.840196 0.430915 0.409877
O O15 0.348899 0.250000 0.651126
O O16 0.147600 0.305591 0.852539
O O17 0.500000 0.000000 0.000000
O O18 0.945676 0.250000 0.054553
O O19 0.500000 0.500000 0.500000
#
# Coordination Sequence:
#
# PCOD9157835 Si02
#       8
#     4   4   4   4   4   4   4   4
#     4  10  19  29  46  69  98 134 179 209 258 323
#     4  10  19  28  48  69  93 138 175 210 256 322
#     4  10  21  36  52  70  97 141 184 218 263 304
#     4  10  21  33  44  71 102 140 176 219 250 300
#     4   9  17  30  46  66  94 131 174 219 258 310
#     4  10  21  34  50  71 100 136 184 226 254 307
#     4   9  17  30  44  68  96 127 169 217 263 316
#     4  10  21  32  50  70  97 137 174 222 259 298
#
# _framework density 20.365113000000001
#
# number of rings (size 3 to 8) (size 9 to 14) (size 15 to 20)
#    0.000    2.250    0.000    3.000    7.000    3.000 
#    0.000    0.000    0.000    0.000    0.000    0.000 
#    0.000    0.000    0.000  315.000    0.000    0.000 
#
# Total GULP energy -178425.031599 kJ/mol
# GULP energy per Si atom -5575.782237 kJ/mol
# Density = 2.031876 g / cm^3
# Si number density = 20.365113 Si / 1000 Ang^3
#
#
#
# Elastic Constant Matrix: (Units=GPa)
#
#
# Indices 1 2 3 4 5 6 
#
# 1 224.6970 42.4092 7.6909 0.0000 18.2109 0.0000
# 2 42.4092 107.4887 -6.5841 0.0000 4.1937 0.0000
# 3 7.6909 -6.5841 44.6010 0.0000 -2.8790 0.0000
# 4 0.0000 0.0000 0.0000 18.7722 0.0000 1.5339
# 5 18.2109 4.1937 -2.8790 0.0000 3.4693 0.0000
# 6 0.0000 0.0000 0.0000 1.5339 0.0000 36.7322
#
#
#
# Elastic Compliance Matrix: (Units=1/GPa)
#
#
# Indices 1 2 3 4 5 6 
#
# 1 0.008927 -0.001928 -0.004964 0.000000 -0.048649 0.000000
# 2 -0.001928 0.010202 0.001792 0.000000 -0.000724 0.000000
# 3 -0.004964 0.001792 0.026504 0.000000 0.045887 0.000000
# 4 0.000000 0.000000 0.000000 0.053453 0.000000 -0.002232
# 5 -0.048649 -0.000724 0.045887 0.000000 0.582566 0.000000
# 6 0.000000 0.000000 0.000000 -0.002232 0.000000 0.027317
#
#
# Mechanical properties :
#
#
# Convention : Reuss Voigt Hill
#
# Bulk Modulus (GPa) = 28.22359 51.53541 39.87950
# Shear Modulus (GPa) = 6.84012 34.01279 20.42646
#
# Velocity S-wave (km/s) = 1.83468 4.09118 3.17047
# Velocity P-wave (km/s) = 4.28683 6.90490 5.74694
#
# Compressibility (1/GPa) = 0.03543135
#
# Stress axis : x y z
#
# Youngs Moduli (GPa) = 112.01824 98.01944 37.73071
#
# Poissons Ratio (x) = 0.18900 0.18731
# Poissons Ratio (y) = 0.21599 -0.06761
# Poissons Ratio (z) = 0.55610 -0.17563
#
# Static dielectric constant tensor:
#      x y z
#    x 1.887160 0.000000 0.029890 
#    y 0.000000 1.773600 0.000000 
#    z 0.029890 0.000000 1.540180 
# 
# From -- ./inp_files/30236.got.cif
#   From: 2010.05.17/outbox.cif.g08.bks.cpg/sg11_16_cif.got.tgz:30236.got - 2010.06.03 12:22:45.
