data_PCOD9157695
_publ_section_title
;
Structure prediction by ZEFSAII (Michael W. Deem and Ramdas Pophale) SiO2 
 PCOD9157695
Probable space group: P 21/M
;
_chemical_formula_sum "Si O2"
_cell_formula_units_Z 28
_cell_length_a 8.431211
_cell_length_b 13.028319
_cell_length_c 18.527300
_cell_angle_alpha 90.000000
_cell_angle_beta 37.331983
_cell_angle_gamma 90.000000
_cell_volume 1234.163884
_symmetry_space_group_name_H-M "P 21/M"
_symmetry_group_IT_number 11
_symmetry_cell_setting 'monoclinic'
loop_
_space_group_symop_operation_xyz
x,y,z
-x,1/2+y,-z
-x,-y,-z
x,1/2-y,z
loop_
_atom_site_type_symbol
_atom_site_label
_atom_site_fract_x
_atom_site_fract_y
_atom_site_fract_z
Si Si1 0.731651 0.635886 0.657981
Si Si2 0.300528 0.082525 0.954869
Si Si3 0.789634 0.360134 0.053334
Si Si4 0.843994 0.031952 0.719306
Si Si5 0.155223 0.363182 0.156984
Si Si6 0.417933 0.922354 0.637229
Si Si7 0.356854 0.366118 0.593451
O O1 0.848358 0.750000 0.623140
O O2 0.894340 0.542034 0.632767
O O3 0.643512 0.616073 0.608109
O O4 0.458903 0.634598 0.802606
O O5 0.058166 0.132126 0.000806
O O6 0.568142 0.089522 0.813214
O O7 0.334576 0.126661 0.022158
O O8 0.226219 0.961776 0.988838
O O9 0.779128 0.250000 0.019064
O O10 0.805032 0.951025 0.799025
O O11 0.079061 0.104601 0.657435
O O12 0.178611 0.250000 0.180965
O O13 0.859576 0.380227 0.235470
O O14 0.446239 0.881583 0.545112
O O15 0.410990 0.045563 0.632389
O O16 0.363545 0.250000 0.617240
#
# Coordination Sequence:
#
# PCOD9157695 Si02
#       7
#     4   4   4   4   4   4   4
#     4  10  18  35  61  87 112 144 188 240 282 320
#     4  10  19  33  53  80 114 143 182 228 272 334
#     4   9  18  32  54  81 110 145 185 230 276 324
#     4  10  23  36  53  83 122 148 178 226 284 349
#     4  11  20  35  59  83 106 144 191 236 278 319
#     4  10  21  38  64  85 105 143 197 238 269 325
#     4  10  22  41  59  82 116 151 183 228 282 335
#
# _framework density 22.687425000000001
#
# number of rings (size 3 to 8) (size 9 to 14) (size 15 to 20)
#    0.000    2.000    1.429    2.571    0.000    2.286 
#    0.000    4.286    0.000    0.000    0.000    0.000 
#    0.000    0.000    0.000    0.000    0.000    0.000 
#
# Total GULP energy -156512.904761 kJ/mol
# GULP energy per Si atom -5589.746599 kJ/mol
# Density = 2.263579 g / cm^3
# Si number density = 22.687425 Si / 1000 Ang^3
#
#
#
# Elastic Constant Matrix: (Units=GPa)
#
#
# Indices 1 2 3 4 5 6 
#
# 1 45.5783 -4.9357 -3.4609 0.0000 1.2470 0.0000
# 2 -4.9357 129.5798 13.7414 0.0000 -3.9934 0.0000
# 3 -3.4609 13.7414 34.7018 0.0000 -7.5386 0.0000
# 4 0.0000 0.0000 0.0000 19.7575 0.0000 -0.4793
# 5 1.2470 -3.9934 -7.5386 0.0000 24.2812 0.0000
# 6 0.0000 0.0000 0.0000 -0.4793 0.0000 3.0507
#
#
#
# Elastic Compliance Matrix: (Units=1/GPa)
#
#
# Indices 1 2 3 4 5 6 
#
# 1 0.022163 0.000633 0.001861 0.000000 -0.000457 0.000000
# 2 0.000633 0.008077 -0.003060 0.000000 0.000346 0.000000
# 3 0.001861 -0.003060 0.032260 0.000000 0.009417 0.000000
# 4 0.000000 0.000000 0.000000 0.050807 0.000000 0.007983
# 5 -0.000457 0.000346 0.009417 0.000000 0.044188 0.000000
# 6 0.000000 0.000000 0.000000 0.007983 0.000000 0.329049
#
#
# Mechanical properties :
#
#
# Convention : Reuss Voigt Hill
#
# Bulk Modulus (GPa) = 16.29572 24.50550 20.40061
# Shear Modulus (GPa) = 9.83996 23.05222 16.44609
#
# Velocity S-wave (km/s) = 2.08485 3.19106 2.69532
# Velocity P-wave (km/s) = 3.60469 4.93983 4.32410
#
# Compressibility (1/GPa) = 0.06136579
#
# Stress axis : x y z
#
# Youngs Moduli (GPa) = 45.12117 123.81585 30.99822
#
# Poissons Ratio (x) = -0.07835 -0.05767
# Poissons Ratio (y) = -0.02855 0.09485
# Poissons Ratio (z) = -0.08395 0.37887
#
# Static dielectric constant tensor:
#      x y z
#    x 1.858040 0.000000 -0.040520 
#    y 0.000000 1.848650 0.000000 
#    z -0.040520 0.000000 1.844820 
# 
# From -- ./inp_files/58119.got.cif
#   From: 2010.05.17/outbox.cif.g08.bks.cpg/sg11_30_cif.got.tgz:58119.got - 2010.06.03 12:22:45.
