data_PCOD9157740
_publ_section_title
;
Structure prediction by ZEFSAII (Michael W. Deem and Ramdas Pophale) SiO2 
 PCOD9157740
Probable space group: P 21/M
;
_chemical_formula_sum "Si O2"
_cell_formula_units_Z 28
_cell_length_a 13.905768
_cell_length_b 15.263264
_cell_length_c 7.852321
_cell_angle_alpha 90.000000
_cell_angle_beta 57.599092
_cell_angle_gamma 90.000000
_cell_volume 1407.172134
_symmetry_space_group_name_H-M "P 21/M"
_symmetry_group_IT_number 11
_symmetry_cell_setting 'monoclinic'
loop_
_space_group_symop_operation_xyz
x,y,z
-x,1/2+y,-z
-x,-y,-z
x,1/2-y,z
loop_
_atom_site_type_symbol
_atom_site_label
_atom_site_fract_x
_atom_site_fract_y
_atom_site_fract_z
Si Si1 0.154055 0.844186 0.027475
Si Si2 0.690016 0.034728 0.558751
Si Si3 0.915018 0.520605 0.733331
Si Si4 0.648234 0.959825 0.930679
Si Si5 0.368714 0.151093 0.350712
Si Si6 0.601874 0.083492 0.271910
Si Si7 0.907706 0.151489 0.308949
O O1 0.128504 0.750000 0.132787
O O2 0.095464 0.928660 0.160422
O O3 0.289556 0.861722 0.896861
O O4 0.116385 0.841585 0.867985
O O5 0.624892 0.064510 0.449580
O O6 0.801913 0.093192 0.476041
O O7 0.624837 0.032166 0.802433
O O8 0.712789 0.929779 0.514258
O O9 0.785563 0.545582 0.812883
O O10 0.000000 0.500000 0.500000
O O11 0.976149 0.599157 0.773964
O O12 0.609765 0.871737 0.870151
O O13 0.604678 0.995391 0.152190
O O14 0.329054 0.250000 0.411556
O O15 0.485278 0.133011 0.342470
O O16 0.909283 0.250000 0.379390
#
# Coordination Sequence:
#
# PCOD9157740 Si02
#       7
#     4   4   4   4   4   4   4
#     4   9  20  35  56  83 108 138 185 232 277 330
#     4   9  20  37  57  83 115 143 185 236 277 325
#     4  11  19  35  53  80 111 145 176 226 281 332
#     4   9  21  35  57  78 114 143 189 221 282 322
#     4  10  20  36  57  82 117 150 185 228 279 332
#     4  10  18  36  61  79 110 152 184 230 281 324
#     4  10  20  37  58  81 107 144 190 234 276 329
#
# _framework density 19.898063
#
# number of rings (size 3 to 8) (size 9 to 14) (size 15 to 20)
#    0.857    1.429    1.429    1.714    0.000    1.714 
#    0.000    3.571    0.000    5.143    0.000    0.000 
#    0.000    0.000    0.000    0.000    0.000    0.000 
#
# Total GULP energy -155872.781270 kJ/mol
# GULP energy per Si atom -5566.885045 kJ/mol
# Density = 1.985277 g / cm^3
# Si number density = 19.898063 Si / 1000 Ang^3
#
#
#
# Elastic Constant Matrix: (Units=GPa)
#
#
# Indices 1 2 3 4 5 6 
#
# 1 83.4970 34.3804 0.3146 0.0000 1.0239 0.0000
# 2 34.3804 155.4782 13.1278 0.0000 -11.1566 0.0000
# 3 0.3146 13.1278 41.8216 0.0000 -1.7555 0.0000
# 4 0.0000 0.0000 0.0000 20.6087 0.0000 -6.2331
# 5 1.0239 -11.1566 -1.7555 0.0000 21.9179 0.0000
# 6 0.0000 0.0000 0.0000 -6.2331 0.0000 10.4473
#
#
#
# Elastic Compliance Matrix: (Units=1/GPa)
#
#
# Indices 1 2 3 4 5 6 
#
# 1 0.013303 -0.003165 0.000802 0.000000 -0.002168 0.000000
# 2 -0.003165 0.007593 -0.002198 0.000000 0.003837 0.000000
# 3 0.000802 -0.002198 0.024629 0.000000 0.000816 0.000000
# 4 0.000000 0.000000 0.000000 0.059207 0.000000 0.035324
# 5 -0.002168 0.003837 0.000816 0.000000 0.047744 0.000000
# 6 0.000000 0.000000 0.000000 0.035324 0.000000 0.116794
#
#
# Mechanical properties :
#
#
# Convention : Reuss Voigt Hill
#
# Bulk Modulus (GPa) = 27.47019 41.82693 34.64856
# Shear Modulus (GPa) = 17.21009 26.12637 21.66823
#
# Velocity S-wave (km/s) = 2.94413 3.62748 3.30352
# Velocity P-wave (km/s) = 5.03911 6.21378 5.65702
#
# Compressibility (1/GPa) = 0.03640309
#
# Stress axis : x y z
#
# Youngs Moduli (GPa) = 75.16952 131.70777 40.60187
#
# Poissons Ratio (x) = 0.41686 -0.03258
# Poissons Ratio (y) = 0.23791 0.08926
# Poissons Ratio (z) = -0.06032 0.28955
#
# Static dielectric constant tensor:
#      x y z
#    x 1.749630 0.000000 -0.001090 
#    y 0.000000 1.726350 0.000000 
#    z -0.001090 0.000000 1.736590 
# 
# From -- ./inp_files/21813.got.cif
#   From: 2010.05.17/outbox.cif.g08.bks.cpg/sg11_11_cif.got.tgz:21813.got - 2010.06.03 12:22:45.
