data_PCOD9157140
_publ_section_title
;
Structure prediction by ZEFSAII (Michael W. Deem and Ramdas Pophale) SiO2 
 PCOD9157140
Probable space group: P 21/M
;
_chemical_formula_sum "Si O2"
_cell_formula_units_Z 32
_cell_length_a 12.154930
_cell_length_b 9.087587
_cell_length_c 15.441095
_cell_angle_alpha 90.000000
_cell_angle_beta 86.664219
_cell_angle_gamma 90.000000
_cell_volume 1702.717807
_symmetry_space_group_name_H-M "P 21/M"
_symmetry_group_IT_number 11
_symmetry_cell_setting 'monoclinic'
loop_
_space_group_symop_operation_xyz
x,y,z
-x,1/2+y,-z
-x,-y,-z
x,1/2-y,z
loop_
_atom_site_type_symbol
_atom_site_label
_atom_site_fract_x
_atom_site_fract_y
_atom_site_fract_z
Si Si1 0.093309 0.074151 0.688976
Si Si2 0.700384 0.076003 0.822570
Si Si3 0.332000 0.078920 0.453183
Si Si4 0.316751 0.925995 0.626678
Si Si5 0.150918 0.924277 0.355288
Si Si6 0.831967 0.921566 0.965858
Si Si7 0.078122 0.921364 0.874378
Si Si8 0.517959 0.922591 0.725191
O O1 0.105511 0.250000 0.687690
O O2 0.977018 0.038125 0.648902
O O3 0.197287 0.997023 0.640931
O O4 0.087344 0.014759 0.787077
O O5 0.696077 0.250000 0.838868
O O6 0.787948 0.051148 0.739945
O O7 0.744345 0.991140 0.904271
O O8 0.584144 0.015839 0.792489
O O9 0.325223 0.250000 0.477442
O O10 0.413637 0.064760 0.367867
O O11 0.365784 0.984400 0.534335
O O12 0.215599 0.018645 0.422865
O O13 0.311485 0.750000 0.625271
O O14 0.395090 0.968676 0.703784
O O15 0.162096 0.750000 0.374381
O O16 0.809119 0.750000 0.983707
O O17 0.952099 0.930167 0.914161
O O18 0.845666 0.012006 0.053718
O O19 0.104041 0.750000 0.856979
O O20 0.518523 0.750000 0.749651
#
# Coordination Sequence:
#
# PCOD9157140 Si02
#       8
#     4   4   4   4   4   4   4   4
#     4  11  22  37  55  76 109 145 181 220 262 319
#     4  10  18  31  54  82 110 139 175 221 268 315
#     4  10  20  35  57  81 104 133 175 226 274 317
#     4  11  23  38  55  76 105 142 182 221 268 321
#     4   9  19  34  52  76 107 141 174 215 267 317
#     4  10  19  31  52  81 113 144 176 215 261 313
#     4  10  20  33  52  79 111 145 179 216 260 312
#     4   9  20  37  56  79 106 137 177 226 271 316
#
# _framework density 18.793482999999998
#
# number of rings (size 3 to 8) (size 9 to 14) (size 15 to 20)
#    0.000    2.000    1.250    2.625    0.000    4.500 
#    0.000    0.000    0.000    0.750    0.000    0.000 
#    0.000    0.000    0.000    0.000    0.000    0.000 
#
# Total GULP energy -178712.036247 kJ/mol
# GULP energy per Si atom -5584.751133 kJ/mol
# Density = 1.875071 g / cm^3
# Si number density = 18.793483 Si / 1000 Ang^3
#
#
#
# Elastic Constant Matrix: (Units=GPa)
#
#
# Indices 1 2 3 4 5 6 
#
# 1 65.2424 33.6630 9.2950 0.0000 23.6679 0.0000
# 2 33.6630 66.7552 20.7054 0.0000 22.6188 0.0000
# 3 9.2950 20.7054 35.2532 0.0000 26.2218 0.0000
# 4 0.0000 0.0000 0.0000 34.3781 0.0000 7.4049
# 5 23.6679 22.6188 26.2218 0.0000 30.7934 0.0000
# 6 0.0000 0.0000 0.0000 7.4049 0.0000 23.4442
#
#
#
# Elastic Compliance Matrix: (Units=1/GPa)
#
#
# Indices 1 2 3 4 5 6 
#
# 1 0.031441 -0.011004 0.027647 0.000000 -0.039626 0.000000
# 2 -0.011004 0.023859 -0.011912 0.000000 0.001076 0.000000
# 3 0.027647 -0.011912 0.101934 0.000000 -0.099300 0.000000
# 4 0.000000 0.000000 0.000000 0.031212 0.000000 -0.009858
# 5 -0.039626 0.001076 -0.099300 0.000000 0.146698 0.000000
# 6 0.000000 0.000000 0.000000 -0.009858 0.000000 0.045768
#
#
# Mechanical properties :
#
#
# Convention : Reuss Voigt Hill
#
# Bulk Modulus (GPa) = 5.99896 32.73086 19.36491
# Shear Modulus (GPa) = 11.70915 24.62897 18.16906
#
# Velocity S-wave (km/s) = 2.49879 3.62402 3.11267
# Velocity P-wave (km/s) = 3.39474 5.91314 4.82128
#
# Compressibility (1/GPa) = 0.16669562
#
# Stress axis : x y z
#
# Youngs Moduli (GPa) = 31.80536 41.91225 9.81030
#
# Poissons Ratio (x) = 0.46120 -0.27123
# Poissons Ratio (y) = 0.34998 0.11687
# Poissons Ratio (z) = -0.87932 0.49928
#
# Static dielectric constant tensor:
#      x y z
#    x 1.661540 0.000000 -0.013480 
#    y 0.000000 1.621760 0.000000 
#    z -0.013480 0.000000 1.640440 
# 
# From -- ./inp_files/38167.got.cif
#   From: 2010.05.17/outbox.cif.g08.bks.cpg/sg11_20_cif.got.tgz:38167.got - 2010.06.03 12:22:45.
