data_PCOD9157839
_publ_section_title
;
Structure prediction by ZEFSAII (Michael W. Deem and Ramdas Pophale) SiO2 
 PCOD9157839
Probable space group: P 21/M
;
_chemical_formula_sum "Si O2"
_cell_formula_units_Z 32
_cell_length_a 14.667999
_cell_length_b 7.534952
_cell_length_c 16.398092
_cell_angle_alpha 90.000000
_cell_angle_beta 90.742693
_cell_angle_gamma 90.000000
_cell_volume 1812.208626
_symmetry_space_group_name_H-M "P 21/M"
_symmetry_group_IT_number 11
_symmetry_cell_setting 'monoclinic'
loop_
_space_group_symop_operation_xyz
x,y,z
-x,1/2+y,-z
-x,-y,-z
x,1/2-y,z
loop_
_atom_site_type_symbol
_atom_site_label
_atom_site_fract_x
_atom_site_fract_y
_atom_site_fract_z
Si Si1 0.608867 0.962879 0.678901
Si Si2 0.391858 0.462431 0.498785
Si Si3 0.291469 0.463241 0.158784
Si Si4 0.098432 0.044688 0.896491
Si Si5 0.606954 0.537638 0.001878
Si Si6 0.393152 0.036373 0.676595
Si Si7 0.712746 0.968381 0.164575
Si Si8 0.897338 0.461325 0.917633
O O1 0.619913 0.750000 0.676991
O O2 0.639758 0.031135 0.589909
O O3 0.664682 0.031684 0.757023
O O4 0.500673 0.996154 0.688058
O O5 0.500000 0.500000 0.500000
O O6 0.378096 0.250000 0.498578
O O7 0.360624 0.529942 0.587021
O O8 0.302013 0.250000 0.159770
O O9 0.344916 0.531621 0.079510
O O10 0.185296 0.502137 0.143852
O O11 0.090773 0.250000 0.871752
O O12 0.183392 0.969915 0.847512
O O13 0.996300 0.968365 0.890703
O O14 0.123916 0.037663 0.992921
O O15 0.618788 0.750000 0.001669
O O16 0.500000 0.500000 0.000000
O O17 0.654535 0.473232 0.085212
O O18 0.385962 0.250000 0.675236
O O19 0.335079 0.972567 0.752760
O O20 0.713131 0.750000 0.164419
O O21 0.905656 0.250000 0.929256
#
# Coordination Sequence:
#
# PCOD9157839 Si02
#       8
#     4   4   4   4   4   4   4   4
#     4   9  17  28  42  60  85 116 143 169 205 247
#     4   8  14  25  40  60  83 106 138 174 206 241
#     4  10  19  31  44  58  83 118 144 167 208 252
#     4   9  17  32  48  61  83 110 137 172 216 258
#     4  10  19  29  40  55  80 113 142 166 195 236
#     4   9  16  26  43  64  85 110 139 174 208 240
#     4   9  16  28  44  60  81 111 139 164 204 251
#     4  10  19  29  46  67  82 103 139 182 215 244
#
# _framework density 17.658011999999999
#
# number of rings (size 3 to 8) (size 9 to 14) (size 15 to 20)
#    0.000    2.750    1.250    1.125    0.000    1.500 
#    0.000    0.625    0.000    0.000    0.000    0.875 
#    0.000    0.000    0.000    0.000    0.000    0.000 
#
# Total GULP energy -178339.857699 kJ/mol
# GULP energy per Si atom -5573.120553 kJ/mol
# Density = 1.761782 g / cm^3
# Si number density = 17.658012 Si / 1000 Ang^3
#
#
#
# Elastic Constant Matrix: (Units=GPa)
#
#
# Indices 1 2 3 4 5 6 
#
# 1 111.2722 -4.2975 87.2636 0.0000 -2.6742 0.0000
# 2 -4.2975 45.6629 7.2965 0.0000 0.4272 0.0000
# 3 87.2636 7.2965 180.4918 0.0000 -2.7218 0.0000
# 4 0.0000 0.0000 0.0000 -1.5663 0.0000 0.5534
# 5 -2.6742 0.4272 -2.7218 0.0000 10.1779 0.0000
# 6 0.0000 0.0000 0.0000 0.5534 0.0000 14.0729
#
#
#
# Elastic Compliance Matrix: (Units=1/GPa)
#
#
# Indices 1 2 3 4 5 6 
#
# 1 0.014798 0.002531 -0.007229 0.000000 0.001849 0.000000
# 2 0.002531 0.022489 -0.002145 0.000000 -0.000853 0.000000
# 3 -0.007229 -0.002145 0.009132 0.000000 0.000633 0.000000
# 4 0.000000 0.000000 0.000000 -0.629714 0.000000 0.024764
# 5 0.001849 -0.000853 0.000633 0.000000 0.098943 0.000000
# 6 0.000000 0.000000 0.000000 0.024764 0.000000 0.070085
#
#
# Mechanical properties :
#
#
# Convention : Reuss Voigt Hill
#
# Bulk Modulus (GPa) = 30.55222 57.55025 44.05123
# Shear Modulus (GPa) = -12.83138 21.01453 4.09157
#
# Velocity S-wave (km/s) = -2.69859 3.45350 1.52386
# Velocity P-wave (km/s) = 2.76223 6.96883 5.30068
#
# Compressibility (1/GPa) = 0.03273085
#
# Stress axis : x y z
#
# Youngs Moduli (GPa) = 67.57446 44.46701 109.50721
#
# Poissons Ratio (x) = -0.11253 0.79164
# Poissons Ratio (y) = -0.17100 0.23494
# Poissons Ratio (z) = 0.48851 0.09540
#
# Static dielectric constant tensor:
#      x y z
#    x 1.586510 0.000000 -0.006600 
#    y 0.000000 1.654900 0.000000 
#    z -0.006600 0.000000 1.631210 
# 
# From -- ./inp_files/51185.got.cif
#   From: 2010.05.17/outbox.cif.g08.bks.cpg/sg11_26_cif.got.tgz:51185.got - 2010.06.03 12:22:45.
