data_PCOD9157691
_publ_section_title
;
Structure prediction by ZEFSAII (Michael W. Deem and Ramdas Pophale) SiO2 
 PCOD9157691
Probable space group: P 21/M
;
_chemical_formula_sum "Si O2"
_cell_formula_units_Z 28
_cell_length_a 4.994416
_cell_length_b 26.960095
_cell_length_c 9.260823
_cell_angle_alpha 90.000000
_cell_angle_beta 75.381888
_cell_angle_gamma 90.000000
_cell_volume 1206.604076
_symmetry_space_group_name_H-M "P 21/M"
_symmetry_group_IT_number 11
_symmetry_cell_setting 'monoclinic'
loop_
_space_group_symop_operation_xyz
x,y,z
-x,1/2+y,-z
-x,-y,-z
x,1/2-y,z
loop_
_atom_site_type_symbol
_atom_site_label
_atom_site_fract_x
_atom_site_fract_y
_atom_site_fract_z
Si Si1 0.154880 0.444436 0.166429
Si Si2 0.824352 0.348966 0.151623
Si Si3 0.497330 0.356005 0.461399
Si Si4 0.463737 0.601553 0.084908
Si Si5 0.112448 0.851983 0.343624
Si Si6 0.169722 0.196596 0.882080
Si Si7 0.411703 0.965285 0.642541
O O1 0.050693 0.386844 0.187974
O O2 0.874676 0.475068 0.232983
O O3 0.331782 0.442606 0.992531
O O4 0.353971 0.459496 0.268769
O O5 0.601209 0.332226 0.298710
O O6 0.683039 0.381784 0.043837
O O7 0.977061 0.305325 0.049342
O O8 0.656910 0.333374 0.576162
O O9 0.610907 0.411780 0.430698
O O10 0.172388 0.359643 0.531846
O O11 0.640339 0.648295 0.119861
O O12 0.230916 0.599335 0.241548
O O13 0.023889 0.814318 0.229157
O O14 0.308336 0.250000 0.850857
O O15 0.500000 0.000000 0.500000
#
# Coordination Sequence:
#
# PCOD9157691 Si02
#       7
#     4   4   4   4   4   4   4
#     4  10  18  35  60  89 119 157 205 247 283 371
#     4   9  20  36  65  88 117 159 209 247 299 349
#     4  11  21  39  63  91 121 155 205 250 295 372
#     4  10  19  39  62  93 113 172 208 241 298 368
#     4  11  23  38  62  90 124 165 202 240 307 373
#     4  10  22  41  63  91 121 160 209 252 297 363
#     4  11  22  36  62  96 125 156 200 262 317 353
#
# _framework density 23.205621000000001
#
# number of rings (size 3 to 8) (size 9 to 14) (size 15 to 20)
#    0.000    1.714    4.286    2.143    2.000    2.286 
#    0.000    1.429    0.000    5.143    0.000    0.000 
#    0.000    0.000    0.000    0.000    0.000    0.000 
#
# Total GULP energy -156186.232105 kJ/mol
# GULP energy per Si atom -5578.079718 kJ/mol
# Density = 2.315280 g / cm^3
# Si number density = 23.205621 Si / 1000 Ang^3
#
#
#
# Elastic Constant Matrix: (Units=GPa)
#
#
# Indices 1 2 3 4 5 6 
#
# 1 128.9918 -4.3065 36.8337 0.0000 5.0969 0.0000
# 2 -4.3065 38.2081 -6.8098 0.0000 11.0054 0.0000
# 3 36.8337 -6.8098 125.9979 0.0000 -18.9804 0.0000
# 4 0.0000 0.0000 0.0000 10.0385 0.0000 -5.3110
# 5 5.0969 11.0054 -18.9804 0.0000 38.8409 0.0000
# 6 0.0000 0.0000 0.0000 -5.3110 0.0000 9.8767
#
#
#
# Elastic Compliance Matrix: (Units=1/GPa)
#
#
# Indices 1 2 3 4 5 6 
#
# 1 0.008750 0.001314 -0.002932 0.000000 -0.002953 0.000000
# 2 0.001314 0.028710 -0.000091 0.000000 -0.008352 0.000000
# 3 -0.002932 -0.000091 0.009554 0.000000 0.005079 0.000000
# 4 0.000000 0.000000 0.000000 0.139225 0.000000 0.074865
# 5 -0.002953 -0.008352 0.005079 0.000000 0.030982 0.000000
# 6 0.000000 0.000000 0.000000 0.074865 0.000000 0.141505
#
#
# Mechanical properties :
#
#
# Convention : Reuss Voigt Hill
#
# Bulk Modulus (GPa) = 22.93684 38.29250 30.61467
# Shear Modulus (GPa) = 13.27404 29.58326 21.42865
#
# Velocity S-wave (km/s) = 2.39429 3.57435 3.04209
# Velocity P-wave (km/s) = 4.18916 5.79412 5.05574
#
# Compressibility (1/GPa) = 0.04359799
#
# Stress axis : x y z
#
# Youngs Moduli (GPa) = 114.28303 34.83101 104.66875
#
# Poissons Ratio (x) = -0.04578 0.30687
# Poissons Ratio (y) = -0.15021 0.00949
# Poissons Ratio (z) = 0.33506 0.00316
#
# Static dielectric constant tensor:
#      x y z
#    x 1.948600 0.000000 -0.076390 
#    y 0.000000 1.909430 0.000000 
#    z -0.076390 0.000000 1.975930 
# 
# From -- ./inp_files/10708.got.cif
#   From: 2010.05.17/outbox.cif.g08.bks.cpg/sg11_6_cif.got.tgz:10708.got - 2010.06.03 12:22:45.
