data_PCOD9157315
_publ_section_title
;
Structure prediction by ZEFSAII (Michael W. Deem and Ramdas Pophale) SiO2 
 PCOD9157315
Probable space group: P 21/M
;
_chemical_formula_sum "Si O2"
_cell_formula_units_Z 32
_cell_length_a 9.379413
_cell_length_b 25.079094
_cell_length_c 15.404842
_cell_angle_alpha 90.000000
_cell_angle_beta 150.333945
_cell_angle_gamma 90.000000
_cell_volume 1793.497513
_symmetry_space_group_name_H-M "P 21/M"
_symmetry_group_IT_number 11
_symmetry_cell_setting 'monoclinic'
loop_
_space_group_symop_operation_xyz
x,y,z
-x,1/2+y,-z
-x,-y,-z
x,1/2-y,z
loop_
_atom_site_type_symbol
_atom_site_label
_atom_site_fract_x
_atom_site_fract_y
_atom_site_fract_z
Si Si1 0.854448 0.619323 0.455364
Si Si2 0.605637 0.312421 0.292789
Si Si3 0.335178 0.529908 0.751959
Si Si4 0.394154 0.892572 0.354771
Si Si5 0.265462 0.122820 0.975580
Si Si6 0.516649 0.106978 0.401706
Si Si7 0.705268 0.996847 0.789433
Si Si8 0.191528 0.079465 0.751415
O O1 0.613859 0.628480 0.399540
O O2 0.712804 0.604990 0.288520
O O3 0.067904 0.668567 0.551971
O O4 0.067123 0.570052 0.595709
O O5 0.580569 0.250000 0.294210
O O6 0.501359 0.346332 0.321982
O O7 0.433704 0.331619 0.116274
O O8 0.438764 0.504087 0.716315
O O9 0.273754 0.482913 0.787814
O O10 0.602078 0.567692 0.917904
O O11 0.519862 0.880886 0.516470
O O12 0.070642 0.870291 0.182050
O O13 0.345821 0.955193 0.305064
O O14 0.300119 0.113212 0.890919
O O15 0.304144 0.059774 0.262874
O O16 0.844213 0.084282 0.569268
O O17 0.000000 0.000000 0.000000
#
# Coordination Sequence:
#
# PCOD9157315 Si02
#       8
#     4   4   4   4   4   4   4   4
#     4  10  20  36  57  81 112 146 190 230 271 332
#     4  10  21  44  65  75 102 148 190 243 291 333
#     4  11  18  33  51  79 121 162 189 211 268 335
#     4  11  21  34  57  87 118 150 178 234 280 334
#     4  10  21  36  52  85 115 145 195 225 276 344
#     4  10  21  37  54  83 114 149 199 226 275 341
#     4  12  19  32  52  83 126 161 184 219 273 340
#     4  10  18  32  55  77 114 153 185 225 264 331
#
# _framework density 17.842234000000001
#
# number of rings (size 3 to 8) (size 9 to 14) (size 15 to 20)
#    0.000    1.500    6.250    1.875    0.000    1.000 
#    4.500    6.875    0.000    0.000    0.000    0.000 
#    0.000    0.000    0.000    0.000    0.000    0.000 
#
# Total GULP energy -178424.027934 kJ/mol
# GULP energy per Si atom -5575.750873 kJ/mol
# Density = 1.780162 g / cm^3
# Si number density = 17.842234 Si / 1000 Ang^3
#
#
#
# Elastic Constant Matrix: (Units=GPa)
#
#
# Indices 1 2 3 4 5 6 
#
# 1 95.5221 5.5694 18.5642 0.0000 -20.1660 0.0000
# 2 5.5694 76.1744 20.8778 0.0000 -16.5877 0.0000
# 3 18.5642 20.8778 65.4902 0.0000 -24.4072 0.0000
# 4 0.0000 0.0000 0.0000 12.3875 0.0000 -2.1019
# 5 -20.1660 -16.5877 -24.4072 0.0000 23.4874 0.0000
# 6 0.0000 0.0000 0.0000 -2.1019 0.0000 10.7507
#
#
#
# Elastic Compliance Matrix: (Units=1/GPa)
#
#
# Indices 1 2 3 4 5 6 
#
# 1 0.012995 0.001713 0.000619 0.000000 0.013011 0.000000
# 2 0.001713 0.015819 -0.001333 0.000000 0.011258 0.000000
# 3 0.000619 -0.001333 0.025079 0.000000 0.025651 0.000000
# 4 0.000000 0.000000 0.000000 0.083497 0.000000 0.016324
# 5 0.013011 0.011258 0.025651 0.000000 0.088353 0.000000
# 6 0.000000 0.000000 0.000000 0.016324 0.000000 0.096208
#
#
# Mechanical properties :
#
#
# Convention : Reuss Voigt Hill
#
# Bulk Modulus (GPa) = 17.89156 36.35658 27.12407
# Shear Modulus (GPa) = 14.76740 22.13680 18.45210
#
# Velocity S-wave (km/s) = 2.88004 3.52617 3.21936
# Velocity P-wave (km/s) = 4.59444 6.08272 5.39019
#
# Compressibility (1/GPa) = 0.05589226
#
# Stress axis : x y z
#
# Youngs Moduli (GPa) = 76.95040 63.21338 39.87466
#
# Poissons Ratio (x) = -0.10831 -0.02468
# Poissons Ratio (y) = -0.13185 0.05316
# Poissons Ratio (z) = -0.04764 0.08427
#
# Static dielectric constant tensor:
#      x y z
#    x 1.647930 0.000000 -0.017820 
#    y 0.000000 1.599480 0.000000 
#    z -0.017820 0.000000 1.639370 
# 
# From -- ./inp_files/23437.got.cif
#   From: 2010.05.17/outbox.cif.g08.bks.cpg/sg11_12_cif.got.tgz:23437.got - 2010.06.03 12:22:45.
