data_PCOD9157962
_publ_section_title
;
Structure prediction by ZEFSAII (Michael W. Deem and Ramdas Pophale) SiO2 
 PCOD9157962
Probable space group: P 21/M
;
_chemical_formula_sum "Si O2"
_cell_formula_units_Z 32
_cell_length_a 21.997556
_cell_length_b 8.690589
_cell_length_c 31.630059
_cell_angle_alpha 90.000000
_cell_angle_beta 160.480345
_cell_angle_gamma 90.000000
_cell_volume 2020.409426
_symmetry_space_group_name_H-M "P 21/M"
_symmetry_group_IT_number 11
_symmetry_cell_setting 'monoclinic'
loop_
_space_group_symop_operation_xyz
x,y,z
-x,1/2+y,-z
-x,-y,-z
x,1/2-y,z
loop_
_atom_site_type_symbol
_atom_site_label
_atom_site_fract_x
_atom_site_fract_y
_atom_site_fract_z
Si Si1 0.437408 0.935955 0.121510
Si Si2 0.782229 0.064211 0.198707
Si Si3 0.830582 0.564378 0.513697
Si Si4 0.168028 0.435666 0.583530
Si Si5 0.201681 0.065992 0.041234
Si Si6 0.554409 0.565037 0.717483
Si Si7 0.891999 0.565497 0.888717
Si Si8 0.547799 0.435718 0.965427
O O1 0.427291 0.750000 0.117099
O O2 0.638247 0.982052 0.269535
O O3 0.415341 0.983931 0.058357
O O4 0.287993 0.005194 0.054774
O O5 0.778602 0.250000 0.198151
O O6 0.986561 0.013078 0.342638
O O7 0.642107 0.001194 0.141700
O O8 0.701133 0.017262 0.100006
O O9 0.826473 0.750000 0.511235
O O10 0.839277 0.514579 0.470243
O O11 0.644964 0.504780 0.412362
O O12 0.159204 0.250000 0.578701
O O13 0.000000 0.500000 0.500000
O O14 0.194111 0.250000 0.036609
O O15 0.337694 0.017438 0.168865
O O16 0.002190 0.000738 0.921400
O O17 0.541507 0.750000 0.709994
O O18 0.683348 0.522543 0.762291
O O19 0.904218 0.750000 0.896558
O O20 0.000000 0.500000 0.000000
O O21 0.536572 0.250000 0.958563
#
# Coordination Sequence:
#
# PCOD9157962 Si02
#       8
#     4   4   4   4   4   4   4   4
#     4  10  19  31  46  65  91 122 154 188 228 274
#     4   9  18  32  48  67  90 117 154 196 235 271
#     4  10  19  30  45  65  91 121 151 186 227 269
#     4  10  20  30  41  61  87 119 152 181 221 270
#     4  10  19  30  45  68  94 123 155 187 227 273
#     4   9  18  30  44  66  93 121 152 183 219 267
#     4   9  17  29  45  66  93 124 156 187 223 268
#     4   9  18  32  49  67  88 118 156 195 234 273
#
# _framework density 15.838374
#
# number of rings (size 3 to 8) (size 9 to 14) (size 15 to 20)
#    0.000    2.500    1.250    2.250    0.000    4.500 
#    0.000    0.000    0.000    0.000    0.000    0.875 
#    0.000    0.000    0.000    0.000    0.000    0.000 
#
# Total GULP energy -178368.869393 kJ/mol
# GULP energy per Si atom -5574.027169 kJ/mol
# Density = 1.580233 g / cm^3
# Si number density = 15.838374 Si / 1000 Ang^3
#
#
#
# Elastic Constant Matrix: (Units=GPa)
#
#
# Indices 1 2 3 4 5 6 
#
# 1 140.9848 31.5549 87.9151 0.0000 26.0207 0.0000
# 2 31.5549 13.4798 26.3199 0.0000 5.3761 0.0000
# 3 87.9151 26.3199 114.5206 0.0000 21.9780 0.0000
# 4 0.0000 0.0000 0.0000 16.4917 0.0000 11.8274
# 5 26.0207 5.3761 21.9780 0.0000 25.1680 0.0000
# 6 0.0000 0.0000 0.0000 11.8274 0.0000 24.0630
#
#
#
# Elastic Compliance Matrix: (Units=1/GPa)
#
#
# Indices 1 2 3 4 5 6 
#
# 1 0.019018 -0.028703 -0.006494 0.000000 -0.007859 0.000000
# 2 -0.028703 0.177989 -0.020747 0.000000 0.009773 0.000000
# 3 -0.006494 -0.020747 0.019638 0.000000 -0.006003 0.000000
# 4 0.000000 0.000000 0.000000 0.093648 0.000000 -0.046029
# 5 -0.007859 0.009773 -0.006003 0.000000 0.051013 0.000000
# 6 0.000000 0.000000 0.000000 -0.046029 0.000000 0.064182
#
#
# Mechanical properties :
#
#
# Convention : Reuss Voigt Hill
#
# Bulk Modulus (GPa) = 9.54611 62.28500 35.91555
# Shear Modulus (GPa) = 8.73676 21.35756 15.04716
#
# Velocity S-wave (km/s) = 2.35121 3.67613 3.08562
# Velocity P-wave (km/s) = 3.66213 7.57822 5.95149
#
# Compressibility (1/GPa) = 0.10475473
#
# Stress axis : x y z
#
# Youngs Moduli (GPa) = 52.58297 5.61832 50.92221
#
# Poissons Ratio (x) = 0.16127 0.33070
# Poissons Ratio (y) = 1.50931 1.05649
# Poissons Ratio (z) = 0.34149 0.11656
#
# Static dielectric constant tensor:
#      x y z
#    x 1.552210 0.000000 -0.008940 
#    y 0.000000 1.532600 0.000000 
#    z -0.008940 0.000000 1.529100 
# 
# From -- ./inp_files/40683.got.cif
#   From: 2010.05.17/outbox.cif.g08.bks.cpg/sg11_21_cif.got.tgz:40683.got - 2010.06.03 12:22:45.
