data_PCOD9157807
_publ_section_title
;
Structure prediction by ZEFSAII (Michael W. Deem and Ramdas Pophale) SiO2 
 PCOD9157807
Probable space group: P 21/M
;
_chemical_formula_sum "Si O2"
_cell_formula_units_Z 24
_cell_length_a 9.558658
_cell_length_b 18.163258
_cell_length_c 8.493410
_cell_angle_alpha 90.000000
_cell_angle_beta 122.407932
_cell_angle_gamma 90.000000
_cell_volume 1244.932362
_symmetry_space_group_name_H-M "P 21/M"
_symmetry_group_IT_number 11
_symmetry_cell_setting 'monoclinic'
loop_
_space_group_symop_operation_xyz
x,y,z
-x,1/2+y,-z
-x,-y,-z
x,1/2-y,z
loop_
_atom_site_type_symbol
_atom_site_label
_atom_site_fract_x
_atom_site_fract_y
_atom_site_fract_z
Si Si1 0.114554 0.029141 0.927869
Si Si2 0.722000 0.250000 0.536569
Si Si3 0.034969 0.872566 0.408944
Si Si4 0.754518 0.750000 0.248043
Si Si5 0.588364 0.250000 0.098875
Si Si6 0.823450 0.120498 0.153081
Si Si7 0.141627 0.331289 0.137179
Si Si8 0.615278 0.750000 0.508368
O O1 0.006967 0.054562 0.712978
O O2 0.224280 0.960240 0.939641
O O3 0.186380 0.104648 0.042702
O O4 0.000000 0.000000 0.000000
O O5 0.639824 0.250000 0.313077
O O6 0.577495 0.250000 0.574703
O O7 0.834181 0.322779 0.608679
O O8 0.872825 0.821036 0.320236
O O9 0.104430 0.884747 0.625817
O O10 0.657165 0.750000 0.353128
O O11 0.608424 0.750000 0.033399
O O12 0.674911 0.178799 0.072294
O O13 0.974675 0.149633 0.134228
O O14 0.114591 0.250000 0.046698
O O15 0.291288 0.318137 0.349776
#
# Coordination Sequence:
#
# PCOD9157807 Si02
#       8
#     4   2   4   2   2   4   4   2
#     4  10  22  33  60  91 118 151 197 240 287 347
#     4   9  22  34  62  87 118 146 198 245 284 344
#     4  10  20  39  59  88 116 156 196 237 292 347
#     4  11  22  35  65  90 113 153 203 236 290 348
#     4  10  21  36  60  88 113 151 200 245 287 345
#     4  10  18  40  60  83 117 155 194 239 291 346
#     4   9  18  33  58  86 116 154 192 238 293 343
#     4  10  19  35  57  87 118 152 191 244 295 339
#
# _framework density 19.278155999999999
#
# number of rings (size 3 to 8) (size 9 to 14) (size 15 to 20)
#    0.500    1.667    2.500    1.000    4.667    2.667 
#    0.000    0.833    3.667    3.000    0.000    0.000 
#    0.000    0.000    0.000    0.000    0.000    0.000 
#
# Total GULP energy -133859.168518 kJ/mol
# GULP energy per Si atom -5577.465355 kJ/mol
# Density = 1.923428 g / cm^3
# Si number density = 19.278156 Si / 1000 Ang^3
#
#
#
# Elastic Constant Matrix: (Units=GPa)
#
#
# Indices 1 2 3 4 5 6 
#
# 1 104.1725 25.4585 12.0729 0.0000 4.2207 0.0000
# 2 25.4585 107.7004 17.1615 0.0000 -10.5657 0.0000
# 3 12.0729 17.1615 37.1065 0.0000 -0.4842 0.0000
# 4 0.0000 0.0000 0.0000 26.4899 0.0000 -13.6234
# 5 4.2207 -10.5657 -0.4842 0.0000 23.2214 0.0000
# 6 0.0000 0.0000 0.0000 -13.6234 0.0000 8.1771
#
#
#
# Elastic Compliance Matrix: (Units=1/GPa)
#
#
# Indices 1 2 3 4 5 6 
#
# 1 0.010592 -0.002429 -0.002363 0.000000 -0.003080 0.000000
# 2 -0.002429 0.011066 -0.004257 0.000000 0.005388 0.000000
# 3 -0.002363 -0.004257 0.029676 0.000000 -0.000889 0.000000
# 4 0.000000 0.000000 0.000000 0.263647 0.000000 0.439245
# 5 -0.003080 0.005388 -0.000889 0.000000 0.046056 0.000000
# 6 0.000000 0.000000 0.000000 0.439245 0.000000 0.854088
#
#
# Mechanical properties :
#
#
# Convention : Reuss Voigt Hill
#
# Bulk Modulus (GPa) = 30.08902 39.81836 34.95369
# Shear Modulus (GPa) = 4.01832 24.53012 14.27422
#
# Velocity S-wave (km/s) = 1.44531 3.57098 2.72405
# Velocity P-wave (km/s) = 4.29266 6.14020 5.29759
#
# Compressibility (1/GPa) = 0.03323472
#
# Stress axis : x y z
#
# Youngs Moduli (GPa) = 94.41286 90.36506 33.69770
#
# Poissons Ratio (x) = 0.21953 0.07962
# Poissons Ratio (y) = 0.22936 0.14346
# Poissons Ratio (z) = 0.22307 0.38471
#
# Static dielectric constant tensor:
#      x y z
#    x 1.646290 0.000000 -0.030780 
#    y 0.000000 1.699730 0.000000 
#    z -0.030780 0.000000 1.689130 
# 
# From -- ./inp_files/14440.got.cif
#   From: 2010.05.17/outbox.cif.g08.bks.cpg/sg11_8_cif.got.tgz:14440.got - 2010.06.03 12:22:45.
