data_PCOD9157563
_publ_section_title
;
Structure prediction by ZEFSAII (Michael W. Deem and Ramdas Pophale) SiO2 
 PCOD9157563
Probable space group: P 21/M
;
_chemical_formula_sum "Si O2"
_cell_formula_units_Z 16
_cell_length_a 8.894990
_cell_length_b 14.616243
_cell_length_c 6.938274
_cell_angle_alpha 90.000000
_cell_angle_beta 61.059175
_cell_angle_gamma 90.000000
_cell_volume 789.405687
_symmetry_space_group_name_H-M "P 21/M"
_symmetry_group_IT_number 11
_symmetry_cell_setting 'monoclinic'
loop_
_space_group_symop_operation_xyz
x,y,z
-x,1/2+y,-z
-x,-y,-z
x,1/2-y,z
loop_
_atom_site_type_symbol
_atom_site_label
_atom_site_fract_x
_atom_site_fract_y
_atom_site_fract_z
Si Si1 0.196491 0.250000 0.014265
Si Si2 0.443497 0.895801 0.554996
Si Si3 0.303511 0.250000 0.485736
Si Si4 0.943498 0.395801 0.054997
Si Si5 0.437118 0.750000 0.225997
Si Si6 0.062880 0.750000 0.274004
O O1 0.250001 0.250000 0.750000
O O2 0.381820 0.250000 0.002023
O O3 0.076637 0.339132 0.105859
O O4 0.576635 0.839132 0.605860
O O5 0.249999 0.889934 0.750000
O O6 0.444367 0.840921 0.353502
O O7 0.500000 0.000000 0.500000
O O8 0.118183 0.250000 0.497977
O O9 0.944364 0.340921 0.853505
O O10 0.000000 0.500000 0.000000
O O11 0.249996 0.750000 0.250011
#
# Coordination Sequence:
#
# PCOD9157563 Si02
#       6
#     2   4   2   4   2   2
#     4   8  16  31  50  73 102 137 169 204 254 314
#     4  10  18  34  56  77 102 143 179 205 252 323
#     4   8  16  31  50  73 102 137 169 204 254 314
#     4  10  18  34  56  77 102 143 179 205 252 323
#     4  10  20  35  54  81 108 131 170 226 264 294
#     4  10  20  35  54  81 108 131 170 226 264 294
#
# _framework density 20.268412000000001
#
# number of rings (size 3 to 8) (size 9 to 14) (size 15 to 20)
#    0.000    3.000    0.000    7.500    0.000    0.000 
#    0.000   15.000    0.000    0.000    0.000    0.000 
#    0.000    0.000    0.000    0.000    0.000    0.000 
#
# Total GULP energy -89176.724714 kJ/mol
# GULP energy per Si atom -5573.545295 kJ/mol
# Density = 2.022228 g / cm^3
# Si number density = 20.268412 Si / 1000 Ang^3
#
#
#
# Elastic Constant Matrix: (Units=GPa)
#
#
# Indices 1 2 3 4 5 6 
#
# 1 176.9916 78.3892 45.5812 0.0000 -54.0583 0.0000
# 2 78.3892 208.7032 47.3526 0.0000 -28.5698 0.0000
# 3 45.5812 47.3526 86.9668 0.0000 -60.5461 0.0000
# 4 0.0000 0.0000 0.0000 31.8763 0.0000 -15.0234
# 5 -54.0583 -28.5698 -60.5461 0.0000 59.0410 0.0000
# 6 0.0000 0.0000 0.0000 -15.0234 0.0000 18.4254
#
#
#
# Elastic Compliance Matrix: (Units=1/GPa)
#
#
# Indices 1 2 3 4 5 6 
#
# 1 0.009598 -0.003135 0.006078 0.000000 0.013503 0.000000
# 2 -0.003135 0.006526 -0.005978 0.000000 -0.005843 0.000000
# 3 0.006078 -0.005978 0.046943 0.000000 0.050812 0.000000
# 4 0.000000 0.000000 0.000000 0.050951 0.000000 0.041543
# 5 0.013503 -0.005843 0.050812 0.000000 0.078581 0.000000
# 6 0.000000 0.000000 0.000000 0.041543 0.000000 0.088146
#
#
# Mechanical properties :
#
#
# Convention : Reuss Voigt Hill
#
# Bulk Modulus (GPa) = 17.54535 90.58974 54.06754
# Shear Modulus (GPa) = 16.34982 41.95778 29.15380
#
# Velocity S-wave (km/s) = 2.84327 4.55478 3.79672
# Velocity P-wave (km/s) = 4.41069 8.51196 6.77892
#
# Compressibility (1/GPa) = 0.05699515
#
# Stress axis : x y z
#
# Youngs Moduli (GPa) = 104.19208 153.24326 21.30222
#
# Poissons Ratio (x) = 0.48048 -0.12947
# Poissons Ratio (y) = 0.32668 0.12734
# Poissons Ratio (z) = -0.63324 0.91609
#
# Static dielectric constant tensor:
#      x y z
#    x 1.845040 0.000000 0.024510 
#    y 0.000000 1.647770 0.000000 
#    z 0.024510 0.000000 1.826350 
# 
# From -- ./inp_files/12016.got.cif
#   From: 2010.05.17/outbox.cif.g08.bks.cpg/sg11_7_cif.got.tgz:12016.got - 2010.06.03 12:22:45.
