data_PCOD9157329
_publ_section_title
;
Structure prediction by ZEFSAII (Michael W. Deem and Ramdas Pophale) SiO2 
 PCOD9157329
Probable space group: P 21/M
;
_chemical_formula_sum "Si O2"
_cell_formula_units_Z 32
_cell_length_a 11.952293
_cell_length_b 14.427756
_cell_length_c 16.447634
_cell_angle_alpha 90.000000
_cell_angle_beta 151.736493
_cell_angle_gamma 90.000000
_cell_volume 1343.069512
_symmetry_space_group_name_H-M "P 21/M"
_symmetry_group_IT_number 11
_symmetry_cell_setting 'monoclinic'
loop_
_space_group_symop_operation_xyz
x,y,z
-x,1/2+y,-z
-x,-y,-z
x,1/2-y,z
loop_
_atom_site_type_symbol
_atom_site_label
_atom_site_fract_x
_atom_site_fract_y
_atom_site_fract_z
Si Si1 0.536337 0.644357 0.634086
Si Si2 0.922319 0.027260 0.707789
Si Si3 0.643813 0.353068 0.306249
Si Si4 0.178704 0.650279 0.213622
Si Si5 0.962687 0.417442 0.040033
Si Si6 0.460602 0.442019 0.788676
Si Si7 0.850409 0.645393 0.277018
Si Si8 0.705655 0.859237 0.491906
O O1 0.485014 0.750000 0.577893
O O2 0.329820 0.574962 0.477634
O O3 0.535953 0.642954 0.732215
O O4 0.788559 0.612537 0.764037
O O5 0.938238 0.067856 0.809162
O O6 0.117394 0.076100 0.776975
O O7 0.894993 0.922165 0.660270
O O8 0.621008 0.250000 0.253394
O O9 0.601168 0.450002 0.234442
O O10 0.905310 0.358101 0.513913
O O11 0.121961 0.750000 0.215780
O O12 0.461339 0.635733 0.387142
O O13 0.106907 0.656236 0.073859
O O14 0.739164 0.428089 0.954931
O O15 0.000000 0.500000 0.000000
O O16 0.355684 0.382449 0.794104
O O17 0.344657 0.407402 0.628443
O O18 0.826234 0.750000 0.231615
O O19 0.762910 0.750000 0.518603
#
# Coordination Sequence:
#
# PCOD9157329 Si02
#       8
#     4   4   4   4   4   4   4   4
#     4  10  18  32  55  83 113 147 191 240 289 340
#     4  11  20  38  59  84 119 154 193 241 292 349
#     4   9  17  30  50  78 109 145 191 241 287 339
#     4  10  21  36  57  84 117 154 194 239 289 347
#     4  11  21  36  55  85 120 155 192 239 293 346
#     4  11  19  35  52  77 119 155 189 243 299 347
#     4  10  20  32  54  83 112 150 196 238 290 352
#     4  10  20  32  49  78 113 148 186 233 293 349
#
# _framework density 23.82602
#
# number of rings (size 3 to 8) (size 9 to 14) (size 15 to 20)
#    0.000    1.750    3.750    4.125    0.000    1.500 
#    0.000    0.000    0.000    1.500    0.000    3.500 
#    0.000    9.000    0.000    0.000    0.000    0.000 
#
# Total GULP energy -178889.059236 kJ/mol
# GULP energy per Si atom -5590.283101 kJ/mol
# Density = 2.377179 g / cm^3
# Si number density = 23.826020 Si / 1000 Ang^3
#
#
#
# Elastic Constant Matrix: (Units=GPa)
#
#
# Indices 1 2 3 4 5 6 
#
# 1 104.1411 23.9564 23.8365 0.0000 18.0765 0.0000
# 2 23.9564 151.7143 14.1593 0.0000 10.8473 0.0000
# 3 23.8365 14.1593 40.1951 0.0000 8.5626 0.0000
# 4 0.0000 0.0000 0.0000 -15.4813 0.0000 1.1960
# 5 18.0765 10.8473 8.5626 0.0000 30.1159 0.0000
# 6 0.0000 0.0000 0.0000 1.1960 0.0000 25.2578
#
#
#
# Elastic Compliance Matrix: (Units=1/GPa)
#
#
# Indices 1 2 3 4 5 6 
#
# 1 0.012042 -0.000996 -0.005670 0.000000 -0.005257 0.000000
# 2 -0.000996 0.007000 -0.001560 0.000000 -0.001480 0.000000
# 3 -0.005670 -0.001560 0.029748 0.000000 -0.004493 0.000000
# 4 0.000000 0.000000 0.000000 -0.064359 0.000000 0.003047
# 5 -0.005257 -0.001480 -0.004493 0.000000 0.038171 0.000000
# 6 0.000000 0.000000 0.000000 0.003047 0.000000 0.039447
#
#
# Mechanical properties :
#
#
# Convention : Reuss Voigt Hill
#
# Bulk Modulus (GPa) = 30.92448 46.66166 38.79307
# Shear Modulus (GPa) = 56.00292 23.58501 39.79397
#
# Velocity S-wave (km/s) = 4.85345 3.14966 4.09123
# Velocity P-wave (km/s) = 6.66449 5.73184 6.21568
#
# Compressibility (1/GPa) = 0.03233684
#
# Stress axis : x y z
#
# Youngs Moduli (GPa) = 83.04344 142.85618 33.61601
#
# Poissons Ratio (x) = 0.14235 0.19061
# Poissons Ratio (y) = 0.08275 0.05243
# Poissons Ratio (z) = 0.47088 0.22282
#
# Static dielectric constant tensor:
#      x y z
#    x 1.911140 0.000000 -0.101690 
#    y 0.000000 1.964530 0.000000 
#    z -0.101690 0.000000 1.993200 
# 
# From -- ./inp_files/59527.got.cif
#   From: 2010.05.17/outbox.cif.g08.bks.cpg/sg11_30_cif.got.tgz:59527.got - 2010.06.03 12:22:45.
