data_PCOD9157107
_publ_section_title
;
Structure prediction by ZEFSAII (Michael W. Deem and Ramdas Pophale) SiO2 
 PCOD9157107
Probable space group: P 21/M
;
_chemical_formula_sum "Si O2"
_cell_formula_units_Z 32
_cell_length_a 20.901676
_cell_length_b 8.546956
_cell_length_c 20.544661
_cell_angle_alpha 90.000000
_cell_angle_beta 29.411695
_cell_angle_gamma 90.000000
_cell_volume 1802.375174
_symmetry_space_group_name_H-M "P 21/M"
_symmetry_group_IT_number 11
_symmetry_cell_setting 'monoclinic'
loop_
_space_group_symop_operation_xyz
x,y,z
-x,1/2+y,-z
-x,-y,-z
x,1/2-y,z
loop_
_atom_site_type_symbol
_atom_site_label
_atom_site_fract_x
_atom_site_fract_y
_atom_site_fract_z
Si Si1 0.358688 0.437639 0.646617
Si Si2 0.856325 0.062012 0.645986
Si Si3 0.805053 0.560777 0.333322
Si Si4 0.095333 0.559007 0.113738
Si Si5 0.936369 0.059915 0.711734
Si Si6 0.335013 0.562195 0.812120
Si Si7 0.389122 0.564042 0.383854
Si Si8 0.228954 0.437388 0.408774
O O1 0.500000 0.500000 0.500000
O O2 0.364054 0.250000 0.644070
O O3 0.255448 0.484434 0.682525
O O4 0.324793 0.501132 0.747641
O O5 0.854299 0.250000 0.643827
O O6 0.844891 0.014594 0.731933
O O7 0.764011 0.992871 0.672208
O O8 0.000000 0.000000 0.500000
O O9 0.800111 0.750000 0.342627
O O10 0.714473 0.494068 0.470534
O O11 0.954235 0.511823 0.211305
O O12 0.097181 0.750000 0.112655
O O13 0.104675 0.505929 0.180511
O O14 0.214279 0.507408 0.963342
O O15 0.937883 0.250000 0.711406
O O16 0.085848 0.012741 0.563267
O O17 0.335183 0.750000 0.810478
O O18 0.471115 0.505623 0.721517
O O19 0.395965 0.750000 0.379502
O O20 0.337158 0.506872 0.360180
O O21 0.233395 0.250000 0.407259
#
# Coordination Sequence:
#
# PCOD9157107 Si02
#       8
#     4   4   4   4   4   4   4   4
#     4  11  22  36  58  84 113 145 184 229 277 328
#     4   9  16  26  44  76 113 145 181 225 278 328
#     4  10  20  37  61  83 107 143 186 228 275 329
#     4   9  18  35  58  83 109 145 189 226 271 331
#     4   8  14  27  51  78 107 143 178 221 271 323
#     4  11  23  38  58  81 110 148 187 227 274 332
#     4  12  23  35  55  82 112 143 183 233 279 330
#     4  10  18  31  53  78 109 144 183 230 279 328
#
# _framework density 17.754349000000001
#
# number of rings (size 3 to 8) (size 9 to 14) (size 15 to 20)
#    0.000    2.000    2.500    3.375    0.000    1.000 
#    0.000    1.250    0.000    0.750    0.000    0.000 
#    0.000    0.000    0.000    0.000    0.000    0.000 
#
# Total GULP energy -178538.325084 kJ/mol
# GULP energy per Si atom -5579.322659 kJ/mol
# Density = 1.771394 g / cm^3
# Si number density = 17.754349 Si / 1000 Ang^3
#
#
#
# Elastic Constant Matrix: (Units=GPa)
#
#
# Indices 1 2 3 4 5 6 
#
# 1 197.7924 34.7464 80.7195 0.0000 13.4821 0.0000
# 2 34.7464 36.4641 20.8744 0.0000 0.5023 0.0000
# 3 80.7195 20.8744 117.0270 0.0000 5.8781 0.0000
# 4 0.0000 0.0000 0.0000 5.3027 0.0000 6.5995
# 5 13.4821 0.5023 5.8781 0.0000 22.7109 0.0000
# 6 0.0000 0.0000 0.0000 6.5995 0.0000 29.1453
#
#
#
# Elastic Compliance Matrix: (Units=1/GPa)
#
#
# Indices 1 2 3 4 5 6 
#
# 1 0.007986 -0.005022 -0.004438 0.000000 -0.003481 0.000000
# 2 -0.005022 0.033713 -0.002697 0.000000 0.002934 0.000000
# 3 -0.004438 -0.002697 0.012109 0.000000 -0.000440 0.000000
# 4 0.000000 0.000000 0.000000 0.262578 0.000000 -0.059456
# 5 -0.003481 0.002934 -0.000440 0.000000 0.046147 0.000000
# 6 0.000000 0.000000 0.000000 -0.059456 0.000000 0.047774
#
#
# Mechanical properties :
#
#
# Convention : Reuss Voigt Hill
#
# Bulk Modulus (GPa) = 33.90396 69.32933 51.61664
# Shear Modulus (GPa) = 11.24979 25.76134 18.50556
#
# Velocity S-wave (km/s) = 2.51994 3.81332 3.23199
# Velocity P-wave (km/s) = 5.25399 7.65000 6.56227
#
# Compressibility (1/GPa) = 0.02949508
#
# Stress axis : x y z
#
# Youngs Moduli (GPa) = 125.21200 29.66226 82.58046
#
# Poissons Ratio (x) = 0.14895 0.36650
# Poissons Ratio (y) = 0.62877 0.22273
# Poissons Ratio (z) = 0.55570 0.08000
#
# Static dielectric constant tensor:
#      x y z
#    x 1.628090 0.000000 0.012480 
#    y 0.000000 1.606430 0.000000 
#    z 0.012480 0.000000 1.573670 
# 
# From -- ./inp_files/66451.got.cif
#   From: 2010.05.17/outbox.cif.g08.bks.cpg/sg11_34_cif.got.tgz:66451.got - 2010.06.03 12:22:45.
