data_PCOD9157745
_publ_section_title
;
Structure prediction by ZEFSAII (Michael W. Deem and Ramdas Pophale) SiO2 
 PCOD9157745
Probable space group: P 21/M
;
_chemical_formula_sum "Si O2"
_cell_formula_units_Z 24
_cell_length_a 4.988730
_cell_length_b 24.066015
_cell_length_c 9.370223
_cell_angle_alpha 90.000000
_cell_angle_beta 75.535126
_cell_angle_gamma 90.000000
_cell_volume 1089.317475
_symmetry_space_group_name_H-M "P 21/M"
_symmetry_group_IT_number 11
_symmetry_cell_setting 'monoclinic'
loop_
_space_group_symop_operation_xyz
x,y,z
-x,1/2+y,-z
-x,-y,-z
x,1/2-y,z
loop_
_atom_site_type_symbol
_atom_site_label
_atom_site_fract_x
_atom_site_fract_y
_atom_site_fract_z
Si Si1 0.796110 0.419959 0.493468
Si Si2 0.686138 0.125795 0.064599
Si Si3 0.458925 0.953284 0.172413
Si Si4 0.949444 0.473847 0.188437
Si Si5 0.138906 0.250000 0.316480
Si Si6 0.269008 0.750000 0.887926
Si Si7 0.344675 0.138277 0.391413
O O1 0.649922 0.436650 0.657356
O O2 0.816421 0.464544 0.363252
O O3 0.618064 0.369446 0.448910
O O4 0.115348 0.404555 0.474841
O O5 0.901212 0.083811 0.112153
O O6 0.796715 0.189383 0.036046
O O7 0.441041 0.127809 0.215593
O O8 0.590005 0.096909 0.931430
O O9 0.765688 0.977474 0.144044
O O10 0.260657 0.004843 0.156789
O O11 0.399165 0.250000 0.172503
O O12 0.190561 0.196692 0.406845
O O13 0.869133 0.250000 0.252205
#
# Coordination Sequence:
#
# PCOD9157745 Si02
#       7
#     4   4   4   4   2   2   4
#     4  11  22  39  58  87 124 158 192 241 303 355
#     4  10  23  41  62  90 118 155 204 247 295 350
#     4  12  24  38  61  90 125 157 193 246 303 355
#     4  11  22  38  61  88 119 159 201 243 287 355
#     4  10  18  36  62  88 108 154 211 246 283 338
#     4  10  22  38  62  88 118 152 193 252 299 344
#     4  10  21  38  61  85 117 156 201 248 287 354
#
# _framework density 22.032143000000001
#
# number of rings (size 3 to 8) (size 9 to 14) (size 15 to 20)
#    0.000    1.333    0.000    8.000    0.000    6.667 
#    0.000    1.667    0.000    0.000    0.000    0.000 
#    0.000    0.000    0.000    0.000    0.000    0.000 
#
# Total GULP energy -134187.643136 kJ/mol
# GULP energy per Si atom -5591.151797 kJ/mol
# Density = 2.198200 g / cm^3
# Si number density = 22.032143 Si / 1000 Ang^3
#
#
#
# Elastic Constant Matrix: (Units=GPa)
#
#
# Indices 1 2 3 4 5 6 
#
# 1 83.7031 9.9162 -8.7650 0.0000 -1.6845 0.0000
# 2 9.9162 124.9042 23.2374 0.0000 -4.9373 0.0000
# 3 -8.7650 23.2374 78.0017 0.0000 -7.3201 0.0000
# 4 0.0000 0.0000 0.0000 18.7853 0.0000 0.2471
# 5 -1.6845 -4.9373 -7.3201 0.0000 16.6331 0.0000
# 6 0.0000 0.0000 0.0000 0.2471 0.0000 20.6363
#
#
#
# Elastic Compliance Matrix: (Units=1/GPa)
#
#
# Indices 1 2 3 4 5 6 
#
# 1 0.012334 -0.001269 0.001925 0.000000 0.001720 0.000000
# 2 -0.001269 0.008641 -0.002595 0.000000 0.001294 0.000000
# 3 0.001925 -0.002595 0.014348 0.000000 0.005739 0.000000
# 4 0.000000 0.000000 0.000000 0.053241 0.000000 -0.000638
# 5 0.001720 0.001294 0.005739 0.000000 0.063205 0.000000
# 6 0.000000 0.000000 0.000000 -0.000638 0.000000 0.048466
#
#
# Mechanical properties :
#
#
# Convention : Reuss Voigt Hill
#
# Bulk Modulus (GPa) = 31.80236 37.26516 34.53376
# Shear Modulus (GPa) = 23.29966 28.69231 25.99599
#
# Velocity S-wave (km/s) = 3.25550 3.61265 3.43871
# Velocity P-wave (km/s) = 5.34761 5.86109 5.61022
#
# Compressibility (1/GPa) = 0.03144421
#
# Stress axis : x y z
#
# Youngs Moduli (GPa) = 81.07926 115.72836 69.69426
#
# Poissons Ratio (x) = 0.14691 -0.13419
# Poissons Ratio (y) = 0.10292 0.18088
# Poissons Ratio (z) = -0.15612 0.30036
#
# Static dielectric constant tensor:
#      x y z
#    x 1.786060 0.000000 0.013530 
#    y 0.000000 1.866650 0.000000 
#    z 0.013530 0.000000 1.820820 
# 
# From -- ./inp_files/10451.got.cif
#   From: 2010.05.17/outbox.cif.g08.bks.cpg/sg11_6_cif.got.tgz:10451.got - 2010.06.03 12:22:45.
