data_PCOD9157381
_publ_section_title
;
Structure prediction by ZEFSAII (Michael W. Deem and Ramdas Pophale) SiO2 
 PCOD9157381
Probable space group: P 21/M
;
_chemical_formula_sum "Si O2"
_cell_formula_units_Z 32
_cell_length_a 8.413275
_cell_length_b 13.585266
_cell_length_c 18.115697
_cell_angle_alpha 90.000000
_cell_angle_beta 127.913087
_cell_angle_gamma 90.000000
_cell_volume 1633.557108
_symmetry_space_group_name_H-M "P 21/M"
_symmetry_group_IT_number 11
_symmetry_cell_setting 'monoclinic'
loop_
_space_group_symop_operation_xyz
x,y,z
-x,1/2+y,-z
-x,-y,-z
x,1/2-y,z
loop_
_atom_site_type_symbol
_atom_site_label
_atom_site_fract_x
_atom_site_fract_y
_atom_site_fract_z
Si Si1 0.317309 0.360881 0.576691
Si Si2 0.628005 0.638505 0.174714
Si Si3 0.687281 0.999406 0.732242
Si Si4 0.287706 0.450309 0.422005
Si Si5 0.068030 0.365239 0.879691
Si Si6 0.111266 0.024684 0.631425
Si Si7 0.415073 0.031765 0.056019
Si Si8 0.418898 0.632893 0.760074
O O1 0.327411 0.250000 0.606642
O O2 0.513207 0.423116 0.657687
O O3 0.288003 0.361910 0.480250
O O4 0.134591 0.422789 0.559690
O O5 0.570323 0.750000 0.170643
O O6 0.784152 0.633942 0.150197
O O7 0.748711 0.593011 0.276851
O O8 0.432902 0.571245 0.104340
O O9 0.735611 0.937353 0.671739
O O10 0.596654 0.925150 0.767086
O O11 0.877309 0.064803 0.810764
O O12 0.500000 0.500000 0.500000
O O13 0.109195 0.521293 0.398029
O O14 0.017695 0.250000 0.878954
O O15 0.205011 0.413906 0.982771
O O16 0.216572 0.917860 0.670106
O O17 0.554779 0.103186 0.145951
O O18 0.500000 0.000000 0.000000
O O19 0.424202 0.750000 0.752145
#
# Coordination Sequence:
#
# PCOD9157381 Si02
#       8
#     4   4   4   4   4   4   4   4
#     4  10  21  36  57  86 117 152 197 250 299 356
#     4   9  17  31  56  86 115 150 192 234 287 350
#     4  10  21  38  59  84 121 157 200 249 294 353
#     4  10  21  38  57  82 116 154 190 245 305 350
#     4  10  18  32  58  84 115 156 194 237 294 350
#     4  10  19  37  60  84 115 153 198 247 293 350
#     4   9  19  35  57  86 119 149 188 243 288 341
#     4  10  22  39  60  83 117 162 200 239 293 355
#
# _framework density 19.589155000000002
#
# number of rings (size 3 to 8) (size 9 to 14) (size 15 to 20)
#    0.000    2.250    1.250    1.500    0.000    2.000 
#    0.000    1.875    0.000    1.500    0.000    0.000 
#    0.000    0.000    0.000    0.000    0.000    0.000 
#
# Total GULP energy -178307.245671 kJ/mol
# GULP energy per Si atom -5572.101427 kJ/mol
# Density = 1.954457 g / cm^3
# Si number density = 19.589155 Si / 1000 Ang^3
#
#
#
# Elastic Constant Matrix: (Units=GPa)
#
#
# Indices 1 2 3 4 5 6 
#
# 1 75.4883 32.7743 34.2059 0.0000 -4.7260 0.0000
# 2 32.7743 161.2840 48.9637 0.0000 -0.8819 0.0000
# 3 34.2059 48.9637 80.6206 0.0000 3.2859 0.0000
# 4 0.0000 0.0000 0.0000 19.7646 0.0000 -1.7976
# 5 -4.7260 -0.8819 3.2859 0.0000 22.7222 0.0000
# 6 0.0000 0.0000 0.0000 -1.7976 0.0000 22.6189
#
#
#
# Elastic Compliance Matrix: (Units=1/GPa)
#
#
# Indices 1 2 3 4 5 6 
#
# 1 0.017136 -0.001466 -0.006562 0.000000 0.004456 0.000000
# 2 -0.001466 0.007748 -0.004108 0.000000 0.000590 0.000000
# 3 -0.006562 -0.004108 0.017850 0.000000 -0.004106 0.000000
# 4 0.000000 0.000000 0.000000 0.050964 0.000000 0.004050
# 5 0.004456 0.000590 -0.004106 0.000000 0.045553 0.000000
# 6 0.000000 0.000000 0.000000 0.004050 0.000000 0.044533
#
#
# Mechanical properties :
#
#
# Convention : Reuss Voigt Hill
#
# Bulk Modulus (GPa) = 54.16195 61.03119 57.59657
# Shear Modulus (GPa) = 23.34155 26.45104 24.89630
#
# Velocity S-wave (km/s) = 3.45564 3.67862 3.56887
# Velocity P-wave (km/s) = 6.60537 7.01899 6.81532
#
# Compressibility (1/GPa) = 0.01846314
#
# Stress axis : x y z
#
# Youngs Moduli (GPa) = 58.35740 129.05767 56.02176
#
# Poissons Ratio (x) = 0.18916 0.36761
# Poissons Ratio (y) = 0.08553 0.23014
# Poissons Ratio (z) = 0.38293 0.53018
#
# Static dielectric constant tensor:
#      x y z
#    x 1.745590 0.000000 -0.054720 
#    y 0.000000 1.661470 0.000000 
#    z -0.054720 0.000000 1.748970 
# 
# From -- ./inp_files/63689.got.cif
#   From: 2010.05.17/outbox.cif.g08.bks.cpg/sg11_32_cif.got.tgz:63689.got - 2010.06.03 12:22:45.
