data_PCOD9157662
_publ_section_title
;
Structure prediction by ZEFSAII (Michael W. Deem and Ramdas Pophale) SiO2 
 PCOD9157662
Probable space group: P 21/M
;
_chemical_formula_sum "Si O2"
_cell_formula_units_Z 28
_cell_length_a 5.634234
_cell_length_b 13.353888
_cell_length_c 18.842158
_cell_angle_alpha 90.000000
_cell_angle_beta 104.996406
_cell_angle_gamma 90.000000
_cell_volume 1369.381093
_symmetry_space_group_name_H-M "P 21/M"
_symmetry_group_IT_number 11
_symmetry_cell_setting 'monoclinic'
loop_
_space_group_symop_operation_xyz
x,y,z
-x,1/2+y,-z
-x,-y,-z
x,1/2-y,z
loop_
_atom_site_type_symbol
_atom_site_label
_atom_site_fract_x
_atom_site_fract_y
_atom_site_fract_z
Si Si1 0.147549 0.041691 0.921258
Si Si2 0.876234 0.636404 0.381044
Si Si3 0.702900 0.937203 0.836604
Si Si4 0.747341 0.541730 0.237032
Si Si5 0.402044 0.976420 0.414311
Si Si6 0.491330 0.856699 0.956579
Si Si7 0.113297 0.367282 0.295870
O O1 0.188277 0.058402 0.840219
O O2 0.301220 0.944139 0.955749
O O3 0.263495 0.127883 0.977669
O O4 0.871047 0.003793 0.901616
O O5 0.880894 0.750000 0.408206
O O6 0.826439 0.630908 0.292959
O O7 0.637534 0.578592 0.395408
O O8 0.148254 0.586793 0.407593
O O9 0.552746 0.867781 0.878226
O O10 0.822489 0.874034 0.783116
O O11 0.538312 0.018237 0.783571
O O12 0.876419 0.440897 0.278352
O O13 0.500000 0.000000 0.500000
O O14 0.311741 0.073327 0.360693
O O15 0.379090 0.750000 0.963701
O O16 0.082016 0.250000 0.313114
#
# Coordination Sequence:
#
# PCOD9157662 Si02
#       7
#     4   4   4   4   4   4   4
#     4   9  20  35  52  76 113 151 191 247 308 359
#     4  11  23  43  69  96 127 173 215 256 310 373
#     4  10  18  35  55  78 112 149 197 248 311 361
#     4   9  20  37  56  84 119 156 200 258 304 369
#     4  11  24  45  66  97 133 168 208 264 312 376
#     4  10  20  33  51  77 108 147 195 246 304 370
#     4  10  21  36  59  88 121 158 202 253 316 375
#
# _framework density 20.447192999999999
#
# number of rings (size 3 to 8) (size 9 to 14) (size 15 to 20)
#    0.000    2.000    1.429    1.714    0.000    8.000 
#    0.000    0.714    0.000    0.000    0.000    0.000 
#    0.000    0.000    0.000    0.000    0.000    0.000 
#
# Total GULP energy -155876.818196 kJ/mol
# GULP energy per Si atom -5567.029221 kJ/mol
# Density = 2.040065 g / cm^3
# Si number density = 20.447193 Si / 1000 Ang^3
#
#
#
# Elastic Constant Matrix: (Units=GPa)
#
#
# Indices 1 2 3 4 5 6 
#
# 1 81.6676 27.4002 22.5864 0.0000 15.7175 0.0000
# 2 27.4002 91.6770 30.0210 0.0000 5.3287 0.0000
# 3 22.5864 30.0210 111.4807 0.0000 13.9508 0.0000
# 4 0.0000 0.0000 0.0000 7.3627 0.0000 -1.5229
# 5 15.7175 5.3287 13.9508 0.0000 35.0175 0.0000
# 6 0.0000 0.0000 0.0000 -1.5229 0.0000 12.4651
#
#
#
# Elastic Compliance Matrix: (Units=1/GPa)
#
#
# Indices 1 2 3 4 5 6 
#
# 1 0.014934 -0.003703 -0.001326 0.000000 -0.005611 0.000000
# 2 -0.003703 0.012892 -0.002825 0.000000 0.000826 0.000000
# 3 -0.001326 -0.002825 0.010389 0.000000 -0.003114 0.000000
# 4 0.000000 0.000000 0.000000 0.139342 0.000000 0.017024
# 5 -0.005611 0.000826 -0.003114 0.000000 0.032191 0.000000
# 6 0.000000 0.000000 0.000000 0.017024 0.000000 0.082304
#
#
# Mechanical properties :
#
#
# Convention : Reuss Voigt Hill
#
# Bulk Modulus (GPa) = 44.43108 49.42673 46.92890
# Shear Modulus (GPa) = 15.85987 24.62358 20.24172
#
# Velocity S-wave (km/s) = 2.78807 3.47400 3.14976
# Velocity P-wave (km/s) = 5.66933 6.34956 6.01906
#
# Compressibility (1/GPa) = 0.02250677
#
# Stress axis : x y z
#
# Youngs Moduli (GPa) = 66.96206 77.57002 96.25364
#
# Poissons Ratio (x) = 0.28724 0.12766
# Poissons Ratio (y) = 0.24796 0.27189
# Poissons Ratio (z) = 0.08881 0.21911
#
# Static dielectric constant tensor:
#      x y z
#    x 1.820780 0.000000 -0.002970 
#    y 0.000000 1.743890 0.000000 
#    z -0.002970 0.000000 1.745340 
# 
# From -- ./inp_files/8758.got.cif
#   From: 2010.05.17/outbox.cif.g08.bks.cpg/sg11_5_cif.got.tgz:8758.got - 2010.06.03 12:22:45.
