data_PCOD9157600
_publ_section_title
;
Structure prediction by ZEFSAII (Michael W. Deem and Ramdas Pophale) SiO2 
 PCOD9157600
Probable space group: P 21/M
;
_chemical_formula_sum "Si O2"
_cell_formula_units_Z 28
_cell_length_a 20.803073
_cell_length_b 8.821682
_cell_length_c 23.667408
_cell_angle_alpha 90.000000
_cell_angle_beta 19.509248
_cell_angle_gamma 90.000000
_cell_volume 1450.516747
_symmetry_space_group_name_H-M "P 21/M"
_symmetry_group_IT_number 11
_symmetry_cell_setting 'monoclinic'
loop_
_space_group_symop_operation_xyz
x,y,z
-x,1/2+y,-z
-x,-y,-z
x,1/2-y,z
loop_
_atom_site_type_symbol
_atom_site_label
_atom_site_fract_x
_atom_site_fract_y
_atom_site_fract_z
Si Si1 0.553825 0.433345 0.105453
Si Si2 0.850284 0.921765 0.083041
Si Si3 0.447425 0.577226 0.484705
Si Si4 0.918033 0.433714 0.739282
Si Si5 0.258399 0.431994 0.538681
Si Si6 0.621805 0.933445 0.170274
Si Si7 0.892379 0.566451 0.535281
O O1 0.558972 0.250000 0.106799
O O2 0.628367 0.505479 0.101766
O O3 0.332566 0.477634 0.279158
O O4 0.700915 0.478992 0.934057
O O5 0.917103 0.750000 0.019923
O O6 0.644962 0.921280 0.285004
O O7 0.798688 0.985646 0.063924
O O8 0.000000 0.000000 0.000000
O O9 0.500000 0.500000 0.500000
O O10 0.385688 0.750000 0.545221
O O11 0.293744 0.492084 0.572592
O O12 0.921777 0.250000 0.734111
O O13 0.059452 0.477282 0.673548
O O14 0.005336 0.486021 0.607513
O O15 0.273715 0.250000 0.525621
O O16 0.427897 0.500707 0.359302
O O17 0.615539 0.750000 0.177193
O O18 0.900157 0.750000 0.530572
O O19 0.000000 0.500000 0.500000
#
# Coordination Sequence:
#
# PCOD9157600 Si02
#       7
#     4   4   4   4   4   4   4
#     4  10  20  37  61  85 112 151 194 233 281 341
#     4   9  20  35  51  74 106 143 185 232 282 336
#     4  10  21  36  52  77 110 147 190 238 288 341
#     4   9  19  36  59  87 115 146 193 239 277 341
#     4  10  18  34  58  81 107 147 191 235 290 345
#     4  10  20  35  54  80 113 146 187 239 287 340
#     4  10  21  39  60  86 118 154 190 232 287 343
#
# _framework density 19.303466
#
# number of rings (size 3 to 8) (size 9 to 14) (size 15 to 20)
#    0.000    2.286    1.429    2.143    0.000    5.714 
#    0.000    6.429    0.000    0.000    0.000    0.000 
#    0.000    0.000    0.000    0.000    0.000    0.000 
#
# Total GULP energy -156216.113360 kJ/mol
# GULP energy per Si atom -5579.146906 kJ/mol
# Density = 1.925953 g / cm^3
# Si number density = 19.303466 Si / 1000 Ang^3
#
#
#
# Elastic Constant Matrix: (Units=GPa)
#
#
# Indices 1 2 3 4 5 6 
#
# 1 169.8371 35.1215 79.6606 0.0000 -11.0379 0.0000
# 2 35.1215 39.7638 26.4692 0.0000 -4.6786 0.0000
# 3 79.6606 26.4692 114.9867 0.0000 -3.3616 0.0000
# 4 0.0000 0.0000 0.0000 14.0792 0.0000 -1.9076
# 5 -11.0379 -4.6786 -3.3616 0.0000 23.4694 0.0000
# 6 0.0000 0.0000 0.0000 -1.9076 0.0000 38.1027
#
#
#
# Elastic Compliance Matrix: (Units=1/GPa)
#
#
# Indices 1 2 3 4 5 6 
#
# 1 0.009589 -0.004452 -0.005536 0.000000 0.002829 0.000000
# 2 -0.004452 0.032353 -0.004254 0.000000 0.003747 0.000000
# 3 -0.005536 -0.004254 0.013466 0.000000 -0.001523 0.000000
# 4 0.000000 0.000000 0.000000 0.071512 0.000000 0.003580
# 5 0.002829 0.003747 -0.001523 0.000000 0.044468 0.000000
# 6 0.000000 0.000000 0.000000 0.003580 0.000000 0.026424
#
#
# Mechanical properties :
#
#
# Convention : Reuss Voigt Hill
#
# Bulk Modulus (GPa) = 37.13894 67.45447 52.29671
# Shear Modulus (GPa) = 21.25221 27.35268 24.30244
#
# Velocity S-wave (km/s) = 3.32166 3.76837 3.55204
# Velocity P-wave (km/s) = 5.83031 7.34535 6.63124
#
# Compressibility (1/GPa) = 0.02692592
#
# Stress axis : x y z
#
# Youngs Moduli (GPa) = 104.28775 30.90907 74.25971
#
# Poissons Ratio (x) = 0.13760 0.41106
# Poissons Ratio (y) = 0.46426 0.31589
# Poissons Ratio (z) = 0.57729 0.13148
#
# Static dielectric constant tensor:
#      x y z
#    x 1.667070 0.000000 0.010410 
#    y 0.000000 1.656820 0.000000 
#    z 0.010410 0.000000 1.699690 
# 
# From -- ./inp_files/66658.got.cif
#   From: 2010.05.17/outbox.cif.g08.bks.cpg/sg11_34_cif.got.tgz:66658.got - 2010.06.03 12:22:45.
