data_PCOD9157503
_publ_section_title
;
Structure prediction by ZEFSAII (Michael W. Deem and Ramdas Pophale) SiO2 
 PCOD9157503
Probable space group: P 21/M
;
_chemical_formula_sum "Si O2"
_cell_formula_units_Z 28
_cell_length_a 10.078255
_cell_length_b 23.745462
_cell_length_c 9.528904
_cell_angle_alpha 90.000000
_cell_angle_beta 140.668475
_cell_angle_gamma 90.000000
_cell_volume 1445.325432
_symmetry_space_group_name_H-M "P 21/M"
_symmetry_group_IT_number 11
_symmetry_cell_setting 'monoclinic'
loop_
_space_group_symop_operation_xyz
x,y,z
-x,1/2+y,-z
-x,-y,-z
x,1/2-y,z
loop_
_atom_site_type_symbol
_atom_site_label
_atom_site_fract_x
_atom_site_fract_y
_atom_site_fract_z
Si Si1 0.955029 0.685789 0.247138
Si Si2 0.609041 0.951133 0.003527
Si Si3 0.244464 0.863621 0.725153
Si Si4 0.086114 0.424842 0.972429
Si Si5 0.269019 0.486780 0.365414
Si Si6 0.820908 0.915868 0.450294
Si Si7 0.410275 0.188582 0.818854
O O1 0.990221 0.750000 0.224462
O O2 0.926278 0.637620 0.104606
O O3 0.748754 0.687956 0.177747
O O4 0.138114 0.667282 0.505968
O O5 0.428359 0.905601 0.827946
O O6 0.738533 0.960547 0.969961
O O7 0.783758 0.930854 0.257358
O O8 0.500000 0.000000 0.000000
O O9 0.061648 0.897710 0.655822
O O10 0.361823 0.823152 0.930815
O O11 0.870445 0.457897 0.773817
O O12 0.162299 0.434644 0.193078
O O13 0.500000 0.500000 0.500000
O O14 0.250979 0.466720 0.511043
O O15 0.670041 0.861663 0.345734
O O16 0.396684 0.250000 0.741671
#
# Coordination Sequence:
#
# PCOD9157503 Si02
#       7
#     4   4   4   4   4   4   4
#     4  10  20  36  59  89 120 149 194 244 289 350
#     4  11  21  33  59  88 118 147 194 242 287 347
#     4  10  18  33  58  89 119 148 186 238 301 338
#     4  11  23  40  56  90 116 155 199 241 289 353
#     4  11  26  41  60  78 120 163 195 239 297 350
#     4  10  21  37  56  89 114 151 194 242 282 349
#     4   9  18  34  57  89 121 148 187 239 292 349
#
# _framework density 19.372799000000001
#
# number of rings (size 3 to 8) (size 9 to 14) (size 15 to 20)
#    0.000    1.714    4.286    2.143    4.000    5.143 
#    0.000    0.714    0.000    2.571    0.000    0.000 
#    0.000    0.000    0.000    0.000    0.000    0.000 
#
# Total GULP energy -156113.042519 kJ/mol
# GULP energy per Si atom -5575.465804 kJ/mol
# Density = 1.932871 g / cm^3
# Si number density = 19.372799 Si / 1000 Ang^3
#
#
#
# Elastic Constant Matrix: (Units=GPa)
#
#
# Indices 1 2 3 4 5 6 
#
# 1 44.5276 6.9569 19.8610 0.0000 11.5068 0.0000
# 2 6.9569 67.9379 17.8571 0.0000 7.6762 0.0000
# 3 19.8610 17.8571 84.5043 0.0000 16.1441 0.0000
# 4 0.0000 0.0000 0.0000 15.9096 0.0000 0.3426
# 5 11.5068 7.6762 16.1441 0.0000 29.6051 0.0000
# 6 0.0000 0.0000 0.0000 0.3426 0.0000 21.0270
#
#
#
# Elastic Compliance Matrix: (Units=1/GPa)
#
#
# Indices 1 2 3 4 5 6 
#
# 1 0.026610 -0.000637 -0.004661 0.000000 -0.007636 0.000000
# 2 -0.000637 0.015769 -0.002733 0.000000 -0.002350 0.000000
# 3 -0.004661 -0.002733 0.014540 0.000000 -0.005409 0.000000
# 4 0.000000 0.000000 0.000000 0.062877 0.000000 -0.001025
# 5 -0.007636 -0.002350 -0.005409 0.000000 0.040305 0.000000
# 6 0.000000 0.000000 0.000000 -0.001025 0.000000 0.047575
#
#
# Mechanical properties :
#
#
# Convention : Reuss Voigt Hill
#
# Bulk Modulus (GPa) = 24.47616 31.81330 28.14473
# Shear Modulus (GPa) = 21.06544 23.46132 22.26338
#
# Velocity S-wave (km/s) = 3.30111 3.48378 3.39367
# Velocity P-wave (km/s) = 5.21455 5.71311 5.46951
#
# Compressibility (1/GPa) = 0.04085608
#
# Stress axis : x y z
#
# Youngs Moduli (GPa) = 37.58039 63.41722 68.77573
#
# Poissons Ratio (x) = 0.04040 0.32054
# Poissons Ratio (y) = 0.02394 0.18799
# Poissons Ratio (z) = 0.17515 0.17334
#
# Static dielectric constant tensor:
#      x y z
#    x 1.636730 0.000000 0.013560 
#    y 0.000000 1.771550 0.000000 
#    z 0.013560 0.000000 1.695570 
# 
# From -- ./inp_files/15294.got.cif
#   From: 2010.05.17/outbox.cif.g08.bks.cpg/sg11_8_cif.got.tgz:15294.got - 2010.06.03 12:22:45.
