data_PCOD9157907
_publ_section_title
;
Structure prediction by ZEFSAII (Michael W. Deem and Ramdas Pophale) SiO2 
 PCOD9157907
Probable space group: P 21/M
;
_chemical_formula_sum "Si O2"
_cell_formula_units_Z 32
_cell_length_a 15.702849
_cell_length_b 9.201105
_cell_length_c 14.990865
_cell_angle_alpha 90.000000
_cell_angle_beta 61.006781
_cell_angle_gamma 90.000000
_cell_volume 1894.492456
_symmetry_space_group_name_H-M "P 21/M"
_symmetry_group_IT_number 11
_symmetry_cell_setting 'monoclinic'
loop_
_space_group_symop_operation_xyz
x,y,z
-x,1/2+y,-z
-x,-y,-z
x,1/2-y,z
loop_
_atom_site_type_symbol
_atom_site_label
_atom_site_fract_x
_atom_site_fract_y
_atom_site_fract_z
Si Si1 0.740544 0.922925 0.856969
Si Si2 0.354799 0.924254 0.722567
Si Si3 0.256777 0.577244 0.592655
Si Si4 0.340712 0.577159 0.934478
Si Si5 0.116219 0.420107 0.532426
Si Si6 0.440247 0.577634 0.372464
Si Si7 0.883150 0.079479 0.652268
Si Si8 0.567490 0.922350 0.807954
O O1 0.754878 0.750000 0.852939
O O2 0.643522 0.952740 0.847371
O O3 0.827700 0.999756 0.759999
O O4 0.722403 0.988476 0.963489
O O5 0.371294 0.750000 0.709866
O O6 0.278985 0.962212 0.683667
O O7 0.321713 0.957732 0.840184
O O8 0.457837 0.002301 0.654687
O O9 0.235707 0.750000 0.598149
O O10 0.172893 0.488344 0.586521
O O11 0.356477 0.550904 0.487206
O O12 0.326550 0.750000 0.954737
O O13 0.455759 0.545261 0.890592
O O14 0.139555 0.250000 0.510292
O O15 0.144123 0.504887 0.427845
O O16 0.999804 0.434444 0.602671
O O17 0.454349 0.750000 0.357240
O O18 0.409306 0.511468 0.292919
O O19 0.858354 0.250000 0.662609
O O20 0.571775 0.750000 0.784805
#
# Coordination Sequence:
#
# PCOD9157907 Si02
#       8
#     4   4   4   4   4   4   4   4
#     4  11  21  32  51  77 101 129 168 210 250 296
#     4   9  19  35  51  69  99 138 174 207 247 294
#     4  10  20  33  51  75 102 134 170 206 249 299
#     4   9  18  33  50  68  97 136 171 206 248 292
#     4  10  21  36  55  79 104 130 162 202 247 295
#     4  10  19  29  46  74 103 132 167 206 247 292
#     4  10  21  37  55  76 104 134 162 197 246 302
#     4   9  19  33  47  68 101 137 168 201 246 298
#
# _framework density 16.891068000000001
#
# number of rings (size 3 to 8) (size 9 to 14) (size 15 to 20)
#    0.000    2.250    0.000    3.750    0.000    8.000 
#    0.000    0.000    0.000    0.750    0.000    0.000 
#    0.000    0.000    0.000    0.000    0.000    0.000 
#
# Total GULP energy -178648.135477 kJ/mol
# GULP energy per Si atom -5582.754234 kJ/mol
# Density = 1.685262 g / cm^3
# Si number density = 16.891068 Si / 1000 Ang^3
#
#
#
# Elastic Constant Matrix: (Units=GPa)
#
#
# Indices 1 2 3 4 5 6 
#
# 1 77.3589 49.5488 36.4630 0.0000 20.5087 0.0000
# 2 49.5488 69.2383 60.7646 0.0000 7.4727 0.0000
# 3 36.4630 60.7646 96.8359 0.0000 6.3342 0.0000
# 4 0.0000 0.0000 0.0000 26.0683 0.0000 -1.5375
# 5 20.5087 7.4727 6.3342 0.0000 15.6807 0.0000
# 6 0.0000 0.0000 0.0000 -1.5375 0.0000 26.1349
#
#
#
# Elastic Compliance Matrix: (Units=1/GPa)
#
#
# Indices 1 2 3 4 5 6 
#
# 1 0.039392 -0.029265 0.006151 0.000000 -0.040059 0.000000
# 2 -0.029265 0.054737 -0.024780 0.000000 0.022200 0.000000
# 3 0.006151 -0.024780 0.023947 0.000000 -0.005909 0.000000
# 4 0.000000 0.000000 0.000000 0.038494 0.000000 0.002265
# 5 -0.040059 0.022200 -0.005909 0.000000 0.107974 0.000000
# 6 0.000000 0.000000 0.000000 0.002265 0.000000 0.038396
#
#
# Mechanical properties :
#
#
# Convention : Reuss Voigt Hill
#
# Bulk Modulus (GPa) = 44.86717 59.66509 52.26613
# Shear Modulus (GPa) = 12.31053 20.02054 16.16553
#
# Velocity S-wave (km/s) = 2.70259 3.44652 3.09697
# Velocity P-wave (km/s) = 6.02984 7.15808 6.61805
#
# Compressibility (1/GPa) = 0.02228801
#
# Stress axis : x y z
#
# Youngs Moduli (GPa) = 25.38608 18.26917 41.75945
#
# Poissons Ratio (x) = 0.53464 -0.25687
# Poissons Ratio (y) = 0.74292 1.03481
# Poissons Ratio (z) = -0.15616 0.45271
#
# Static dielectric constant tensor:
#      x y z
#    x 1.566360 0.000000 0.006900 
#    y 0.000000 1.561000 0.000000 
#    z 0.006900 0.000000 1.556800 
# 
# From -- ./inp_files/51619.got.cif
#   From: 2010.05.17/outbox.cif.g08.bks.cpg/sg11_26_cif.got.tgz:51619.got - 2010.06.03 12:22:45.
