data_PCOD9157371
_publ_section_title
;
Structure prediction by ZEFSAII (Michael W. Deem and Ramdas Pophale) SiO2 
 PCOD9157371
Probable space group: P 21/M
;
_chemical_formula_sum "Si O2"
_cell_formula_units_Z 32
_cell_length_a 22.249342
_cell_length_b 10.687047
_cell_length_c 21.307010
_cell_angle_alpha 90.000000
_cell_angle_beta 159.816521
_cell_angle_gamma 90.000000
_cell_volume 1748.039352
_symmetry_space_group_name_H-M "P 21/M"
_symmetry_group_IT_number 11
_symmetry_cell_setting 'monoclinic'
loop_
_space_group_symop_operation_xyz
x,y,z
-x,1/2+y,-z
-x,-y,-z
x,1/2-y,z
loop_
_atom_site_type_symbol
_atom_site_label
_atom_site_fract_x
_atom_site_fract_y
_atom_site_fract_z
Si Si1 0.149576 0.105487 0.415003
Si Si2 0.070000 0.398462 0.190212
Si Si3 0.580250 0.901630 0.529690
Si Si4 0.716397 0.110178 0.252090
Si Si5 0.972613 0.108776 0.615569
Si Si6 0.558225 0.396520 0.847696
Si Si7 0.659639 0.955996 0.071212
Si Si8 0.305325 0.599555 0.150362
O O1 0.094898 0.250000 0.375525
O O2 0.129668 0.087761 0.320969
O O3 0.351955 0.092598 0.632258
O O4 0.046010 0.998509 0.350445
O O5 0.059601 0.250000 0.167802
O O6 0.221925 0.441570 0.292832
O O7 0.874084 0.450707 0.995798
O O8 0.573420 0.750000 0.538884
O O9 0.466925 0.916573 0.355096
O O10 0.500000 0.000000 0.500000
O O11 0.770092 0.250000 0.287123
O O12 0.846487 0.068708 0.434567
O O13 0.715259 0.027574 0.188965
O O14 0.519880 0.111542 0.086406
O O15 0.918793 0.250000 0.582932
O O16 0.169504 0.115131 0.784079
O O17 0.599034 0.250000 0.891996
O O18 0.655830 0.448990 0.881562
O O19 0.608621 0.457678 0.962380
O O20 0.284059 0.750000 0.122660
#
# Coordination Sequence:
#
# PCOD9157371 Si02
#       8
#     4   4   4   4   4   4   4   4
#     4  10  19  35  59  87 111 141 184 233 277 324
#     4   9  17  32  56  82 111 142 180 225 270 313
#     4  10  20  35  55  80 112 146 182 217 262 315
#     4  10  22  38  53  75 108 145 185 229 276 329
#     4  11  23  39  56  80 113 150 184 222 279 341
#     4  10  18  32  57  86 111 136 181 235 282 324
#     4  11  21  36  57  78 105 144 187 226 277 332
#     4   9  17  31  54  82 108 140 176 223 273 317
#
# _framework density 18.306225000000001
#
# number of rings (size 3 to 8) (size 9 to 14) (size 15 to 20)
#    0.000    2.000    2.500    1.875    0.000    2.500 
#    0.000    1.250    0.000    3.750    0.000    0.000 
#    0.000    0.000    0.000    0.000    0.000    0.000 
#
# Total GULP energy -178318.297693 kJ/mol
# GULP energy per Si atom -5572.446803 kJ/mol
# Density = 1.826456 g / cm^3
# Si number density = 18.306225 Si / 1000 Ang^3
#
#
#
# Elastic Constant Matrix: (Units=GPa)
#
#
# Indices 1 2 3 4 5 6 
#
# 1 76.0796 37.3069 3.6889 0.0000 25.7099 0.0000
# 2 37.3069 46.2399 2.4034 0.0000 9.8360 0.0000
# 3 3.6889 2.4034 45.7689 0.0000 18.5291 0.0000
# 4 0.0000 0.0000 0.0000 11.2535 0.0000 -3.2894
# 5 25.7099 9.8360 18.5291 0.0000 25.1959 0.0000
# 6 0.0000 0.0000 0.0000 -3.2894 0.0000 19.0163
#
#
#
# Elastic Compliance Matrix: (Units=1/GPa)
#
#
# Indices 1 2 3 4 5 6 
#
# 1 0.036150 -0.021672 0.013859 0.000000 -0.038619 0.000000
# 2 -0.021672 0.036988 -0.004703 0.000000 0.011133 0.000000
# 3 0.013859 -0.004703 0.036966 0.000000 -0.039491 0.000000
# 4 0.000000 0.000000 0.000000 0.093593 0.000000 0.016189
# 5 -0.038619 0.011133 -0.039491 0.000000 0.103791 0.000000
# 6 0.000000 0.000000 0.000000 0.016189 0.000000 0.055387
#
#
# Mechanical properties :
#
#
# Convention : Reuss Voigt Hill
#
# Bulk Modulus (GPa) = 11.75460 28.32075 20.03768
# Shear Modulus (GPa) = 12.01164 19.40577 15.70870
#
# Velocity S-wave (km/s) = 2.56432 3.25939 2.93252
# Velocity P-wave (km/s) = 3.89906 5.44693 4.73665
#
# Compressibility (1/GPa) = 0.08507305
#
# Stress axis : x y z
#
# Youngs Moduli (GPa) = 27.66274 27.03614 27.05170
#
# Poissons Ratio (x) = 0.58591 -0.37490
# Poissons Ratio (y) = 0.59949 0.12721
# Poissons Ratio (z) = -0.38337 0.12714
#
# Static dielectric constant tensor:
#      x y z
#    x 1.625230 0.000000 0.028040 
#    y 0.000000 1.618380 0.000000 
#    z 0.028040 0.000000 1.662350 
# 
# From -- ./inp_files/66568.got.cif
#   From: 2010.05.17/outbox.cif.g08.bks.cpg/sg11_34_cif.got.tgz:66568.got - 2010.06.03 12:22:45.
