data_PCOD9157262
_publ_section_title
;
Structure prediction by ZEFSAII (Michael W. Deem and Ramdas Pophale) SiO2 
 PCOD9157262
Probable space group: P 21/M
;
_chemical_formula_sum "Si O2"
_cell_formula_units_Z 32
_cell_length_a 11.726488
_cell_length_b 14.069785
_cell_length_c 8.871349
_cell_angle_alpha 90.000000
_cell_angle_beta 114.026975
_cell_angle_gamma 90.000000
_cell_volume 1336.854553
_symmetry_space_group_name_H-M "P 21/M"
_symmetry_group_IT_number 11
_symmetry_cell_setting 'monoclinic'
loop_
_space_group_symop_operation_xyz
x,y,z
-x,1/2+y,-z
-x,-y,-z
x,1/2-y,z
loop_
_atom_site_type_symbol
_atom_site_label
_atom_site_fract_x
_atom_site_fract_y
_atom_site_fract_z
Si Si1 0.258149 0.566339 0.005380
Si Si2 0.882492 0.517036 0.829139
Si Si3 0.020592 0.638043 0.694854
Si Si4 0.656010 0.644869 0.293931
Si Si5 0.483927 0.862485 0.934278
Si Si6 0.605143 0.148860 0.665917
Si Si7 0.652621 0.442294 0.396291
Si Si8 0.098772 0.858117 0.420645
O O1 0.227596 0.480905 0.105455
O O2 0.287306 0.644576 0.150446
O O3 0.140516 0.587371 0.836163
O O4 0.381711 0.575938 0.972341
O O5 0.893120 0.430522 0.713759
O O6 0.904338 0.607964 0.736135
O O7 0.000000 0.500000 0.000000
O O8 0.042168 0.750000 0.713429
O O9 0.008579 0.614420 0.510866
O O10 0.715669 0.750000 0.346476
O O11 0.525519 0.646541 0.317370
O O12 0.707528 0.544108 0.376079
O O13 0.612709 0.634822 0.096434
O O14 0.449544 0.750000 0.913348
O O15 0.467736 0.909453 0.762838
O O16 0.612780 0.250000 0.588373
O O17 0.619660 0.065659 0.553919
O O18 0.763653 0.367068 0.431622
O O19 0.073093 0.750000 0.359715
#
# Coordination Sequence:
#
# PCOD9157262 Si02
#       8
#     4   4   4   4   4   4   4   4
#     4  10  18  32  53  82 113 143 180 226 281 326
#     4  10  22  36  55  83 114 147 180 220 283 347
#     4  10  20  36  57  82 112 145 181 228 284 338
#     4   9  21  37  52  76 114 157 187 222 273 339
#     4  10  19  33  55  84 115 146 188 233 283 328
#     4  10  19  32  54  82 112 141 182 230 280 327
#     4  12  20  32  56  87 113 142 188 240 280 328
#     4  11  22  36  59  89 114 138 183 243 288 324
#
# _framework density 23.936786999999999
#
# number of rings (size 3 to 8) (size 9 to 14) (size 15 to 20)
#    0.000    1.750    2.500    4.125    0.000    2.500 
#    0.000    0.625    0.000    1.500    0.000    0.000 
#    0.000    0.000    0.000    0.000    0.000    0.000 
#
# Total GULP energy -178439.548395 kJ/mol
# GULP energy per Si atom -5576.235887 kJ/mol
# Density = 2.388231 g / cm^3
# Si number density = 23.936787 Si / 1000 Ang^3
#
#
#
# Elastic Constant Matrix: (Units=GPa)
#
#
# Indices 1 2 3 4 5 6 
#
# 1 36.3977 -2.7930 6.8658 0.0000 -14.1314 0.0000
# 2 -2.7930 90.4892 28.8872 0.0000 -7.2052 0.0000
# 3 6.8658 28.8872 121.5579 0.0000 -20.8272 0.0000
# 4 0.0000 0.0000 0.0000 29.3334 0.0000 -5.9278
# 5 -14.1314 -7.2052 -20.8272 0.0000 27.0712 0.0000
# 6 0.0000 0.0000 0.0000 -5.9278 0.0000 21.9011
#
#
#
# Elastic Compliance Matrix: (Units=1/GPa)
#
#
# Indices 1 2 3 4 5 6 
#
# 1 0.035108 0.002386 0.000805 0.000000 0.019581 0.000000
# 2 0.002386 0.012151 -0.002597 0.000000 0.002481 0.000000
# 3 0.000805 -0.002597 0.010081 0.000000 0.007484 0.000000
# 4 0.000000 0.000000 0.000000 0.036063 0.000000 0.009761
# 5 0.019581 0.002481 0.007484 0.000000 0.053580 0.000000
# 6 0.000000 0.000000 0.000000 0.009761 0.000000 0.048302
#
#
# Mechanical properties :
#
#
# Convention : Reuss Voigt Hill
#
# Bulk Modulus (GPa) = 17.08619 34.92941 26.00780
# Shear Modulus (GPa) = 23.40755 30.02681 26.71718
#
# Velocity S-wave (km/s) = 3.13052 3.54562 3.34452
# Velocity P-wave (km/s) = 4.49671 5.60232 5.07968
#
# Compressibility (1/GPa) = 0.05852679
#
# Stress axis : x y z
#
# Youngs Moduli (GPa) = 28.48373 82.29508 99.19999
#
# Poissons Ratio (x) = -0.19634 -0.07986
# Poissons Ratio (y) = -0.06796 0.25765
# Poissons Ratio (z) = -0.02293 0.21374
#
# Static dielectric constant tensor:
#      x y z
#    x 2.007370 0.000000 0.016170 
#    y 0.000000 1.955670 0.000000 
#    z 0.016170 0.000000 1.922730 
# 
# From -- ./inp_files/22232.got.cif
#   From: 2010.05.17/outbox.cif.g08.bks.cpg/sg11_12_cif.got.tgz:22232.got - 2010.06.03 12:22:45.
