data_PCOD9157168
_publ_section_title
;
Structure prediction by ZEFSAII (Michael W. Deem and Ramdas Pophale) SiO2 
 PCOD9157168
Probable space group: P 21/M
;
_chemical_formula_sum "Si O2"
_cell_formula_units_Z 20
_cell_length_a 5.689793
_cell_length_b 14.360170
_cell_length_c 11.643894
_cell_angle_alpha 90.000000
_cell_angle_beta 87.621648
_cell_angle_gamma 90.000000
_cell_volume 950.561062
_symmetry_space_group_name_H-M "P 21/M"
_symmetry_group_IT_number 11
_symmetry_cell_setting 'monoclinic'
loop_
_space_group_symop_operation_xyz
x,y,z
-x,1/2+y,-z
-x,-y,-z
x,1/2-y,z
loop_
_atom_site_type_symbol
_atom_site_label
_atom_site_fract_x
_atom_site_fract_y
_atom_site_fract_z
Si Si1 0.480440 0.611408 0.021095
Si Si2 0.310557 0.575744 0.466190
Si Si3 0.935723 0.471720 0.315176
Si Si4 0.608022 0.649076 0.269643
Si Si5 0.988179 0.599799 0.934694
O O1 0.461160 0.634735 0.155983
O O2 0.500000 0.500000 0.000000
O O3 0.241993 0.643214 0.962516
O O4 0.740621 0.645168 0.977092
O O5 0.500000 0.500000 0.500000
O O6 0.183279 0.597335 0.588947
O O7 0.445012 0.649101 0.385590
O O8 0.134909 0.523622 0.383557
O O9 0.768376 0.556990 0.277207
O O10 0.020082 0.419483 0.200636
O O11 0.731939 0.750000 0.260080
O O12 0.000000 0.500000 0.000000
#
# Coordination Sequence:
#
# PCOD9157168 Si02
#       5
#     4   4   4   4   4
#     4  10  19  34  55  85 116 153 194 236 283 349
#     4   9  20  35  55  83 113 149 203 243 292 344
#     4  10  19  35  57  86 112 153 198 253 285 352
#     4  11  22  35  56  87 121 151 189 246 306 356
#     4  10  18  31  58  82 114 145 198 235 284 334
#
# _framework density 21.040205
#
# number of rings (size 3 to 8) (size 9 to 14) (size 15 to 20)
#    0.000    2.000    4.000    2.400    2.800    0.800 
#    0.000    0.000    0.000    2.400    0.000    0.000 
#    0.000    0.000    0.000    0.000    0.000    0.000 
#
# Total GULP energy -111426.193497 kJ/mol
# GULP energy per Si atom -5571.309675 kJ/mol
# Density = 2.099232 g / cm^3
# Si number density = 21.040205 Si / 1000 Ang^3
#
#
#
# Elastic Constant Matrix: (Units=GPa)
#
#
# Indices 1 2 3 4 5 6 
#
# 1 104.2970 4.3389 20.8194 0.0000 3.7012 0.0000
# 2 4.3389 72.9241 17.8997 0.0000 -8.4863 0.0000
# 3 20.8194 17.8997 153.1565 0.0000 -8.9406 0.0000
# 4 0.0000 0.0000 0.0000 -3.7774 0.0000 -1.6725
# 5 3.7012 -8.4863 -8.9406 0.0000 37.7646 0.0000
# 6 0.0000 0.0000 0.0000 -1.6725 0.0000 -6.2307
#
#
#
# Elastic Compliance Matrix: (Units=1/GPa)
#
#
# Indices 1 2 3 4 5 6 
#
# 1 0.009931 -0.000414 -0.001383 0.000000 -0.001394 0.000000
# 2 -0.000414 0.014438 -0.001460 0.000000 0.002939 0.000000
# 3 -0.001383 -0.001460 0.006973 0.000000 0.001458 0.000000
# 4 0.000000 0.000000 0.000000 -0.300444 0.000000 0.080647
# 5 -0.001394 0.002939 0.001458 0.000000 0.027622 0.000000
# 6 0.000000 0.000000 0.000000 0.080647 0.000000 -0.182142
#
#
# Mechanical properties :
#
#
# Convention : Reuss Voigt Hill
#
# Bulk Modulus (GPa) = 40.27499 46.27706 43.27603
# Shear Modulus (GPa) = -12.22991 24.70594 6.23802
#
# Velocity S-wave (km/s) = -2.41356 3.43041 1.72373
# Velocity P-wave (km/s) = 3.37883 6.14269 4.95727
#
# Compressibility (1/GPa) = 0.02482930
#
# Stress axis : x y z
#
# Youngs Moduli (GPa) = 100.69755 69.26254 143.41075
#
# Poissons Ratio (x) = 0.02865 0.19833
# Poissons Ratio (y) = 0.04165 0.20932
# Poissons Ratio (z) = 0.13926 0.10109
#
# Static dielectric constant tensor:
#      x y z
#    x 1.850680 0.000000 0.007330 
#    y 0.000000 1.861770 0.000000 
#    z 0.007330 0.000000 1.857450 
# 
# From -- ./inp_files/4162.got.cif
#   From: 2010.05.17/outbox.cif.g08.bks.cpg/sg11_3_cif.got.tgz:4162.got - 2010.06.03 12:22:45.
