data_PCOD9157377
_publ_section_title
;
Structure prediction by ZEFSAII (Michael W. Deem and Ramdas Pophale) SiO2 
 PCOD9157377
Probable space group: P 21/M
;
_chemical_formula_sum "Si O2"
_cell_formula_units_Z 32
_cell_length_a 25.548178
_cell_length_b 13.950694
_cell_length_c 9.633502
_cell_angle_alpha 90.000000
_cell_angle_beta 152.232072
_cell_angle_gamma 90.000000
_cell_volume 1599.648796
_symmetry_space_group_name_H-M "P 21/M"
_symmetry_group_IT_number 11
_symmetry_cell_setting 'monoclinic'
loop_
_space_group_symop_operation_xyz
x,y,z
-x,1/2+y,-z
-x,-y,-z
x,1/2-y,z
loop_
_atom_site_type_symbol
_atom_site_label
_atom_site_fract_x
_atom_site_fract_y
_atom_site_fract_z
Si Si1 0.734031 0.642885 0.577554
Si Si2 0.666809 0.363743 0.080238
Si Si3 0.960404 0.641364 0.291854
Si Si4 0.535386 0.529205 0.237155
Si Si5 0.810141 0.867454 0.187648
Si Si6 0.133093 0.365942 0.361039
Si Si7 0.382838 0.524893 0.299084
Si Si8 0.916939 0.366627 0.681358
O O1 0.693376 0.750000 0.454722
O O2 0.642222 0.594642 0.456104
O O3 0.768478 0.598055 0.510646
O O4 0.849965 0.646402 0.934839
O O5 0.652353 0.250000 0.060089
O O6 0.790685 0.392110 0.424388
O O7 0.567492 0.416562 0.929661
O O8 0.665727 0.393344 0.914956
O O9 0.998548 0.750000 0.413622
O O10 0.910631 0.602534 0.318595
O O11 0.050609 0.597480 0.397517
O O12 0.582878 0.453071 0.461417
O O13 0.500000 0.500000 0.000000
O O14 0.791447 0.750000 0.126284
O O15 0.845527 0.886125 0.429066
O O16 0.700847 0.932932 0.901764
O O17 0.135656 0.250000 0.353942
O O18 0.012509 0.394948 0.015694
O O19 0.500000 0.500000 0.500000
O O20 0.920806 0.250000 0.682225
#
# Coordination Sequence:
#
# PCOD9157377 Si02
#       8
#     4   4   4   4   4   4   4   4
#     4   9  16  30  53  79 107 143 187 230 288 350
#     4  10  22  42  64  81 115 165 199 228 289 362
#     4   8  14  27  53  82 107 143 187 234 283 333
#     4  11  23  38  59  82 114 149 192 254 298 339
#     4  10  18  32  57  89 119 148 188 244 302 344
#     4   8  16  28  52  86 115 145 188 242 291 335
#     4  10  23  38  55  84 117 154 198 243 289 350
#     4   8  15  33  57  82 112 152 195 232 280 350
#
# _framework density 20.004391999999999
#
# number of rings (size 3 to 8) (size 9 to 14) (size 15 to 20)
#    0.000    2.750    1.250    1.875    3.500    2.000 
#    0.000    3.750    0.000    3.000    0.000    0.000 
#    0.000    0.000    0.000    0.000    0.000    0.000 
#
# Total GULP energy -178209.381921 kJ/mol
# GULP energy per Si atom -5569.043185 kJ/mol
# Density = 1.995886 g / cm^3
# Si number density = 20.004392 Si / 1000 Ang^3
#
#
#
# Elastic Constant Matrix: (Units=GPa)
#
#
# Indices 1 2 3 4 5 6 
#
# 1 132.4223 34.8735 59.2645 0.0000 -17.1596 0.0000
# 2 34.8735 50.2644 7.9908 0.0000 3.0063 0.0000
# 3 59.2645 7.9908 76.4242 0.0000 -1.3388 0.0000
# 4 0.0000 0.0000 0.0000 4.8017 0.0000 -18.5875
# 5 -17.1596 3.0063 -1.3388 0.0000 45.5568 0.0000
# 6 0.0000 0.0000 0.0000 -18.5875 0.0000 -1.4281
#
#
#
# Elastic Compliance Matrix: (Units=1/GPa)
#
#
# Indices 1 2 3 4 5 6 
#
# 1 0.015943 -0.009651 -0.011244 0.000000 0.006312 0.000000
# 2 -0.009651 0.026163 0.004657 0.000000 -0.005225 0.000000
# 3 -0.011244 0.004657 0.021248 0.000000 -0.003918 0.000000
# 4 0.000000 0.000000 0.000000 0.004053 0.000000 -0.052753
# 5 0.006312 -0.005225 -0.003918 0.000000 0.024558 0.000000
# 6 0.000000 0.000000 0.000000 -0.052753 0.000000 -0.013628
#
#
# Mechanical properties :
#
#
# Convention : Reuss Voigt Hill
#
# Bulk Modulus (GPa) = 32.38457 51.48539 41.93498
# Shear Modulus (GPa) = 41.28593 20.25156 30.76875
#
# Velocity S-wave (km/s) = 4.54788 3.18521 3.92612
# Velocity P-wave (km/s) = 6.61827 6.27059 6.44678
#
# Compressibility (1/GPa) = 0.03087890
#
# Stress axis : x y z
#
# Youngs Moduli (GPa) = 62.72252 38.22177 47.06234
#
# Poissons Ratio (x) = 0.36890 0.52916
# Poissons Ratio (y) = 0.60536 -0.21918
# Poissons Ratio (z) = 0.70524 -0.17801
#
# Static dielectric constant tensor:
#      x y z
#    x 1.738400 0.000000 -0.012190 
#    y 0.000000 1.764980 0.000000 
#    z -0.012190 0.000000 1.741010 
# 
# From -- ./inp_files/27812.got.cif
#   From: 2010.05.17/outbox.cif.g08.bks.cpg/sg11_14_cif.got.tgz:27812.got - 2010.06.03 12:22:45.
