data_PCOD9157762
_publ_section_title
;
Structure prediction by ZEFSAII (Michael W. Deem and Ramdas Pophale) SiO2 
 PCOD9157762
Probable space group: P 21/M
;
_chemical_formula_sum "Si O2"
_cell_formula_units_Z 24
_cell_length_a 18.299489
_cell_length_b 16.917429
_cell_length_c 12.075293
_cell_angle_alpha 90.000000
_cell_angle_beta 20.522839
_cell_angle_gamma 90.000000
_cell_volume 1310.566426
_symmetry_space_group_name_H-M "P 21/M"
_symmetry_group_IT_number 11
_symmetry_cell_setting 'monoclinic'
loop_
_space_group_symop_operation_xyz
x,y,z
-x,1/2+y,-z
-x,-y,-z
x,1/2-y,z
loop_
_atom_site_type_symbol
_atom_site_label
_atom_site_fract_x
_atom_site_fract_y
_atom_site_fract_z
Si Si1 0.698617 0.338786 0.249032
Si Si2 0.108755 0.505292 0.962781
Si Si3 0.452231 0.937393 0.727445
Si Si4 0.399303 0.006097 0.022287
Si Si5 0.361885 0.341134 0.927040
Si Si6 0.952123 0.550071 0.725645
O O1 0.777901 0.250000 0.137445
O O2 0.874786 0.403842 0.022735
O O3 0.597183 0.360050 0.273965
O O4 0.525158 0.346394 0.592679
O O5 0.346254 0.476277 0.613757
O O6 0.004342 0.451252 0.204810
O O7 0.000000 0.500000 0.000000
O O8 0.489877 0.942334 0.805595
O O9 0.247673 0.992166 0.002835
O O10 0.421591 0.093132 0.934711
O O11 0.155206 0.984980 0.380450
O O12 0.500000 0.000000 0.000000
O O13 0.359549 0.250000 0.968215
O O14 0.136762 0.369103 0.199033
#
# Coordination Sequence:
#
# PCOD9157762 Si02
#       6
#     4   4   4   4   4   4
#     4  10  19  35  58  85 109 146 192 239 278 319
#     4  11  19  33  57  83 113 147 184 228 283 330
#     4  10  18  37  56  79 107 145 193 222 267 335
#     4  11  22  36  57  86 115 150 186 223 282 344
#     4  10  19  36  59  83 110 146 192 236 275 325
#     4  10  19  35  56  82 106 147 192 222 265 341
#
# _framework density 18.312691999999998
#
# number of rings (size 3 to 8) (size 9 to 14) (size 15 to 20)
#    0.000    1.667    5.000    4.000    0.000    0.000 
#    0.000   10.833    0.000    0.000    0.000    0.000 
#    0.000    0.000    0.000    0.000    0.000    0.000 
#
# Total GULP energy -133712.199420 kJ/mol
# GULP energy per Si atom -5571.341642 kJ/mol
# Density = 1.827101 g / cm^3
# Si number density = 18.312692 Si / 1000 Ang^3
#
#
#
# Elastic Constant Matrix: (Units=GPa)
#
#
# Indices 1 2 3 4 5 6 
#
# 1 147.8566 48.3447 2.3301 0.0000 14.9262 0.0000
# 2 48.3447 97.9344 9.5986 0.0000 0.3540 0.0000
# 3 2.3301 9.5986 54.5128 0.0000 13.6877 0.0000
# 4 0.0000 0.0000 0.0000 17.2350 0.0000 4.9251
# 5 14.9262 0.3540 13.6877 0.0000 29.5648 0.0000
# 6 0.0000 0.0000 0.0000 4.9251 0.0000 18.7263
#
#
#
# Elastic Compliance Matrix: (Units=1/GPa)
#
#
# Indices 1 2 3 4 5 6 
#
# 1 0.008708 -0.004447 0.001699 0.000000 -0.005130 0.000000
# 2 -0.004447 0.012678 -0.002906 0.000000 0.003439 0.000000
# 3 0.001699 -0.002906 0.021488 0.000000 -0.010771 0.000000
# 4 0.000000 0.000000 0.000000 0.062737 0.000000 -0.016500
# 5 -0.005130 0.003439 -0.010771 0.000000 0.041360 0.000000
# 6 0.000000 0.000000 0.000000 -0.016500 0.000000 0.057741
#
#
# Mechanical properties :
#
#
# Convention : Reuss Voigt Hill
#
# Bulk Modulus (GPa) = 31.67837 46.76120 39.21979
# Shear Modulus (GPa) = 22.07103 29.10723 25.58913
#
# Velocity S-wave (km/s) = 3.47541 3.99112 3.74216
# Velocity P-wave (km/s) = 5.78280 6.84318 6.33521
#
# Compressibility (1/GPa) = 0.03156728
#
# Stress axis : x y z
#
# Youngs Moduli (GPa) = 114.83221 78.87427 46.53778
#
# Poissons Ratio (x) = 0.35074 -0.07906
# Poissons Ratio (y) = 0.51063 0.13523
# Poissons Ratio (z) = -0.19508 0.22919
#
# Static dielectric constant tensor:
#      x y z
#    x 1.722160 0.000000 0.017160 
#    y 0.000000 1.635110 0.000000 
#    z 0.017160 0.000000 1.645330 
# 
# From -- ./inp_files/13197.got.cif
#   From: 2010.05.17/outbox.cif.g08.bks.cpg/sg11_7_cif.got.tgz:13197.got - 2010.06.03 12:22:45.
