data_PCOD9157476
_publ_section_title
;
Structure prediction by ZEFSAII (Michael W. Deem and Ramdas Pophale) SiO2 
 PCOD9157476
Probable space group: P 21/M
;
_chemical_formula_sum "Si O2"
_cell_formula_units_Z 28
_cell_length_a 5.075528
_cell_length_b 28.239592
_cell_length_c 10.110238
_cell_angle_alpha 90.000000
_cell_angle_beta 124.006315
_cell_angle_gamma 90.000000
_cell_volume 1201.276408
_symmetry_space_group_name_H-M "P 21/M"
_symmetry_group_IT_number 11
_symmetry_cell_setting 'monoclinic'
loop_
_space_group_symop_operation_xyz
x,y,z
-x,1/2+y,-z
-x,-y,-z
x,1/2-y,z
loop_
_atom_site_type_symbol
_atom_site_label
_atom_site_fract_x
_atom_site_fract_y
_atom_site_fract_z
Si Si1 0.687058 0.872452 0.397764
Si Si2 0.706095 0.434662 0.381898
Si Si3 0.199405 0.542737 0.315410
Si Si4 0.023540 0.194016 0.319318
Si Si5 0.602836 0.610118 0.099168
Si Si6 0.808689 0.467809 0.114836
Si Si7 0.658283 0.647338 0.824583
O O1 0.456851 0.917241 0.356302
O O2 0.709324 0.831914 0.514326
O O3 0.602161 0.856013 0.225962
O O4 0.032737 0.895790 0.504756
O O5 0.725554 0.469987 0.510541
O O6 0.797066 0.455988 0.267165
O O7 0.398125 0.402246 0.270320
O O8 0.867624 0.571035 0.210339
O O9 0.131591 0.499184 0.195242
O O10 0.048946 0.250000 0.336848
O O11 0.087305 0.176456 0.187476
O O12 0.673258 0.176789 0.264648
O O13 0.275733 0.580656 0.985387
O O14 0.706041 0.633832 0.991059
O O15 0.500000 0.500000 0.000000
#
# Coordination Sequence:
#
# PCOD9157476 Si02
#       7
#     4   4   4   4   4   4   4
#     4  10  21  36  59  86 116 160 202 248 314 368
#     4   9  18  35  53  82 120 158 207 249 296 361
#     4  10  18  33  57  83 116 164 203 250 297 361
#     4  11  23  42  66  91 118 154 202 253 305 377
#     4   9  21  37  57  84 123 158 200 249 302 364
#     4   9  18  33  52  82 119 164 208 259 294 352
#     4  10  21  40  65  90 120 158 197 245 312 364
#
# _framework density 23.308540000000001
#
# number of rings (size 3 to 8) (size 9 to 14) (size 15 to 20)
#    0.000    2.286    1.429    0.857    2.000    1.143 
#    0.000    1.429    0.000    0.000    0.000    0.000 
#    0.000    0.000    0.000    0.000    0.000    0.000 
#
# Total GULP energy -156409.353203 kJ/mol
# GULP energy per Si atom -5586.048329 kJ/mol
# Density = 2.325549 g / cm^3
# Si number density = 23.308540 Si / 1000 Ang^3
#
#
#
# Elastic Constant Matrix: (Units=GPa)
#
#
# Indices 1 2 3 4 5 6 
#
# 1 56.4668 9.7964 6.4171 0.0000 5.3163 0.0000
# 2 9.7964 94.7824 42.7278 0.0000 -14.8467 0.0000
# 3 6.4171 42.7278 163.5342 0.0000 -10.8032 0.0000
# 4 0.0000 0.0000 0.0000 15.9237 0.0000 0.4461
# 5 5.3163 -14.8467 -10.8032 0.0000 26.8923 0.0000
# 6 0.0000 0.0000 0.0000 0.4461 0.0000 30.9871
#
#
#
# Elastic Compliance Matrix: (Units=1/GPa)
#
#
# Indices 1 2 3 4 5 6 
#
# 1 0.018700 -0.002576 -0.000410 0.000000 -0.005283 0.000000
# 2 -0.002576 0.013160 -0.002901 0.000000 0.006609 0.000000
# 3 -0.000410 -0.002901 0.006974 0.000000 0.001281 0.000000
# 4 0.000000 0.000000 0.000000 0.062825 0.000000 -0.000904
# 5 -0.005283 0.006609 0.001281 0.000000 0.042393 0.000000
# 6 0.000000 0.000000 0.000000 -0.000904 0.000000 0.032285
#
#
# Mechanical properties :
#
#
# Convention : Reuss Voigt Hill
#
# Bulk Modulus (GPa) = 36.95336 48.07401 42.51369
# Shear Modulus (GPa) = 25.36417 31.81676 28.59046
#
# Velocity S-wave (km/s) = 3.30235 3.69863 3.50610
# Velocity P-wave (km/s) = 5.51626 6.23776 5.88807
#
# Compressibility (1/GPa) = 0.02706114
#
# Stress axis : x y z
#
# Youngs Moduli (GPa) = 53.47487 75.99063 143.39984
#
# Poissons Ratio (x) = 0.19572 0.05878
# Poissons Ratio (y) = 0.13773 0.41595
# Poissons Ratio (z) = 0.02192 0.22042
#
# Static dielectric constant tensor:
#      x y z
#    x 1.954300 0.000000 -0.002370 
#    y 0.000000 1.889930 0.000000 
#    z -0.002370 0.000000 1.927300 
# 
# From -- ./inp_files/3335.got.cif
#   From: 2010.05.17/outbox.cif.g08.bks.cpg/sg11_2_cif.got.tgz:3335.got - 2010.06.03 12:22:45.
