data_PCOD9157430
_publ_section_title
;
Structure prediction by ZEFSAII (Michael W. Deem and Ramdas Pophale) SiO2 
 PCOD9157430
Probable space group: P 21/M
;
_chemical_formula_sum "Si O2"
_cell_formula_units_Z 32
_cell_length_a 11.304341
_cell_length_b 13.329530
_cell_length_c 12.234989
_cell_angle_alpha 90.000000
_cell_angle_beta 84.777496
_cell_angle_gamma 90.000000
_cell_volume 1835.933898
_symmetry_space_group_name_H-M "P 21/M"
_symmetry_group_IT_number 11
_symmetry_cell_setting 'monoclinic'
loop_
_space_group_symop_operation_xyz
x,y,z
-x,1/2+y,-z
-x,-y,-z
x,1/2-y,z
loop_
_atom_site_type_symbol
_atom_site_label
_atom_site_fract_x
_atom_site_fract_y
_atom_site_fract_z
Si Si1 0.876381 0.025224 0.951471
Si Si2 0.811295 0.364341 0.155682
Si Si3 0.407563 0.135628 0.228354
Si Si4 0.004650 0.995874 0.729388
Si Si5 0.667491 0.632838 0.010659
Si Si6 0.778651 0.868158 0.369099
Si Si7 0.168303 0.365123 0.384172
Si Si8 0.604566 0.518442 0.230748
O O1 0.785569 0.933646 0.980151
O O2 0.908800 0.040152 0.822863
O O3 0.827563 0.118533 0.024554
O O4 0.000000 0.000000 0.000000
O O5 0.793803 0.250000 0.184464
O O6 0.924425 0.409200 0.210446
O O7 0.700692 0.431804 0.198809
O O8 0.448903 0.250000 0.252183
O O9 0.404455 0.127319 0.096815
O O10 0.274841 0.127499 0.287596
O O11 0.485720 0.043380 0.264876
O O12 0.104106 0.075820 0.686648
O O13 0.933854 0.943449 0.637647
O O14 0.696155 0.750000 0.028021
O O15 0.600923 0.585798 0.120849
O O16 0.784524 0.750000 0.344298
O O17 0.779981 0.881861 0.499421
O O18 0.662981 0.915380 0.321364
O O19 0.123063 0.250000 0.383825
#
# Coordination Sequence:
#
# PCOD9157430 Si02
#       8
#     4   4   4   4   4   4   4   4
#     4   9  18  28  45  76 106 134 166 206 257 314
#     4   9  18  30  47  74 106 137 170 212 261 313
#     4  10  20  34  56  80 103 135 176 223 264 308
#     4  10  18  33  54  77 104 136 176 219 262 313
#     4  10  19  33  53  77 106 138 173 214 260 315
#     4  10  22  37  54  77 105 141 181 221 266 313
#     4  10  20  35  56  81 106 137 179 221 264 313
#     4  10  20  34  52  76 107 139 177 215 262 314
#
# _framework density 17.429822000000001
#
# number of rings (size 3 to 8) (size 9 to 14) (size 15 to 20)
#    0.000    2.250    1.250    2.625    0.000    3.000 
#    0.000    0.000    0.000    3.000    0.000    0.000 
#    0.000    0.000    0.000    0.000    0.000    0.000 
#
# Total GULP energy -178325.159359 kJ/mol
# GULP energy per Si atom -5572.661230 kJ/mol
# Density = 1.739015 g / cm^3
# Si number density = 17.429822 Si / 1000 Ang^3
#
#
#
# Elastic Constant Matrix: (Units=GPa)
#
#
# Indices 1 2 3 4 5 6 
#
# 1 34.9657 29.2476 -1.7230 0.0000 9.4137 0.0000
# 2 29.2476 100.8947 36.2380 0.0000 17.7428 0.0000
# 3 -1.7230 36.2380 59.0890 0.0000 12.1119 0.0000
# 4 0.0000 0.0000 0.0000 23.5670 0.0000 4.8948
# 5 9.4137 17.7428 12.1119 0.0000 15.6767 0.0000
# 6 0.0000 0.0000 0.0000 4.8948 0.0000 21.0712
#
#
#
# Elastic Compliance Matrix: (Units=1/GPa)
#
#
# Indices 1 2 3 4 5 6 
#
# 1 0.049001 -0.015732 0.015991 0.000000 -0.023974 0.000000
# 2 -0.015732 0.019214 -0.011550 0.000000 -0.003375 0.000000
# 3 0.015991 -0.011550 0.028233 0.000000 -0.018343 0.000000
# 4 0.000000 0.000000 0.000000 0.044583 0.000000 -0.010357
# 5 -0.023974 -0.003375 -0.018343 0.000000 0.096178 0.000000
# 6 0.000000 0.000000 0.000000 -0.010357 0.000000 0.049864
#
#
# Mechanical properties :
#
#
# Convention : Reuss Voigt Hill
#
# Bulk Modulus (GPa) = 13.53798 35.83050 24.68424
# Shear Modulus (GPa) = 14.95760 20.80876 17.88318
#
# Velocity S-wave (km/s) = 2.93262 3.45898 3.20662
# Velocity P-wave (km/s) = 4.38760 6.04602 5.28230
#
# Compressibility (1/GPa) = 0.07386626
#
# Stress axis : x y z
#
# Youngs Moduli (GPa) = 20.40759 52.04582 35.41894
#
# Poissons Ratio (x) = 0.81879 -0.56639
# Poissons Ratio (y) = 0.32106 0.40910
# Poissons Ratio (z) = -0.32634 0.60115
#
# Static dielectric constant tensor:
#      x y z
#    x 1.598140 0.000000 0.004800 
#    y 0.000000 1.579890 0.000000 
#    z 0.004800 0.000000 1.613300 
# 
# From -- ./inp_files/34789.got.cif
#   From: 2010.05.17/outbox.cif.g08.bks.cpg/sg11_18_cif.got.tgz:34789.got - 2010.06.03 12:22:45.
