data_PCOD9157102
_publ_section_title
;
Structure prediction by ZEFSAII (Michael W. Deem and Ramdas Pophale) SiO2 
 PCOD9157102
Probable space group: P 21/M
;
_chemical_formula_sum "Si O2"
_cell_formula_units_Z 32
_cell_length_a 14.265811
_cell_length_b 13.591457
_cell_length_c 21.480858
_cell_angle_alpha 90.000000
_cell_angle_beta 161.486186
_cell_angle_gamma 90.000000
_cell_volume 1322.523403
_symmetry_space_group_name_H-M "P 21/M"
_symmetry_group_IT_number 11
_symmetry_cell_setting 'monoclinic'
loop_
_space_group_symop_operation_xyz
x,y,z
-x,1/2+y,-z
-x,-y,-z
x,1/2-y,z
loop_
_atom_site_type_symbol
_atom_site_label
_atom_site_fract_x
_atom_site_fract_y
_atom_site_fract_z
Si Si1 0.047400 0.548538 0.960950
Si Si2 0.920543 0.352809 0.821926
Si Si3 0.807932 0.424901 0.121123
Si Si4 0.002134 0.039413 0.414101
Si Si5 0.442175 0.135291 0.012311
Si Si6 0.485682 0.356511 0.665928
Si Si7 0.272692 0.366152 0.706751
Si Si8 0.384231 0.107028 0.412286
O O1 0.096811 0.453575 0.946308
O O2 0.776054 0.604770 0.755875
O O3 0.300873 0.623930 0.140871
O O4 0.000000 0.500000 0.000000
O O5 0.094793 0.250000 0.936246
O O6 0.687777 0.355528 0.732632
O O7 0.699295 0.344276 0.624130
O O8 0.787834 0.543517 0.123262
O O9 0.601931 0.395128 0.933121
O O10 0.623664 0.377126 0.061930
O O11 0.121521 0.378836 0.297777
O O12 0.227556 0.063936 0.500865
O O13 0.171234 0.079059 0.580683
O O14 0.703168 0.102684 0.223678
O O15 0.925883 0.924950 0.367755
O O16 0.350258 0.250000 0.960818
O O17 0.340775 0.250000 0.581992
O O18 0.231643 0.250000 0.679170
O O19 0.500000 0.000000 0.500000
#
# Coordination Sequence:
#
# PCOD9157102 Si02
#       8
#     4   4   4   4   4   4   4   4
#     4   9  19  35  53  77 111 147 185 232 286 343
#     4   9  19  34  53  77 106 141 182 230 282 334
#     4  10  21  35  55  83 111 147 191 233 284 344
#     4  10  20  32  51  79 105 137 183 229 278 334
#     4  10  20  36  57  80 111 148 189 236 283 338
#     4  10  18  31  53  78 105 139 182 233 282 331
#     4  10  20  34  50  73 109 143 177 227 281 332
#     4  10  20  35  54  79 113 146 184 235 285 338
#
# _framework density 24.196169000000001
#
# number of rings (size 3 to 8) (size 9 to 14) (size 15 to 20)
#    0.000    2.250    0.000    3.000    0.000    2.500 
#    0.000    3.125    0.000    1.500    0.000    7.000 
#    0.000    0.000    0.000    0.000    0.000    0.000 
#
# Total GULP energy -178234.228595 kJ/mol
# GULP energy per Si atom -5569.819644 kJ/mol
# Density = 2.414110 g / cm^3
# Si number density = 24.196169 Si / 1000 Ang^3
#
#
#
# Elastic Constant Matrix: (Units=GPa)
#
#
# Indices 1 2 3 4 5 6 
#
# 1 89.0933 -0.8028 13.9678 0.0000 -1.0772 0.0000
# 2 -0.8028 141.9664 4.5193 0.0000 6.9587 0.0000
# 3 13.9678 4.5193 84.0327 0.0000 -21.2863 0.0000
# 4 0.0000 0.0000 0.0000 20.0426 0.0000 -1.7239
# 5 -1.0772 6.9587 -21.2863 0.0000 36.1434 0.0000
# 6 0.0000 0.0000 0.0000 -1.7239 0.0000 7.1789
#
#
#
# Elastic Compliance Matrix: (Units=1/GPa)
#
#
# Indices 1 2 3 4 5 6 
#
# 1 0.011555 0.000182 -0.002177 0.000000 -0.000973 0.000000
# 2 0.000182 0.007167 -0.000898 0.000000 -0.001903 0.000000
# 3 -0.002177 -0.000898 0.014501 0.000000 0.008648 0.000000
# 4 0.000000 0.000000 0.000000 0.050946 0.000000 0.012234
# 5 -0.000973 -0.001903 0.008648 0.000000 0.033098 0.000000
# 6 0.000000 0.000000 0.000000 0.012234 0.000000 0.142236
#
#
# Mechanical properties :
#
#
# Convention : Reuss Voigt Hill
#
# Bulk Modulus (GPa) = 36.44552 38.94011 37.69281
# Shear Modulus (GPa) = 18.21931 32.50019 25.35975
#
# Velocity S-wave (km/s) = 2.74703 3.66894 3.24093
# Velocity P-wave (km/s) = 5.01565 5.83752 5.44212
#
# Compressibility (1/GPa) = 0.02743821
#
# Stress axis : x y z
#
# Youngs Moduli (GPa) = 86.53985 139.53196 68.96117
#
# Poissons Ratio (x) = -0.02544 0.15012
# Poissons Ratio (y) = -0.01578 0.06192
# Poissons Ratio (z) = 0.18839 0.12528
#
# Static dielectric constant tensor:
#      x y z
#    x 2.117690 0.000000 -0.035280 
#    y 0.000000 1.387330 0.000000 
#    z -0.035280 0.000000 1.966900 
# 
# From -- ./inp_files/65777.got.cif
#   From: 2010.05.17/outbox.cif.g08.bks.cpg/sg11_33_cif.got.tgz:65777.got - 2010.06.03 12:22:45.
