data_PCOD9157002
_publ_section_title
;
Structure prediction by ZEFSAII (Michael W. Deem and Ramdas Pophale) SiO2 
 PCOD9157002
Probable space group: P 21/M
;
_chemical_formula_sum "Si O2"
_cell_formula_units_Z 32
_cell_length_a 24.797442
_cell_length_b 7.814268
_cell_length_c 12.753553
_cell_angle_alpha 90.000000
_cell_angle_beta 46.712535
_cell_angle_gamma 90.000000
_cell_volume 1798.919327
_symmetry_space_group_name_H-M "P 21/M"
_symmetry_group_IT_number 11
_symmetry_cell_setting 'monoclinic'
loop_
_space_group_symop_operation_xyz
x,y,z
-x,1/2+y,-z
-x,-y,-z
x,1/2-y,z
loop_
_atom_site_type_symbol
_atom_site_label
_atom_site_fract_x
_atom_site_fract_y
_atom_site_fract_z
Si Si1 0.157028 0.540018 0.417465
Si Si2 0.003589 0.046539 0.371838
Si Si3 0.313758 0.952027 0.279234
Si Si4 0.422052 0.545259 0.549871
Si Si5 0.412341 0.959617 0.953774
Si Si6 0.164934 0.953254 0.164369
Si Si7 0.423251 0.049671 0.306926
Si Si8 0.318855 0.959206 0.872547
O O1 0.154713 0.750000 0.420762
O O2 0.229879 0.481403 0.381952
O O3 0.166347 0.484035 0.283313
O O4 0.075796 0.483265 0.565209
O O5 0.005267 0.250000 0.359874
O O6 0.083168 0.982594 0.227196
O O7 0.000000 0.000000 0.500000
O O8 0.307719 0.750000 0.266158
O O9 0.355131 0.974088 0.333449
O O10 0.366437 0.020344 0.115842
O O11 0.500000 0.500000 0.500000
O O12 0.417438 0.750000 0.548454
O O13 0.418175 0.474195 0.438079
O O14 0.357446 0.482988 0.714094
O O15 0.414212 0.750000 0.952428
O O16 0.497059 0.020986 0.837332
O O17 0.369537 0.008292 0.904515
O O18 0.175036 0.750000 0.159084
O O19 0.235231 0.019173 0.006051
O O20 0.423136 0.250000 0.283356
O O21 0.318938 0.750000 0.869730
#
# Coordination Sequence:
#
# PCOD9157002 Si02
#       8
#     4   4   4   4   4   4   4   4
#     4   8  14  25  44  66  91 124 157 185 224 283
#     4   9  16  26  41  65  96 128 158 190 231 282
#     4  10  18  31  51  71  92 126 170 201 231 283
#     4  11  21  35  54  73  94 125 166 207 245 288
#     4   9  16  29  50  70  93 126 162 198 235 283
#     4   9  15  27  47  69  93 124 158 192 236 287
#     4  11  22  35  48  68  99 130 163 204 248 285
#     4   9  16  29  51  73  93 125 163 197 238 289
#
# _framework density 17.788457999999999
#
# number of rings (size 3 to 8) (size 9 to 14) (size 15 to 20)
#    0.000    2.500    2.500    2.250    0.000    0.000 
#    0.000    5.000    0.000    0.000    0.000    0.875 
#    0.000    0.000    0.000    0.000    0.000    0.000 
#
# Total GULP energy -178355.686332 kJ/mol
# GULP energy per Si atom -5573.615198 kJ/mol
# Density = 1.774797 g / cm^3
# Si number density = 17.788458 Si / 1000 Ang^3
#
#
#
# Elastic Constant Matrix: (Units=GPa)
#
#
# Indices 1 2 3 4 5 6 
#
# 1 130.3810 -9.4155 60.8304 0.0000 -31.0369 0.0000
# 2 -9.4155 14.6794 -9.1177 0.0000 -4.7545 0.0000
# 3 60.8304 -9.1177 69.0158 0.0000 -30.8961 0.0000
# 4 0.0000 0.0000 0.0000 14.5062 0.0000 -2.6198
# 5 -31.0369 -4.7545 -30.8961 0.0000 36.2408 0.0000
# 6 0.0000 0.0000 0.0000 -2.6198 0.0000 17.3919
#
#
#
# Elastic Compliance Matrix: (Units=1/GPa)
#
#
# Indices 1 2 3 4 5 6 
#
# 1 0.013282 0.003828 -0.009516 0.000000 0.003765 0.000000
# 2 0.003828 0.101196 0.028149 0.000000 0.040552 0.000000
# 3 -0.009516 0.028149 0.039784 0.000000 0.029460 0.000000
# 4 0.000000 0.000000 0.000000 0.070864 0.000000 0.010675
# 5 0.003765 0.040552 0.029460 0.000000 0.061253 0.000000
# 6 0.000000 0.000000 0.000000 0.010675 0.000000 0.059106
#
#
# Mechanical properties :
#
#
# Convention : Reuss Voigt Hill
#
# Bulk Modulus (GPa) = 5.02049 33.18563 19.10306
# Shear Modulus (GPa) = 13.62557 25.07970 19.35264
#
# Velocity S-wave (km/s) = 2.77063 3.75892 3.30196
# Velocity P-wave (km/s) = 3.61437 6.12662 5.02987
#
# Compressibility (1/GPa) = 0.19918387
#
# Stress axis : x y z
#
# Youngs Moduli (GPa) = 75.28901 9.88181 25.13604
#
# Poissons Ratio (x) = -0.03783 0.23919
# Poissons Ratio (y) = -0.28822 -0.70754
# Poissons Ratio (z) = 0.71643 -0.27816
#
# Static dielectric constant tensor:
#      x y z
#    x 1.600550 0.000000 -0.051610 
#    y 0.000000 1.665220 0.000000 
#    z -0.051610 0.000000 1.610210 
# 
# From -- ./inp_files/43757.got.cif
#   From: 2010.05.17/outbox.cif.g08.bks.cpg/sg11_22_cif.got.tgz:43757.got - 2010.06.03 12:22:45.
