data_PCOD9157475
_publ_section_title
;
Structure prediction by ZEFSAII (Michael W. Deem and Ramdas Pophale) SiO2 
 PCOD9157475
Probable space group: P 21/M
;
_chemical_formula_sum "Si O2"
_cell_formula_units_Z 26
_cell_length_a 15.583882
_cell_length_b 15.435700
_cell_length_c 9.707936
_cell_angle_alpha 90.000000
_cell_angle_beta 142.268595
_cell_angle_gamma 90.000000
_cell_volume 1429.066277
_symmetry_space_group_name_H-M "P 21/M"
_symmetry_group_IT_number 11
_symmetry_cell_setting 'monoclinic'
loop_
_space_group_symop_operation_xyz
x,y,z
-x,1/2+y,-z
-x,-y,-z
x,1/2-y,z
loop_
_atom_site_type_symbol
_atom_site_label
_atom_site_fract_x
_atom_site_fract_y
_atom_site_fract_z
Si Si1 0.775061 0.646281 0.375728
Si Si2 0.570236 0.931628 0.341616
Si Si3 0.511043 0.250000 0.622870
Si Si4 0.199226 0.050280 0.151969
Si Si5 0.999196 0.610273 0.882125
Si Si6 0.227407 0.750000 0.217101
Si Si7 0.340060 0.421533 0.037152
Si Si8 0.504072 0.750000 0.708533
O O1 0.745661 0.750000 0.328162
O O2 0.659466 0.595132 0.320923
O O3 0.920746 0.635954 0.642774
O O4 0.770859 0.598220 0.223898
O O5 0.527395 0.838914 0.351796
O O6 0.672177 0.978449 0.584023
O O7 0.436860 0.993054 0.145111
O O8 0.675388 0.250000 0.795037
O O9 0.443461 0.250000 0.384444
O O10 0.119052 0.118025 0.149046
O O11 0.266351 0.076170 0.092659
O O12 0.074125 0.982502 0.964595
O O13 0.127544 0.669168 0.087044
O O14 0.336967 0.750000 0.480621
O O15 0.441327 0.337874 0.156902
#
# Coordination Sequence:
#
# PCOD9157475 Si02
#       8
#     4   4   2   4   4   2   4   2
#     4  11  23  39  58  83 123 163 193 234 296 366
#     4  11  21  38  63  88 116 151 201 247 295 347
#     4  10  20  34  61  92 111 149 195 253 298 339
#     4  10  21  36  60  87 114 145 201 244 288 342
#     4  10  21  37  58  85 112 157 197 238 283 349
#     4  10  18  33  57  83 111 145 194 240 283 329
#     4  12  22  38  60  90 122 153 192 249 302 345
#     4  10  22  33  60  95 118 144 191 259 299 336
#
# _framework density 18.193698999999999
#
# number of rings (size 3 to 8) (size 9 to 14) (size 15 to 20)
#    0.462    0.923    3.846    2.769    0.000    1.231 
#    0.000    0.000    0.000    1.846    0.000    0.000 
#    0.000    0.000    0.000    0.000    0.000    0.000 
#
# Total GULP energy -144811.294699 kJ/mol
# GULP energy per Si atom -5569.665181 kJ/mol
# Density = 1.815229 g / cm^3
# Si number density = 18.193699 Si / 1000 Ang^3
#
#
#
# Elastic Constant Matrix: (Units=GPa)
#
#
# Indices 1 2 3 4 5 6 
#
# 1 51.1236 0.3541 24.0595 0.0000 0.5603 0.0000
# 2 0.3541 67.4866 28.6691 0.0000 -1.7429 0.0000
# 3 24.0595 28.6691 77.2926 0.0000 -1.3297 0.0000
# 4 0.0000 0.0000 0.0000 39.8024 0.0000 8.0364
# 5 0.5603 -1.7429 -1.3297 0.0000 30.2674 0.0000
# 6 0.0000 0.0000 0.0000 8.0364 0.0000 17.5782
#
#
#
# Elastic Compliance Matrix: (Units=1/GPa)
#
#
# Indices 1 2 3 4 5 6 
#
# 1 0.023628 0.003548 -0.008682 0.000000 -0.000614 0.000000
# 2 0.003548 0.018138 -0.007821 0.000000 0.000635 0.000000
# 3 -0.008682 -0.007821 0.018550 0.000000 0.000525 0.000000
# 4 0.000000 0.000000 0.000000 0.027679 0.000000 -0.012654
# 5 -0.000614 0.000635 0.000525 0.000000 0.033110 0.000000
# 6 0.000000 0.000000 0.000000 -0.012654 0.000000 0.062674
#
#
# Mechanical properties :
#
#
# Convention : Reuss Voigt Hill
#
# Bulk Modulus (GPa) = 29.06355 33.56314 31.31334
# Shear Modulus (GPa) = 22.60824 27.05094 24.82959
#
# Velocity S-wave (km/s) = 3.52894 3.86013 3.69824
# Velocity P-wave (km/s) = 5.71084 6.19315 5.95688
#
# Compressibility (1/GPa) = 0.03440736
#
# Stress axis : x y z
#
# Youngs Moduli (GPa) = 42.32208 55.13248 53.90735
#
# Poissons Ratio (x) = -0.19562 0.46800
# Poissons Ratio (y) = -0.15017 0.42163
# Poissons Ratio (z) = 0.36743 0.43121
#
# Static dielectric constant tensor:
#      x y z
#    x 1.623430 0.000000 -0.004300 
#    y 0.000000 0.119670 0.000000 
#    z -0.004300 0.000000 1.630940 
# 
# From -- ./inp_files/13522.got.cif
#   From: 2010.05.17/outbox.cif.g08.bks.cpg/sg11_7_cif.got.tgz:13522.got - 2010.06.03 12:22:45.
