data_PCOD9157693
_publ_section_title
;
Structure prediction by ZEFSAII (Michael W. Deem and Ramdas Pophale) SiO2 
 PCOD9157693
Probable space group: P 21/M
;
_chemical_formula_sum "Si O2"
_cell_formula_units_Z 28
_cell_length_a 12.270478
_cell_length_b 14.758997
_cell_length_c 9.057254
_cell_angle_alpha 90.000000
_cell_angle_beta 59.288082
_cell_angle_gamma 90.000000
_cell_volume 1410.214140
_symmetry_space_group_name_H-M "P 21/M"
_symmetry_group_IT_number 11
_symmetry_cell_setting 'monoclinic'
loop_
_space_group_symop_operation_xyz
x,y,z
-x,1/2+y,-z
-x,-y,-z
x,1/2-y,z
loop_
_atom_site_type_symbol
_atom_site_label
_atom_site_fract_x
_atom_site_fract_y
_atom_site_fract_z
Si Si1 0.181639 0.152776 0.119757
Si Si2 0.312619 0.850154 0.807155
Si Si3 0.043174 0.594885 0.904768
Si Si4 0.424405 0.933680 0.444542
Si Si5 0.410116 0.478032 0.923784
Si Si6 0.158856 0.981843 0.528369
Si Si7 0.008015 0.145298 0.533042
O O1 0.247997 0.250000 0.071118
O O2 0.093439 0.150067 0.325743
O O3 0.085570 0.146432 0.047577
O O4 0.280659 0.071842 0.057160
O O5 0.346487 0.750000 0.835955
O O6 0.159007 0.860864 0.913647
O O7 0.364584 0.862340 0.601951
O O8 0.372427 0.929484 0.864575
O O9 0.107806 0.571367 0.704742
O O10 0.000000 0.500000 0.000000
O O11 0.519245 0.912884 0.244793
O O12 0.308421 0.984956 0.444326
O O13 0.500000 0.000000 0.500000
O O14 0.500000 0.500000 0.000000
O O15 0.112413 0.918805 0.423954
O O16 0.093343 0.080332 0.576176
O O17 0.981232 0.250000 0.595516
#
# Coordination Sequence:
#
# PCOD9157693 Si02
#       7
#     4   4   4   4   4   4   4
#     4  10  20  34  56  82 110 146 185 230 286 342
#     4  10  21  39  62  85 113 152 199 242 289 345
#     4  10  18  35  61  81 109 142 181 239 294 336
#     4   9  20  37  57  80 110 153 195 227 277 337
#     4  11  22  37  59  85 121 156 192 237 288 341
#     4   9  18  33  57  79 109 143 183 224 278 335
#     4   9  18  34  56  82 109 141 180 226 284 341
#
# _framework density 19.855139999999999
#
# number of rings (size 3 to 8) (size 9 to 14) (size 15 to 20)
#    0.000    2.286    1.429    1.286    0.000    4.571 
#    0.000    5.714    0.000    0.000    0.000    0.000 
#    0.000    0.000    0.000    0.000    0.000    0.000 
#
# Total GULP energy -155900.815877 kJ/mol
# GULP energy per Si atom -5567.886281 kJ/mol
# Density = 1.980995 g / cm^3
# Si number density = 19.855140 Si / 1000 Ang^3
#
#
#
# Elastic Constant Matrix: (Units=GPa)
#
#
# Indices 1 2 3 4 5 6 
#
# 1 115.3991 41.0216 15.7574 0.0000 -3.8964 0.0000
# 2 41.0216 120.9607 6.1587 0.0000 0.1921 0.0000
# 3 15.7574 6.1587 28.3421 0.0000 -3.0685 0.0000
# 4 0.0000 0.0000 0.0000 18.0637 0.0000 2.6459
# 5 -3.8964 0.1921 -3.0685 0.0000 22.6739 0.0000
# 6 0.0000 0.0000 0.0000 2.6459 0.0000 6.8551
#
#
#
# Elastic Compliance Matrix: (Units=1/GPa)
#
#
# Indices 1 2 3 4 5 6 
#
# 1 0.010576 -0.003333 -0.005030 0.000000 0.001165 0.000000
# 2 -0.003333 0.009412 -0.000267 0.000000 -0.000689 0.000000
# 3 -0.005030 -0.000267 0.038610 0.000000 0.004363 0.000000
# 4 0.000000 0.000000 0.000000 0.058677 0.000000 -0.022648
# 5 0.001165 -0.000689 0.004363 0.000000 0.044900 0.000000
# 6 0.000000 0.000000 0.000000 -0.022648 0.000000 0.154618
#
#
# Mechanical properties :
#
#
# Convention : Reuss Voigt Hill
#
# Bulk Modulus (GPa) = 24.18984 43.39748 33.79366
# Shear Modulus (GPa) = 14.37474 22.96949 18.67212
#
# Velocity S-wave (km/s) = 2.69361 3.40494 3.06995
# Velocity P-wave (km/s) = 4.67800 6.11250 5.44272
#
# Compressibility (1/GPa) = 0.04133967
#
# Stress axis : x y z
#
# Youngs Moduli (GPa) = 94.55049 106.24730 25.90003
#
# Poissons Ratio (x) = 0.35407 0.13027
# Poissons Ratio (y) = 0.31509 0.00691
# Poissons Ratio (z) = 0.47557 0.02836
#
# Static dielectric constant tensor:
#      x y z
#    x 1.727180 0.000000 0.020750 
#    y 0.000000 1.640320 0.000000 
#    z 0.020750 0.000000 1.855880 
# 
# From -- ./inp_files/17948.got.cif
#   From: 2010.05.17/outbox.cif.g08.bks.cpg/sg11_9_cif.got.tgz:17948.got - 2010.06.03 12:22:45.
