data_PCOD9157781
_publ_section_title
;
Structure prediction by ZEFSAII (Michael W. Deem and Ramdas Pophale) SiO2 
 PCOD9157781
Probable space group: P 21/M
;
_chemical_formula_sum "Si O2"
_cell_formula_units_Z 28
_cell_length_a 9.046463
_cell_length_b 26.910460
_cell_length_c 5.667750
_cell_angle_alpha 90.000000
_cell_angle_beta 79.888960
_cell_angle_gamma 90.000000
_cell_volume 1358.353566
_symmetry_space_group_name_H-M "P 21/M"
_symmetry_group_IT_number 11
_symmetry_cell_setting 'monoclinic'
loop_
_space_group_symop_operation_xyz
x,y,z
-x,1/2+y,-z
-x,-y,-z
x,1/2-y,z
loop_
_atom_site_type_symbol
_atom_site_label
_atom_site_fract_x
_atom_site_fract_y
_atom_site_fract_z
Si Si1 0.539712 0.191082 0.605234
Si Si2 0.170279 0.555549 0.055623
Si Si3 0.994741 0.893136 0.476081
Si Si4 0.777635 0.846127 0.160731
Si Si5 0.680563 0.343498 0.066070
Si Si6 0.837200 0.555825 0.908586
Si Si7 0.034995 0.804432 0.805482
O O1 0.567331 0.250000 0.601374
O O2 0.363647 0.179006 0.682109
O O3 0.594446 0.171617 0.332267
O O4 0.608676 0.168506 0.830323
O O5 0.224485 0.499054 0.036130
O O6 0.125021 0.573664 0.329707
O O7 0.279517 0.597976 0.931308
O O8 0.006907 0.557074 0.971976
O O9 0.902661 0.861786 0.313113
O O10 0.874298 0.929601 0.630889
O O11 0.058362 0.851418 0.630668
O O12 0.742792 0.898803 0.042598
O O13 0.867466 0.811472 0.953100
O O14 0.837085 0.312807 0.034735
O O15 0.052347 0.750000 0.693130
#
# Coordination Sequence:
#
# PCOD9157781 Si02
#       7
#     4   4   4   4   4   4   4
#     4  12  28  47  66  92 137 186 217 265 339 398
#     4  10  19  37  63  98 130 166 209 274 337 386
#     4  10  18  37  63  97 128 161 219 272 324 392
#     4  10  23  42  63  93 126 168 226 268 323 396
#     4  12  25  45  66  98 134 172 223 272 327 400
#     4   9  19  36  66  97 127 164 215 270 337 386
#     4  11  22  38  64  94 125 164 222 284 324 375
#
# _framework density 20.613189999999999
#
# number of rings (size 3 to 8) (size 9 to 14) (size 15 to 20)
#    0.000    1.429    4.286    3.000    4.000    1.143 
#    0.000    1.429    0.000    0.000    0.000    0.000 
#    0.000    0.000    0.000    0.000    0.000    0.000 
#
# Total GULP energy -156148.812780 kJ/mol
# GULP energy per Si atom -5576.743314 kJ/mol
# Density = 2.056627 g / cm^3
# Si number density = 20.613190 Si / 1000 Ang^3
#
#
#
# Elastic Constant Matrix: (Units=GPa)
#
#
# Indices 1 2 3 4 5 6 
#
# 1 17.9054 -1.1321 9.3772 0.0000 -16.4015 0.0000
# 2 -1.1321 88.4298 11.5532 0.0000 -4.1743 0.0000
# 3 9.3772 11.5532 86.0276 0.0000 -13.9390 0.0000
# 4 0.0000 0.0000 0.0000 12.2090 0.0000 -0.5182
# 5 -16.4015 -4.1743 -13.9390 0.0000 26.7825 0.0000
# 6 0.0000 0.0000 0.0000 -0.5182 0.0000 22.5585
#
#
#
# Elastic Compliance Matrix: (Units=1/GPa)
#
#
# Indices 1 2 3 4 5 6 
#
# 1 0.130096 0.005687 -0.002066 0.000000 0.079481 0.000000
# 2 0.005687 0.011788 -0.001464 0.000000 0.004558 0.000000
# 3 -0.002066 -0.001464 0.012891 0.000000 0.005216 0.000000
# 4 0.000000 0.000000 0.000000 0.081987 0.000000 0.001883
# 5 0.079481 0.004558 0.005216 0.000000 0.089437 0.000000
# 6 0.000000 0.000000 0.000000 0.001883 0.000000 0.044373
#
#
# Mechanical properties :
#
#
# Convention : Reuss Voigt Hill
#
# Bulk Modulus (GPa) = 6.28582 25.77328 16.02955
# Shear Modulus (GPa) = 11.92500 23.81429 17.86965
#
# Velocity S-wave (km/s) = 2.40784 3.40265 2.94752
# Velocity P-wave (km/s) = 3.28425 5.28846 4.40194
#
# Compressibility (1/GPa) = 0.15908812
#
# Stress axis : x y z
#
# Youngs Moduli (GPa) = 7.68663 84.83419 77.57257
#
# Poissons Ratio (x) = -0.48249 0.16029
# Poissons Ratio (y) = -0.04372 0.11360
# Poissons Ratio (z) = 0.01588 0.12424
#
# Static dielectric constant tensor:
#      x y z
#    x 1.737400 0.000000 0.027880 
#    y 0.000000 1.743760 0.000000 
#    z 0.027880 0.000000 1.840220 
# 
# From -- ./inp_files/2991.got.cif
#   From: 2010.05.17/outbox.cif.g08.bks.cpg/sg11_2_cif.got.tgz:2991.got - 2010.06.03 12:22:45.
