data_PCOD9157397
_publ_section_title
;
Structure prediction by ZEFSAII (Michael W. Deem and Ramdas Pophale) SiO2 
 PCOD9157397
Probable space group: P 21/M
;
_chemical_formula_sum "Si O2"
_cell_formula_units_Z 32
_cell_length_a 14.736007
_cell_length_b 8.564089
_cell_length_c 16.048722
_cell_angle_alpha 90.000000
_cell_angle_beta 89.031407
_cell_angle_gamma 90.000000
_cell_volume 2025.066947
_symmetry_space_group_name_H-M "P 21/M"
_symmetry_group_IT_number 11
_symmetry_cell_setting 'monoclinic'
loop_
_space_group_symop_operation_xyz
x,y,z
-x,1/2+y,-z
-x,-y,-z
x,1/2-y,z
loop_
_atom_site_type_symbol
_atom_site_label
_atom_site_fract_x
_atom_site_fract_y
_atom_site_fract_z
Si Si1 0.097298 0.437898 0.402723
Si Si2 0.713512 0.562332 0.332514
Si Si3 0.096335 0.437857 0.596467
Si Si4 0.616505 0.062905 0.172048
Si Si5 0.405231 0.439747 0.185717
Si Si6 0.706397 0.939646 0.651466
Si Si7 0.398097 0.936456 0.508826
Si Si8 0.396928 0.062580 0.002898
O O1 0.093161 0.250000 0.402299
O O2 0.107887 0.488396 0.499530
O O3 0.187835 0.485900 0.352632
O O4 0.001357 0.501806 0.372919
O O5 0.710808 0.750000 0.334502
O O6 0.816262 0.510974 0.352578
O O7 0.677681 0.502782 0.244841
O O8 0.648962 0.498765 0.406647
O O9 0.094766 0.250000 0.596739
O O10 0.617057 0.250000 0.173771
O O11 0.511102 0.010856 0.187873
O O12 0.646453 0.006026 0.079929
O O13 0.406389 0.250000 0.187852
O O14 0.347419 0.493062 0.265614
O O15 0.364204 0.483676 0.096045
O O16 0.702608 0.750000 0.648173
O O17 0.658299 0.003530 0.569688
O O18 0.399435 0.750000 0.510389
O O19 0.500000 0.000000 0.500000
O O20 0.396929 0.250000 0.997658
O O21 0.500000 0.000000 0.000000
#
# Coordination Sequence:
#
# PCOD9157397 Si02
#       8
#     4   4   4   4   4   4   4   4
#     4   9  17  30  49  70  92 122 157 198 245 288
#     4  11  21  35  51  70  95 127 164 203 244 287
#     4   9  18  32  48  68  93 122 157 199 244 289
#     4  10  19  31  47  72  99 129 163 197 241 292
#     4   8  16  29  48  69  94 125 159 195 234 281
#     4  10  18  33  51  70  96 126 162 203 241 283
#     4  12  24  35  47  66  96 134 168 199 233 281
#     4   9  16  29  47  69  94 126 162 201 244 283
#
# _framework density 15.801945999999999
#
# number of rings (size 3 to 8) (size 9 to 14) (size 15 to 20)
#    0.000    2.250    1.250    3.750    0.000    2.500 
#    0.000    3.125    0.000    0.000    0.000    0.875 
#    0.000    0.000    0.000    0.000    0.000    0.000 
#
# Total GULP energy -178416.547403 kJ/mol
# GULP energy per Si atom -5575.517106 kJ/mol
# Density = 1.576598 g / cm^3
# Si number density = 15.801946 Si / 1000 Ang^3
#
#
#
# Elastic Constant Matrix: (Units=GPa)
#
#
# Indices 1 2 3 4 5 6 
#
# 1 98.7564 23.5201 47.8487 0.0000 23.2489 0.0000
# 2 23.5201 39.5162 26.6865 0.0000 5.6453 0.0000
# 3 47.8487 26.6865 117.1903 0.0000 21.6584 0.0000
# 4 0.0000 0.0000 0.0000 21.6717 0.0000 2.8997
# 5 23.2489 5.6453 21.6584 0.0000 11.6048 0.0000
# 6 0.0000 0.0000 0.0000 2.8997 0.0000 21.9291
#
#
#
# Elastic Compliance Matrix: (Units=1/GPa)
#
#
# Indices 1 2 3 4 5 6 
#
# 1 0.020784 -0.007021 0.000270 0.000000 -0.038728 0.000000
# 2 -0.007021 0.032336 -0.006395 0.000000 0.010270 0.000000
# 3 0.000270 -0.006395 0.014356 0.000000 -0.024223 0.000000
# 4 0.000000 0.000000 0.000000 0.046974 0.000000 -0.006211
# 5 -0.038728 0.010270 -0.024223 0.000000 0.203970 0.000000
# 6 0.000000 0.000000 0.000000 -0.006211 0.000000 0.046423
#
#
# Mechanical properties :
#
#
# Convention : Reuss Voigt Hill
#
# Bulk Modulus (GPa) = 24.28069 50.17484 37.22776
# Shear Modulus (GPa) = 12.34984 21.53496 16.94240
#
# Velocity S-wave (km/s) = 2.79864 3.69562 3.27796
# Velocity P-wave (km/s) = 5.08352 7.07329 6.15928
#
# Compressibility (1/GPa) = 0.04118499
#
# Stress axis : x y z
#
# Youngs Moduli (GPa) = 48.11310 30.92486 69.65773
#
# Poissons Ratio (x) = 0.21711 -0.01880
# Poissons Ratio (y) = 0.33778 0.44548
# Poissons Ratio (z) = -0.01299 0.19777
#
# Static dielectric constant tensor:
#      x y z
#    x 1.517760 0.000000 -0.003760 
#    y 0.000000 1.545590 0.000000 
#    z -0.003760 0.000000 1.531000 
# 
# From -- ./inp_files/51387.got.cif
#   From: 2010.05.17/outbox.cif.g08.bks.cpg/sg11_26_cif.got.tgz:51387.got - 2010.06.03 12:22:45.
