data_PCOD9157915
_publ_section_title
;
Structure prediction by ZEFSAII (Michael W. Deem and Ramdas Pophale) SiO2 
 PCOD9157915
Probable space group: P 21/M
;
_chemical_formula_sum "Si O2"
_cell_formula_units_Z 32
_cell_length_a 30.493553
_cell_length_b 7.546657
_cell_length_c 20.931806
_cell_angle_alpha 90.000000
_cell_angle_beta 19.333425
_cell_angle_gamma 90.000000
_cell_volume 1594.712935
_symmetry_space_group_name_H-M "P 21/M"
_symmetry_group_IT_number 11
_symmetry_cell_setting 'monoclinic'
loop_
_space_group_symop_operation_xyz
x,y,z
-x,1/2+y,-z
-x,-y,-z
x,1/2-y,z
loop_
_atom_site_type_symbol
_atom_site_label
_atom_site_fract_x
_atom_site_fract_y
_atom_site_fract_z
Si Si1 0.853348 0.467172 0.032012
Si Si2 0.430861 0.031464 0.281231
Si Si3 0.589416 0.461787 0.938751
Si Si4 0.575042 0.461065 0.463136
Si Si5 0.849555 0.036602 0.889793
Si Si6 0.146813 0.960033 0.486415
Si Si7 0.144843 0.454959 0.637532
Si Si8 0.587251 0.454855 0.189174
O O1 0.855353 0.250000 0.029012
O O2 0.832747 0.523275 0.986525
O O3 0.999046 0.530536 0.852552
O O4 0.726695 0.523135 0.246807
O O5 0.425770 0.250000 0.287351
O O6 0.279208 0.968911 0.482133
O O7 0.502831 0.970745 0.246717
O O8 0.516228 0.972495 0.102635
O O9 0.598602 0.250000 0.933783
O O10 0.736602 0.527729 0.719552
O O11 0.500000 0.500000 0.000000
O O12 0.500000 0.500000 0.500000
O O13 0.576169 0.250000 0.470418
O O14 0.497621 0.539892 0.629277
O O15 0.838945 0.250000 0.906002
O O16 0.730729 0.966728 0.009450
O O17 0.998778 0.991951 0.664962
O O18 0.164792 0.750000 0.470165
O O19 0.157750 0.039818 0.542540
O O20 0.139655 0.250000 0.664600
O O21 0.611269 0.250000 0.138612
#
# Coordination Sequence:
#
# PCOD9157915 Si02
#       8
#     4   4   4   4   4   4   4   4
#     4   8  15  28  48  73  98 127 165 207 246 293
#     4   9  18  33  55  76 100 137 177 211 251 310
#     4  10  19  32  51  78 105 133 171 216 258 302
#     4  11  20  33  52  77 106 135 171 216 261 304
#     4   9  17  32  51  70  98 135 172 207 251 309
#     4  10  19  29  47  77 107 129 162 218 265 297
#     4   9  16  31  53  74  98 134 174 205 246 307
#     4  10  20  36  54  75 102 136 178 216 253 305
#
# _framework density 20.066306999999998
#
# number of rings (size 3 to 8) (size 9 to 14) (size 15 to 20)
#    0.000    2.500    2.500    1.500    0.000    1.000 
#    0.000    3.125    0.000    0.000    0.000    0.000 
#    0.000    0.000    0.000    0.000    0.000    0.000 
#
# Total GULP energy -178505.136730 kJ/mol
# GULP energy per Si atom -5578.285523 kJ/mol
# Density = 2.002064 g / cm^3
# Si number density = 20.066307 Si / 1000 Ang^3
#
#
#
# Elastic Constant Matrix: (Units=GPa)
#
#
# Indices 1 2 3 4 5 6 
#
# 1 121.1328 -9.5889 73.6370 0.0000 -26.1371 0.0000
# 2 -9.5889 48.3019 -8.4508 0.0000 -4.4827 0.0000
# 3 73.6370 -8.4508 168.9194 0.0000 -37.8849 0.0000
# 4 0.0000 0.0000 0.0000 13.0585 0.0000 1.1161
# 5 -26.1371 -4.4827 -37.8849 0.0000 31.8067 0.0000
# 6 0.0000 0.0000 0.0000 1.1161 0.0000 3.4507
#
#
#
# Elastic Compliance Matrix: (Units=1/GPa)
#
#
# Indices 1 2 3 4 5 6 
#
# 1 0.011979 0.002217 -0.003866 0.000000 0.005551 0.000000
# 2 0.002217 0.022086 0.001699 0.000000 0.006958 0.000000
# 3 -0.003866 0.001699 0.009595 0.000000 0.008491 0.000000
# 4 0.000000 0.000000 0.000000 0.078756 0.000000 -0.025474
# 5 0.005551 0.006958 0.008491 0.000000 0.047096 0.000000
# 6 0.000000 0.000000 0.000000 -0.025474 0.000000 0.298038
#
#
# Mechanical properties :
#
#
# Convention : Reuss Voigt Hill
#
# Bulk Modulus (GPa) = 22.85211 49.94984 36.40097
# Shear Modulus (GPa) = 10.37269 28.51363 19.44316
#
# Velocity S-wave (km/s) = 2.27606 3.77367 3.11617
# Velocity P-wave (km/s) = 4.28022 6.62826 5.57916
#
# Compressibility (1/GPa) = 0.04375964
#
# Stress axis : x y z
#
# Youngs Moduli (GPa) = 83.48043 45.27701 104.22569
#
# Poissons Ratio (x) = -0.10037 0.40294
# Poissons Ratio (y) = -0.18506 -0.17709
# Poissons Ratio (z) = 0.32274 -0.07693
#
# Static dielectric constant tensor:
#      x y z
#    x 1.677040 0.000000 -0.023310 
#    y 0.000000 1.756680 0.000000 
#    z -0.023310 0.000000 1.735780 
# 
# From -- ./inp_files/64469.got.cif
#   From: 2010.05.17/outbox.cif.g08.bks.cpg/sg11_33_cif.got.tgz:64469.got - 2010.06.03 12:22:45.
