data_PCOD9157295
_publ_section_title
;
Structure prediction by ZEFSAII (Michael W. Deem and Ramdas Pophale) SiO2 
 PCOD9157295
Probable space group: P 21/M
;
_chemical_formula_sum "Si O2"
_cell_formula_units_Z 32
_cell_length_a 21.158599
_cell_length_b 8.671538
_cell_length_c 12.605732
_cell_angle_alpha 90.000000
_cell_angle_beta 127.895025
_cell_angle_gamma 90.000000
_cell_volume 1825.171787
_symmetry_space_group_name_H-M "P 21/M"
_symmetry_group_IT_number 11
_symmetry_cell_setting 'monoclinic'
loop_
_space_group_symop_operation_xyz
x,y,z
-x,1/2+y,-z
-x,-y,-z
x,1/2-y,z
loop_
_atom_site_type_symbol
_atom_site_label
_atom_site_fract_x
_atom_site_fract_y
_atom_site_fract_z
Si Si1 0.469787 0.436811 0.081306
Si Si2 0.206099 0.065359 0.062273
Si Si3 0.713079 0.563920 0.073671
Si Si4 0.117792 0.934989 0.348795
Si Si5 0.969933 0.067133 0.081096
Si Si6 0.736146 0.064645 0.661648
Si Si7 0.764801 0.064085 0.346348
Si Si8 0.623685 0.062562 0.360915
O O1 0.470458 0.250000 0.077582
O O2 0.534907 0.485841 0.236686
O O3 0.500000 0.500000 0.000000
O O4 0.379422 0.487815 0.011789
O O5 0.201554 0.250000 0.057009
O O6 0.255553 0.012002 0.216117
O O7 0.247262 0.012996 0.995466
O O8 0.117009 0.998756 0.981566
O O9 0.713196 0.750000 0.075117
O O10 0.760063 0.504990 0.225104
O O11 0.105536 0.750000 0.335766
O O12 0.184114 0.968314 0.326057
O O13 0.159188 0.978928 0.502670
O O14 0.036003 0.018113 0.235466
O O15 0.965052 0.250000 0.066905
O O16 0.000000 0.000000 0.000000
O O17 0.732571 0.250000 0.670239
O O18 0.661554 0.012754 0.511737
O O19 0.763393 0.250000 0.338565
O O20 0.685970 0.015914 0.332425
O O21 0.625300 0.250000 0.364435
#
# Coordination Sequence:
#
# PCOD9157295 Si02
#       8
#     4   4   4   4   4   4   4   4
#     4  10  18  32  54  80 108 140 179 222 267 313
#     4  11  23  38  53  75 111 149 181 218 268 318
#     4  10  22  36  52  78 113 148 180 221 269 317
#     4   9  18  33  55  83 111 136 172 222 271 315
#     4  12  23  36  57  84 108 136 178 223 268 318
#     4   9  17  32  54  78 104 139 180 218 265 320
#     4   9  17  32  55  81 108 142 178 216 266 322
#     4   8  15  29  52  80 107 136 173 221 270 313
#
# _framework density 17.532596999999999
#
# number of rings (size 3 to 8) (size 9 to 14) (size 15 to 20)
#    0.000    2.250    2.500    3.000    0.000    1.500 
#    0.000    3.750    0.000    0.000    0.000    0.000 
#    0.000    0.000    0.000    0.000    0.000    0.000 
#
# Total GULP energy -178525.826684 kJ/mol
# GULP energy per Si atom -5578.932084 kJ/mol
# Density = 1.749269 g / cm^3
# Si number density = 17.532597 Si / 1000 Ang^3
#
#
#
# Elastic Constant Matrix: (Units=GPa)
#
#
# Indices 1 2 3 4 5 6 
#
# 1 116.8684 31.6049 85.6704 0.0000 -10.5158 0.0000
# 2 31.6049 26.3491 36.9280 0.0000 -4.3077 0.0000
# 3 85.6704 36.9280 175.1528 0.0000 -10.6217 0.0000
# 4 0.0000 0.0000 0.0000 29.5316 0.0000 -3.6072
# 5 -10.5158 -4.3077 -10.6217 0.0000 25.7925 0.0000
# 6 0.0000 0.0000 0.0000 -3.6072 0.0000 18.5283
#
#
#
# Elastic Compliance Matrix: (Units=1/GPa)
#
#
# Indices 1 2 3 4 5 6 
#
# 1 0.015503 -0.011046 -0.005110 0.000000 0.002372 0.000000
# 2 -0.011046 0.062238 -0.007550 0.000000 0.002782 0.000000
# 3 -0.005110 -0.007550 0.009844 0.000000 0.000709 0.000000
# 4 0.000000 0.000000 0.000000 0.034687 0.000000 0.006753
# 5 0.002372 0.002782 0.000709 0.000000 0.040495 0.000000
# 6 0.000000 0.000000 0.000000 0.006753 0.000000 0.055286
#
#
# Mechanical properties :
#
#
# Convention : Reuss Voigt Hill
#
# Bulk Modulus (GPa) = 24.89324 69.64187 47.26756
# Shear Modulus (GPa) = 17.93041 25.71494 21.82267
#
# Velocity S-wave (km/s) = 3.20142 3.83390 3.53185
# Velocity P-wave (km/s) = 5.28153 7.70753 6.60683
#
# Compressibility (1/GPa) = 0.04017155
#
# Stress axis : x y z
#
# Youngs Moduli (GPa) = 64.50239 16.06744 101.58812
#
# Poissons Ratio (x) = 0.17748 0.51914
# Poissons Ratio (y) = 0.71250 0.76701
# Poissons Ratio (z) = 0.32962 0.12131
#
# Static dielectric constant tensor:
#      x y z
#    x 1.572660 0.000000 0.010130 
#    y 0.000000 1.593150 0.000000 
#    z 0.010130 0.000000 1.610390 
# 
# From -- ./inp_files/42894.got.cif
#   From: 2010.05.17/outbox.cif.g08.bks.cpg/sg11_22_cif.got.tgz:42894.got - 2010.06.03 12:22:45.
