data_PCOD9158776
_publ_section_title
;
Structure prediction by ZEFSAII (Michael W. Deem and Ramdas Pophale) SiO2 
 PCOD9158776
Probable space group: P 21/M
;
_chemical_formula_sum "Si O2"
_cell_formula_units_Z 32
_cell_length_a 11.419711
_cell_length_b 12.779098
_cell_length_c 12.772491
_cell_angle_alpha 90.000000
_cell_angle_beta 94.471092
_cell_angle_gamma 90.000000
_cell_volume 1858.263326
_symmetry_space_group_name_H-M "P 21/M"
_symmetry_group_IT_number 11
_symmetry_cell_setting 'monoclinic'
loop_
_space_group_symop_operation_xyz
x,y,z
-x,1/2+y,-z
-x,-y,-z
x,1/2-y,z
loop_
_atom_site_type_symbol
_atom_site_label
_atom_site_fract_x
_atom_site_fract_y
_atom_site_fract_z
Si Si1 0.954647 0.986302 0.771753
Si Si2 0.224314 0.627185 0.111913
Si Si3 0.676404 0.011126 0.303826
Si Si4 0.900834 0.872438 0.371852
Si Si5 0.179921 0.130219 0.407526
Si Si6 0.370114 0.544486 0.473992
Si Si7 0.552528 0.131402 0.729604
Si Si8 0.812136 0.126231 0.134491
O O1 0.884005 0.897390 0.704381
O O2 0.066469 0.935321 0.836176
O O3 0.871141 0.051323 0.842578
O O4 0.001489 0.064726 0.684742
O O5 0.193865 0.750000 0.128260
O O6 0.349705 0.609130 0.175931
O O7 0.227583 0.610481 0.987798
O O8 0.671001 0.076281 0.412570
O O9 0.718314 0.080805 0.210236
O O10 0.776286 0.923052 0.330154
O O11 0.553680 0.951357 0.276703
O O12 0.904849 0.750000 0.346575
O O13 0.906074 0.882970 0.498149
O O14 0.221657 0.250000 0.413073
O O15 0.285081 0.048957 0.431502
O O16 0.500000 0.500000 0.500000
O O17 0.381941 0.623298 0.378464
O O18 0.507957 0.250000 0.739767
O O19 0.829279 0.250000 0.152858
#
# Coordination Sequence:
#
# PCOD9158776 Si02
#       8
#     4   4   4   4   4   4   4   4
#     4  11  19  34  55  76 106 141 181 220 264 314
#     4  10  21  36  56  79 106 140 180 226 269 310
#     4   9  19  34  56  78 106 141 177 217 265 319
#     4   9  18  31  50  78 109 139 174 217 264 316
#     4  10  19  32  50  75 109 143 173 213 262 316
#     4   9  18  33  52  80 108 137 172 211 262 318
#     4  10  19  34  56  81 106 137 175 219 268 318
#     4  10  22  38  54  77 106 143 183 221 268 312
#
# _framework density 17.220379999999999
#
# number of rings (size 3 to 8) (size 9 to 14) (size 15 to 20)
#    0.000    2.250    1.250    1.875    0.000    4.000 
#    0.000    1.875    0.000    2.250    0.000    0.000 
#    0.000    0.000    0.000    0.000    0.000    0.000 
#
# Total GULP energy -178404.894521 kJ/mol
# GULP energy per Si atom -5575.152954 kJ/mol
# Density = 1.718119 g / cm^3
# Si number density = 17.220380 Si / 1000 Ang^3
#
#
#
# Elastic Constant Matrix: (Units=GPa)
#
#
# Indices 1 2 3 4 5 6 
#
# 1 50.2254 13.7422 36.7998 0.0000 -2.1593 0.0000
# 2 13.7422 51.0828 34.6597 0.0000 -4.4820 0.0000
# 3 36.7998 34.6597 111.2953 0.0000 5.4776 0.0000
# 4 0.0000 0.0000 0.0000 27.1390 0.0000 -3.5046
# 5 -2.1593 -4.4820 5.4776 0.0000 24.1402 0.0000
# 6 0.0000 0.0000 0.0000 -3.5046 0.0000 17.9665
#
#
#
# Elastic Compliance Matrix: (Units=1/GPa)
#
#
# Indices 1 2 3 4 5 6 
#
# 1 0.026769 -0.000867 -0.008789 0.000000 0.004228 0.000000
# 2 -0.000867 0.025878 -0.008095 0.000000 0.006564 0.000000
# 3 -0.008789 -0.008095 0.014689 0.000000 -0.005622 0.000000
# 4 0.000000 0.000000 0.000000 0.037799 0.000000 0.007373
# 5 0.004228 0.006564 -0.005622 0.000000 0.044297 0.000000
# 6 0.000000 0.000000 0.000000 0.007373 0.000000 0.057097
#
#
# Mechanical properties :
#
#
# Convention : Reuss Voigt Hill
#
# Bulk Modulus (GPa) = 31.41394 42.55631 36.98513
# Shear Modulus (GPa) = 19.79067 22.34261 21.06664
#
# Velocity S-wave (km/s) = 3.39375 3.60592 3.50144
# Velocity P-wave (km/s) = 5.79988 6.48871 6.15394
#
# Compressibility (1/GPa) = 0.03183300
#
# Stress axis : x y z
#
# Youngs Moduli (GPa) = 37.35657 38.64302 68.07776
#
# Poissons Ratio (x) = 0.03350 0.59836
# Poissons Ratio (y) = 0.03238 0.55112
# Poissons Ratio (z) = 0.32834 0.31283
#
# Static dielectric constant tensor:
#      x y z
#    x 1.570670 0.000000 -0.003920 
#    y 0.000000 1.578340 0.000000 
#    z -0.003920 0.000000 1.589880 
# 
# From -- ./inp_files/34783.got.cif
#   From: 2010.05.17/outbox.cif.g08.bks.cpg/sg11_18_cif.got.tgz:34783.got - 2010.06.03 12:22:45.
