data_PCOD9158348
_publ_section_title
;
Structure prediction by ZEFSAII (Michael W. Deem and Ramdas Pophale) SiO2 
 PCOD9158348
Probable space group: P 21/M
;
_chemical_formula_sum "Si O2"
_cell_formula_units_Z 28
_cell_length_a 15.250980
_cell_length_b 8.620707
_cell_length_c 19.399580
_cell_angle_alpha 90.000000
_cell_angle_beta 141.936761
_cell_angle_gamma 90.000000
_cell_volume 1572.489581
_symmetry_space_group_name_H-M "P 21/M"
_symmetry_group_IT_number 11
_symmetry_cell_setting 'monoclinic'
loop_
_space_group_symop_operation_xyz
x,y,z
-x,1/2+y,-z
-x,-y,-z
x,1/2-y,z
loop_
_atom_site_type_symbol
_atom_site_label
_atom_site_fract_x
_atom_site_fract_y
_atom_site_fract_z
Si Si1 0.269469 0.061772 0.751440
Si Si2 0.575880 0.935793 0.897545
Si Si3 0.832053 0.928721 0.452170
Si Si4 0.497284 0.571515 0.288760
Si Si5 0.116840 0.436475 0.367725
Si Si6 0.173295 0.437218 0.844569
Si Si7 0.576062 0.434265 0.479709
O O1 0.268260 0.250000 0.747014
O O2 0.169760 0.002893 0.626207
O O3 0.223265 0.014072 0.798909
O O4 0.429672 0.005318 0.837100
O O5 0.565062 0.750000 0.892507
O O6 0.586374 0.992355 0.825359
O O7 0.709052 0.984049 0.026808
O O8 0.880351 0.750000 0.476804
O O9 0.663506 0.928328 0.367784
O O10 0.899637 0.999184 0.563151
O O11 0.454812 0.750000 0.270656
O O12 0.493899 0.485895 0.359489
O O13 0.124080 0.250000 0.375930
O O14 0.264897 0.498055 0.429768
O O15 0.981608 0.491043 0.241152
O O16 0.163302 0.250000 0.839175
O O17 0.500000 0.500000 0.500000
O O18 0.583240 0.250000 0.487369
#
# Coordination Sequence:
#
# PCOD9158348 Si02
#       7
#     4   4   4   4   4   4   4
#     4   9  17  31  49  68  96 136 181 226 267 305
#     4  10  19  31  48  72 102 137 181 225 262 302
#     4   7  13  27  46  67  93 126 165 211 255 297
#     4   9  17  32  53  77 103 132 169 209 253 303
#     4  10  20  34  51  74 104 138 175 211 256 312
#     4  10  21  33  46  69 103 142 181 222 264 306
#     4  11  21  36  60  87 111 132 159 199 249 304
#
# _framework density 17.806159000000001
#
# number of rings (size 3 to 8) (size 9 to 14) (size 15 to 20)
#    0.000    2.571    0.000    4.714    0.000    2.286 
#    0.000    0.714    0.000    0.857    0.000    0.000 
#    0.000    0.000    0.000    0.000    0.000    0.000 
#
# Total GULP energy -156156.345019 kJ/mol
# GULP energy per Si atom -5577.012322 kJ/mol
# Density = 1.776563 g / cm^3
# Si number density = 17.806159 Si / 1000 Ang^3
#
#
#
# Elastic Constant Matrix: (Units=GPa)
#
#
# Indices 1 2 3 4 5 6 
#
# 1 96.9151 24.6785 53.6546 0.0000 -15.6480 0.0000
# 2 24.6785 42.0148 25.5730 0.0000 -4.6534 0.0000
# 3 53.6546 25.5730 130.4236 0.0000 -4.9922 0.0000
# 4 0.0000 0.0000 0.0000 24.7837 0.0000 -1.6433
# 5 -15.6480 -4.6534 -4.9922 0.0000 19.8964 0.0000
# 6 0.0000 0.0000 0.0000 -1.6433 0.0000 22.4533
#
#
#
# Elastic Compliance Matrix: (Units=1/GPa)
#
#
# Indices 1 2 3 4 5 6 
#
# 1 0.016196 -0.005184 -0.005256 0.000000 0.010207 0.000000
# 2 -0.005184 0.029196 -0.003521 0.000000 0.001868 0.000000
# 3 -0.005256 -0.003521 0.010430 0.000000 -0.002340 0.000000
# 4 0.000000 0.000000 0.000000 0.040546 0.000000 0.002967
# 5 0.010207 0.001868 -0.002340 0.000000 0.058137 0.000000
# 6 0.000000 0.000000 0.000000 0.002967 0.000000 0.044754
#
#
# Mechanical properties :
#
#
# Convention : Reuss Voigt Hill
#
# Bulk Modulus (GPa) = 35.83992 53.01843 44.42918
# Shear Modulus (GPa) = 21.14346 24.45651 22.79999
#
# Velocity S-wave (km/s) = 3.44964 3.71008 3.58223
# Velocity P-wave (km/s) = 6.00318 6.94211 6.48965
#
# Compressibility (1/GPa) = 0.02790184
#
# Stress axis : x y z
#
# Youngs Moduli (GPa) = 61.74373 34.25159 95.87527
#
# Poissons Ratio (x) = 0.17755 0.50390
# Poissons Ratio (y) = 0.32006 0.33754
# Poissons Ratio (z) = 0.32451 0.12059
#
# Static dielectric constant tensor:
#      x y z
#    x 1.598780 0.000000 -0.018670 
#    y 0.000000 1.610350 0.000000 
#    z -0.018670 0.000000 1.629100 
# 
# From -- ./inp_files/53201.got.cif
#   From: 2010.05.17/outbox.cif.g08.bks.cpg/sg11_27_cif.got.tgz:53201.got - 2010.06.03 12:22:45.
