data_PCOD9158703
_publ_section_title
;
Structure prediction by ZEFSAII (Michael W. Deem and Ramdas Pophale) SiO2 
 PCOD9158703
Probable space group: P 21/M
;
_chemical_formula_sum "Si O2"
_cell_formula_units_Z 32
_cell_length_a 14.829004
_cell_length_b 8.711421
_cell_length_c 16.332203
_cell_angle_alpha 90.000000
_cell_angle_beta 62.410190
_cell_angle_gamma 90.000000
_cell_volume 1869.905352
_symmetry_space_group_name_H-M "P 21/M"
_symmetry_group_IT_number 11
_symmetry_cell_setting 'monoclinic'
loop_
_space_group_symop_operation_xyz
x,y,z
-x,1/2+y,-z
-x,-y,-z
x,1/2-y,z
loop_
_atom_site_type_symbol
_atom_site_label
_atom_site_fract_x
_atom_site_fract_y
_atom_site_fract_z
Si Si1 0.569447 0.434103 0.147826
Si Si2 0.880542 0.932721 0.944015
Si Si3 0.223093 0.565331 0.855792
Si Si4 0.843002 0.933152 0.607999
Si Si5 0.666777 0.932303 0.945950
Si Si6 0.912888 0.437331 0.231935
Si Si7 0.940963 0.064711 0.405620
Si Si8 0.643607 0.432415 0.774675
O O1 0.564145 0.250000 0.150986
O O2 0.664357 0.486138 0.164434
O O3 0.461730 0.503936 0.217548
O O4 0.597482 0.489785 0.044416
O O5 0.888846 0.750000 0.954928
O O6 0.783243 0.957074 0.926177
O O7 0.983160 0.986038 0.856981
O O8 0.854089 0.012367 0.040687
O O9 0.224431 0.750000 0.855268
O O10 0.180724 0.513526 0.785965
O O11 0.830176 0.750000 0.615067
O O12 0.941021 0.971431 0.623515
O O13 0.873672 0.988836 0.504639
O O14 0.741739 0.011394 0.683804
O O15 0.647098 0.750000 0.953021
O O16 0.651161 0.001027 0.863337
O O17 0.914414 0.250000 0.232816
O O18 0.912473 0.486559 0.326280
O O19 0.930705 0.250000 0.415401
O O20 0.640699 0.250000 0.779017
#
# Coordination Sequence:
#
# PCOD9158703 Si02
#       8
#     4   4   4   4   4   4   4   4
#     4  10  20  34  49  69  99 133 168 207 247 285
#     4   9  17  29  47  71 102 136 165 196 237 286
#     4   9  18  31  48  70  98 132 168 205 241 280
#     4  10  20  35  54  77 104 130 157 195 243 293
#     4  10  19  32  49  72 102 134 166 201 243 291
#     4   9  16  29  50  74  99 130 166 199 238 288
#     4   9  18  34  55  77 103 132 159 192 239 295
#     4  12  23  34  51  73  96 128 168 206 246 293
#
# _framework density 17.113166
#
# number of rings (size 3 to 8) (size 9 to 14) (size 15 to 20)
#    0.000    2.250    0.000    3.750    0.000    3.500 
#    0.000    1.250    0.000    0.750    0.000    0.000 
#    0.000    0.000    0.000    0.000    0.000    0.000 
#
# Total GULP energy -178621.429093 kJ/mol
# GULP energy per Si atom -5581.919659 kJ/mol
# Density = 1.707422 g / cm^3
# Si number density = 17.113166 Si / 1000 Ang^3
#
#
#
# Elastic Constant Matrix: (Units=GPa)
#
#
# Indices 1 2 3 4 5 6 
#
# 1 103.1548 35.1260 82.2390 0.0000 7.1770 0.0000
# 2 35.1260 39.9989 27.7621 0.0000 -1.5257 0.0000
# 3 82.2390 27.7621 90.7373 0.0000 8.6449 0.0000
# 4 0.0000 0.0000 0.0000 26.3718 0.0000 -3.5998
# 5 7.1770 -1.5257 8.6449 0.0000 31.2453 0.0000
# 6 0.0000 0.0000 0.0000 -3.5998 0.0000 17.1696
#
#
#
# Elastic Compliance Matrix: (Units=1/GPa)
#
#
# Indices 1 2 3 4 5 6 
#
# 1 0.039289 -0.012541 -0.031690 0.000000 -0.000869 0.000000
# 2 -0.012541 0.036331 -0.000198 0.000000 0.004710 0.000000
# 3 -0.031690 -0.000198 0.040169 0.000000 -0.003845 0.000000
# 4 0.000000 0.000000 0.000000 0.039037 0.000000 0.008184
# 5 -0.000869 0.004710 -0.003845 0.000000 0.033498 0.000000
# 6 0.000000 0.000000 0.000000 0.008184 0.000000 0.059958
#
#
# Mechanical properties :
#
#
# Convention : Reuss Voigt Hill
#
# Bulk Modulus (GPa) = 37.13042 58.23836 47.68439
# Shear Modulus (GPa) = 14.44597 20.87494 17.66045
#
# Velocity S-wave (km/s) = 2.90857 3.49638 3.21593
# Velocity P-wave (km/s) = 5.74663 7.09963 6.45866
#
# Compressibility (1/GPa) = 0.02693210
#
# Stress axis : x y z
#
# Youngs Moduli (GPa) = 25.45226 27.52466 24.89467
#
# Poissons Ratio (x) = 0.34519 0.78890
# Poissons Ratio (y) = 0.31920 0.00493
# Poissons Ratio (z) = 0.80657 0.00545
#
# Static dielectric constant tensor:
#      x y z
#    x 1.605590 0.000000 0.004790 
#    y 0.000000 1.573350 0.000000 
#    z 0.004790 0.000000 1.544110 
# 
# From -- ./inp_files/51616.got.cif
#   From: 2010.05.17/outbox.cif.g08.bks.cpg/sg11_26_cif.got.tgz:51616.got - 2010.06.03 12:22:45.
