data_PCOD9158013
_publ_section_title
;
Structure prediction by ZEFSAII (Michael W. Deem and Ramdas Pophale) SiO2 
 PCOD9158013
Probable space group: P 21/M
;
_chemical_formula_sum "Si O2"
_cell_formula_units_Z 28
_cell_length_a 11.685700
_cell_length_b 7.445837
_cell_length_c 14.772291
_cell_angle_alpha 90.000000
_cell_angle_beta 70.926395
_cell_angle_gamma 90.000000
_cell_volume 1214.768915
_symmetry_space_group_name_H-M "P 21/M"
_symmetry_group_IT_number 11
_symmetry_cell_setting 'monoclinic'
loop_
_space_group_symop_operation_xyz
x,y,z
-x,1/2+y,-z
-x,-y,-z
x,1/2-y,z
loop_
_atom_site_type_symbol
_atom_site_label
_atom_site_fract_x
_atom_site_fract_y
_atom_site_fract_z
Si Si1 0.243778 0.031112 0.114641
Si Si2 0.671872 0.044982 0.236197
Si Si3 0.778185 0.038559 0.386393
Si Si4 0.441308 0.031960 0.197462
Si Si5 0.251167 0.465450 0.402100
Si Si6 0.858628 0.536829 0.047898
Si Si7 0.052208 0.030997 0.319077
O O1 0.244124 0.250000 0.112532
O O2 0.370293 0.969496 0.126228
O O3 0.135855 0.980448 0.211929
O O4 0.212217 0.968784 0.022582
O O5 0.629766 0.250000 0.261343
O O6 0.693201 0.962136 0.329313
O O7 0.573858 0.966384 0.191531
O O8 0.800367 0.044059 0.152652
O O9 0.789396 0.250000 0.362552
O O10 0.915192 0.964872 0.349193
O O11 0.730350 0.023418 0.500348
O O12 0.442962 0.250000 0.188553
O O13 0.355504 0.983289 0.304609
O O14 0.248642 0.250000 0.403278
O O15 0.124628 0.527980 0.390275
O O16 0.842334 0.750000 0.058440
O O17 0.000000 0.500000 0.000000
O O18 0.049747 0.250000 0.321381
#
# Coordination Sequence:
#
# PCOD9158013 Si02
#       7
#     4   4   4   4   4   4   4
#     4   8  15  30  53  76  99 132 170 207 250 302
#     4  10  21  36  53  74 103 138 173 209 250 301
#     4  10  19  30  46  70 101 136 169 206 256 303
#     4   8  16  33  54  75 100 133 173 211 251 302
#     4   9  17  30  50  72  94 127 171 214 252 296
#     4  11  22  36  56  81 106 133 166 206 254 304
#     4   8  14  27  47  70  96 127 165 206 250 302
#
# _framework density 23.049652999999999
#
# number of rings (size 3 to 8) (size 9 to 14) (size 15 to 20)
#    0.000    2.857    0.000    3.429    0.000    4.000 
#    0.000    0.714    0.000    9.429    0.000    0.000 
#    0.000    0.000    0.000    0.000    0.000    0.000 
#
# Total GULP energy -156338.664675 kJ/mol
# GULP energy per Si atom -5583.523738 kJ/mol
# Density = 2.299719 g / cm^3
# Si number density = 23.049653 Si / 1000 Ang^3
#
#
#
# Elastic Constant Matrix: (Units=GPa)
#
#
# Indices 1 2 3 4 5 6 
#
# 1 93.5691 5.7794 12.0583 0.0000 20.6586 0.0000
# 2 5.7794 72.1148 -2.4029 0.0000 4.8418 0.0000
# 3 12.0583 -2.4029 68.6196 0.0000 37.9422 0.0000
# 4 0.0000 0.0000 0.0000 8.4906 0.0000 -3.9128
# 5 20.6586 4.8418 37.9422 0.0000 37.8338 0.0000
# 6 0.0000 0.0000 0.0000 -3.9128 0.0000 -1.2504
#
#
#
# Elastic Compliance Matrix: (Units=1/GPa)
#
#
# Indices 1 2 3 4 5 6 
#
# 1 0.012528 -0.000194 0.003503 0.000000 -0.010329 0.000000
# 2 -0.000194 0.014335 0.003349 0.000000 -0.005087 0.000000
# 3 0.003503 0.003349 0.034501 0.000000 -0.036941 0.000000
# 4 0.000000 0.000000 0.000000 0.048227 0.000000 -0.150919
# 5 -0.010329 -0.005087 -0.036941 0.000000 0.069769 0.000000
# 6 0.000000 0.000000 0.000000 -0.150919 0.000000 -0.327485
#
#
# Mechanical properties :
#
#
# Convention : Reuss Voigt Hill
#
# Bulk Modulus (GPa) = 13.39027 29.46368 21.42697
# Shear Modulus (GPa) = -36.61742 23.60605 -6.50569
#
# Velocity S-wave (km/s) = -3.99009 3.20369 -1.68184
# Velocity P-wave (km/s) = 3.92502 5.14736 2.35472
#
# Compressibility (1/GPa) = 0.07468109
#
# Stress axis : x y z
#
# Youngs Moduli (GPa) = 79.81900 69.75697 28.98488
#
# Poissons Ratio (x) = 0.01352 -0.10153
# Poissons Ratio (y) = 0.01547 -0.09707
# Poissons Ratio (z) = -0.27961 -0.23362
#
# Static dielectric constant tensor:
#      x y z
#    x 1.885530 0.000000 0.030330 
#    y 0.000000 1.884820 0.000000 
#    z 0.030330 0.000000 1.829030 
# 
# From -- ./inp_files/48914.got.cif
#   From: 2010.05.17/outbox.cif.g08.bks.cpg/sg11_25_cif.got.tgz:48914.got - 2010.06.03 12:22:45.
