data_PCOD9158689
_publ_section_title
;
Structure prediction by ZEFSAII (Michael W. Deem and Ramdas Pophale) SiO2 
 PCOD9158689
Probable space group: P 21/M
;
_chemical_formula_sum "Si O2"
_cell_formula_units_Z 24
_cell_length_a 11.760135
_cell_length_b 8.496692
_cell_length_c 14.429470
_cell_angle_alpha 90.000000
_cell_angle_beta 101.691087
_cell_angle_gamma 90.000000
_cell_volume 1411.913431
_symmetry_space_group_name_H-M "P 21/M"
_symmetry_group_IT_number 11
_symmetry_cell_setting 'monoclinic'
loop_
_space_group_symop_operation_xyz
x,y,z
-x,1/2+y,-z
-x,-y,-z
x,1/2-y,z
loop_
_atom_site_type_symbol
_atom_site_label
_atom_site_fract_x
_atom_site_fract_y
_atom_site_fract_z
Si Si1 0.589903 0.559886 0.643846
Si Si2 0.878464 0.938898 0.022038
Si Si3 0.095665 0.438746 0.587543
Si Si4 0.782987 0.558380 0.818133
Si Si5 0.965161 0.061640 0.219682
Si Si6 0.655328 0.939802 0.446777
O O1 0.588450 0.750000 0.645005
O O2 0.674022 0.504004 0.739822
O O3 0.458386 0.500051 0.625069
O O4 0.641440 0.510573 0.552117
O O5 0.880341 0.750000 0.027546
O O6 0.876310 0.007109 0.124770
O O7 0.786874 0.987120 0.927238
O O8 0.000000 0.000000 0.000000
O O9 0.095040 0.250000 0.585242
O O10 0.066541 0.495551 0.685732
O O11 0.223353 0.493785 0.576208
O O12 0.000000 0.500000 0.500000
O O13 0.782880 0.750000 0.816125
O O14 0.904792 0.509545 0.790203
O O15 0.966223 0.250000 0.223144
O O16 0.654032 0.750000 0.445361
#
# Coordination Sequence:
#
# PCOD9158689 Si02
#       6
#     4   4   4   4   4   4
#     4   9  16  30  51  70  91 123 160 194 232 282
#     4   9  16  28  46  70  99 129 162 199 243 288
#     4  11  22  35  51  71  98 129 160 194 236 287
#     4   8  15  28  48  72  97 125 156 196 242 282
#     4  10  19  32  49  71 101 131 160 197 242 288
#     4   9  19  33  47  68  98 127 154 192 240 281
#
# _framework density 16.99821
#
# number of rings (size 3 to 8) (size 9 to 14) (size 15 to 20)
#    0.000    2.667    0.000    3.500    0.000    4.000 
#    0.000    8.333    0.000    1.000    0.000    0.000 
#    0.000    0.000    0.000    0.000    0.000    0.000 
#
# Total GULP energy -133744.152169 kJ/mol
# GULP energy per Si atom -5572.673007 kJ/mol
# Density = 1.695952 g / cm^3
# Si number density = 16.998210 Si / 1000 Ang^3
#
#
#
# Elastic Constant Matrix: (Units=GPa)
#
#
# Indices 1 2 3 4 5 6 
#
# 1 115.1341 22.0774 89.6552 0.0000 17.9579 0.0000
# 2 22.0774 27.9705 28.5639 0.0000 1.5483 0.0000
# 3 89.6552 28.5639 169.2741 0.0000 24.7043 0.0000
# 4 0.0000 0.0000 0.0000 28.5242 0.0000 1.6334
# 5 17.9579 1.5483 24.7043 0.0000 31.9751 0.0000
# 6 0.0000 0.0000 0.0000 1.6334 0.0000 22.7951
#
#
#
# Elastic Compliance Matrix: (Units=1/GPa)
#
#
# Indices 1 2 3 4 5 6 
#
# 1 0.015523 -0.005013 -0.006919 0.000000 -0.003130 0.000000
# 2 -0.005013 0.045271 -0.005720 0.000000 0.005043 0.000000
# 3 -0.006919 -0.005720 0.011192 0.000000 -0.004484 0.000000
# 4 0.000000 0.000000 0.000000 0.035202 0.000000 -0.002523
# 5 -0.003130 0.005043 -0.004484 0.000000 0.036252 0.000000
# 6 0.000000 0.000000 0.000000 -0.002523 0.000000 0.044050
#
#
# Mechanical properties :
#
#
# Convention : Reuss Voigt Hill
#
# Bulk Modulus (GPa) = 27.26176 65.88574 46.57375
# Shear Modulus (GPa) = 21.27468 28.13102 24.70285
#
# Velocity S-wave (km/s) = 3.54161 4.07251 3.81630
# Velocity P-wave (km/s) = 5.72685 7.80758 6.84672
#
# Compressibility (1/GPa) = 0.03668142
#
# Stress axis : x y z
#
# Youngs Moduli (GPa) = 64.42193 22.08915 89.35203
#
# Poissons Ratio (x) = 0.11074 0.61821
# Poissons Ratio (y) = 0.32297 0.51108
# Poissons Ratio (z) = 0.44572 0.12635
#
# Static dielectric constant tensor:
#      x y z
#    x 1.561580 0.000000 0.016430 
#    y 0.000000 1.583580 0.000000 
#    z 0.016430 0.000000 1.589630 
# 
# From -- ./inp_files/33822.got.cif
#   From: 2010.05.17/outbox.cif.g08.bks.cpg/sg11_17_cif.got.tgz:33822.got - 2010.06.03 12:22:45.
