data_PCOD9158593
_publ_section_title
;
Structure prediction by ZEFSAII (Michael W. Deem and Ramdas Pophale) SiO2 
 PCOD9158593
Probable space group: P 21/M
;
_chemical_formula_sum "Si O2"
_cell_formula_units_Z 32
_cell_length_a 11.014702
_cell_length_b 9.171401
_cell_length_c 20.751992
_cell_angle_alpha 90.000000
_cell_angle_beta 54.750089
_cell_angle_gamma 90.000000
_cell_volume 1711.985878
_symmetry_space_group_name_H-M "P 21/M"
_symmetry_group_IT_number 11
_symmetry_cell_setting 'monoclinic'
loop_
_space_group_symop_operation_xyz
x,y,z
-x,1/2+y,-z
-x,-y,-z
x,1/2-y,z
loop_
_atom_site_type_symbol
_atom_site_label
_atom_site_fract_x
_atom_site_fract_y
_atom_site_fract_z
Si Si1 0.719110 0.921722 0.364989
Si Si2 0.128208 0.081287 0.334473
Si Si3 0.474015 0.577670 0.907089
Si Si4 0.996254 0.082024 0.229445
Si Si5 0.556753 0.420877 0.759694
Si Si6 0.577681 0.078777 0.607610
Si Si7 0.268390 0.922474 0.089397
Si Si8 0.848488 0.579295 0.469688
O O1 0.728789 0.750000 0.345853
O O2 0.550162 0.967456 0.403086
O O3 0.770350 0.936985 0.423170
O O4 0.834999 0.010663 0.286327
O O5 0.155355 0.250000 0.343336
O O6 0.065563 0.077653 0.280516
O O7 0.278140 0.988645 0.288374
O O8 0.001277 0.009943 0.417860
O O9 0.503976 0.750000 0.892443
O O10 0.459750 0.506060 0.841665
O O11 0.614158 0.501052 0.899114
O O12 0.334846 0.556696 0.997463
O O13 0.988134 0.250000 0.211924
O O14 0.108419 0.992181 0.150450
O O15 0.561746 0.250000 0.774425
O O16 0.510299 0.435778 0.699665
O O17 0.614097 0.250000 0.585987
O O18 0.727375 0.986668 0.554904
O O19 0.265994 0.750000 0.104009
O O20 0.877019 0.750000 0.472226
#
# Coordination Sequence:
#
# PCOD9158593 Si02
#       8
#     4   4   4   4   4   4   4   4
#     4   9  19  36  56  77 104 135 173 220 266 311
#     4  10  20  34  52  75 106 140 171 212 263 311
#     4  10  20  33  50  77 109 140 172 210 256 305
#     4  10  19  31  52  81 109 135 170 216 263 308
#     4  11  22  35  53  75 105 143 178 212 256 314
#     4  10  22  38  54  75 103 139 178 217 263 312
#     4  10  19  31  52  79 108 139 171 209 256 309
#     4  10  20  34  56  81 102 131 172 220 269 315
#
# _framework density 18.691742000000001
#
# number of rings (size 3 to 8) (size 9 to 14) (size 15 to 20)
#    0.000    2.000    1.250    2.625    0.000    5.000 
#    0.000    0.000    0.000    0.750    0.000    0.000 
#    0.000    0.000    0.000    0.000    0.000    0.000 
#
# Total GULP energy -178732.510147 kJ/mol
# GULP energy per Si atom -5585.390942 kJ/mol
# Density = 1.864920 g / cm^3
# Si number density = 18.691742 Si / 1000 Ang^3
#
#
#
# Elastic Constant Matrix: (Units=GPa)
#
#
# Indices 1 2 3 4 5 6 
#
# 1 24.4732 11.3939 2.0956 0.0000 -2.7231 0.0000
# 2 11.3939 99.0109 60.9529 0.0000 -3.6189 0.0000
# 3 2.0956 60.9529 105.1948 0.0000 -6.8592 0.0000
# 4 0.0000 0.0000 0.0000 36.1644 0.0000 -3.7883
# 5 -2.7231 -3.6189 -6.8592 0.0000 19.0355 0.0000
# 6 0.0000 0.0000 0.0000 -3.7883 0.0000 16.4216
#
#
#
# Elastic Compliance Matrix: (Units=1/GPa)
#
#
# Indices 1 2 3 4 5 6 
#
# 1 0.044586 -0.007161 0.003675 0.000000 0.006341 0.000000
# 2 -0.007161 0.016852 -0.009708 0.000000 -0.001319 0.000000
# 3 0.003675 -0.009708 0.015332 0.000000 0.004205 0.000000
# 4 0.000000 0.000000 0.000000 0.028336 0.000000 0.006537
# 5 0.006341 -0.001319 0.004205 0.000000 0.054705 0.000000
# 6 0.000000 0.000000 0.000000 0.006537 0.000000 0.062403
#
#
# Mechanical properties :
#
#
# Convention : Reuss Voigt Hill
#
# Bulk Modulus (GPa) = 19.84865 41.95153 30.90009
# Shear Modulus (GPa) = 18.83964 24.60674 21.72319
#
# Velocity S-wave (km/s) = 3.17821 3.63223 3.41278
# Velocity P-wave (km/s) = 4.91019 6.33114 5.66539
#
# Compressibility (1/GPa) = 0.05038126
#
# Stress axis : x y z
#
# Youngs Moduli (GPa) = 22.42860 59.33936 65.22204
#
# Poissons Ratio (x) = 0.42495 -0.23967
# Poissons Ratio (y) = 0.16062 0.63318
# Poissons Ratio (z) = -0.08242 0.57607
#
# Static dielectric constant tensor:
#      x y z
#    x 1.643410 0.000000 0.030810 
#    y 0.000000 1.627070 0.000000 
#    z 0.030810 0.000000 1.656590 
# 
# From -- ./inp_files/38152.got.cif
#   From: 2010.05.17/outbox.cif.g08.bks.cpg/sg11_20_cif.got.tgz:38152.got - 2010.06.03 12:22:45.
