data_PCOD9158561
_publ_section_title
;
Structure prediction by ZEFSAII (Michael W. Deem and Ramdas Pophale) SiO2 
 PCOD9158561
Probable space group: P 21/M
;
_chemical_formula_sum "Si O2"
_cell_formula_units_Z 26
_cell_length_a 32.439227
_cell_length_b 7.226677
_cell_length_c 31.997453
_cell_angle_alpha 90.000000
_cell_angle_beta 170.532512
_cell_angle_gamma 90.000000
_cell_volume 1233.839187
_symmetry_space_group_name_H-M "P 21/M"
_symmetry_group_IT_number 11
_symmetry_cell_setting 'monoclinic'
loop_
_space_group_symop_operation_xyz
x,y,z
-x,1/2+y,-z
-x,-y,-z
x,1/2-y,z
loop_
_atom_site_type_symbol
_atom_site_label
_atom_site_fract_x
_atom_site_fract_y
_atom_site_fract_z
Si Si1 0.499956 0.023600 0.095600
Si Si2 0.999960 0.030276 0.549411
Si Si3 0.499977 0.526855 0.808231
Si Si4 0.999986 0.525398 0.257133
Si Si5 0.500005 0.968440 0.549428
Si Si6 0.999980 0.750000 0.822164
Si Si7 1.000000 0.523582 0.098176
O O1 0.499950 0.250000 0.095413
O O2 0.499997 0.964269 0.143836
O O3 0.748128 0.961274 0.319572
O O4 0.251759 0.961271 0.823212
O O5 0.999957 0.250000 0.555936
O O6 0.000000 0.000000 0.500000
O O7 0.499972 0.750000 0.809746
O O8 0.248790 0.475836 0.532234
O O9 0.751150 0.475841 0.034587
O O10 0.999993 0.750000 0.250556
O O11 0.000016 0.411606 0.214542
O O12 0.500008 0.750000 0.555276
O O13 0.246903 0.031867 0.318870
O O14 0.500000 0.000000 0.500000
O O15 0.753101 0.031869 0.825068
O O16 0.999993 0.587548 0.858767
O O17 0.999997 0.750000 0.103843
#
# Coordination Sequence:
#
# PCOD9158561 Si02
#       7
#     4   4   4   4   4   2   4
#     4   9  17  31  55  80 101 147 190 233 280 351
#     4  10  19  31  51  77 110 143 190 228 283 351
#     4   9  18  36  61  86 114 145 200 250 299 351
#     4  10  22  39  62  90 117 156 197 252 302 362
#     4  10  22  40  65  91 127 160 206 252 303 355
#     4  12  26  42  68  88 132 162 208 248 314 358
#     4  10  24  42  61  94 125 165 205 251 297 364
#
# _framework density 21.072438999999999
#
# number of rings (size 3 to 8) (size 9 to 14) (size 15 to 20)
#    0.000    2.154    0.000    2.308    2.154    6.769 
#    0.000    4.615   10.154    0.000    0.000    0.000 
#    0.000    0.000    0.000    0.000    0.000    0.000 
#
# Total GULP energy -144748.355254 kJ/mol
# GULP energy per Si atom -5567.244433 kJ/mol
# Density = 2.102448 g / cm^3
# Si number density = 21.072439 Si / 1000 Ang^3
#
#
#
# Elastic Constant Matrix: (Units=GPa)
#
#
# Indices 1 2 3 4 5 6 
#
# 1 279.5942 45.2356 164.1829 0.0000 -19.8223 0.0000
# 2 45.2356 126.7093 38.9122 0.0000 -0.8714 0.0000
# 3 164.1829 38.9122 237.5883 0.0000 13.9527 0.0000
# 4 0.0000 0.0000 0.0000 -25.5142 0.0000 -7.2913
# 5 -19.8223 -0.8714 13.9527 0.0000 -11.7859 0.0000
# 6 0.0000 0.0000 0.0000 -7.2913 0.0000 29.4120
#
#
#
# Elastic Compliance Matrix: (Units=1/GPa)
#
#
# Indices 1 2 3 4 5 6 
#
# 1 0.004356 -0.000925 -0.002275 0.000000 -0.009951 0.000000
# 2 -0.000925 0.008452 -0.000748 0.000000 0.000046 0.000000
# 3 -0.002275 -0.000748 0.005306 0.000000 0.010163 0.000000
# 4 0.000000 0.000000 0.000000 -0.036601 0.000000 -0.009073
# 5 -0.009951 0.000046 0.010163 0.000000 -0.056083 0.000000
# 6 0.000000 0.000000 0.000000 -0.009073 0.000000 0.031750
#
#
# Mechanical properties :
#
#
# Convention : Reuss Voigt Hill
#
# Bulk Modulus (GPa) = 97.84426 126.72811 112.28619
# Shear Modulus (GPa) = -158.64800 24.79310 -66.92745
#
# Velocity S-wave (km/s) = -8.68622 3.43383 -5.64177
# Velocity P-wave (km/s) = 7.35305 8.71731 3.31089
#
# Compressibility (1/GPa) = 0.01022032
#
# Stress axis : x y z
#
# Youngs Moduli (GPa) = 229.54494 118.31095 188.45186
#
# Poissons Ratio (x) = 0.10946 0.42864
# Poissons Ratio (y) = 0.21237 0.14090
# Poissons Ratio (z) = 0.52211 0.08846
#
# Static dielectric constant tensor:
#      x y z
#    x 1.737640 0.000000 0.001190 
#    y 0.000000 1.838760 0.000000 
#    z 0.001190 0.000000 1.746560 
# 
# From -- ./inp_files/73823.got.cif
#   From: 2010.05.17/outbox.cif.g08.bks.cpg/sg11_37_cif.got.tgz:73823.got - 2010.06.03 12:22:45.
