data_PCOD9158336
_publ_section_title
;
Structure prediction by ZEFSAII (Michael W. Deem and Ramdas Pophale) SiO2 
 PCOD9158336
Probable space group: P 21/M
;
_chemical_formula_sum "Si O2"
_cell_formula_units_Z 28
_cell_length_a 16.604057
_cell_length_b 9.083554
_cell_length_c 18.820705
_cell_angle_alpha 90.000000
_cell_angle_beta 144.477030
_cell_angle_gamma 90.000000
_cell_volume 1649.316224
_symmetry_space_group_name_H-M "P 21/M"
_symmetry_group_IT_number 11
_symmetry_cell_setting 'monoclinic'
loop_
_space_group_symop_operation_xyz
x,y,z
-x,1/2+y,-z
-x,-y,-z
x,1/2-y,z
loop_
_atom_site_type_symbol
_atom_site_label
_atom_site_fract_x
_atom_site_fract_y
_atom_site_fract_z
Si Si1 0.801492 0.580708 0.904452
Si Si2 0.949201 0.577391 0.733554
Si Si3 0.272196 0.922505 0.008390
Si Si4 0.497157 0.925779 0.920576
Si Si5 0.127824 0.918772 0.183195
Si Si6 0.217291 0.076818 0.680688
Si Si7 0.020114 0.075736 0.404023
O O1 0.755512 0.750000 0.873241
O O2 0.726545 0.484128 0.910498
O O3 0.794107 0.512591 0.820690
O O4 0.964947 0.578954 0.043357
O O5 0.914387 0.750000 0.716201
O O6 0.869465 0.486762 0.736373
O O7 0.928374 0.531986 0.637036
O O8 0.113922 0.563281 0.867392
O O9 0.309252 0.750000 0.032797
O O10 0.373351 0.015654 0.031611
O O11 0.498760 0.750000 0.927595
O O12 0.356607 0.983311 0.783165
O O13 0.500000 0.000000 0.000000
O O14 0.173686 0.750000 0.215147
O O15 0.245852 0.250000 0.712089
O O16 0.136379 0.059077 0.548052
O O17 0.112429 0.016443 0.665515
O O18 0.982375 0.250000 0.373636
#
# Coordination Sequence:
#
# PCOD9158336 Si02
#       7
#     4   4   4   4   4   4   4
#     4   9  16  27  42  62  92 128 162 194 233 282
#     4   9  17  29  46  69  97 127 157 193 238 285
#     4  10  19  31  48  71  99 129 161 197 239 286
#     4  12  24  37  52  71  97 128 163 201 242 288
#     4   9  16  25  40  64  93 124 158 196 236 279
#     4  10  20  34  52  73  97 127 163 201 242 286
#     4   9  18  33  52  73  98 128 162 200 241 286
#
# _framework density 16.976731999999998
#
# number of rings (size 3 to 8) (size 9 to 14) (size 15 to 20)
#    0.000    2.286    0.000    3.857    0.000    6.286 
#    0.000    0.000    0.000    0.000    0.000    1.000 
#    0.000    0.000    0.000    0.000    0.000    0.000 
#
# Total GULP energy -156213.080996 kJ/mol
# GULP energy per Si atom -5579.038607 kJ/mol
# Density = 1.693809 g / cm^3
# Si number density = 16.976732 Si / 1000 Ang^3
#
#
#
# Elastic Constant Matrix: (Units=GPa)
#
#
# Indices 1 2 3 4 5 6 
#
# 1 100.5518 51.6893 20.1653 0.0000 -30.3849 0.0000
# 2 51.6893 118.7347 26.0514 0.0000 -10.0542 0.0000
# 3 20.1653 26.0514 17.4483 0.0000 -11.1750 0.0000
# 4 0.0000 0.0000 0.0000 19.8121 0.0000 -2.2621
# 5 -30.3849 -10.0542 -11.1750 0.0000 27.3341 0.0000
# 6 0.0000 0.0000 0.0000 -2.2621 0.0000 35.3663
#
#
#
# Elastic Compliance Matrix: (Units=1/GPa)
#
#
# Indices 1 2 3 4 5 6 
#
# 1 0.019045 -0.006700 -0.000035 0.000000 0.018692 0.000000
# 2 -0.006700 0.015234 -0.021924 0.000000 -0.010808 0.000000
# 3 -0.000035 -0.021924 0.115011 0.000000 0.038917 0.000000
# 4 0.000000 0.000000 0.000000 0.050846 0.000000 0.003252
# 5 0.018692 -0.010808 0.038917 0.000000 0.069297 0.000000
# 6 0.000000 0.000000 0.000000 0.003252 0.000000 0.028484
#
#
# Mechanical properties :
#
#
# Convention : Reuss Voigt Hill
#
# Bulk Modulus (GPa) = 10.87293 48.06073 29.46683
# Shear Modulus (GPa) = 12.95702 25.75775 19.35739
#
# Velocity S-wave (km/s) = 2.76565 3.89940 3.38039
# Velocity P-wave (km/s) = 4.07638 6.97460 5.71235
#
# Compressibility (1/GPa) = 0.09197153
#
# Stress axis : x y z
#
# Youngs Moduli (GPa) = 52.50788 65.64219 8.69484
#
# Poissons Ratio (x) = 0.43983 0.00030
# Poissons Ratio (y) = 0.35182 0.19062
# Poissons Ratio (z) = 0.00183 1.43912
#
# Static dielectric constant tensor:
#      x y z
#    x 1.558720 0.000000 -0.014160 
#    y 0.000000 1.570130 0.000000 
#    z -0.014160 0.000000 1.568320 
# 
# From -- ./inp_files/42336.got.cif
#   From: 2010.05.17/outbox.cif.g08.bks.cpg/sg11_22_cif.got.tgz:42336.got - 2010.06.03 12:22:45.
