data_PCOD9158736
_publ_section_title
;
Structure prediction by ZEFSAII (Michael W. Deem and Ramdas Pophale) SiO2 
 PCOD9158736
Probable space group: P 21/M
;
_chemical_formula_sum "Si O2"
_cell_formula_units_Z 32
_cell_length_a 32.625723
_cell_length_b 7.555358
_cell_length_c 12.696112
_cell_angle_alpha 90.000000
_cell_angle_beta 28.947198
_cell_angle_gamma 90.000000
_cell_volume 1514.726916
_symmetry_space_group_name_H-M "P 21/M"
_symmetry_group_IT_number 11
_symmetry_cell_setting 'monoclinic'
loop_
_space_group_symop_operation_xyz
x,y,z
-x,1/2+y,-z
-x,-y,-z
x,1/2-y,z
loop_
_atom_site_type_symbol
_atom_site_label
_atom_site_fract_x
_atom_site_fract_y
_atom_site_fract_z
Si Si1 0.401315 0.038151 0.207899
Si Si2 0.894111 0.963859 0.137502
Si Si3 0.620234 0.533179 0.978520
Si Si4 0.267827 0.047201 0.888595
Si Si5 0.235188 0.044252 0.189052
Si Si6 0.253708 0.032593 0.687990
Si Si7 0.915542 0.457771 0.326800
Si Si8 0.538622 0.039259 0.527987
O O1 0.391727 0.250000 0.227666
O O2 0.341475 0.973542 0.436594
O O3 0.371681 0.972612 0.159765
O O4 0.500000 0.000000 0.000000
O O5 0.895750 0.750000 0.132689
O O6 0.822513 0.021241 0.217317
O O7 0.877445 0.016117 0.295638
O O8 0.988346 0.028236 0.895308
O O9 0.622844 0.750000 0.971377
O O10 0.530036 0.481661 0.231014
O O11 0.694258 0.469581 0.889897
O O12 0.236381 0.250000 0.956769
O O13 0.244124 0.968039 0.828923
O O14 0.369871 0.046044 0.664960
O O15 0.236671 0.965030 0.068663
O O16 0.259727 0.250000 0.119614
O O17 0.145661 0.037055 0.448368
O O18 0.254713 0.250000 0.689076
O O19 0.920289 0.250000 0.337817
O O20 0.549738 0.250000 0.512384
O O21 0.500000 0.000000 0.500000
#
# Coordination Sequence:
#
# PCOD9158736 Si02
#       8
#     4   4   4   4   4   4   4   4
#     4  10  19  32  50  72 100 131 167 209 254 303
#     4   9  18  36  59  80 105 139 172 209 264 320
#     4   9  18  32  50  71  97 135 175 208 253 314
#     4  10  20  35  54  77 103 137 183 222 257 311
#     4  10  19  34  53  73 103 139 173 212 263 318
#     4   9  18  34  57  78 100 138 182 214 250 315
#     4  10  20  33  54  84 110 130 168 222 266 310
#     4  11  20  33  51  73 103 139 180 222 265 310
#
# _framework density 21.125920000000001
#
# number of rings (size 3 to 8) (size 9 to 14) (size 15 to 20)
#    0.000    2.250    1.250    2.250    0.000    3.000 
#    0.000    4.375    0.000    0.000    0.000    0.000 
#    0.000    0.000    0.000    0.000    0.000    0.000 
#
# Total GULP energy -178740.098073 kJ/mol
# GULP energy per Si atom -5585.628065 kJ/mol
# Density = 2.107784 g / cm^3
# Si number density = 21.125920 Si / 1000 Ang^3
#
#
#
# Elastic Constant Matrix: (Units=GPa)
#
#
# Indices 1 2 3 4 5 6 
#
# 1 152.8860 -2.2032 71.9623 0.0000 21.4752 0.0000
# 2 -2.2032 52.6758 -2.5367 0.0000 4.2283 0.0000
# 3 71.9623 -2.5367 120.6648 0.0000 26.3142 0.0000
# 4 0.0000 0.0000 0.0000 19.7170 0.0000 -4.5298
# 5 21.4752 4.2283 26.3142 0.0000 36.4828 0.0000
# 6 0.0000 0.0000 0.0000 -4.5298 0.0000 6.8347
#
#
#
# Elastic Compliance Matrix: (Units=1/GPa)
#
#
# Indices 1 2 3 4 5 6 
#
# 1 0.009188 0.000282 -0.005087 0.000000 -0.001772 0.000000
# 2 0.000282 0.019284 0.000903 0.000000 -0.003052 0.000000
# 3 -0.005087 0.000903 0.012709 0.000000 -0.006277 0.000000
# 4 0.000000 0.000000 0.000000 0.059827 0.000000 0.039652
# 5 -0.001772 -0.003052 -0.006277 0.000000 0.033334 0.000000
# 6 0.000000 0.000000 0.000000 0.039652 0.000000 0.172592
#
#
# Mechanical properties :
#
#
# Convention : Reuss Voigt Hill
#
# Bulk Modulus (GPa) = 29.96134 51.18571 40.57353
# Shear Modulus (GPa) = 15.34369 29.87384 22.60877
#
# Velocity S-wave (km/s) = 2.69791 3.76451 3.27493
# Velocity P-wave (km/s) = 4.89061 6.57091 5.79202
#
# Compressibility (1/GPa) = 0.03337635
#
# Stress axis : x y z
#
# Youngs Moduli (GPa) = 108.83293 51.85562 78.68227
#
# Poissons Ratio (x) = -0.01460 0.40029
# Poissons Ratio (y) = -0.03064 -0.07106
# Poissons Ratio (z) = 0.55369 -0.04683
#
# Static dielectric constant tensor:
#      x y z
#    x 1.750520 0.000000 0.015810 
#    y 0.000000 1.772270 0.000000 
#    z 0.015810 0.000000 1.740080 
# 
# From -- ./inp_files/45126.got.cif
#   From: 2010.05.17/outbox.cif.g08.bks.cpg/sg11_23_cif.got.tgz:45126.got - 2010.06.03 12:22:45.
