data_PCOD9158294
_publ_section_title
;
Structure prediction by ZEFSAII (Michael W. Deem and Ramdas Pophale) SiO2 
 PCOD9158294
Probable space group: P 21/M
;
_chemical_formula_sum "Si O2"
_cell_formula_units_Z 32
_cell_length_a 14.274053
_cell_length_b 8.778922
_cell_length_c 21.089820
_cell_angle_alpha 90.000000
_cell_angle_beta 134.603419
_cell_angle_gamma 90.000000
_cell_volume 1881.619006
_symmetry_space_group_name_H-M "P 21/M"
_symmetry_group_IT_number 11
_symmetry_cell_setting 'monoclinic'
loop_
_space_group_symop_operation_xyz
x,y,z
-x,1/2+y,-z
-x,-y,-z
x,1/2-y,z
loop_
_atom_site_type_symbol
_atom_site_label
_atom_site_fract_x
_atom_site_fract_y
_atom_site_fract_z
Si Si1 0.932958 0.933853 0.405664
Si Si2 0.950601 0.432892 0.282300
Si Si3 0.665022 0.930564 0.120077
Si Si4 0.886176 0.428949 0.901299
Si Si5 0.634463 0.571346 0.844719
Si Si6 0.626291 0.932326 0.243496
Si Si7 0.296561 0.924464 0.991007
Si Si8 0.980524 0.575817 0.820728
O O1 0.943334 0.750000 0.407395
O O2 0.776658 0.974141 0.331071
O O3 0.995059 0.010403 0.372213
O O4 0.000000 0.000000 0.500000
O O5 0.922177 0.250000 0.269599
O O6 0.818223 0.529193 0.206467
O O7 0.041419 0.460206 0.263899
O O8 0.649616 0.750000 0.102073
O O9 0.601317 0.972892 0.157326
O O10 0.636067 0.023241 0.042444
O O11 0.888154 0.250000 0.913025
O O12 0.744691 0.493175 0.854057
O O13 0.918081 0.469492 0.843850
O O14 0.000000 0.500000 0.000000
O O15 0.637011 0.750000 0.835700
O O16 0.486670 0.507843 0.768448
O O17 0.675397 0.530705 0.936284
O O18 0.616942 0.750000 0.243609
O O19 0.333587 0.750000 0.023554
O O20 0.139074 0.927852 0.904983
O O21 0.938441 0.750000 0.813080
#
# Coordination Sequence:
#
# PCOD9158294 Si02
#       8
#     4   4   4   4   4   4   4   4
#     4  10  20  35  58  85 112 139 169 206 252 310
#     4   9  17  30  50  76 107 137 168 209 256 305
#     4   9  17  30  48  69  97 132 172 212 252 303
#     4  12  23  35  52  72  99 135 179 227 268 309
#     4  12  24  35  50  70  96 133 177 222 264 308
#     4   9  20  37  52  71 102 136 168 209 256 306
#     4  10  19  31  48  68  96 133 173 218 260 302
#     4   9  18  32  50  72 100 135 175 220 264 302
#
# _framework density 17.006632
#
# number of rings (size 3 to 8) (size 9 to 14) (size 15 to 20)
#    0.000    2.000    1.250    5.250    0.000    6.000 
#    0.000    0.000    0.000    0.000    0.000    0.875 
#    0.000    0.000    0.000    0.000    0.000    0.000 
#
# Total GULP energy -178575.939080 kJ/mol
# GULP energy per Si atom -5580.498096 kJ/mol
# Density = 1.696792 g / cm^3
# Si number density = 17.006632 Si / 1000 Ang^3
#
#
#
# Elastic Constant Matrix: (Units=GPa)
#
#
# Indices 1 2 3 4 5 6 
#
# 1 118.2972 53.5306 33.3629 0.0000 -0.5527 0.0000
# 2 53.5306 80.6485 23.1104 0.0000 2.9206 0.0000
# 3 33.3629 23.1104 74.4719 0.0000 -11.8819 0.0000
# 4 0.0000 0.0000 0.0000 21.7809 0.0000 -3.2197
# 5 -0.5527 2.9206 -11.8819 0.0000 19.6793 0.0000
# 6 0.0000 0.0000 0.0000 -3.2197 0.0000 30.0136
#
#
#
# Elastic Compliance Matrix: (Units=1/GPa)
#
#
# Indices 1 2 3 4 5 6 
#
# 1 0.012832 -0.007481 -0.003533 0.000000 -0.000662 0.000000
# 2 -0.007481 0.018441 -0.003145 0.000000 -0.004846 0.000000
# 3 -0.003533 -0.003145 0.017755 0.000000 0.011088 0.000000
# 4 0.000000 0.000000 0.000000 0.046652 0.000000 0.005004
# 5 -0.000662 -0.004846 0.011088 0.000000 0.058210 0.000000
# 6 0.000000 0.000000 0.000000 0.005004 0.000000 0.033855
#
#
# Mechanical properties :
#
#
# Convention : Reuss Voigt Hill
#
# Bulk Modulus (GPa) = 48.28037 54.82505 51.55271
# Shear Modulus (GPa) = 22.42505 25.18902 23.80703
#
# Velocity S-wave (km/s) = 3.63520 3.85272 3.74554
# Velocity P-wave (km/s) = 6.78751 7.21794 7.00603
#
# Compressibility (1/GPa) = 0.02071235
#
# Stress axis : x y z
#
# Youngs Moduli (GPa) = 77.93277 54.22583 56.32089
#
# Poissons Ratio (x) = 0.40565 0.19896
# Poissons Ratio (y) = 0.58299 0.17711
# Poissons Ratio (z) = 0.27531 0.17052
#
# Static dielectric constant tensor:
#      x y z
#    x 1.599900 0.000000 0.004070 
#    y 0.000000 1.568560 0.000000 
#    z 0.004070 0.000000 1.595570 
# 
# From -- ./inp_files/64429.got.cif
#   From: 2010.05.17/outbox.cif.g08.bks.cpg/sg11_33_cif.got.tgz:64429.got - 2010.06.03 12:22:45.
