data_PCOD9158589
_publ_section_title
;
Structure prediction by ZEFSAII (Michael W. Deem and Ramdas Pophale) SiO2 
 PCOD9158589
Probable space group: P 21/M
;
_chemical_formula_sum "Si O2"
_cell_formula_units_Z 28
_cell_length_a 19.492699
_cell_length_b 8.997443
_cell_length_c 14.735620
_cell_angle_alpha 90.000000
_cell_angle_beta 138.568418
_cell_angle_gamma 90.000000
_cell_volume 1710.161755
_symmetry_space_group_name_H-M "P 21/M"
_symmetry_group_IT_number 11
_symmetry_cell_setting 'monoclinic'
loop_
_space_group_symop_operation_xyz
x,y,z
-x,1/2+y,-z
-x,-y,-z
x,1/2-y,z
loop_
_atom_site_type_symbol
_atom_site_label
_atom_site_fract_x
_atom_site_fract_y
_atom_site_fract_z
Si Si1 0.803229 0.928080 0.587007
Si Si2 0.882616 0.426530 0.488521
Si Si3 0.384401 0.426582 0.285242
Si Si4 0.005688 0.571349 0.906530
Si Si5 0.107768 0.572653 0.707612
Si Si6 0.372850 0.573030 0.467769
Si Si7 0.211791 0.928187 0.997428
O O1 0.797241 0.750000 0.579512
O O2 0.906170 0.970341 0.746925
O O3 0.817049 0.990903 0.499793
O O4 0.704427 0.996618 0.538907
O O5 0.878919 0.250000 0.499578
O O6 0.851036 0.457166 0.352777
O O7 0.000680 0.484641 0.613532
O O8 0.371218 0.250000 0.282734
O O9 0.353978 0.506857 0.348948
O O10 0.506293 0.456379 0.390159
O O11 0.311305 0.488718 0.134387
O O12 0.004774 0.750000 0.914750
O O13 0.111180 0.530788 0.958333
O O14 0.000000 0.500000 0.000000
O O15 0.084103 0.750000 0.689884
O O16 0.184042 0.537225 0.865727
O O17 0.356620 0.750000 0.450380
O O18 0.226019 0.750000 0.019444
#
# Coordination Sequence:
#
# PCOD9158589 Si02
#       7
#     4   4   4   4   4   4   4
#     4  11  21  35  53  75 106 138 172 214 259 309
#     4  10  19  31  52  78 104 137 174 213 258 309
#     4  10  21  36  54  78 105 134 174 220 259 303
#     4  10  21  33  46  69 103 137 165 203 250 301
#     4   9  18  34  52  74 105 138 175 215 255 305
#     4  10  21  37  55  76 103 136 177 218 257 305
#     4  10  19  34  53  73 103 140 173 210 257 307
#
# _framework density 16.372720000000001
#
# number of rings (size 3 to 8) (size 9 to 14) (size 15 to 20)
#    0.000    2.000    1.429    2.571    0.000    6.857 
#    0.000    0.000    0.000    0.857    0.000    0.000 
#    0.000    0.000    0.000    0.000    0.000    0.000 
#
# Total GULP energy -156308.910324 kJ/mol
# GULP energy per Si atom -5582.461083 kJ/mol
# Density = 1.633545 g / cm^3
# Si number density = 16.372720 Si / 1000 Ang^3
#
#
#
# Elastic Constant Matrix: (Units=GPa)
#
#
# Indices 1 2 3 4 5 6 
#
# 1 98.8456 52.1118 60.8629 0.0000 -14.0954 0.0000
# 2 52.1118 51.2470 50.7225 0.0000 -6.1013 0.0000
# 3 60.8629 50.7225 111.6305 0.0000 -20.6630 0.0000
# 4 0.0000 0.0000 0.0000 28.2056 0.0000 -0.3138
# 5 -14.0954 -6.1013 -20.6630 0.0000 20.5557 0.0000
# 6 0.0000 0.0000 0.0000 -0.3138 0.0000 30.4164
#
#
#
# Elastic Compliance Matrix: (Units=1/GPa)
#
#
# Indices 1 2 3 4 5 6 
#
# 1 0.023542 -0.021371 -0.001611 0.000000 0.008181 0.000000
# 2 -0.021371 0.055693 -0.016348 0.000000 -0.014558 0.000000
# 3 -0.001611 -0.016348 0.019857 0.000000 0.014003 0.000000
# 4 0.000000 0.000000 0.000000 0.035458 0.000000 0.000366
# 5 0.008181 -0.014558 0.014003 0.000000 0.064014 0.000000
# 6 0.000000 0.000000 0.000000 0.000366 0.000000 0.032881
#
#
# Mechanical properties :
#
#
# Convention : Reuss Voigt Hill
#
# Bulk Modulus (GPa) = 48.94456 65.45749 57.20103
# Shear Modulus (GPa) = 15.77708 22.37060 19.07384
#
# Velocity S-wave (km/s) = 3.10759 3.70041 3.41688
# Velocity P-wave (km/s) = 6.54485 7.63700 7.11192
#
# Compressibility (1/GPa) = 0.02043128
#
# Stress axis : x y z
#
# Youngs Moduli (GPa) = 42.47706 17.95556 50.36080
#
# Poissons Ratio (x) = 0.38373 0.08111
# Poissons Ratio (y) = 0.90779 0.82332
# Poissons Ratio (z) = 0.06842 0.29355
#
# Static dielectric constant tensor:
#      x y z
#    x 1.533700 0.000000 -0.008560 
#    y 0.000000 1.545890 0.000000 
#    z -0.008560 0.000000 1.538630 
# 
# From -- ./inp_files/53192.got.cif
#   From: 2010.05.17/outbox.cif.g08.bks.cpg/sg11_27_cif.got.tgz:53192.got - 2010.06.03 12:22:45.
