data_PCOD9158125
_publ_section_title
;
Structure prediction by ZEFSAII (Michael W. Deem and Ramdas Pophale) SiO2 
 PCOD9158125
Probable space group: P 21/M
;
_chemical_formula_sum "Si O2"
_cell_formula_units_Z 32
_cell_length_a 14.632684
_cell_length_b 8.973735
_cell_length_c 16.062026
_cell_angle_alpha 90.000000
_cell_angle_beta 90.803972
_cell_angle_gamma 90.000000
_cell_volume 2108.894247
_symmetry_space_group_name_H-M "P 21/M"
_symmetry_group_IT_number 11
_symmetry_cell_setting 'monoclinic'
loop_
_space_group_symop_operation_xyz
x,y,z
-x,1/2+y,-z
-x,-y,-z
x,1/2-y,z
loop_
_atom_site_type_symbol
_atom_site_label
_atom_site_fract_x
_atom_site_fract_y
_atom_site_fract_z
Si Si1 0.213625 0.929128 0.670033
Si Si2 0.393881 0.072193 0.406769
Si Si3 0.601363 0.429131 0.411172
Si Si4 0.100701 0.071426 0.007257
Si Si5 0.900061 0.070269 0.496026
Si Si6 0.102193 0.570590 0.176500
Si Si7 0.215817 0.570629 0.342087
Si Si8 0.887718 0.928543 0.176991
O O1 0.209948 0.750000 0.676199
O O2 0.318000 0.972055 0.650526
O O3 0.153065 0.973060 0.588812
O O4 0.172018 0.998061 0.752370
O O5 0.384550 0.250000 0.409089
O O6 0.498132 0.035982 0.381887
O O7 0.382928 0.006383 0.499651
O O8 0.315165 0.001982 0.349578
O O9 0.607370 0.250000 0.424237
O O10 0.093974 0.250000 0.013230
O O11 0.139814 0.004333 0.092792
O O12 0.143833 0.035064 0.917807
O O13 0.000000 0.000000 0.000000
O O14 0.907569 0.250000 0.497126
O O15 0.841663 0.026279 0.576524
O O16 0.000000 0.000000 0.500000
O O17 0.103859 0.750000 0.166603
O O18 0.159922 0.530136 0.258607
O O19 0.995166 0.527626 0.186545
O O20 0.224897 0.750000 0.344121
O O21 0.884594 0.750000 0.186112
#
# Coordination Sequence:
#
# PCOD9158125 Si02
#       8
#     4   4   4   4   4   4   4   4
#     4  10  19  31  47  65  88 123 157 185 225 273
#     4  10  19  30  49  71  88 115 156 198 233 273
#     4   9  18  34  49  64  91 120 151 194 241 277
#     4   9  17  30  47  66  92 122 152 193 235 270
#     4  10  20  32  44  60  89 127 158 184 219 262
#     4   9  18  31  48  68  92 126 158 187 229 274
#     4  10  19  33  48  64  95 129 152 186 235 278
#     4   9  18  31  46  67  94 121 152 189 229 268
#
# _framework density 15.173828
#
# number of rings (size 3 to 8) (size 9 to 14) (size 15 to 20)
#    0.000    2.500    1.250    2.250    0.000    6.000 
#    0.000    0.000    0.000    0.000    0.000    0.875 
#    0.000    0.000    0.000    0.000    0.000    0.000 
#
# Total GULP energy -178340.963077 kJ/mol
# GULP energy per Si atom -5573.155096 kJ/mol
# Density = 1.513929 g / cm^3
# Si number density = 15.173828 Si / 1000 Ang^3
#
#
#
# Elastic Constant Matrix: (Units=GPa)
#
#
# Indices 1 2 3 4 5 6 
#
# 1 107.6422 31.3139 69.3462 0.0000 -10.0635 0.0000
# 2 31.3139 17.0044 38.7930 0.0000 -4.1563 0.0000
# 3 69.3462 38.7930 140.8221 0.0000 -14.2864 0.0000
# 4 0.0000 0.0000 0.0000 27.4965 0.0000 -0.4243
# 5 -10.0635 -4.1563 -14.2864 0.0000 11.0753 0.0000
# 6 0.0000 0.0000 0.0000 -0.4243 0.0000 24.4490
#
#
#
# Elastic Compliance Matrix: (Units=1/GPa)
#
#
# Indices 1 2 3 4 5 6 
#
# 1 0.020330 -0.039099 0.001318 0.000000 0.005499 0.000000
# 2 -0.039099 0.233607 -0.045803 0.000000 -0.006944 0.000000
# 3 0.001318 -0.045803 0.020075 0.000000 0.009903 0.000000
# 4 0.000000 0.000000 0.000000 0.036378 0.000000 0.000631
# 5 0.005499 -0.006944 0.009903 0.000000 0.105457 0.000000
# 6 0.000000 0.000000 0.000000 0.000631 0.000000 0.040912
#
#
# Mechanical properties :
#
#
# Convention : Reuss Voigt Hill
#
# Bulk Modulus (GPa) = 9.35967 60.48610 34.92289
# Shear Modulus (GPa) = 7.58101 21.00520 14.29311
#
# Velocity S-wave (km/s) = 2.23762 3.72466 3.07246
# Velocity P-wave (km/s) = 3.58575 7.64501 5.97092
#
# Compressibility (1/GPa) = 0.10684138
#
# Stress axis : x y z
#
# Youngs Moduli (GPa) = 49.18949 4.28069 49.81414
#
# Poissons Ratio (x) = 0.16737 -0.06564
# Poissons Ratio (y) = 1.92328 2.28165
# Poissons Ratio (z) = -0.06482 0.19607
#
# Static dielectric constant tensor:
#      x y z
#    x 1.497500 0.000000 0.003920 
#    y 0.000000 1.336380 0.000000 
#    z 0.003920 0.000000 1.505830 
# 
# From -- ./inp_files/51303.got.cif
#   From: 2010.05.17/outbox.cif.g08.bks.cpg/sg11_26_cif.got.tgz:51303.got - 2010.06.03 12:22:45.
