data_PCOD9158003
_publ_section_title
;
Structure prediction by ZEFSAII (Michael W. Deem and Ramdas Pophale) SiO2 
 PCOD9158003
Probable space group: P 21/M
;
_chemical_formula_sum "Si O2"
_cell_formula_units_Z 28
_cell_length_a 18.917332
_cell_length_b 7.322849
_cell_length_c 10.586073
_cell_angle_alpha 90.000000
_cell_angle_beta 47.916582
_cell_angle_gamma 90.000000
_cell_volume 1088.373979
_symmetry_space_group_name_H-M "P 21/M"
_symmetry_group_IT_number 11
_symmetry_cell_setting 'monoclinic'
loop_
_space_group_symop_operation_xyz
x,y,z
-x,1/2+y,-z
-x,-y,-z
x,1/2-y,z
loop_
_atom_site_type_symbol
_atom_site_label
_atom_site_fract_x
_atom_site_fract_y
_atom_site_fract_z
Si Si1 0.607268 0.467243 0.416847
Si Si2 0.606233 0.467677 0.919417
Si Si3 0.778096 0.472958 0.849368
Si Si4 0.071229 0.532847 0.529867
Si Si5 0.906612 0.031492 0.222506
Si Si6 0.690713 0.029339 0.564731
Si Si7 0.180184 0.527265 0.927505
O O1 0.500000 0.500000 0.500000
O O2 0.617570 0.250000 0.399856
O O3 0.615134 0.531502 0.551647
O O4 0.709451 0.529680 0.235951
O O5 0.613321 0.250000 0.919264
O O6 0.666806 0.529707 0.969132
O O7 0.664161 0.541391 0.731177
O O8 0.500000 0.500000 0.000000
O O9 0.782529 0.250000 0.848976
O O10 0.833125 0.529948 0.656587
O O11 0.829646 0.534368 0.915895
O O12 0.081809 0.750000 0.535530
O O13 0.046800 0.461630 0.700648
O O14 0.000000 0.500000 0.500000
O O15 0.920409 0.250000 0.198678
O O16 0.796273 0.991701 0.391889
O O17 0.899745 0.968256 0.081967
O O18 0.685669 0.250000 0.578169
O O19 0.177785 0.750000 0.925440
#
# Coordination Sequence:
#
# PCOD9158003 Si02
#       7
#     4   4   4   4   4   4   4
#     4   9  17  27  42  63  90 121 158 198 232 270
#     4  10  19  30  46  68  96 128 162 197 236 280
#     4   9  17  31  50  71  97 127 163 203 239 281
#     4  10  19  33  55  78  97 123 158 197 242 293
#     4   8  13  27  49  68  89 122 160 189 223 279
#     4   8  14  27  44  62  86 122 160 190 222 271
#     4   8  15  27  46  70  91 119 161 203 232 266
#
# _framework density 25.726451999999998
#
# number of rings (size 3 to 8) (size 9 to 14) (size 15 to 20)
#    0.000    3.143    1.429    1.714    2.000    0.000 
#    0.000    1.429    0.000    4.286    0.000    0.000 
#    0.000    0.000    0.000    0.000    0.000    0.000 
#
# Total GULP energy -155891.985784 kJ/mol
# GULP energy per Si atom -5567.570921 kJ/mol
# Density = 2.566790 g / cm^3
# Si number density = 25.726452 Si / 1000 Ang^3
#
#
#
# Elastic Constant Matrix: (Units=GPa)
#
#
# Indices 1 2 3 4 5 6 
#
# 1 231.9154 3.2780 49.5642 0.0000 29.3132 0.0000
# 2 3.2780 99.4570 3.5969 0.0000 4.3591 0.0000
# 3 49.5642 3.5969 59.0111 0.0000 33.0506 0.0000
# 4 0.0000 0.0000 0.0000 -9.4919 0.0000 -6.8812
# 5 29.3132 4.3591 33.0506 0.0000 47.3390 0.0000
# 6 0.0000 0.0000 0.0000 -6.8812 0.0000 17.7161
#
#
#
# Elastic Compliance Matrix: (Units=1/GPa)
#
#
# Indices 1 2 3 4 5 6 
#
# 1 0.005258 -0.000007 -0.004257 0.000000 -0.000283 0.000000
# 2 -0.000007 0.010096 -0.000150 0.000000 -0.000821 0.000000
# 3 -0.004257 -0.000150 0.031277 0.000000 -0.019186 0.000000
# 4 0.000000 0.000000 0.000000 -0.082205 0.000000 -0.031930
# 5 -0.000283 -0.000821 -0.019186 0.000000 0.034770 0.000000
# 6 0.000000 0.000000 0.000000 -0.031930 0.000000 0.044044
#
#
# Mechanical properties :
#
#
# Convention : Reuss Voigt Hill
#
# Bulk Modulus (GPa) = 26.45330 55.91798 41.18564
# Shear Modulus (GPa) = 77.31780 33.37560 55.34670
#
# Velocity S-wave (km/s) = 5.48808 3.60575 4.64330
# Velocity P-wave (km/s) = 7.10377 6.25444 6.69259
#
# Compressibility (1/GPa) = 0.03780247
#
# Stress axis : x y z
#
# Youngs Moduli (GPa) = 190.20187 99.04700 31.97281
#
# Poissons Ratio (x) = 0.00069 0.13611
# Poissons Ratio (y) = 0.00132 0.00479
# Poissons Ratio (z) = 0.80971 0.01485
#
# Static dielectric constant tensor:
#      x y z
#    x 2.151770 0.000000 -0.050240 
#    y 0.000000 1.932870 0.000000 
#    z -0.050240 0.000000 2.065800 
# 
# From -- ./inp_files/41091.got.cif
#   From: 2010.05.17/outbox.cif.g08.bks.cpg/sg11_21_cif.got.tgz:41091.got - 2010.06.03 12:22:45.
