data_PCOD9158134
_publ_section_title
;
Structure prediction by ZEFSAII (Michael W. Deem and Ramdas Pophale) SiO2 
 PCOD9158134
Probable space group: P 21/M
;
_chemical_formula_sum "Si O2"
_cell_formula_units_Z 28
_cell_length_a 15.694011
_cell_length_b 7.506113
_cell_length_c 17.475261
_cell_angle_alpha 90.000000
_cell_angle_beta 134.648599
_cell_angle_gamma 90.000000
_cell_volume 1464.552780
_symmetry_space_group_name_H-M "P 21/M"
_symmetry_group_IT_number 11
_symmetry_cell_setting 'monoclinic'
loop_
_space_group_symop_operation_xyz
x,y,z
-x,1/2+y,-z
-x,-y,-z
x,1/2-y,z
loop_
_atom_site_type_symbol
_atom_site_label
_atom_site_fract_x
_atom_site_fract_y
_atom_site_fract_z
Si Si1 0.610817 0.463541 0.513700
Si Si2 0.158721 0.535762 0.249630
Si Si3 0.887701 0.463350 0.106247
Si Si4 0.497368 0.965342 0.712052
Si Si5 0.304338 0.958616 0.898950
Si Si6 0.455978 0.966609 0.856195
Si Si7 0.220370 0.960868 0.120852
O O1 0.500000 0.500000 0.500000
O O2 0.622568 0.250000 0.514734
O O3 0.732293 0.531823 0.629287
O O4 0.576294 0.531400 0.407750
O O5 0.171500 0.750000 0.253750
O O6 0.171617 0.466567 0.170639
O O7 0.028295 0.495886 0.199795
O O8 0.867868 0.250000 0.092673
O O9 0.809052 0.534623 0.127271
O O10 0.838567 0.534513 0.993814
O O11 0.492994 0.750000 0.709026
O O12 0.450011 0.025689 0.764780
O O13 0.636717 0.015392 0.791687
O O14 0.280503 0.750000 0.870205
O O15 0.352382 0.031710 0.848452
O O16 0.417619 0.975023 0.027652
O O17 0.455972 0.750000 0.857595
O O18 0.194713 0.750000 0.104938
#
# Coordination Sequence:
#
# PCOD9158134 Si02
#       7
#     4   4   4   4   4   4   4
#     4  10  20  34  51  71  95 126 163 202 240 279
#     4  10  21  34  48  67  95 130 165 198 236 281
#     4  10  20  32  48  70  97 129 162 195 236 285
#     4  10  19  30  49  75 100 125 157 196 240 287
#     4   9  17  30  48  70  98 127 156 193 238 286
#     4   9  17  29  47  73  99 124 155 193 239 288
#     4  10  19  32  48  70  99 129 157 193 240 286
#
# _framework density 19.118465
#
# number of rings (size 3 to 8) (size 9 to 14) (size 15 to 20)
#    0.000    2.286    2.857    0.429    0.000    2.286 
#    0.000    0.000    0.000    0.857    0.000    0.000 
#    0.000    0.000    0.000    0.000    0.000    0.000 
#
# Total GULP energy -156257.209500 kJ/mol
# GULP energy per Si atom -5580.614625 kJ/mol
# Density = 1.907495 g / cm^3
# Si number density = 19.118465 Si / 1000 Ang^3
#
#
#
# Elastic Constant Matrix: (Units=GPa)
#
#
# Indices 1 2 3 4 5 6 
#
# 1 189.7010 -12.5796 76.8423 0.0000 1.2087 0.0000
# 2 -12.5796 42.5423 -16.6483 0.0000 -0.3470 0.0000
# 3 76.8423 -16.6483 79.7243 0.0000 12.5228 0.0000
# 4 0.0000 0.0000 0.0000 10.3986 0.0000 11.6935
# 5 1.2087 -0.3470 12.5228 0.0000 31.3004 0.0000
# 6 0.0000 0.0000 0.0000 11.6935 0.0000 7.8427
#
#
#
# Elastic Compliance Matrix: (Units=1/GPa)
#
#
# Indices 1 2 3 4 5 6 
#
# 1 0.008998 -0.000996 -0.009416 0.000000 0.003409 0.000000
# 2 -0.000996 0.025824 0.006725 0.000000 -0.002366 0.000000
# 3 -0.009416 0.006725 0.024494 0.000000 -0.009361 0.000000
# 4 0.000000 0.000000 0.000000 -0.142117 0.000000 0.211897
# 5 0.003409 -0.002366 -0.009361 0.000000 0.035536 0.000000
# 6 0.000000 0.000000 0.000000 0.211897 0.000000 -0.188432
#
#
# Mechanical properties :
#
#
# Convention : Reuss Voigt Hill
#
# Bulk Modulus (GPa) = 19.25330 45.24406 32.24868
# Shear Modulus (GPa) = -23.69558 27.53188 1.91815
#
# Velocity S-wave (km/s) = -3.52434 3.79894 1.00273
# Velocity P-wave (km/s) = 2.54341 6.55432 4.27142
#
# Compressibility (1/GPa) = 0.05193914
#
# Stress axis : x y z
#
# Youngs Moduli (GPa) = 111.13794 38.72426 40.82706
#
# Poissons Ratio (x) = 0.03859 0.38443
# Poissons Ratio (y) = 0.11074 -0.27454
# Poissons Ratio (z) = 1.04648 -0.26040
#
# Static dielectric constant tensor:
#      x y z
#    x 1.681060 0.000000 -0.029300 
#    y 0.000000 1.712140 0.000000 
#    z -0.029300 0.000000 1.637590 
# 
# From -- ./inp_files/37451.got.cif
#   From: 2010.05.17/outbox.cif.g08.bks.cpg/sg11_19_cif.got.tgz:37451.got - 2010.06.03 12:22:45.
