data_PCOD9158191
_publ_section_title
;
Structure prediction by ZEFSAII (Michael W. Deem and Ramdas Pophale) SiO2 
 PCOD9158191
Probable space group: P 21/M
;
_chemical_formula_sum "Si O2"
_cell_formula_units_Z 32
_cell_length_a 11.816577
_cell_length_b 8.830461
_cell_length_c 20.936917
_cell_angle_alpha 90.000000
_cell_angle_beta 127.031454
_cell_angle_gamma 90.000000
_cell_volume 1744.040842
_symmetry_space_group_name_H-M "P 21/M"
_symmetry_group_IT_number 11
_symmetry_cell_setting 'monoclinic'
loop_
_space_group_symop_operation_xyz
x,y,z
-x,1/2+y,-z
-x,-y,-z
x,1/2-y,z
loop_
_atom_site_type_symbol
_atom_site_label
_atom_site_fract_x
_atom_site_fract_y
_atom_site_fract_z
Si Si1 0.280096 0.930264 0.448182
Si Si2 0.440518 0.432623 0.383119
Si Si3 0.900335 0.932361 0.911482
Si Si4 0.990685 0.068836 0.326632
Si Si5 0.934220 0.067767 0.160662
Si Si6 0.672511 0.066914 0.231742
Si Si7 0.363410 0.430303 0.920186
Si Si8 0.407871 0.065561 0.226805
O O1 0.275963 0.750000 0.442583
O O2 0.398761 0.971120 0.541172
O O3 0.338304 0.997291 0.401397
O O4 0.123640 0.993154 0.405613
O O5 0.425417 0.250000 0.380756
O O6 0.407097 0.483299 0.300224
O O7 0.903410 0.750000 0.918404
O O8 0.736169 0.982979 0.857621
O O9 0.961201 0.970064 0.861714
O O10 0.000000 0.000000 0.000000
O O11 0.007642 0.250000 0.334568
O O12 0.986657 0.024639 0.249708
O O13 0.836315 0.030300 0.302695
O O14 0.915846 0.250000 0.155406
O O15 0.782249 0.990986 0.098480
O O16 0.665906 0.250000 0.221383
O O17 0.552940 0.020711 0.241425
O O18 0.639681 0.989388 0.153362
O O19 0.367375 0.250000 0.924193
O O20 0.500000 0.500000 0.000000
O O21 0.406092 0.250000 0.226826
#
# Coordination Sequence:
#
# PCOD9158191 Si02
#       8
#     4   4   4   4   4   4   4   4
#     4  10  19  30  51  82 112 136 172 223 265 310
#     4   9  18  34  55  79 105 140 179 216 263 314
#     4  10  21  35  53  78 105 134 171 217 265 317
#     4   9  17  32  54  76 103 138 175 217 261 311
#     4   9  19  36  54  75 103 136 178 218 258 313
#     4   9  19  36  56  78 101 135 183 221 258 314
#     4  11  22  35  54  77 103 134 173 221 270 315
#     4   9  18  36  59  76 100 140 181 215 257 320
#
# _framework density 18.348193999999999
#
# number of rings (size 3 to 8) (size 9 to 14) (size 15 to 20)
#    0.000    2.500    0.000    3.000    1.750    5.000 
#    0.000    3.125    0.000    0.000    0.000    0.000 
#    0.000    0.000    0.000    0.000    0.000    0.000 
#
# Total GULP energy -178525.919163 kJ/mol
# GULP energy per Si atom -5578.934974 kJ/mol
# Density = 1.830643 g / cm^3
# Si number density = 18.348194 Si / 1000 Ang^3
#
#
#
# Elastic Constant Matrix: (Units=GPa)
#
#
# Indices 1 2 3 4 5 6 
#
# 1 90.3726 19.9167 50.5337 0.0000 18.9254 0.0000
# 2 19.9167 13.1982 19.5462 0.0000 9.5746 0.0000
# 3 50.5337 19.5462 93.8726 0.0000 28.3440 0.0000
# 4 0.0000 0.0000 0.0000 26.4676 0.0000 7.7442
# 5 18.9254 9.5746 28.3440 0.0000 29.7965 0.0000
# 6 0.0000 0.0000 0.0000 7.7442 0.0000 21.7645
#
#
#
# Elastic Compliance Matrix: (Units=1/GPa)
#
#
# Indices 1 2 3 4 5 6 
#
# 1 0.018692 -0.019280 -0.006080 0.000000 0.000107 0.000000
# 2 -0.019280 0.137629 -0.012097 0.000000 -0.020472 0.000000
# 3 -0.006080 -0.012097 0.019789 0.000000 -0.011075 0.000000
# 4 0.000000 0.000000 0.000000 0.042173 0.000000 -0.015006
# 5 0.000107 -0.020472 -0.011075 0.000000 0.050607 0.000000
# 6 0.000000 0.000000 0.000000 -0.015006 0.000000 0.051286
#
#
# Mechanical properties :
#
#
# Convention : Reuss Voigt Hill
#
# Bulk Modulus (GPa) = 9.88185 41.93739 25.90962
# Shear Modulus (GPa) = 11.65990 22.76882 17.21436
#
# Velocity S-wave (km/s) = 2.52361 3.52650 3.06634
# Velocity P-wave (km/s) = 3.72678 6.28392 5.16607
#
# Compressibility (1/GPa) = 0.10119560
#
# Stress axis : x y z
#
# Youngs Moduli (GPa) = 53.49983 7.26590 50.53436
#
# Poissons Ratio (x) = 0.14009 0.30724
# Poissons Ratio (y) = 1.03147 0.61132
# Poissons Ratio (z) = 0.32527 0.08790
#
# Static dielectric constant tensor:
#      x y z
#    x 1.641700 0.000000 0.017920 
#    y 0.000000 1.616420 0.000000 
#    z 0.017920 0.000000 1.624380 
# 
# From -- ./inp_files/64434.got.cif
#   From: 2010.05.17/outbox.cif.g08.bks.cpg/sg11_33_cif.got.tgz:64434.got - 2010.06.03 12:22:45.
