data_PCOD9158004
_publ_section_title
;
Structure prediction by ZEFSAII (Michael W. Deem and Ramdas Pophale) SiO2 
 PCOD9158004
Probable space group: P 21/M
;
_chemical_formula_sum "Si O2"
_cell_formula_units_Z 32
_cell_length_a 22.177586
_cell_length_b 8.607851
_cell_length_c 12.155032
_cell_angle_alpha 90.000000
_cell_angle_beta 128.744613
_cell_angle_gamma 90.000000
_cell_volume 1809.789931
_symmetry_space_group_name_H-M "P 21/M"
_symmetry_group_IT_number 11
_symmetry_cell_setting 'monoclinic'
loop_
_space_group_symop_operation_xyz
x,y,z
-x,1/2+y,-z
-x,-y,-z
x,1/2-y,z
loop_
_atom_site_type_symbol
_atom_site_label
_atom_site_fract_x
_atom_site_fract_y
_atom_site_fract_z
Si Si1 0.416539 0.566942 0.933196
Si Si2 0.040140 0.937795 0.156169
Si Si3 0.781623 0.064082 0.651959
Si Si4 0.170043 0.429749 0.709406
Si Si5 0.912444 0.939735 0.177130
Si Si6 0.240524 0.437829 0.134395
Si Si7 0.668849 0.929730 0.968203
Si Si8 0.271487 0.063374 0.634371
O O1 0.416047 0.750000 0.916492
O O2 0.350303 0.491750 0.781315
O O3 0.500000 0.500000 0.000000
O O4 0.391028 0.526189 0.028641
O O5 0.037743 0.750000 0.150024
O O6 0.128976 0.987561 0.259225
O O7 0.990889 0.988428 0.206633
O O8 0.000000 0.000000 0.000000
O O9 0.779118 0.250000 0.645387
O O10 0.753237 0.006288 0.737789
O O11 0.735538 0.995462 0.496936
O O12 0.148304 0.250000 0.664355
O O13 0.106672 0.497853 0.721215
O O14 0.199080 0.497898 0.626759
O O15 0.249188 0.429905 0.872291
O O16 0.911486 0.750000 0.181649
O O17 0.841297 0.984005 0.015277
O O18 0.240696 0.250000 0.139337
O O19 0.308206 0.484880 0.127130
O O20 0.643495 0.750000 0.935244
O O21 0.269232 0.250000 0.635897
#
# Coordination Sequence:
#
# PCOD9158004 Si02
#       8
#     4   4   4   4   4   4   4   4
#     4  11  21  35  58  86 113 137 163 202 250 300
#     4  10  19  30  46  68  99 134 174 222 266 311
#     4  11  22  32  45  72 107 140 174 220 270 313
#     4   7  12  25  47  70  90 120 166 214 254 297
#     4   8  13  25  46  69  92 124 168 218 264 303
#     4   9  16  29  51  73  97 136 180 216 254 305
#     4   8  15  29  50  78 105 131 170 212 249 297
#     4  10  20  36  55  74 100 136 177 215 253 310
#
# _framework density 17.681609999999999
#
# number of rings (size 3 to 8) (size 9 to 14) (size 15 to 20)
#    0.000    2.750    1.250    4.125    0.000    1.000 
#    0.000    0.625    0.000    1.500    0.000    0.000 
#    0.000    0.000    0.000    0.000    0.000    0.000 
#
# Total GULP energy -178295.524930 kJ/mol
# GULP energy per Si atom -5571.735154 kJ/mol
# Density = 1.764137 g / cm^3
# Si number density = 17.681610 Si / 1000 Ang^3
#
#
#
# Elastic Constant Matrix: (Units=GPa)
#
#
# Indices 1 2 3 4 5 6 
#
# 1 129.7362 33.5104 47.8579 0.0000 -16.4482 0.0000
# 2 33.5104 34.1436 19.6570 0.0000 -6.2644 0.0000
# 3 47.8579 19.6570 62.6360 0.0000 -18.0255 0.0000
# 4 0.0000 0.0000 0.0000 17.6098 0.0000 -3.3693
# 5 -16.4482 -6.2644 -18.0255 0.0000 24.4842 0.0000
# 6 0.0000 0.0000 0.0000 -3.3693 0.0000 21.1361
#
#
#
# Elastic Compliance Matrix: (Units=1/GPa)
#
#
# Indices 1 2 3 4 5 6 
#
# 1 0.012395 -0.008161 -0.006489 0.000000 0.001462 0.000000
# 2 -0.008161 0.041145 -0.006630 0.000000 0.000164 0.000000
# 3 -0.006489 -0.006630 0.026976 0.000000 0.013805 0.000000
# 4 0.000000 0.000000 0.000000 0.058573 0.000000 0.009337
# 5 0.001462 0.000164 0.013805 0.000000 0.052030 0.000000
# 6 0.000000 0.000000 0.000000 0.009337 0.000000 0.048801
#
#
# Mechanical properties :
#
#
# Convention : Reuss Voigt Hill
#
# Bulk Modulus (GPa) = 26.34553 47.61850 36.98201
# Shear Modulus (GPa) = 16.94164 21.01204 18.97684
#
# Velocity S-wave (km/s) = 3.09876 3.45099 3.27961
# Velocity P-wave (km/s) = 5.26644 6.54742 5.94155
#
# Compressibility (1/GPa) = 0.03795710
#
# Stress axis : x y z
#
# Youngs Moduli (GPa) = 80.67875 24.30442 37.06950
#
# Poissons Ratio (x) = 0.19835 0.24053
# Poissons Ratio (y) = 0.65844 0.24576
# Poissons Ratio (z) = 0.52349 0.16113
#
# Static dielectric constant tensor:
#      x y z
#    x 1.645200 0.000000 -0.023340 
#    y 0.000000 0.969970 0.000000 
#    z -0.023340 0.000000 1.580170 
# 
# From -- ./inp_files/42898.got.cif
#   From: 2010.05.17/outbox.cif.g08.bks.cpg/sg11_22_cif.got.tgz:42898.got - 2010.06.03 12:22:45.
