data_PCOD9158842
_publ_section_title
;
Structure prediction by ZEFSAII (Michael W. Deem and Ramdas Pophale) SiO2 
 PCOD9158842
Probable space group: P 21/M
;
_chemical_formula_sum "Si O2"
_cell_formula_units_Z 32
_cell_length_a 26.803312
_cell_length_b 7.492172
_cell_length_c 20.863429
_cell_angle_alpha 90.000000
_cell_angle_beta 22.097507
_cell_angle_gamma 90.000000
_cell_volume 1576.094123
_symmetry_space_group_name_H-M "P 21/M"
_symmetry_group_IT_number 11
_symmetry_cell_setting 'monoclinic'
loop_
_space_group_symop_operation_xyz
x,y,z
-x,1/2+y,-z
-x,-y,-z
x,1/2-y,z
loop_
_atom_site_type_symbol
_atom_site_label
_atom_site_fract_x
_atom_site_fract_y
_atom_site_fract_z
Si Si1 0.443302 0.463341 0.138517
Si Si2 0.711213 0.464660 0.868649
Si Si3 0.823805 0.535931 0.593243
Si Si4 0.208790 0.533208 0.733132
Si Si5 0.214228 0.462309 0.959035
Si Si6 0.882471 0.034373 0.783663
Si Si7 0.498945 0.536212 0.425282
Si Si8 0.975074 0.959848 0.925409
O O1 0.435817 0.250000 0.156617
O O2 0.294007 0.533679 0.312376
O O3 0.500000 0.500000 0.000000
O O4 0.559725 0.532938 0.045369
O O5 0.704450 0.250000 0.881318
O O6 0.784174 0.502210 0.714364
O O7 0.792047 0.532210 0.832970
O O8 0.825991 0.750000 0.583540
O O9 0.968108 0.467121 0.404098
O O10 0.209797 0.750000 0.730327
O O11 0.360780 0.470345 0.558509
O O12 0.115748 0.469206 0.784979
O O13 0.129287 0.479769 0.891975
O O14 0.220564 0.250000 0.938455
O O15 0.361796 0.533312 0.768473
O O16 0.174636 0.488791 0.079322
O O17 0.100113 0.535327 0.047230
O O18 0.886254 0.250000 0.774584
O O19 0.500000 0.500000 0.500000
O O20 0.497411 0.750000 0.418279
O O21 0.997761 0.750000 0.886664
#
# Coordination Sequence:
#
# PCOD9158842 Si02
#       8
#     4   4   4   4   4   4   4   4
#     4   8  14  26  45  68  93 118 147 188 236 279
#     4   9  17  30  49  72  96 123 157 198 239 282
#     4   9  17  30  49  72  95 122 158 199 239 282
#     4   9  17  29  50  76  97 120 152 193 240 284
#     4  10  21  35  49  67  97 132 162 196 240 288
#     4  10  21  34  47  67  96 129 163 198 238 284
#     4  10  19  32  51  75  98 123 157 196 239 287
#     4   9  17  31  49  71  98 123 152 193 237 285
#
# _framework density 20.303356999999998
#
# number of rings (size 3 to 8) (size 9 to 14) (size 15 to 20)
#    0.000    2.750    1.250    0.375    0.000    2.000 
#    0.000    1.250    0.000    0.000    0.000    0.000 
#    0.000    0.000    0.000    0.000    0.000    0.000 
#
# Total GULP energy -178380.199976 kJ/mol
# GULP energy per Si atom -5574.381249 kJ/mol
# Density = 2.025715 g / cm^3
# Si number density = 20.303357 Si / 1000 Ang^3
#
#
#
# Elastic Constant Matrix: (Units=GPa)
#
#
# Indices 1 2 3 4 5 6 
#
# 1 57.4473 -6.1587 171.9396 0.0000 -27.3940 0.0000
# 2 -6.1587 55.8004 -0.4126 0.0000 -7.8284 0.0000
# 3 171.9396 -0.4126 136.4910 0.0000 -49.7552 0.0000
# 4 0.0000 0.0000 0.0000 2.4460 0.0000 18.9617
# 5 -27.3940 -7.8284 -49.7552 0.0000 38.5557 0.0000
# 6 0.0000 0.0000 0.0000 18.9617 0.0000 0.2871
#
#
#
# Elastic Compliance Matrix: (Units=1/GPa)
#
#
# Indices 1 2 3 4 5 6 
#
# 1 -0.004517 0.000699 0.008637 0.000000 0.008079 0.000000
# 2 0.000699 0.018874 0.001425 0.000000 0.006168 0.000000
# 3 0.008637 0.001425 -0.002280 0.000000 0.003484 0.000000
# 4 0.000000 0.000000 0.000000 -0.000800 0.000000 0.052841
# 5 0.008079 0.006168 0.003484 0.000000 0.037425 0.000000
# 6 0.000000 0.000000 0.000000 0.052841 0.000000 -0.006816
#
#
# Mechanical properties :
#
#
# Convention : Reuss Voigt Hill
#
# Bulk Modulus (GPa) = 29.76191 64.49724 47.12957
# Shear Modulus (GPa) = 158.41067 13.88244 86.14655
#
# Velocity S-wave (km/s) = 8.84258 2.61770 6.52088
# Velocity P-wave (km/s) = 10.90621 6.40095 8.94197
#
# Compressibility (1/GPa) = 0.03359999
#
# Stress axis : x y z
#
# Youngs Moduli (GPa) = -221.37802 52.98293 -438.66161
#
# Poissons Ratio (x) = -0.03702 3.78890
# Poissons Ratio (y) = 0.15468 0.62523
# Poissons Ratio (z) = 1.91213 -0.07552
#
# Static dielectric constant tensor:
#      x y z
#    x 1.715950 0.000000 -0.076440 
#    y 0.000000 1.740980 0.000000 
#    z -0.076440 0.000000 1.719200 
# 
# From -- ./inp_files/67099.got.cif
#   From: 2010.05.17/outbox.cif.g08.bks.cpg/sg11_34_cif.got.tgz:67099.got - 2010.06.03 12:22:45.
