data_PCOD9158439
_publ_section_title
;
Structure prediction by ZEFSAII (Michael W. Deem and Ramdas Pophale) SiO2 
 PCOD9158439
Probable space group: P 21/M
;
_chemical_formula_sum "Si O2"
_cell_formula_units_Z 32
_cell_length_a 24.077217
_cell_length_b 8.877712
_cell_length_c 21.079082
_cell_angle_alpha 90.000000
_cell_angle_beta 24.120609
_cell_angle_gamma 90.000000
_cell_volume 1841.280110
_symmetry_space_group_name_H-M "P 21/M"
_symmetry_group_IT_number 11
_symmetry_cell_setting 'monoclinic'
loop_
_space_group_symop_operation_xyz
x,y,z
-x,1/2+y,-z
-x,-y,-z
x,1/2-y,z
loop_
_atom_site_type_symbol
_atom_site_label
_atom_site_fract_x
_atom_site_fract_y
_atom_site_fract_z
Si Si1 0.586974 0.069725 0.141369
Si Si2 0.138920 0.069590 0.383213
Si Si3 0.957561 0.069033 0.394812
Si Si4 0.937156 0.068888 0.270248
Si Si5 0.464389 0.930854 0.604766
Si Si6 0.240468 0.068709 0.924544
Si Si7 0.662564 0.929913 0.514036
Si Si8 0.737320 0.569807 0.873316
O O1 0.600972 0.250000 0.131643
O O2 0.690971 0.992283 0.082318
O O3 0.625412 0.013855 0.031567
O O4 0.437452 0.028792 0.323213
O O5 0.127360 0.250000 0.396617
O O6 0.251985 0.030976 0.212478
O O7 0.144013 0.005473 0.448684
O O8 0.000000 0.000000 0.500000
O O9 0.945034 0.250000 0.412130
O O10 0.933680 0.020186 0.347661
O O11 0.113576 0.033300 0.252247
O O12 0.932601 0.250000 0.274942
O O13 0.082473 0.024627 0.089761
O O14 0.807404 0.006037 0.369565
O O15 0.454752 0.750000 0.611494
O O16 0.580542 0.969287 0.535620
O O17 0.500000 0.000000 0.500000
O O18 0.326162 0.998519 0.777894
O O19 0.250480 0.250000 0.913337
O O20 0.679112 0.750000 0.497664
O O21 0.719430 0.750000 0.897900
#
# Coordination Sequence:
#
# PCOD9158439 Si02
#       8
#     4   4   4   4   4   4   4   4
#     4  10  19  31  49  75 103 134 176 220 263 311
#     4   9  17  27  40  64  96 131 170 214 264 315
#     4   9  17  30  45  68 101 132 168 215 262 311
#     4  10  20  34  53  78 107 139 175 213 259 312
#     4  10  21  39  61  86 111 139 175 210 250 300
#     4  10  19  34  55  80 109 138 172 215 256 299
#     4   9  21  37  52  77 110 136 168 214 255 302
#     4   9  16  28  45  67  99 131 168 220 267 310
#
# _framework density 17.379214000000001
#
# number of rings (size 3 to 8) (size 9 to 14) (size 15 to 20)
#    0.000    2.500    1.250    3.000    0.000    7.000 
#    0.000    0.625    0.000    0.750    0.000    0.000 
#    0.000    0.000    0.000    0.000    0.000    0.000 
#
# Total GULP energy -178408.254714 kJ/mol
# GULP energy per Si atom -5575.257960 kJ/mol
# Density = 1.733966 g / cm^3
# Si number density = 17.379214 Si / 1000 Ang^3
#
#
#
# Elastic Constant Matrix: (Units=GPa)
#
#
# Indices 1 2 3 4 5 6 
#
# 1 78.1671 33.9950 73.8504 0.0000 23.4879 0.0000
# 2 33.9950 40.5768 47.4067 0.0000 9.1155 0.0000
# 3 73.8504 47.4067 138.7172 0.0000 16.1976 0.0000
# 4 0.0000 0.0000 0.0000 28.3991 0.0000 3.3780
# 5 23.4879 9.1155 16.1976 0.0000 34.6243 0.0000
# 6 0.0000 0.0000 0.0000 3.3780 0.0000 24.7338
#
#
#
# Elastic Compliance Matrix: (Units=1/GPa)
#
#
# Indices 1 2 3 4 5 6 
#
# 1 0.033355 -0.009917 -0.012727 0.000000 -0.014063 0.000000
# 2 -0.009917 0.044643 -0.009933 0.000000 -0.000379 0.000000
# 3 -0.012727 -0.009933 0.016994 0.000000 0.003298 0.000000
# 4 0.000000 0.000000 0.000000 0.035794 0.000000 -0.004888
# 5 -0.014063 -0.000379 0.003298 0.000000 0.036978 0.000000
# 6 0.000000 0.000000 0.000000 -0.004888 0.000000 0.041098
#
#
# Mechanical properties :
#
#
# Convention : Reuss Voigt Hill
#
# Bulk Modulus (GPa) = 33.51303 63.10725 48.31014
# Shear Modulus (GPa) = 17.60801 24.36535 20.98668
#
# Velocity S-wave (km/s) = 3.18648 3.74837 3.47879
# Velocity P-wave (km/s) = 5.73267 7.42458 6.63279
#
# Compressibility (1/GPa) = 0.02983914
#
# Stress axis : x y z
#
# Youngs Moduli (GPa) = 29.98008 22.39990 58.84526
#
# Poissons Ratio (x) = 0.22214 0.74890
# Poissons Ratio (y) = 0.29732 0.58450
# Poissons Ratio (z) = 0.38154 0.22250
#
# Static dielectric constant tensor:
#      x y z
#    x 1.588040 0.000000 0.024140 
#    y 0.000000 1.580410 0.000000 
#    z 0.024140 0.000000 1.592680 
# 
# From -- ./inp_files/70332.got.cif
#   From: 2010.05.17/outbox.cif.g08.bks.cpg/sg11_36_cif.got.tgz:70332.got - 2010.06.03 12:22:45.
