data_PCOD9158996
_publ_section_title
;
Structure prediction by ZEFSAII (Michael W. Deem and Ramdas Pophale) SiO2 
 PCOD9158996
Probable space group: P 21/M
;
_chemical_formula_sum "Si O2"
_cell_formula_units_Z 32
_cell_length_a 12.773918
_cell_length_b 9.079926
_cell_length_c 31.750412
_cell_angle_alpha 90.000000
_cell_angle_beta 26.333743
_cell_angle_gamma 90.000000
_cell_volume 1633.602666
_symmetry_space_group_name_H-M "P 21/M"
_symmetry_group_IT_number 11
_symmetry_cell_setting 'monoclinic'
loop_
_space_group_symop_operation_xyz
x,y,z
-x,1/2+y,-z
-x,-y,-z
x,1/2-y,z
loop_
_atom_site_type_symbol
_atom_site_label
_atom_site_fract_x
_atom_site_fract_y
_atom_site_fract_z
Si Si1 0.052800 0.073210 0.764061
Si Si2 0.118998 0.925063 0.081714
Si Si3 0.586128 0.426321 0.576766
Si Si4 0.955685 0.076820 0.603261
Si Si5 0.624924 0.575587 0.871272
Si Si6 0.493611 0.576781 0.173625
Si Si7 0.657270 0.921536 0.641160
Si Si8 0.794474 0.079822 0.133529
O O1 0.023613 0.250000 0.772358
O O2 0.002830 0.029305 0.830669
O O3 0.323350 0.038147 0.655476
O O4 0.859442 0.997719 0.804709
O O5 0.078217 0.750000 0.090731
O O6 0.398925 0.950406 0.982839
O O7 0.009227 0.007962 0.081393
O O8 0.609351 0.250000 0.570795
O O9 0.608045 0.495925 0.615453
O O10 0.801103 0.496126 0.473262
O O11 0.996024 0.250000 0.582651
O O12 0.746972 0.059576 0.712352
O O13 0.857504 0.002888 0.595999
O O14 0.657643 0.750000 0.855292
O O15 0.550263 0.506927 0.853775
O O16 0.534029 0.750000 0.152294
O O17 0.704581 0.507977 0.125182
O O18 0.717064 0.750000 0.612667
O O19 0.423821 0.926287 0.754571
O O20 0.840213 0.250000 0.106616
#
# Coordination Sequence:
#
# PCOD9158996 Si02
#       8
#     4   4   4   4   4   4   4   4
#     4  10  22  40  61  85 118 154 191 234 286 348
#     4  10  21  39  61  88 120 152 188 234 292 350
#     4  11  21  34  56  84 115 152 189 232 284 340
#     4  10  21  36  56  82 113 151 192 235 283 339
#     4  11  24  40  62  87 113 150 196 245 290 338
#     4  10  22  41  62  82 115 158 196 237 288 344
#     4  10  19  32  52  82 119 153 187 231 282 340
#     4  10  20  34  58  90 120 152 191 239 287 337
#
# _framework density 19.588608000000001
#
# number of rings (size 3 to 8) (size 9 to 14) (size 15 to 20)
#    0.000    1.750    1.250    3.000    0.000    5.500 
#    0.000    0.625    0.000    0.000    0.000    0.000 
#    0.000    0.000    0.000    0.000    0.000    0.000 
#
# Total GULP energy -178878.351157 kJ/mol
# GULP energy per Si atom -5589.948474 kJ/mol
# Density = 1.954402 g / cm^3
# Si number density = 19.588608 Si / 1000 Ang^3
#
#
#
# Elastic Constant Matrix: (Units=GPa)
#
#
# Indices 1 2 3 4 5 6 
#
# 1 86.8813 33.7053 24.6859 0.0000 -25.1076 0.0000
# 2 33.7053 72.4348 37.7006 0.0000 -22.5254 0.0000
# 3 24.6859 37.7006 61.6831 0.0000 -24.4107 0.0000
# 4 0.0000 0.0000 0.0000 21.6639 0.0000 0.8060
# 5 -25.1076 -22.5254 -24.4107 0.0000 29.1693 0.0000
# 6 0.0000 0.0000 0.0000 0.8060 0.0000 31.5979
#
#
#
# Elastic Compliance Matrix: (Units=1/GPa)
#
#
# Indices 1 2 3 4 5 6 
#
# 1 0.016259 -0.004426 0.000574 0.000000 0.011058 0.000000
# 2 -0.004426 0.022744 -0.009998 0.000000 0.005387 0.000000
# 3 0.000574 -0.009998 0.028757 0.000000 0.016839 0.000000
# 4 0.000000 0.000000 0.000000 0.046204 0.000000 -0.001179
# 5 0.011058 0.005387 0.016839 0.000000 0.062053 0.000000
# 6 0.000000 0.000000 0.000000 -0.001179 0.000000 0.031678
#
#
# Mechanical properties :
#
#
# Convention : Reuss Voigt Hill
#
# Bulk Modulus (GPa) = 24.96201 45.90920 35.43560
# Shear Modulus (GPa) = 20.10074 24.81339 22.45706
#
# Velocity S-wave (km/s) = 3.20682 3.56297 3.38958
# Velocity P-wave (km/s) = 5.14611 6.35719 5.78344
#
# Compressibility (1/GPa) = 0.04006088
#
# Stress axis : x y z
#
# Youngs Moduli (GPa) = 61.50252 43.96792 34.77446
#
# Poissons Ratio (x) = 0.19460 -0.01997
# Poissons Ratio (y) = 0.27220 0.34767
# Poissons Ratio (z) = -0.03531 0.43959
#
# Static dielectric constant tensor:
#      x y z
#    x 1.637430 0.000000 0.001940 
#    y 0.000000 1.650740 0.000000 
#    z 0.001940 0.000000 1.733430 
# 
# From -- ./inp_files/69032.got.cif
#   From: 2010.05.17/outbox.cif.g08.bks.cpg/sg11_35_cif.got.tgz:69032.got - 2010.06.03 12:22:45.
