data_PCOD9158075
_publ_section_title
;
Structure prediction by ZEFSAII (Michael W. Deem and Ramdas Pophale) SiO2 
 PCOD9158075
Probable space group: P 21/M
;
_chemical_formula_sum "Si O2"
_cell_formula_units_Z 32
_cell_length_a 16.146936
_cell_length_b 8.653735
_cell_length_c 14.698242
_cell_angle_alpha 90.000000
_cell_angle_beta 91.083898
_cell_angle_gamma 90.000000
_cell_volume 2053.437047
_symmetry_space_group_name_H-M "P 21/M"
_symmetry_group_IT_number 11
_symmetry_cell_setting 'monoclinic'
loop_
_space_group_symop_operation_xyz
x,y,z
-x,1/2+y,-z
-x,-y,-z
x,1/2-y,z
loop_
_atom_site_type_symbol
_atom_site_label
_atom_site_fract_x
_atom_site_fract_y
_atom_site_fract_z
Si Si1 0.829312 0.563489 0.611733
Si Si2 0.658789 0.434725 0.288378
Si Si3 0.667332 0.561744 0.715560
Si Si4 0.591482 0.936748 0.900365
Si Si5 0.496378 0.063190 0.398195
Si Si6 0.406252 0.065087 0.894404
Si Si7 0.001838 0.065062 0.602559
Si Si8 0.184854 0.063856 0.601507
O O1 0.832921 0.750000 0.613080
O O2 0.752797 0.510004 0.671818
O O3 0.918460 0.500452 0.644851
O O4 0.813586 0.518349 0.505593
O O5 0.657449 0.250000 0.284961
O O6 0.577096 0.486498 0.342879
O O7 0.650353 0.499374 0.186536
O O8 0.740290 0.490896 0.341873
O O9 0.668657 0.750000 0.714074
O O10 0.650595 0.514073 0.819136
O O11 0.587839 0.513698 0.654190
O O12 0.585043 0.750000 0.897453
O O13 0.499606 0.002724 0.882333
O O14 0.618051 0.981090 0.002982
O O15 0.496254 0.250000 0.401008
O O16 0.500000 0.000000 0.500000
O O17 0.407084 0.250000 0.889639
O O18 0.997402 0.250000 0.599799
O O19 0.093756 0.022228 0.638683
O O20 0.000000 0.000000 0.500000
O O21 0.192547 0.250000 0.604426
#
# Coordination Sequence:
#
# PCOD9158075 Si02
#       8
#     4   4   4   4   4   4   4   4
#     4   9  17  29  48  70  93 124 155 188 228 272
#     4  11  21  32  47  66  91 124 157 192 231 273
#     4   9  16  30  48  65  91 124 154 185 225 273
#     4   9  17  32  50  67  90 120 156 194 234 277
#     4  10  20  32  44  60  89 126 157 185 219 262
#     4  10  19  30  48  69  90 119 154 197 238 273
#     4   9  17  30  47  66  92 122 152 192 233 271
#     4   9  18  31  46  66  93 123 155 189 227 270
#
# _framework density 15.583629
#
# number of rings (size 3 to 8) (size 9 to 14) (size 15 to 20)
#    0.000    2.500    1.250    2.625    0.000    5.000 
#    0.000    1.250    0.000    0.000    0.000    0.875 
#    0.000    0.000    0.000    0.000    0.000    0.000 
#
# Total GULP energy -178339.192577 kJ/mol
# GULP energy per Si atom -5573.099768 kJ/mol
# Density = 1.554816 g / cm^3
# Si number density = 15.583629 Si / 1000 Ang^3
#
#
#
# Elastic Constant Matrix: (Units=GPa)
#
#
# Indices 1 2 3 4 5 6 
#
# 1 143.3690 27.8415 70.0323 0.0000 -15.0341 0.0000
# 2 27.8415 13.7983 23.0372 0.0000 -0.1715 0.0000
# 3 70.0323 23.0372 108.4968 0.0000 -10.9964 0.0000
# 4 0.0000 0.0000 0.0000 19.2930 0.0000 3.1622
# 5 -15.0341 -0.1715 -10.9964 0.0000 11.2931 0.0000
# 6 0.0000 0.0000 0.0000 3.1622 0.0000 25.4200
#
#
#
# Elastic Compliance Matrix: (Units=1/GPa)
#
#
# Indices 1 2 3 4 5 6 
#
# 1 0.015029 -0.026080 -0.002414 0.000000 0.017261 0.000000
# 2 -0.026080 0.163642 -0.023498 0.000000 -0.055115 0.000000
# 3 -0.002414 -0.023498 0.017089 0.000000 0.013070 0.000000
# 4 0.000000 0.000000 0.000000 0.052911 0.000000 -0.006582
# 5 0.017261 -0.055115 0.013070 0.000000 0.123417 0.000000
# 6 0.000000 0.000000 0.000000 -0.006582 0.000000 0.040158
#
#
# Mechanical properties :
#
#
# Convention : Reuss Voigt Hill
#
# Bulk Modulus (GPa) = 10.89606 56.38734 33.64170
# Shear Modulus (GPa) = 9.14375 20.85142 14.99759
#
# Velocity S-wave (km/s) = 2.42493 3.66188 3.10561
# Velocity P-wave (km/s) = 3.85325 7.35809 5.87320
#
# Compressibility (1/GPa) = 0.09177629
#
# Stress axis : x y z
#
# Youngs Moduli (GPa) = 66.53994 6.11090 58.51734
#
# Poissons Ratio (x) = 0.15937 0.14125
# Poissons Ratio (y) = 1.73533 1.37507
# Poissons Ratio (z) = 0.16061 0.14360
#
# Static dielectric constant tensor:
#      x y z
#    x 1.522700 0.000000 -0.013360 
#    y 0.000000 1.529570 0.000000 
#    z -0.013360 0.000000 1.511830 
# 
# From -- ./inp_files/51192.got.cif
#   From: 2010.05.17/outbox.cif.g08.bks.cpg/sg11_26_cif.got.tgz:51192.got - 2010.06.03 12:22:45.
