data_PCOD9158317
_publ_section_title
;
Structure prediction by ZEFSAII (Michael W. Deem and Ramdas Pophale) SiO2 
 PCOD9158317
Probable space group: P 21/M
;
_chemical_formula_sum "Si O2"
_cell_formula_units_Z 28
_cell_length_a 20.404998
_cell_length_b 8.388967
_cell_length_c 18.832588
_cell_angle_alpha 90.000000
_cell_angle_beta 28.851696
_cell_angle_gamma 90.000000
_cell_volume 1555.579077
_symmetry_space_group_name_H-M "P 21/M"
_symmetry_group_IT_number 11
_symmetry_cell_setting 'monoclinic'
loop_
_space_group_symop_operation_xyz
x,y,z
-x,1/2+y,-z
-x,-y,-z
x,1/2-y,z
loop_
_atom_site_type_symbol
_atom_site_label
_atom_site_fract_x
_atom_site_fract_y
_atom_site_fract_z
Si Si1 0.907044 0.062001 0.195807
Si Si2 0.482001 0.941851 0.597188
Si Si3 0.646113 0.555475 0.709360
Si Si4 0.600482 0.058948 0.967029
Si Si5 0.706208 0.940987 0.494398
Si Si6 0.181422 0.942167 0.876472
Si Si7 0.155847 0.059157 0.349837
O O1 0.886400 0.250000 0.221555
O O2 0.833605 0.007258 0.192092
O O3 0.846402 0.980482 0.322547
O O4 0.062759 0.021298 0.033624
O O5 0.491552 0.750000 0.586584
O O6 0.592081 0.004151 0.548195
O O7 0.329346 0.984091 0.763810
O O8 0.500000 0.000000 0.500000
O O9 0.649460 0.750000 0.707124
O O10 0.687081 0.498712 0.592348
O O11 0.755689 0.503830 0.665164
O O12 0.490983 0.511135 0.877923
O O13 0.609358 0.250000 0.957430
O O14 0.749964 0.993170 0.806617
O O15 0.500000 0.000000 0.000000
O O16 0.691918 0.750000 0.511377
O O17 0.164083 0.750000 0.894183
O O18 0.152624 0.250000 0.353890
O O19 0.000000 0.000000 0.500000
#
# Coordination Sequence:
#
# PCOD9158317 Si02
#       7
#     4   4   4   4   4   4   4
#     4  10  19  31  48  70  97 128 164 208 255 299
#     4  10  19  31  50  73  96 123 162 209 251 293
#     4   8  17  33  52  75 102 133 169 204 245 302
#     4   9  16  30  52  76 104 136 171 210 248 297
#     4  10  19  33  53  74  98 132 169 206 253 305
#     4   9  18  32  47  67  95 126 165 208 251 302
#     4  10  19  33  54  80 107 135 170 211 252 302
#
# _framework density 17.999728999999999
#
# number of rings (size 3 to 8) (size 9 to 14) (size 15 to 20)
#    0.000    2.571    1.429    2.143    0.000    1.143 
#    0.000    5.714    0.000    5.143    0.000    0.000 
#    0.000    0.000    0.000    0.000    0.000    0.000 
#
# Total GULP energy -155963.414137 kJ/mol
# GULP energy per Si atom -5570.121933 kJ/mol
# Density = 1.795876 g / cm^3
# Si number density = 17.999729 Si / 1000 Ang^3
#
#
#
# Elastic Constant Matrix: (Units=GPa)
#
#
# Indices 1 2 3 4 5 6 
#
# 1 64.7985 12.8708 61.5749 0.0000 7.5232 0.0000
# 2 12.8708 17.9165 21.5382 0.0000 -0.9217 0.0000
# 3 61.5749 21.5382 156.3633 0.0000 7.5660 0.0000
# 4 0.0000 0.0000 0.0000 28.5355 0.0000 -2.1500
# 5 7.5232 -0.9217 7.5660 0.0000 32.0315 0.0000
# 6 0.0000 0.0000 0.0000 -2.1500 0.0000 15.3936
#
#
#
# Elastic Compliance Matrix: (Units=1/GPa)
#
#
# Indices 1 2 3 4 5 6 
#
# 1 0.026023 -0.008198 -0.008913 0.000000 -0.004243 0.000000
# 2 -0.008198 0.070023 -0.006684 0.000000 0.005519 0.000000
# 3 -0.008913 -0.006684 0.010858 0.000000 -0.000664 0.000000
# 4 0.000000 0.000000 0.000000 0.035417 0.000000 0.004947
# 5 -0.004243 0.005519 -0.000664 0.000000 0.032531 0.000000
# 6 0.000000 0.000000 0.000000 0.004947 0.000000 0.065653
#
#
# Mechanical properties :
#
#
# Convention : Reuss Voigt Hill
#
# Bulk Modulus (GPa) = 16.85943 47.89400 32.37672
# Shear Modulus (GPa) = 16.24082 24.73176 20.48629
#
# Velocity S-wave (km/s) = 3.00706 3.71078 3.37730
# Velocity P-wave (km/s) = 4.63070 6.71013 5.76494
#
# Compressibility (1/GPa) = 0.05931399
#
# Stress axis : x y z
#
# Youngs Moduli (GPa) = 38.42726 14.28107 92.09646
#
# Poissons Ratio (x) = 0.11707 0.82088
# Poissons Ratio (y) = 0.31501 0.61559
# Poissons Ratio (z) = 0.34251 0.09546
#
# Static dielectric constant tensor:
#      x y z
#    x 1.623020 0.000000 -0.000280 
#    y 0.000000 1.619440 0.000000 
#    z -0.000280 0.000000 1.637330 
# 
# From -- ./inp_files/61242.got.cif
#   From: 2010.05.17/outbox.cif.g08.bks.cpg/sg11_31_cif.got.tgz:61242.got - 2010.06.03 12:22:45.
