data_PCOD9158779
_publ_section_title
;
Structure prediction by ZEFSAII (Michael W. Deem and Ramdas Pophale) SiO2 
 PCOD9158779
Probable space group: P 21/M
;
_chemical_formula_sum "Si O2"
_cell_formula_units_Z 32
_cell_length_a 27.352912
_cell_length_b 8.727374
_cell_length_c 12.614112
_cell_angle_alpha 90.000000
_cell_angle_beta 139.951116
_cell_angle_gamma 90.000000
_cell_volume 1937.548304
_symmetry_space_group_name_H-M "P 21/M"
_symmetry_group_IT_number 11
_symmetry_cell_setting 'monoclinic'
loop_
_space_group_symop_operation_xyz
x,y,z
-x,1/2+y,-z
-x,-y,-z
x,1/2-y,z
loop_
_atom_site_type_symbol
_atom_site_label
_atom_site_fract_x
_atom_site_fract_y
_atom_site_fract_z
Si Si1 0.183154 0.432939 0.771262
Si Si2 0.660281 0.433061 0.896972
Si Si3 0.076585 0.566988 0.417903
Si Si4 0.087901 0.932644 0.809549
Si Si5 0.178459 0.069305 0.156334
Si Si6 0.074447 0.432688 0.180576
Si Si7 0.497650 0.433806 0.377040
Si Si8 0.333858 0.933206 0.346341
O O1 0.179997 0.250000 0.765878
O O2 0.143242 0.499844 0.600938
O O3 0.136100 0.497231 0.793497
O O4 0.269299 0.489933 0.927612
O O5 0.663041 0.250000 0.912265
O O6 0.578344 0.495236 0.797975
O O7 0.668487 0.467961 0.784117
O O8 0.075328 0.750000 0.421722
O O9 0.084633 0.512180 0.310336
O O10 0.996427 0.501530 0.327224
O O11 0.084660 0.750000 0.793216
O O12 0.130000 0.977417 0.988547
O O13 0.169706 0.250000 0.118677
O O14 0.143690 0.040807 0.214376
O O15 0.265542 0.020132 0.288906
O O16 0.065127 0.250000 0.180089
O O17 0.000000 0.500000 0.000000
O O18 0.500000 0.500000 0.500000
O O19 0.491237 0.250000 0.370587
O O20 0.581425 0.471332 0.471702
O O21 0.322921 0.750000 0.338280
#
# Coordination Sequence:
#
# PCOD9158779 Si02
#       8
#     4   4   4   4   4   4   4   4
#     4  12  24  38  56  79 109 144 182 222 269 322
#     4  10  19  32  50  76 108 143 178 216 264 319
#     4  12  25  41  58  78 105 140 185 228 272 321
#     4  12  23  37  56  78 109 143 180 222 269 321
#     4  11  22  34  54  81 108 141 182 222 269 320
#     4  11  23  39  58  80 106 139 182 228 273 321
#     4   9  17  29  46  71 104 142 179 216 260 317
#     4   9  18  31  49  74 108 142 178 218 264 315
#
# _framework density 16.515718
#
# number of rings (size 3 to 8) (size 9 to 14) (size 15 to 20)
#    0.000    1.250    2.500    6.000    0.000    4.000 
#    0.000    0.000    0.000    0.000    0.000    0.875 
#    0.000    0.000    0.000    0.000    0.000    0.000 
#
# Total GULP energy -178770.144562 kJ/mol
# GULP energy per Si atom -5586.567018 kJ/mol
# Density = 1.647813 g / cm^3
# Si number density = 16.515718 Si / 1000 Ang^3
#
#
#
# Elastic Constant Matrix: (Units=GPa)
#
#
# Indices 1 2 3 4 5 6 
#
# 1 46.8688 41.7160 57.9386 0.0000 23.4237 0.0000
# 2 41.7160 116.8219 65.9122 0.0000 15.8833 0.0000
# 3 57.9386 65.9122 135.0385 0.0000 20.0394 0.0000
# 4 0.0000 0.0000 0.0000 29.8635 0.0000 5.1272
# 5 23.4237 15.8833 20.0394 0.0000 29.0593 0.0000
# 6 0.0000 0.0000 0.0000 5.1272 0.0000 25.2449
#
#
#
# Elastic Compliance Matrix: (Units=1/GPa)
#
#
# Indices 1 2 3 4 5 6 
#
# 1 0.080711 -0.009667 -0.023439 0.000000 -0.043611 0.000000
# 2 -0.009667 0.013174 -0.002640 0.000000 0.002413 0.000000
# 3 -0.023439 -0.002640 0.017526 0.000000 0.008250 0.000000
# 4 0.000000 0.000000 0.000000 0.034696 0.000000 -0.007047
# 5 -0.043611 0.002413 0.008250 0.000000 0.062557 0.000000
# 6 0.000000 0.000000 0.000000 -0.007047 0.000000 0.041043
#
#
# Mechanical properties :
#
#
# Convention : Reuss Voigt Hill
#
# Bulk Modulus (GPa) = 25.05147 69.98477 47.51812
# Shear Modulus (GPa) = 14.94742 25.71103 20.32922
#
# Velocity S-wave (km/s) = 3.01166 3.94986 3.51223
# Velocity P-wave (km/s) = 5.22442 7.95415 6.72916
#
# Compressibility (1/GPa) = 0.03991781
#
# Stress axis : x y z
#
# Youngs Moduli (GPa) = 12.38991 75.90795 57.05721
#
# Poissons Ratio (x) = 0.73382 1.33736
# Poissons Ratio (y) = 0.11978 0.15066
# Poissons Ratio (z) = 0.29041 0.20043
#
# Static dielectric constant tensor:
#      x y z
#    x 1.546230 0.000000 0.021340 
#    y 0.000000 1.550300 0.000000 
#    z 0.021340 0.000000 1.543610 
# 
# From -- ./inp_files/44537.got.cif
#   From: 2010.05.17/outbox.cif.g08.bks.cpg/sg11_23_cif.got.tgz:44537.got - 2010.06.03 12:22:45.
