data_PCOD9158953
_publ_section_title
;
Structure prediction by ZEFSAII (Michael W. Deem and Ramdas Pophale) SiO2 
 PCOD9158953
Probable space group: P 21/M
;
_chemical_formula_sum "Si O2"
_cell_formula_units_Z 24
_cell_length_a 29.569296
_cell_length_b 8.754652
_cell_length_c 12.457329
_cell_angle_alpha 90.000000
_cell_angle_beta 26.099179
_cell_angle_gamma 90.000000
_cell_volume 1418.680941
_symmetry_space_group_name_H-M "P 21/M"
_symmetry_group_IT_number 11
_symmetry_cell_setting 'monoclinic'
loop_
_space_group_symop_operation_xyz
x,y,z
-x,1/2+y,-z
-x,-y,-z
x,1/2-y,z
loop_
_atom_site_type_symbol
_atom_site_label
_atom_site_fract_x
_atom_site_fract_y
_atom_site_fract_z
Si Si1 0.808734 0.430247 0.089245
Si Si2 0.608652 0.433784 0.891323
Si Si3 0.158358 0.430868 0.214165
Si Si4 0.370445 0.068027 0.386274
Si Si5 0.016266 0.929320 0.684279
Si Si6 0.761271 0.067547 0.755497
O O1 0.805960 0.250000 0.079067
O O2 0.711418 0.486378 0.363758
O O3 0.813959 0.512552 0.962582
O O4 0.914148 0.477557 0.924895
O O5 0.617149 0.250000 0.859465
O O6 0.641449 0.513655 0.711152
O O7 0.680334 0.478103 0.838223
O O8 0.488454 0.469142 0.166181
O O9 0.140892 0.250000 0.252627
O O10 0.060261 0.518927 0.474148
O O11 0.244277 0.477791 0.120050
O O12 0.356984 0.250000 0.422162
O O13 0.992812 0.750000 0.734086
O O14 0.119236 0.956952 0.535119
O O15 0.751340 0.250000 0.797113
#
# Coordination Sequence:
#
# PCOD9158953 Si02
#       6
#     4   4   4   4   4   4
#     4  12  22  34  51  76 109 140 177 215 255 305
#     4   9  18  38  60  78 102 134 174 215 260 311
#     4  10  19  32  52  79 108 139 173 209 257 309
#     4  10  21  35  56  81 104 134 173 218 262 305
#     4   9  18  33  53  78 107 139 172 208 256 308
#     4   8  17  33  55  78 103 138 173 209 254 309
#
# _framework density 16.917123
#
# number of rings (size 3 to 8) (size 9 to 14) (size 15 to 20)
#    1.000    1.333    0.000    4.000    0.000    1.333 
#    0.000    1.667    0.000    0.000    0.000    0.000 
#    0.000    0.000    0.000    0.000    0.000    0.000 
#
# Total GULP energy -133644.973790 kJ/mol
# GULP energy per Si atom -5568.540575 kJ/mol
# Density = 1.687862 g / cm^3
# Si number density = 16.917123 Si / 1000 Ang^3
#
#
#
# Elastic Constant Matrix: (Units=GPa)
#
#
# Indices 1 2 3 4 5 6 
#
# 1 76.9288 7.6553 19.7598 0.0000 -25.0867 0.0000
# 2 7.6553 44.3766 18.8211 0.0000 -2.0897 0.0000
# 3 19.7598 18.8211 79.0229 0.0000 1.6542 0.0000
# 4 0.0000 0.0000 0.0000 18.8082 0.0000 5.8685
# 5 -25.0867 -2.0897 1.6542 0.0000 15.5692 0.0000
# 6 0.0000 0.0000 0.0000 5.8685 0.0000 24.7000
#
#
#
# Elastic Compliance Matrix: (Units=1/GPa)
#
#
# Indices 1 2 3 4 5 6 
#
# 1 0.033227 0.000949 -0.009679 0.000000 0.054694 0.000000
# 2 0.000949 0.025346 -0.006391 0.000000 0.005610 0.000000
# 3 -0.009679 -0.006391 0.016979 0.000000 -0.018258 0.000000
# 4 0.000000 0.000000 0.000000 0.057425 0.000000 -0.013644
# 5 0.054694 0.005610 -0.018258 0.000000 0.155051 0.000000
# 6 0.000000 0.000000 0.000000 -0.013644 0.000000 0.043728
#
#
# Mechanical properties :
#
#
# Convention : Reuss Voigt Hill
#
# Bulk Modulus (GPa) = 22.07111 32.53343 27.30227
# Shear Modulus (GPa) = 13.25903 22.08828 17.67365
#
# Velocity S-wave (km/s) = 2.80262 3.61733 3.23572
# Velocity P-wave (km/s) = 4.85261 6.05967 5.48942
#
# Compressibility (1/GPa) = 0.04530809
#
# Stress axis : x y z
#
# Youngs Moduli (GPa) = 30.09628 39.45459 58.89496
#
# Poissons Ratio (x) = -0.03744 0.57007
# Poissons Ratio (y) = -0.02856 0.37642
# Poissons Ratio (z) = 0.29131 0.25217
#
# Static dielectric constant tensor:
#      x y z
#    x 1.584600 0.000000 -0.036650 
#    y 0.000000 1.568980 0.000000 
#    z -0.036650 0.000000 1.559990 
# 
# From -- ./inp_files/44443.got.cif
#   From: 2010.05.17/outbox.cif.g08.bks.cpg/sg11_23_cif.got.tgz:44443.got - 2010.06.03 12:22:45.
