data_PCOD9158552
_publ_section_title
;
Structure prediction by ZEFSAII (Michael W. Deem and Ramdas Pophale) SiO2 
 PCOD9158552
Probable space group: P 21/M
;
_chemical_formula_sum "Si O2"
_cell_formula_units_Z 28
_cell_length_a 31.980653
_cell_length_b 7.715550
_cell_length_c 31.980653
_cell_angle_alpha 90.000000
_cell_angle_beta 9.649242
_cell_angle_gamma 90.000000
_cell_volume 1322.687459
_symmetry_space_group_name_H-M "P 21/M"
_symmetry_group_IT_number 11
_symmetry_cell_setting 'monoclinic'
loop_
_space_group_symop_operation_xyz
x,y,z
-x,1/2+y,-z
-x,-y,-z
x,1/2-y,z
loop_
_atom_site_type_symbol
_atom_site_label
_atom_site_fract_x
_atom_site_fract_y
_atom_site_fract_z
Si Si1 0.189330 0.047509 0.689332
Si Si2 0.380955 0.961946 0.880959
Si Si3 0.904062 0.958651 0.404067
Si Si4 0.332255 0.962843 0.832253
Si Si5 0.762643 0.453795 0.262643
Si Si6 0.475486 0.041389 0.975431
Si Si7 0.046840 0.958185 0.546895
O O1 0.183454 0.250000 0.683456
O O2 0.431977 0.974347 0.427009
O O3 0.214379 0.036760 0.714380
O O4 0.927006 0.974347 0.931981
O O5 0.381427 0.750000 0.881431
O O6 0.356612 0.012467 0.856611
O O7 0.641999 0.021329 0.643445
O O8 0.143437 0.021329 0.142006
O O9 0.902225 0.750000 0.402231
O O10 0.928542 0.002468 0.428534
O O11 0.331436 0.750000 0.831433
O O12 0.500000 0.500000 0.500000
O O13 0.765980 0.250000 0.265980
O O14 0.000000 0.500000 0.000000
O O15 0.473350 0.250000 0.973288
O O16 0.714161 0.975026 0.714346
O O17 0.214415 0.975026 0.214086
O O18 0.500000 0.000000 0.000000
O O19 0.044440 0.750000 0.544502
#
# Coordination Sequence:
#
# PCOD9158552 Si02
#       7
#     4   4   4   4   4   4   4
#     4  10  19  33  55  82 109 143 186 228 276 335
#     4   9  17  30  49  77 107 135 174 223 265 303
#     4  10  19  31  51  76 102 134 175 218 258 302
#     4   9  17  30  52  79 108 141 178 223 273 324
#     4  12  25  42  63  88 120 157 196 243 295 348
#     4  10  21  36  54  75  99 130 165 206 252 304
#     4  10  21  36  52  73 103 134 165 203 255 310
#
# _framework density 21.16902
#
# number of rings (size 3 to 8) (size 9 to 14) (size 15 to 20)
#    0.000    2.000    0.000    4.286    0.000    5.714 
#    0.000    0.000    0.000    5.143    0.000    0.000 
#    0.000    0.000    0.000    0.000    0.000    0.000 
#
# Total GULP energy -156515.423256 kJ/mol
# GULP energy per Si atom -5589.836545 kJ/mol
# Density = 2.112084 g / cm^3
# Si number density = 21.169020 Si / 1000 Ang^3
#
#
#
# Elastic Constant Matrix: (Units=GPa)
#
#
# Indices 1 2 3 4 5 6 
#
# 1 203.8865 -22.6669 149.0743 0.0000 -4.0283 0.0000
# 2 -22.6669 32.8826 6.4974 0.0000 -2.5714 0.0000
# 3 149.0743 6.4974 274.0856 0.0000 -2.1458 0.0000
# 4 0.0000 0.0000 0.0000 0.1513 0.0000 2.0338
# 5 -4.0283 -2.5714 -2.1458 0.0000 50.1256 0.0000
# 6 0.0000 0.0000 0.0000 2.0338 0.0000 23.2490
#
#
#
# Elastic Compliance Matrix: (Units=1/GPa)
#
#
# Indices 1 2 3 4 5 6 
#
# 1 0.009866 0.007973 -0.005548 0.000000 0.000964 0.000000
# 2 0.007973 0.037116 -0.005198 0.000000 0.002322 0.000000
# 3 -0.005548 -0.005198 0.006786 0.000000 -0.000422 0.000000
# 4 0.000000 0.000000 0.000000-37.593666 0.000000 3.288703
# 5 0.000964 0.002322 -0.000422 0.000000 0.020128 0.000000
# 6 0.000000 0.000000 0.000000 3.288703 0.000000 -0.244684
#
#
# Mechanical properties :
#
#
# Convention : Reuss Voigt Hill
#
# Bulk Modulus (GPa) = 20.73738 86.29604 53.51671
# Shear Modulus (GPa) = -0.13248 39.90185 19.88469
#
# Velocity S-wave (km/s) = -0.25043 4.34627 3.06817
# Velocity P-wave (km/s) = 3.11989 8.12653 6.15525
#
# Compressibility (1/GPa) = 0.04822209
#
# Stress axis : x y z
#
# Youngs Moduli (GPa) = 101.35353 26.94267 147.36570
#
# Poissons Ratio (x) = -0.21481 0.81755
# Poissons Ratio (y) = -0.80808 0.76602
# Poissons Ratio (z) = 0.56229 0.14005
#
# Static dielectric constant tensor:
#      x y z
#    x 1.640480 0.000000 -0.013030 
#    y 0.000000 1.783310 0.000000 
#    z -0.013030 0.000000 1.788330 
# 
# From -- ./inp_files/9610.got.cif
#   From: 2010.05.17/outbox.cif.g08.bks.cpg/sg11_5_cif.got.tgz:9610.got - 2010.06.03 12:22:45.
