data_PCOD9158562
_publ_section_title
;
Structure prediction by ZEFSAII (Michael W. Deem and Ramdas Pophale) SiO2 
 PCOD9158562
Probable space group: P 21/M
;
_chemical_formula_sum "Si O2"
_cell_formula_units_Z 28
_cell_length_a 15.373376
_cell_length_b 8.886593
_cell_length_c 17.254993
_cell_angle_alpha 90.000000
_cell_angle_beta 133.880004
_cell_angle_gamma 90.000000
_cell_volume 1699.142977
_symmetry_space_group_name_H-M "P 21/M"
_symmetry_group_IT_number 11
_symmetry_cell_setting 'monoclinic'
loop_
_space_group_symop_operation_xyz
x,y,z
-x,1/2+y,-z
-x,-y,-z
x,1/2-y,z
loop_
_atom_site_type_symbol
_atom_site_label
_atom_site_fract_x
_atom_site_fract_y
_atom_site_fract_z
Si Si1 0.392916 0.568526 0.097804
Si Si2 0.931685 0.929475 0.842281
Si Si3 0.105630 0.930599 0.512331
Si Si4 0.261309 0.430999 0.869970
Si Si5 0.817560 0.430918 0.917657
Si Si6 0.330852 0.431515 0.736873
Si Si7 0.019688 0.568987 0.288502
O O1 0.388121 0.750000 0.089866
O O2 0.301873 0.521625 0.109993
O O3 0.531592 0.525613 0.196613
O O4 0.343055 0.503447 0.986576
O O5 0.923660 0.750000 0.835363
O O6 0.838562 0.995053 0.847336
O O7 0.920993 0.996234 0.750193
O O8 0.065211 0.970694 0.957746
O O9 0.099985 0.750000 0.514536
O O10 0.080667 0.972627 0.407600
O O11 0.232339 0.991135 0.621926
O O12 0.000000 0.000000 0.500000
O O13 0.268139 0.250000 0.880656
O O14 0.302801 0.471731 0.809024
O O15 0.121583 0.475937 0.795055
O O16 0.816638 0.250000 0.908560
O O17 0.318742 0.250000 0.722889
O O18 0.023645 0.750000 0.283793
#
# Coordination Sequence:
#
# PCOD9158562 Si02
#       7
#     4   4   4   4   4   4   4
#     4  10  20  34  53  77 108 142 176 214 257 312
#     4  10  19  31  51  78 103 133 172 214 258 311
#     4  11  22  37  56  77 104 139 180 220 261 305
#     4  10  19  32  50  75 109 142 172 209 258 311
#     4   9  18  32  49  74 106 137 168 207 261 314
#     4  10  21  37  53  75 108 143 179 217 258 306
#     4  10  20  34  52  75 106 139 168 212 265 306
#
# _framework density 16.478897
#
# number of rings (size 3 to 8) (size 9 to 14) (size 15 to 20)
#    0.000    2.000    2.857    1.286    0.000    3.429 
#    0.000    0.000    0.000    0.857    0.000    0.000 
#    0.000    0.000    0.000    0.000    0.000    0.000 
#
# Total GULP energy -156285.558989 kJ/mol
# GULP energy per Si atom -5581.627107 kJ/mol
# Density = 1.644139 g / cm^3
# Si number density = 16.478897 Si / 1000 Ang^3
#
#
#
# Elastic Constant Matrix: (Units=GPa)
#
#
# Indices 1 2 3 4 5 6 
#
# 1 106.6962 34.4628 84.0973 0.0000 -12.6579 0.0000
# 2 34.4628 20.6307 43.7011 0.0000 -5.4727 0.0000
# 3 84.0973 43.7011 141.5149 0.0000 -5.4976 0.0000
# 4 0.0000 0.0000 0.0000 29.4772 0.0000 -1.4175
# 5 -12.6579 -5.4727 -5.4976 0.0000 31.8911 0.0000
# 6 0.0000 0.0000 0.0000 -1.4175 0.0000 18.8260
#
#
#
# Elastic Compliance Matrix: (Units=1/GPa)
#
#
# Indices 1 2 3 4 5 6 
#
# 1 0.021832 -0.024080 -0.005398 0.000000 0.003603 0.000000
# 2 -0.024080 0.176135 -0.039544 0.000000 0.013851 0.000000
# 3 -0.005398 -0.039544 0.022288 0.000000 -0.005086 0.000000
# 4 0.000000 0.000000 0.000000 0.034048 0.000000 0.002564
# 5 0.003603 0.013851 -0.005086 0.000000 0.034287 0.000000
# 6 0.000000 0.000000 0.000000 0.002564 0.000000 0.053311
#
#
# Mechanical properties :
#
#
# Convention : Reuss Voigt Hill
#
# Bulk Modulus (GPa) = 12.16377 65.92935 39.04656
# Shear Modulus (GPa) = 9.85514 23.14424 16.49969
#
# Velocity S-wave (km/s) = 2.44815 3.75170 3.16770
# Velocity P-wave (km/s) = 3.92284 7.67217 6.09307
#
# Compressibility (1/GPa) = 0.08221134
#
# Stress axis : x y z
#
# Youngs Moduli (GPa) = 45.80346 5.67747 44.86645
#
# Poissons Ratio (x) = 0.13671 0.24220
# Poissons Ratio (y) = 1.10294 1.77421
# Poissons Ratio (z) = 0.24726 0.22451
#
# Static dielectric constant tensor:
#      x y z
#    x 1.549970 0.000000 0.002670 
#    y 0.000000 1.548490 0.000000 
#    z 0.002670 0.000000 1.526420 
# 
# From -- ./inp_files/37409.got.cif
#   From: 2010.05.17/outbox.cif.g08.bks.cpg/sg11_19_cif.got.tgz:37409.got - 2010.06.03 12:22:45.
