data_PCOD9158543
_publ_section_title
;
Structure prediction by ZEFSAII (Michael W. Deem and Ramdas Pophale) SiO2 
 PCOD9158543
Probable space group: P 21/M
;
_chemical_formula_sum "Si O2"
_cell_formula_units_Z 32
_cell_length_a 16.101977
_cell_length_b 8.685419
_cell_length_c 15.019296
_cell_angle_alpha 90.000000
_cell_angle_beta 62.568965
_cell_angle_gamma 90.000000
_cell_volume 1864.318895
_symmetry_space_group_name_H-M "P 21/M"
_symmetry_group_IT_number 11
_symmetry_cell_setting 'monoclinic'
loop_
_space_group_symop_operation_xyz
x,y,z
-x,1/2+y,-z
-x,-y,-z
x,1/2-y,z
loop_
_atom_site_type_symbol
_atom_site_label
_atom_site_fract_x
_atom_site_fract_y
_atom_site_fract_z
Si Si1 0.727681 0.064619 0.857757
Si Si2 0.348219 0.563809 0.918936
Si Si3 0.348802 0.066785 0.725649
Si Si4 0.565086 0.566196 0.816822
Si Si5 0.900328 0.436008 0.654096
Si Si6 0.104696 0.564361 0.548043
Si Si7 0.277527 0.934713 0.585595
Si Si8 0.443290 0.065702 0.385139
O O1 0.730361 0.250000 0.857278
O O2 0.820764 0.009370 0.761441
O O3 0.637648 0.014782 0.845485
O O4 0.713957 0.014580 0.966529
O O5 0.345381 0.750000 0.911204
O O6 0.322702 0.490652 0.837162
O O7 0.456721 0.522494 0.885819
O O8 0.352837 0.250000 0.721102
O O9 0.281418 0.003700 0.682239
O O10 0.452389 0.999315 0.654808
O O11 0.572417 0.750000 0.825116
O O12 0.585299 0.531244 0.703062
O O13 0.902951 0.250000 0.655143
O O14 0.876202 0.482231 0.564126
O O15 0.003397 0.498852 0.623151
O O16 0.100476 0.750000 0.551773
O O17 0.187321 0.515259 0.572978
O O18 0.278698 0.750000 0.589563
O O19 0.369504 0.992018 0.488173
O O20 0.445725 0.250000 0.395075
#
# Coordination Sequence:
#
# PCOD9158543 Si02
#       8
#     4   4   4   4   4   4   4   4
#     4  10  19  31  51  75 100 132 168 207 250 298
#     4   9  19  35  50  69 100 135 170 208 251 293
#     4  11  22  35  51  72  99 133 171 209 249 291
#     4   9  18  30  46  71 103 135 166 202 242 291
#     4   9  18  33  52  76 103 129 160 198 243 295
#     4   9  19  34  52  75 103 133 161 194 243 298
#     4  11  21  34  53  75 100 131 168 207 248 297
#     4  10  20  34  50  73 105 137 169 204 245 292
#
# _framework density 17.164445000000001
#
# number of rings (size 3 to 8) (size 9 to 14) (size 15 to 20)
#    0.000    2.250    0.000    4.125    0.000    5.500 
#    0.000    2.500    0.000    0.750    0.000    0.000 
#    0.000    0.000    0.000    0.000    0.000    0.000 
#
# Total GULP energy -178629.408196 kJ/mol
# GULP energy per Si atom -5582.169006 kJ/mol
# Density = 1.712538 g / cm^3
# Si number density = 17.164445 Si / 1000 Ang^3
#
#
#
# Elastic Constant Matrix: (Units=GPa)
#
#
# Indices 1 2 3 4 5 6 
#
# 1 108.8669 29.6902 75.9692 0.0000 21.3254 0.0000
# 2 29.6902 29.9087 32.7707 0.0000 8.6875 0.0000
# 3 75.9692 32.7707 146.2180 0.0000 4.0837 0.0000
# 4 0.0000 0.0000 0.0000 22.9708 0.0000 1.6888
# 5 21.3254 8.6875 4.0837 0.0000 14.4953 0.0000
# 6 0.0000 0.0000 0.0000 1.6888 0.0000 27.7749
#
#
#
# Elastic Compliance Matrix: (Units=1/GPa)
#
#
# Indices 1 2 3 4 5 6 
#
# 1 0.023005 -0.002863 -0.010496 0.000000 -0.029172 0.000000
# 2 -0.002863 0.054812 -0.010077 0.000000 -0.025800 0.000000
# 3 -0.010496 -0.010077 0.014062 0.000000 0.017520 0.000000
# 4 0.000000 0.000000 0.000000 0.043729 0.000000 -0.002659
# 5 -0.029172 -0.025800 0.017520 0.000000 0.122432 0.000000
# 6 0.000000 0.000000 0.000000 -0.002659 0.000000 0.036165
#
#
# Mechanical properties :
#
#
# Convention : Reuss Voigt Hill
#
# Bulk Modulus (GPa) = 22.21865 62.42818 42.32342
# Shear Modulus (GPa) = 14.04185 22.81910 18.43048
#
# Velocity S-wave (km/s) = 2.86331 3.65010 3.28038
# Velocity P-wave (km/s) = 4.88918 7.36301 6.24972
#
# Compressibility (1/GPa) = 0.04500723
#
# Stress axis : x y z
#
# Youngs Moduli (GPa) = 43.46881 18.24425 71.11590
#
# Poissons Ratio (x) = 0.05223 0.74644
# Poissons Ratio (y) = 0.12445 0.71660
# Poissons Ratio (z) = 0.45625 0.18384
#
# Static dielectric constant tensor:
#      x y z
#    x 1.558570 0.000000 0.012500 
#    y 0.000000 1.573960 0.000000 
#    z 0.012500 0.000000 1.590320 
# 
# From -- ./inp_files/51607.got.cif
#   From: 2010.05.17/outbox.cif.g08.bks.cpg/sg11_26_cif.got.tgz:51607.got - 2010.06.03 12:22:45.
