data_PCOD9158815
_publ_section_title
;
Structure prediction by ZEFSAII (Michael W. Deem and Ramdas Pophale) SiO2 
 PCOD9158815
Probable space group: P 21/M
;
_chemical_formula_sum "Si O2"
_cell_formula_units_Z 32
_cell_length_a 13.673491
_cell_length_b 18.884314
_cell_length_c 10.854510
_cell_angle_alpha 90.000000
_cell_angle_beta 37.454512
_cell_angle_gamma 90.000000
_cell_volume 1704.465678
_symmetry_space_group_name_H-M "P 21/M"
_symmetry_group_IT_number 11
_symmetry_cell_setting 'monoclinic'
loop_
_space_group_symop_operation_xyz
x,y,z
-x,1/2+y,-z
-x,-y,-z
x,1/2-y,z
loop_
_atom_site_type_symbol
_atom_site_label
_atom_site_fract_x
_atom_site_fract_y
_atom_site_fract_z
Si Si1 0.443905 0.169461 0.555577
Si Si2 0.441777 0.588773 0.319104
Si Si3 0.056096 0.169461 0.943387
Si Si4 0.942464 0.918431 0.556138
Si Si5 0.553770 0.924613 0.675216
Si Si6 0.946230 0.924613 0.282755
Si Si7 0.941777 0.411227 0.297342
Si Si8 0.442463 0.418431 0.058935
O O1 0.502357 0.250000 0.486433
O O2 0.490379 0.135846 0.639318
O O3 0.250000 0.170594 0.741836
O O4 0.503250 0.120438 0.383874
O O5 0.498710 0.506881 0.278332
O O6 0.250000 0.588115 0.518390
O O7 0.490160 0.614169 0.133914
O O8 0.997644 0.250000 0.991147
O O9 0.996750 0.120438 0.890374
O O10 0.009622 0.135846 0.120076
O O11 0.992791 0.892679 0.369682
O O12 0.750000 0.916293 0.754789
O O13 0.009840 0.885831 0.614233
O O14 0.000000 0.000000 0.500000
O O15 0.750000 0.925593 0.476915
O O16 0.507209 0.892679 0.855264
O O17 0.998710 0.006881 0.224248
O O18 0.500000 0.500000 0.000000
#
# Coordination Sequence:
#
# PCOD9158815 Si02
#       8
#     4   4   4   4   4   4   4   4
#     4  10  20  34  51  71  97 129 165 206 250 295
#     4  10  19  32  51  74 101 132 165 203 247 297
#     4  10  20  34  51  71  97 129 165 206 250 295
#     4   9  16  29  50  76 103 128 161 206 251 295
#     4   8  16  31  51  75  99 126 163 204 246 293
#     4   8  16  31  51  75  99 126 163 204 246 293
#     4  10  19  32  51  74 101 132 165 203 247 297
#     4   9  16  29  50  76 103 128 161 206 251 295
#
# _framework density 18.774213
#
# number of rings (size 3 to 8) (size 9 to 14) (size 15 to 20)
#    0.000    2.750    0.000    3.750    0.000    0.500 
#    0.000    7.500    0.000    4.500    0.000    0.000 
#    0.000    0.000    0.000    0.000    0.000    0.000 
#
# Total GULP energy -178327.624553 kJ/mol
# GULP energy per Si atom -5572.738267 kJ/mol
# Density = 1.873148 g / cm^3
# Si number density = 18.774213 Si / 1000 Ang^3
#
#
#
# Elastic Constant Matrix: (Units=GPa)
#
#
# Indices 1 2 3 4 5 6 
#
# 1 50.5092 10.5823 1.8703 0.0000 20.6634 0.0000
# 2 10.5823 40.1202 10.6791 0.0000 3.2581 0.0000
# 3 1.8703 10.6791 51.7440 0.0000 20.7161 0.0000
# 4 0.0000 0.0000 0.0000 4.7183 0.0000 -9.3077
# 5 20.6634 3.2581 20.7161 0.0000 26.4030 0.0000
# 6 0.0000 0.0000 0.0000 -9.3077 0.0000 4.9963
#
#
#
# Elastic Compliance Matrix: (Units=1/GPa)
#
#
# Indices 1 2 3 4 5 6 
#
# 1 0.039746 -0.011879 0.018781 0.000000 -0.044376 0.000000
# 2 -0.011879 0.029964 -0.011659 0.000000 0.014747 0.000000
# 3 0.018781 -0.011659 0.038435 0.000000 -0.043417 0.000000
# 4 0.000000 0.000000 0.000000 -0.079233 0.000000 -0.147603
# 5 -0.044376 0.014747 -0.043417 0.000000 0.104849 0.000000
# 6 0.000000 0.000000 0.000000 -0.147603 0.000000 -0.074825
#
#
# Mechanical properties :
#
#
# Convention : Reuss Voigt Hill
#
# Bulk Modulus (GPa) = 10.13865 20.95964 15.54915
# Shear Modulus (GPa) = 49.34486 15.17299 32.25893
#
# Velocity S-wave (km/s) = 5.13229 2.84594 4.14968
# Velocity P-wave (km/s) = 6.36652 4.68908 5.59106
#
# Compressibility (1/GPa) = 0.09863244
#
# Stress axis : x y z
#
# Youngs Moduli (GPa) = 25.15977 33.37331 26.01770
#
# Poissons Ratio (x) = 0.39644 -0.48864
# Poissons Ratio (y) = 0.29887 0.30333
# Poissons Ratio (z) = -0.47253 0.38909
#
# Static dielectric constant tensor:
#      x y z
#    x 1.662050 0.000000 0.014670 
#    y 0.000000 1.627600 0.000000 
#    z 0.014670 0.000000 1.662490 
# 
# From -- ./inp_files/19360.got.cif
#   From: 2010.05.17/outbox.cif.g08.bks.cpg/sg11_10_cif.got.tgz:19360.got - 2010.06.03 12:22:45.
