data_PCOD9158164
_publ_section_title
;
Structure prediction by ZEFSAII (Michael W. Deem and Ramdas Pophale) SiO2 
 PCOD9158164
Probable space group: P 21/M
;
_chemical_formula_sum "Si O2"
_cell_formula_units_Z 28
_cell_length_a 19.719445
_cell_length_b 9.076574
_cell_length_c 14.645498
_cell_angle_alpha 90.000000
_cell_angle_beta 138.236397
_cell_angle_gamma 90.000000
_cell_volume 1745.956173
_symmetry_space_group_name_H-M "P 21/M"
_symmetry_group_IT_number 11
_symmetry_cell_setting 'monoclinic'
loop_
_space_group_symop_operation_xyz
x,y,z
-x,1/2+y,-z
-x,-y,-z
x,1/2-y,z
loop_
_atom_site_type_symbol
_atom_site_label
_atom_site_fract_x
_atom_site_fract_y
_atom_site_fract_z
Si Si1 0.994914 0.927259 0.895913
Si Si2 0.609368 0.073315 0.712088
Si Si3 0.893516 0.573789 0.495629
Si Si4 0.808394 0.072620 0.027094
Si Si5 0.113886 0.425409 0.719211
Si Si6 0.605070 0.074233 0.494371
Si Si7 0.209258 0.073263 0.421131
O O1 0.997795 0.750000 0.908396
O O2 0.890624 0.965876 0.738913
O O3 0.092258 0.970368 0.932418
O O4 0.000000 0.000000 0.000000
O O5 0.595421 0.250000 0.704429
O O6 0.628403 0.038353 0.624382
O O7 0.505671 0.993558 0.636595
O O8 0.706480 0.031884 0.870186
O O9 0.913951 0.750000 0.522456
O O10 0.855513 0.542377 0.355010
O O11 0.817366 0.535928 0.500838
O O12 0.000144 0.490496 0.615977
O O13 0.810774 0.250000 0.039019
O O14 0.817259 0.999237 0.134699
O O15 0.111922 0.250000 0.729025
O O16 0.602399 0.250000 0.482726
O O17 0.692427 0.006348 0.519508
O O18 0.222809 0.250000 0.428519
#
# Coordination Sequence:
#
# PCOD9158164 Si02
#       7
#     4   4   4   4   4   4   4
#     4  10  20  32  47  70 102 136 164 198 245 297
#     4   9  19  35  54  73  98 136 172 202 248 303
#     4   9  18  34  51  70 101 136 168 204 250 303
#     4  10  19  34  52  71 102 138 167 200 248 306
#     4  10  19  30  50  77 101 129 168 212 250 292
#     4  10  20  34  53  76 101 127 168 219 250 284
#     4  10  19  33  52  71  99 137 168 197 246 308
#
# _framework density 16.037057999999998
#
# number of rings (size 3 to 8) (size 9 to 14) (size 15 to 20)
#    0.000    2.286    1.429    1.714    0.000    4.571 
#    0.000    0.000    0.000    0.857    0.000    0.000 
#    0.000    0.000    0.000    0.000    0.000    0.000 
#
# Total GULP energy -156212.860648 kJ/mol
# GULP energy per Si atom -5579.030737 kJ/mol
# Density = 1.600056 g / cm^3
# Si number density = 16.037058 Si / 1000 Ang^3
#
#
#
# Elastic Constant Matrix: (Units=GPa)
#
#
# Indices 1 2 3 4 5 6 
#
# 1 148.3813 50.0537 77.8431 0.0000 2.5659 0.0000
# 2 50.0537 25.1366 38.7725 0.0000 0.4453 0.0000
# 3 77.8431 38.7725 101.3459 0.0000 -0.4460 0.0000
# 4 0.0000 0.0000 0.0000 24.9145 0.0000 -4.8886
# 5 2.5659 0.4453 -0.4460 0.0000 22.6914 0.0000
# 6 0.0000 0.0000 0.0000 -4.8886 0.0000 24.5633
#
#
#
# Elastic Compliance Matrix: (Units=1/GPa)
#
#
# Indices 1 2 3 4 5 6 
#
# 1 0.020587 -0.040416 -0.000357 0.000000 -0.001542 0.000000
# 2 -0.040416 0.176559 -0.036502 0.000000 0.000388 0.000000
# 3 -0.000357 -0.036502 0.024112 0.000000 0.001231 0.000000
# 4 0.000000 0.000000 0.000000 0.041768 0.000000 0.008313
# 5 -0.001542 0.000388 0.001231 0.000000 0.044261 0.000000
# 6 0.000000 0.000000 0.000000 0.008313 0.000000 0.042366
#
#
# Mechanical properties :
#
#
# Convention : Reuss Voigt Hill
#
# Bulk Modulus (GPa) = 14.99101 67.57805 41.28453
# Shear Modulus (GPa) = 9.49777 21.64680 15.57228
#
# Velocity S-wave (km/s) = 2.43624 3.67795 3.11950
# Velocity P-wave (km/s) = 4.15712 7.76315 6.22689
#
# Compressibility (1/GPa) = 0.06670666
#
# Stress axis : x y z
#
# Youngs Moduli (GPa) = 48.57387 5.66383 41.47301
#
# Poissons Ratio (x) = 0.22891 0.01483
# Poissons Ratio (y) = 1.96316 1.51386
# Poissons Ratio (z) = 0.01736 0.20674
#
# Static dielectric constant tensor:
#      x y z
#    x 1.522860 0.000000 -0.015990 
#    y 0.000000 1.533020 0.000000 
#    z -0.015990 0.000000 1.520380 
# 
# From -- ./inp_files/53200.got.cif
#   From: 2010.05.17/outbox.cif.g08.bks.cpg/sg11_27_cif.got.tgz:53200.got - 2010.06.03 12:22:45.
