data_PCOD9158211
_publ_section_title
;
Structure prediction by ZEFSAII (Michael W. Deem and Ramdas Pophale) SiO2 
 PCOD9158211
Probable space group: P 21/M
;
_chemical_formula_sum "Si O2"
_cell_formula_units_Z 28
_cell_length_a 9.421399
_cell_length_b 19.503315
_cell_length_c 9.982550
_cell_angle_alpha 90.000000
_cell_angle_beta 33.924493
_cell_angle_gamma 90.000000
_cell_volume 1023.710720
_symmetry_space_group_name_H-M "P 21/M"
_symmetry_group_IT_number 11
_symmetry_cell_setting 'monoclinic'
loop_
_space_group_symop_operation_xyz
x,y,z
-x,1/2+y,-z
-x,-y,-z
x,1/2-y,z
loop_
_atom_site_type_symbol
_atom_site_label
_atom_site_fract_x
_atom_site_fract_y
_atom_site_fract_z
Si Si1 0.327543 0.018277 0.811875
Si Si2 0.786000 0.332852 0.790733
Si Si3 0.708329 0.026369 0.727231
Si Si4 0.360871 0.750000 0.659634
Si Si5 0.694876 0.667825 0.689760
Si Si6 0.618239 0.108495 0.390792
Si Si7 0.105473 0.125417 0.173245
Si Si8 0.754879 0.750000 0.108229
O O1 0.599168 0.003772 0.669358
O O2 0.385499 0.072093 0.647729
O O3 0.244193 0.948183 0.808706
O O4 0.177057 0.052715 0.051360
O O5 0.762628 0.250000 0.776689
O O6 0.707831 0.391101 0.744201
O O7 0.080638 0.348627 0.589663
O O8 0.596922 0.351117 0.058823
O O9 0.000000 0.000000 0.500000
O O10 0.500000 0.000000 0.000000
O O11 0.448192 0.675873 0.642117
O O12 0.528670 0.750000 0.390866
O O13 0.053412 0.750000 0.922487
O O14 0.694594 0.750000 0.697172
O O15 0.822852 0.639728 0.730183
O O16 0.814713 0.134211 0.351698
O O17 0.258272 0.183188 0.972595
#
# Coordination Sequence:
#
# PCOD9158211 Si02
#       8
#     4   4   4   2   4   4   4   2
#     4  11  23  41  64  96 132 173 219 268 331 392
#     4  10  21  39  63  93 121 160 218 279 333 378
#     4  12  27  46  68  96 133 181 225 274 332 395
#     4  10  20  40  56  94 130 168 212 252 330 389
#     4  10  19  30  56  93 129 160 195 263 340 387
#     4  10  23  38  65  96 132 172 212 271 327 397
#     4  11  19  33  55  92 130 165 204 255 325 386
#     4  10  20  30  54  88 128 164 196 252 320 389
#
# _framework density 27.351476999999999
#
# number of rings (size 3 to 8) (size 9 to 14) (size 15 to 20)
#    0.000    1.429    3.571    2.143    2.000    0.000 
#    1.286    0.000    3.143    0.000    0.000    0.000 
#    0.000    0.000    0.000    0.000    0.000    0.000 
#
# Total GULP energy -156341.941128 kJ/mol
# GULP energy per Si atom -5583.640755 kJ/mol
# Density = 2.728922 g / cm^3
# Si number density = 27.351477 Si / 1000 Ang^3
#
#
#
# Elastic Constant Matrix: (Units=GPa)
#
#
# Indices 1 2 3 4 5 6 
#
# 1 58.9261 -9.0302 17.5652 0.0000 -14.8694 0.0000
# 2 -9.0302 149.9663 15.2077 0.0000 2.5105 0.0000
# 3 17.5652 15.2077 195.0023 0.0000 -20.8508 0.0000
# 4 0.0000 0.0000 0.0000 51.6470 0.0000 -1.5303
# 5 -14.8694 2.5105 -20.8508 0.0000 46.7395 0.0000
# 6 0.0000 0.0000 0.0000 -1.5303 0.0000 29.5396
#
#
#
# Elastic Compliance Matrix: (Units=1/GPa)
#
#
# Indices 1 2 3 4 5 6 
#
# 1 0.018874 0.001169 -0.001214 0.000000 0.005400 0.000000
# 2 0.001169 0.006811 -0.000668 0.000000 -0.000292 0.000000
# 3 -0.001214 -0.000668 0.005515 0.000000 0.002110 0.000000
# 4 0.000000 0.000000 0.000000 0.019392 0.000000 0.001005
# 5 0.005400 -0.000292 0.002110 0.000000 0.024070 0.000000
# 6 0.000000 0.000000 0.000000 0.001005 0.000000 0.033905
#
#
# Mechanical properties :
#
#
# Convention : Reuss Voigt Hill
#
# Bulk Modulus (GPa) = 33.58449 50.15335 41.86892
# Shear Modulus (GPa) = 41.69535 50.92867 46.31201
#
# Velocity S-wave (km/s) = 3.90863 4.31978 4.11934
# Velocity P-wave (km/s) = 5.71623 6.57701 6.16167
#
# Compressibility (1/GPa) = 0.02977565
#
# Stress axis : x y z
#
# Youngs Moduli (GPa) = 52.98271 146.81781 181.31778
#
# Poissons Ratio (x) = -0.17166 0.22010
# Poissons Ratio (y) = -0.06195 0.12107
# Poissons Ratio (z) = 0.06431 0.09803
#
# Static dielectric constant tensor:
#      x y z
#    x 2.281000 0.000000 0.026760 
#    y 0.000000 2.211160 0.000000 
#    z 0.026760 0.000000 2.200420 
# 
# From -- ./inp_files/36411.got.cif
#   From: 2010.05.17/outbox.cif.g08.bks.cpg/sg11_19_cif.got.tgz:36411.got - 2010.06.03 12:22:45.
