data_PCOD9158153
_publ_section_title
;
Structure prediction by ZEFSAII (Michael W. Deem and Ramdas Pophale) SiO2 
 PCOD9158153
Probable space group: P 21/M
;
_chemical_formula_sum "Si O2"
_cell_formula_units_Z 28
_cell_length_a 11.649174
_cell_length_b 7.596587
_cell_length_c 16.016970
_cell_angle_alpha 90.000000
_cell_angle_beta 62.903304
_cell_angle_gamma 90.000000
_cell_volume 1261.829457
_symmetry_space_group_name_H-M "P 21/M"
_symmetry_group_IT_number 11
_symmetry_cell_setting 'monoclinic'
loop_
_space_group_symop_operation_xyz
x,y,z
-x,1/2+y,-z
-x,-y,-z
x,1/2-y,z
loop_
_atom_site_type_symbol
_atom_site_label
_atom_site_fract_x
_atom_site_fract_y
_atom_site_fract_z
Si Si1 0.863320 0.040078 0.874047
Si Si2 0.415416 0.466384 0.768520
Si Si3 0.156446 0.542433 0.606518
Si Si4 0.673721 0.034586 0.601378
Si Si5 0.141126 0.450929 0.801821
Si Si6 0.595457 0.542289 0.043501
Si Si7 0.132754 0.537191 0.317202
O O1 0.881558 0.250000 0.860339
O O2 0.839459 0.975282 0.786997
O O3 0.999553 0.967871 0.863009
O O4 0.739994 0.010815 0.971635
O O5 0.414335 0.250000 0.765543
O O6 0.528153 0.521825 0.668492
O O7 0.271915 0.530125 0.794576
O O8 0.447287 0.525543 0.852008
O O9 0.175579 0.750000 0.615030
O O10 0.263110 0.477145 0.506336
O O11 0.156144 0.451246 0.696409
O O12 0.013912 0.517050 0.615123
O O13 0.676367 0.250000 0.599696
O O14 0.765474 0.977345 0.647587
O O15 0.137133 0.250000 0.834784
O O16 0.595452 0.750000 0.051740
O O17 0.500000 0.500000 0.000000
O O18 0.137949 0.750000 0.315160
#
# Coordination Sequence:
#
# PCOD9158153 Si02
#       7
#     4   4   4   4   4   4   4
#     4   9  18  33  54  78 104 135 171 211 253 299
#     4   9  19  36  55  74  99 136 178 210 245 307
#     4  10  19  30  49  78 107 133 167 217 265 298
#     4   9  17  30  50  75 103 136 173 214 257 300
#     4   9  19  37  57  74  98 137 178 209 246 305
#     4  11  22  36  57  82 106 134 168 208 255 305
#     4   9  17  32  53  75 103 141 177 207 249 310
#
# _framework density 22.190003000000001
#
# number of rings (size 3 to 8) (size 9 to 14) (size 15 to 20)
#    0.000    2.571    0.000    3.000    0.000    5.714 
#    0.000    2.143    0.000    5.143    0.000    0.000 
#    0.000    0.000    0.000    0.000    0.000    0.000 
#
# Total GULP energy -156336.435053 kJ/mol
# GULP energy per Si atom -5583.444109 kJ/mol
# Density = 2.213950 g / cm^3
# Si number density = 22.190003 Si / 1000 Ang^3
#
#
#
# Elastic Constant Matrix: (Units=GPa)
#
#
# Indices 1 2 3 4 5 6 
#
# 1 86.1933 -8.4869 3.7974 0.0000 -13.3998 0.0000
# 2 -8.4869 45.7705 -9.5695 0.0000 0.0239 0.0000
# 3 3.7974 -9.5695 62.7173 0.0000 -33.3465 0.0000
# 4 0.0000 0.0000 0.0000 16.8179 0.0000 -5.2849
# 5 -13.3998 0.0239 -33.3465 0.0000 28.2428 0.0000
# 6 0.0000 0.0000 0.0000 -5.2849 0.0000 12.7275
#
#
#
# Elastic Compliance Matrix: (Units=1/GPa)
#
#
# Indices 1 2 3 4 5 6 
#
# 1 0.014417 0.004611 0.009310 0.000000 0.017829 0.000000
# 2 0.004611 0.025357 0.012739 0.000000 0.017207 0.000000
# 3 0.009310 0.012739 0.052838 0.000000 0.066793 0.000000
# 4 0.000000 0.000000 0.000000 0.068384 0.000000 0.028395
# 5 0.017829 0.017207 0.066793 0.000000 0.122715 0.000000
# 6 0.000000 0.000000 0.000000 0.028395 0.000000 0.090361
#
#
# Mechanical properties :
#
#
# Convention : Reuss Voigt Hill
#
# Bulk Modulus (GPa) = 6.85251 18.46255 12.65753
# Shear Modulus (GPa) = 13.53558 25.48698 19.51128
#
# Velocity S-wave (km/s) = 2.47247 3.39275 2.96849
# Velocity P-wave (km/s) = 3.35345 4.86682 4.17921
#
# Compressibility (1/GPa) = 0.14593187
#
# Stress axis : x y z
#
# Youngs Moduli (GPa) = 69.36071 39.43615 18.92573
#
# Poissons Ratio (x) = -0.18182 -0.17620
# Poissons Ratio (y) = -0.31979 -0.24109
# Poissons Ratio (z) = -0.64576 -0.50237
#
# Static dielectric constant tensor:
#      x y z
#    x 1.798020 0.000000 0.005030 
#    y 0.000000 1.835540 0.000000 
#    z 0.005030 0.000000 1.797370 
# 
# From -- ./inp_files/37892.got.cif
#   From: 2010.05.17/outbox.cif.g08.bks.cpg/sg11_19_cif.got.tgz:37892.got - 2010.06.03 12:22:45.
