data_PCOD9158039
_publ_section_title
;
Structure prediction by ZEFSAII (Michael W. Deem and Ramdas Pophale) SiO2 
 PCOD9158039
Probable space group: P 21/M
;
_chemical_formula_sum "Si O2"
_cell_formula_units_Z 32
_cell_length_a 30.961262
_cell_length_b 8.953947
_cell_length_c 14.402291
_cell_angle_alpha 90.000000
_cell_angle_beta 150.880546
_cell_angle_gamma 90.000000
_cell_volume 1942.967097
_symmetry_space_group_name_H-M "P 21/M"
_symmetry_group_IT_number 11
_symmetry_cell_setting 'monoclinic'
loop_
_space_group_symop_operation_xyz
x,y,z
-x,1/2+y,-z
-x,-y,-z
x,1/2-y,z
loop_
_atom_site_type_symbol
_atom_site_label
_atom_site_fract_x
_atom_site_fract_y
_atom_site_fract_z
Si Si1 0.672993 0.929543 0.177693
Si Si2 0.993248 0.927548 0.587964
Si Si3 0.861607 0.072921 0.985618
Si Si4 0.142483 0.928220 0.523613
Si Si5 0.306898 0.072988 0.398537
Si Si6 0.002053 0.071516 0.902339
Si Si7 0.657326 0.423801 0.348695
Si Si8 0.518828 0.076427 0.238530
O O1 0.676658 0.750000 0.186594
O O2 0.761516 0.997505 0.300800
O O3 0.665548 0.992531 0.267975
O O4 0.582486 0.973039 0.954068
O O5 0.978289 0.750000 0.553396
O O6 0.083048 0.951246 0.816285
O O7 0.000000 0.000000 0.500000
O O8 0.915815 0.002953 0.503241
O O9 0.854142 0.250000 0.955354
O O10 0.765387 0.998185 0.804473
O O11 0.919531 0.998700 0.012370
O O12 0.149142 0.750000 0.546380
O O13 0.087969 0.958136 0.325642
O O14 0.300956 0.250000 0.389793
O O15 0.288315 0.003267 0.466352
O O16 0.408023 0.019778 0.569659
O O17 0.013480 0.250000 0.930060
O O18 0.000000 0.000000 0.000000
O O19 0.682714 0.250000 0.386841
O O20 0.558149 0.428882 0.206758
O O21 0.524589 0.250000 0.278074
#
# Coordination Sequence:
#
# PCOD9158039 Si02
#       8
#     4   4   4   4   4   4   4   4
#     4  11  20  31  48  70  99 137 180 222 261 302
#     4  10  21  39  63  85 105 131 163 209 263 316
#     4  10  20  35  53  75 103 132 167 209 255 307
#     4  10  22  37  52  75 105 137 174 215 260 311
#     4  10  19  30  47  70  97 131 173 214 252 296
#     4  10  21  34  48  67  98 138 175 211 252 299
#     4   9  18  31  44  62  96 138 180 220 259 297
#     4   8  18  32  45  65  97 138 180 221 259 299
#
# _framework density 16.469656000000001
#
# number of rings (size 3 to 8) (size 9 to 14) (size 15 to 20)
#    0.750    1.500    0.000    3.375    1.750    4.000 
#    0.000    0.000    0.000    0.000    0.000    0.875 
#    0.000    0.000    0.000    0.000    0.000    0.000 
#
# Total GULP energy -178342.306958 kJ/mol
# GULP energy per Si atom -5573.197092 kJ/mol
# Density = 1.643217 g / cm^3
# Si number density = 16.469656 Si / 1000 Ang^3
#
#
#
# Elastic Constant Matrix: (Units=GPa)
#
#
# Indices 1 2 3 4 5 6 
#
# 1 70.9547 48.6534 55.1934 0.0000 -5.1575 0.0000
# 2 48.6534 109.3055 80.5656 0.0000 1.4955 0.0000
# 3 55.1934 80.5656 129.4422 0.0000 16.5304 0.0000
# 4 0.0000 0.0000 0.0000 26.6581 0.0000 0.7610
# 5 -5.1575 1.4955 16.5304 0.0000 18.9368 0.0000
# 6 0.0000 0.0000 0.0000 0.7610 0.0000 24.3995
#
#
#
# Elastic Compliance Matrix: (Units=1/GPa)
#
#
# Indices 1 2 3 4 5 6 
#
# 1 0.026727 -0.003880 -0.011198 0.000000 0.017361 0.000000
# 2 -0.003880 0.018890 -0.011004 0.000000 0.007057 0.000000
# 3 -0.011198 -0.011004 0.022090 0.000000 -0.021464 0.000000
# 4 0.000000 0.000000 0.000000 0.037545 0.000000 -0.001171
# 5 0.017361 0.007057 -0.021464 0.000000 0.075715 0.000000
# 6 0.000000 0.000000 0.000000 -0.001171 0.000000 0.041021
#
#
# Mechanical properties :
#
#
# Convention : Reuss Voigt Hill
#
# Bulk Modulus (GPa) = 64.34009 75.39191 69.86600
# Shear Modulus (GPa) = 17.89980 22.35157 20.12568
#
# Velocity S-wave (km/s) = 3.30029 3.68793 3.49948
# Velocity P-wave (km/s) = 7.32620 8.00063 7.67083
#
# Compressibility (1/GPa) = 0.01554241
#
# Stress axis : x y z
#
# Youngs Moduli (GPa) = 37.41578 52.93852 45.26895
#
# Poissons Ratio (x) = 0.20541 0.50693
# Poissons Ratio (y) = 0.14518 0.49813
# Poissons Ratio (z) = 0.41899 0.58253
#
# Static dielectric constant tensor:
#      x y z
#    x 1.516020 0.000000 0.011930 
#    y 0.000000 1.544120 0.000000 
#    z 0.011930 0.000000 1.578190 
# 
# From -- ./inp_files/56480.got.cif
#   From: 2010.05.17/outbox.cif.g08.bks.cpg/sg11_29_cif.got.tgz:56480.got - 2010.06.03 12:22:45.
