data_PCOD9158217
_publ_section_title
;
Structure prediction by ZEFSAII (Michael W. Deem and Ramdas Pophale) SiO2 
 PCOD9158217
Probable space group: P 21/M
;
_chemical_formula_sum "Si O2"
_cell_formula_units_Z 28
_cell_length_a 20.345999
_cell_length_b 7.603194
_cell_length_c 11.936948
_cell_angle_alpha 90.000000
_cell_angle_beta 126.780765
_cell_angle_gamma 90.000000
_cell_volume 1478.986703
_symmetry_space_group_name_H-M "P 21/M"
_symmetry_group_IT_number 11
_symmetry_cell_setting 'monoclinic'
loop_
_space_group_symop_operation_xyz
x,y,z
-x,1/2+y,-z
-x,-y,-z
x,1/2-y,z
loop_
_atom_site_type_symbol
_atom_site_label
_atom_site_fract_x
_atom_site_fract_y
_atom_site_fract_z
Si Si1 0.597447 0.459273 0.600446
Si Si2 0.665456 0.465820 0.432113
Si Si3 0.996021 0.539306 0.363560
Si Si4 0.654829 0.542102 0.903957
Si Si5 0.175067 0.538003 0.536711
Si Si6 0.817063 0.538406 0.190488
Si Si7 0.493957 0.539170 0.863667
O O1 0.500000 0.500000 0.500000
O O2 0.603755 0.250000 0.606425
O O3 0.641993 0.524277 0.533253
O O4 0.640540 0.523434 0.757412
O O5 0.667002 0.250000 0.434156
O O6 0.751275 0.525476 0.466700
O O7 0.590649 0.524229 0.276453
O O8 0.995669 0.750000 0.346751
O O9 0.905952 0.471442 0.238150
O O10 0.000000 0.500000 0.500000
O O11 0.083945 0.472412 0.409871
O O12 0.656343 0.750000 0.930849
O O13 0.573878 0.467769 0.881694
O O14 0.739103 0.469883 0.041826
O O15 0.173511 0.750000 0.527586
O O16 0.190706 0.497501 0.684181
O O17 0.819474 0.750000 0.181611
O O18 0.493425 0.750000 0.847862
O O19 0.500000 0.500000 0.000000
#
# Coordination Sequence:
#
# PCOD9158217 Si02
#       7
#     4   4   4   4   4   4   4
#     4  11  21  36  54  69  89 121 163 202 237 277
#     4   9  18  32  48  66  92 121 151 194 235 270
#     4   8  14  25  43  68  94 124 155 184 225 277
#     4  10  20  34  49  67  95 127 157 195 235 274
#     4   9  16  28  48  71  96 124 156 190 229 281
#     4   9  17  29  46  70 101 127 151 189 235 277
#     4  10  19  31  45  65  94 121 148 184 230 278
#
# _framework density 18.931881000000001
#
# number of rings (size 3 to 8) (size 9 to 14) (size 15 to 20)
#    0.000    2.571    1.429    1.286    0.000    1.143 
#    0.000    1.429    0.000    0.857    0.000    0.000 
#    0.000    0.000    0.000    0.000    0.000    0.143 
#
# Total GULP energy -156089.244187 kJ/mol
# GULP energy per Si atom -5574.615864 kJ/mol
# Density = 1.888879 g / cm^3
# Si number density = 18.931881 Si / 1000 Ang^3
#
#
#
# Elastic Constant Matrix: (Units=GPa)
#
#
# Indices 1 2 3 4 5 6 
#
# 1 199.6742 0.9481 111.3757 0.0000 31.1793 0.0000
# 2 0.9481 38.3183 -3.6601 0.0000 10.1772 0.0000
# 3 111.3757 -3.6601 84.6383 0.0000 10.3683 0.0000
# 4 0.0000 0.0000 0.0000 13.2649 0.0000 -10.5762
# 5 31.1793 10.1772 10.3683 0.0000 34.2775 0.0000
# 6 0.0000 0.0000 0.0000 -10.5762 0.0000 6.9523
#
#
#
# Elastic Compliance Matrix: (Units=1/GPa)
#
#
# Indices 1 2 3 4 5 6 
#
# 1 0.022832 -0.000079 -0.028565 0.000000 -0.012105 0.000000
# 2 -0.000079 0.028786 0.002478 0.000000 -0.009225 0.000000
# 3 -0.028565 0.002478 0.048204 0.000000 0.010667 0.000000
# 4 0.000000 0.000000 0.000000 -0.354081 0.000000 -0.538649
# 5 -0.012105 -0.009225 0.010667 0.000000 0.039697 0.000000
# 6 0.000000 0.000000 0.000000 -0.538649 0.000000 -0.675586
#
#
# Mechanical properties :
#
#
# Convention : Reuss Voigt Hill
#
# Bulk Modulus (GPa) = 21.05648 59.99536 40.52592
# Shear Modulus (GPa) = -6.08283 25.16341 9.54029
#
# Velocity S-wave (km/s) = -1.79443 3.64971 2.24727
# Velocity P-wave (km/s) = 2.61784 7.03701 5.30907
#
# Compressibility (1/GPa) = 0.04749131
#
# Stress axis : x y z
#
# Youngs Moduli (GPa) = 43.79826 34.73922 20.74497
#
# Poissons Ratio (x) = 0.00273 0.59258
# Poissons Ratio (y) = 0.00344 -0.05141
# Poissons Ratio (z) = 1.25111 -0.08609
#
# Static dielectric constant tensor:
#      x y z
#    x 1.689470 0.000000 0.029740 
#    y 0.000000 1.690710 0.000000 
#    z 0.029740 0.000000 1.655390 
# 
# From -- ./inp_files/42319.got.cif
#   From: 2010.05.17/outbox.cif.g08.bks.cpg/sg11_22_cif.got.tgz:42319.got - 2010.06.03 12:22:45.
