data_PCOD9158160
_publ_section_title
;
Structure prediction by ZEFSAII (Michael W. Deem and Ramdas Pophale) SiO2 
 PCOD9158160
Probable space group: P 21/M
;
_chemical_formula_sum "Si O2"
_cell_formula_units_Z 32
_cell_length_a 23.900637
_cell_length_b 7.592554
_cell_length_c 14.429430
_cell_angle_alpha 90.000000
_cell_angle_beta 30.953091
_cell_angle_gamma 90.000000
_cell_volume 1346.770422
_symmetry_space_group_name_H-M "P 21/M"
_symmetry_group_IT_number 11
_symmetry_cell_setting 'monoclinic'
loop_
_space_group_symop_operation_xyz
x,y,z
-x,1/2+y,-z
-x,-y,-z
x,1/2-y,z
loop_
_atom_site_type_symbol
_atom_site_label
_atom_site_fract_x
_atom_site_fract_y
_atom_site_fract_z
Si Si1 0.522950 0.533551 0.746294
Si Si2 0.832956 0.552294 0.664115
Si Si3 0.013131 0.462091 0.873729
Si Si4 0.059634 0.551939 0.307749
Si Si5 0.195190 0.948331 0.931870
Si Si6 0.742069 0.541606 0.518795
Si Si7 0.626629 0.056333 0.876366
Si Si8 0.416929 0.961527 0.700349
O O1 0.519842 0.750000 0.751483
O O2 0.649759 0.478569 0.576466
O O3 0.462271 0.477224 0.737053
O O4 0.463208 0.473564 0.927051
O O5 0.804736 0.750000 0.673841
O O6 0.874720 0.551722 0.709267
O O7 0.728852 0.436154 0.800121
O O8 0.938660 0.485653 0.459228
O O9 0.010520 0.250000 0.857875
O O10 0.133232 0.526323 0.668244
O O11 0.000000 0.500000 0.000000
O O12 0.897939 0.534921 0.998424
O O13 0.043372 0.750000 0.369498
O O14 0.127592 0.568920 0.121311
O O15 0.221647 0.750000 0.857177
O O16 0.305310 0.033740 0.813795
O O17 0.751913 0.750000 0.489954
O O18 0.683824 0.516395 0.701991
O O19 0.584584 0.250000 0.912298
O O20 0.401386 0.750000 0.733628
O O21 0.500000 0.000000 0.500000
#
# Coordination Sequence:
#
# PCOD9158160 Si02
#       8
#     4   4   4   4   4   4   4   4
#     4   9  20  38  60  84 115 157 201 242 299 360
#     4  10  19  30  49  79 116 151 188 234 285 341
#     4  10  22  39  61  87 116 154 196 242 299 355
#     4   9  17  32  53  76 104 147 193 234 283 342
#     4   9  18  35  57  79 108 144 183 227 286 352
#     4  10  21  39  61  85 117 156 198 250 304 353
#     4  11  21  35  57  85 116 156 200 241 290 360
#     4  10  21  38  60  84 112 150 193 240 292 353
#
# _framework density 23.760546000000001
#
# number of rings (size 3 to 8) (size 9 to 14) (size 15 to 20)
#    0.000    2.250    0.000    2.625    1.750    5.000 
#    0.000    5.000    0.000    0.000    0.000    0.000 
#    0.000    0.000    0.000    0.000    0.000    0.000 
#
# Total GULP energy -178236.416809 kJ/mol
# GULP energy per Si atom -5569.888025 kJ/mol
# Density = 2.370647 g / cm^3
# Si number density = 23.760546 Si / 1000 Ang^3
#
#
#
# Elastic Constant Matrix: (Units=GPa)
#
#
# Indices 1 2 3 4 5 6 
#
# 1 168.6127 17.4294 125.3242 0.0000 -44.2985 0.0000
# 2 17.4294 47.5497 -18.3665 0.0000 -1.7601 0.0000
# 3 125.3242 -18.3665 279.6200 0.0000 -95.9275 0.0000
# 4 0.0000 0.0000 0.0000 18.6275 0.0000 -0.0332
# 5 -44.2985 -1.7601 -95.9275 0.0000 74.1796 0.0000
# 6 0.0000 0.0000 0.0000 -0.0332 0.0000 29.5216
#
#
#
# Elastic Compliance Matrix: (Units=1/GPa)
#
#
# Indices 1 2 3 4 5 6 
#
# 1 0.010206 -0.005792 -0.005232 0.000000 -0.000809 0.000000
# 2 -0.005792 0.025624 0.005933 0.000000 0.004822 0.000000
# 3 -0.005232 0.005933 0.009504 0.000000 0.009306 0.000000
# 4 0.000000 0.000000 0.000000 0.053684 0.000000 0.000060
# 5 -0.000809 0.004822 0.009306 0.000000 0.025147 0.000000
# 6 0.000000 0.000000 0.000000 0.000060 0.000000 0.033874
#
#
# Mechanical properties :
#
#
# Convention : Reuss Voigt Hill
#
# Bulk Modulus (GPa) = 28.44811 82.72853 55.58832
# Shear Modulus (GPa) = 27.78759 49.22541 38.50650
#
# Velocity S-wave (km/s) = 3.42348 4.55656 4.03004
# Velocity P-wave (km/s) = 5.25603 7.91051 6.71573
#
# Compressibility (1/GPa) = 0.03515172
#
# Stress axis : x y z
#
# Youngs Moduli (GPa) = 97.98354 39.02613 105.22365
#
# Poissons Ratio (x) = 0.22603 0.55054
# Poissons Ratio (y) = 0.56750 -0.62431
# Poissons Ratio (z) = 0.51266 -0.23155
#
# Static dielectric constant tensor:
#      x y z
#    x 1.964620 0.000000 -0.092890 
#    y 0.000000 2.062760 0.000000 
#    z -0.092890 0.000000 2.000630 
# 
# From -- ./inp_files/55531.got.cif
#   From: 2010.05.17/outbox.cif.g08.bks.cpg/sg11_28_cif.got.tgz:55531.got - 2010.06.03 12:22:45.
