data_PCOD9158840
_publ_section_title
;
Structure prediction by ZEFSAII (Michael W. Deem and Ramdas Pophale) SiO2 
 PCOD9158840
Probable space group: P 21/M
;
_chemical_formula_sum "Si O2"
_cell_formula_units_Z 32
_cell_length_a 12.871276
_cell_length_b 9.094686
_cell_length_c 30.508777
_cell_angle_alpha 90.000000
_cell_angle_beta 24.970920
_cell_angle_gamma 90.000000
_cell_volume 1507.680643
_symmetry_space_group_name_H-M "P 21/M"
_symmetry_group_IT_number 11
_symmetry_cell_setting 'monoclinic'
loop_
_space_group_symop_operation_xyz
x,y,z
-x,1/2+y,-z
-x,-y,-z
x,1/2-y,z
loop_
_atom_site_type_symbol
_atom_site_label
_atom_site_fract_x
_atom_site_fract_y
_atom_site_fract_z
Si Si1 0.054390 0.417934 0.349708
Si Si2 0.727065 0.424164 0.052065
Si Si3 0.747826 0.424212 0.141374
Si Si4 0.518091 0.586685 0.449150
Si Si5 0.293764 0.573170 0.173538
Si Si6 0.036583 0.426408 0.780993
Si Si7 0.083256 0.073595 0.513078
Si Si8 0.635654 0.076658 0.280832
O O1 0.153050 0.250000 0.314381
O O2 0.758257 0.405038 0.461652
O O3 0.078283 0.511119 0.385001
O O4 0.140115 0.496729 0.272006
O O5 0.714595 0.250000 0.048454
O O6 0.628320 0.454978 0.139641
O O7 0.566267 0.512862 0.078660
O O8 0.005584 0.480300 0.948052
O O9 0.813165 0.250000 0.115120
O O10 0.600462 0.449948 0.242327
O O11 0.500000 0.500000 0.500000
O O12 0.609851 0.750000 0.424125
O O13 0.725425 0.524625 0.338374
O O14 0.280842 0.750000 0.182648
O O15 0.188838 0.533864 0.165207
O O16 0.031006 0.250000 0.788844
O O17 0.117409 0.496789 0.796132
O O18 0.062727 0.250000 0.519393
O O19 0.376842 0.037422 0.402755
O O20 0.000000 0.000000 0.500000
O O21 0.673937 0.250000 0.272638
#
# Coordination Sequence:
#
# PCOD9158840 Si02
#       8
#     4   4   4   4   4   4   4   4
#     4  11  22  36  55  80 114 156 199 244 290 340
#     4  10  21  39  65  93 118 146 187 241 298 359
#     4   9  20  41  65  89 117 149 186 239 298 352
#     4  10  19  32  51  75 107 148 193 238 281 328
#     4  11  23  38  58  87 122 157 197 245 298 349
#     4  10  21  37  55  81 118 157 198 245 290 344
#     4  11  24  39  56  83 119 160 201 244 294 348
#     4  10  22  39  61  86 117 157 198 241 292 351
#
# _framework density 21.224654000000001
#
# number of rings (size 3 to 8) (size 9 to 14) (size 15 to 20)
#    0.000    1.750    2.500    1.500    1.750    3.500 
#    0.000    0.625    0.000    0.000    0.000    0.000 
#    0.000    0.000    0.000    0.000    0.000    0.000 
#
# Total GULP energy -178465.049044 kJ/mol
# GULP energy per Si atom -5577.032783 kJ/mol
# Density = 2.117635 g / cm^3
# Si number density = 21.224654 Si / 1000 Ang^3
#
#
#
# Elastic Constant Matrix: (Units=GPa)
#
#
# Indices 1 2 3 4 5 6 
#
# 1 116.1532 45.9495 -1.7566 0.0000 -20.9797 0.0000
# 2 45.9495 56.4909 12.4555 0.0000 -5.6313 0.0000
# 3 -1.7566 12.4555 30.0550 0.0000 -8.5249 0.0000
# 4 0.0000 0.0000 0.0000 23.9672 0.0000 -3.0008
# 5 -20.9797 -5.6313 -8.5249 0.0000 36.1746 0.0000
# 6 0.0000 0.0000 0.0000 -3.0008 0.0000 36.0819
#
#
#
# Elastic Compliance Matrix: (Units=1/GPa)
#
#
# Indices 1 2 3 4 5 6 
#
# 1 0.016070 -0.014232 0.009486 0.000000 0.009340 0.000000
# 2 -0.014232 0.032136 -0.016151 0.000000 -0.007057 0.000000
# 3 0.009486 -0.016151 0.044331 0.000000 0.013434 0.000000
# 4 0.000000 0.000000 0.000000 0.042163 0.000000 0.003507
# 5 0.009340 -0.007057 0.013434 0.000000 0.035128 0.000000
# 6 0.000000 0.000000 0.000000 0.003507 0.000000 0.028006
#
#
# Mechanical properties :
#
#
# Convention : Reuss Voigt Hill
#
# Bulk Modulus (GPa) = 19.70719 35.11065 27.40892
# Shear Modulus (GPa) = 19.49012 28.98145 24.23579
#
# Velocity S-wave (km/s) = 3.03360 3.69922 3.38282
# Velocity P-wave (km/s) = 4.64494 5.90118 5.31034
#
# Compressibility (1/GPa) = 0.05074290
#
# Stress axis : x y z
#
# Youngs Moduli (GPa) = 62.22896 31.11820 22.55769
#
# Poissons Ratio (x) = 0.44286 -0.21399
# Poissons Ratio (y) = 0.88562 0.36433
# Poissons Ratio (z) = -0.59032 0.50260
#
# Static dielectric constant tensor:
#      x y z
#    x 1.809220 0.000000 -0.018600 
#    y 0.000000 1.728390 0.000000 
#    z -0.018600 0.000000 1.757410 
# 
# From -- ./inp_files/73097.got.cif
#   From: 2010.05.17/outbox.cif.g08.bks.cpg/sg11_37_cif.got.tgz:73097.got - 2010.06.03 12:22:45.
