data_PCOD9158731
_publ_section_title
;
Structure prediction by ZEFSAII (Michael W. Deem and Ramdas Pophale) SiO2 
 PCOD9158731
Probable space group: P 21/M
;
_chemical_formula_sum "Si O2"
_cell_formula_units_Z 28
_cell_length_a 31.613270
_cell_length_b 7.807655
_cell_length_c 9.849861
_cell_angle_alpha 90.000000
_cell_angle_beta 28.599792
_cell_angle_gamma 90.000000
_cell_volume 1163.786422
_symmetry_space_group_name_H-M "P 21/M"
_symmetry_group_IT_number 11
_symmetry_cell_setting 'monoclinic'
loop_
_space_group_symop_operation_xyz
x,y,z
-x,1/2+y,-z
-x,-y,-z
x,1/2-y,z
loop_
_atom_site_type_symbol
_atom_site_label
_atom_site_fract_x
_atom_site_fract_y
_atom_site_fract_z
Si Si1 0.810680 0.543699 0.528812
Si Si2 0.507225 0.451990 0.637865
Si Si3 0.900918 0.045199 0.831595
Si Si4 0.036166 0.050668 0.070421
Si Si5 0.151284 0.544249 0.299100
Si Si6 0.407959 0.453195 0.337276
Si Si7 0.668364 0.539497 0.714358
O O1 0.813340 0.750000 0.514953
O O2 0.785958 0.497332 0.752225
O O3 0.744169 0.480309 0.602057
O O4 0.907516 0.475171 0.211666
O O5 0.500000 0.500000 0.500000
O O6 0.500775 0.250000 0.657000
O O7 0.586695 0.491699 0.520350
O O8 0.421078 0.520505 0.958933
O O9 0.893936 0.250000 0.868778
O O10 0.837937 0.984555 0.885892
O O11 0.897453 0.959055 0.987216
O O12 0.000000 0.000000 0.500000
O O13 0.019984 0.250000 0.089697
O O14 0.944093 0.972170 0.380336
O O15 0.145108 0.750000 0.306885
O O16 0.401450 0.250000 0.358638
O O17 0.335384 0.518345 0.432209
O O18 0.500000 0.500000 0.000000
O O19 0.669926 0.750000 0.709313
#
# Coordination Sequence:
#
# PCOD9158731 Si02
#       7
#     4   4   4   4   4   4   4
#     4  10  19  32  50  71  95 128 166 201 238 288
#     4  10  19  33  54  79 103 128 162 203 243 290
#     4   9  17  30  48  67  90 118 154 199 245 289
#     4   9  18  31  48  70  95 123 163 206 242 287
#     4   9  18  31  45  68  98 126 159 204 249 283
#     4   9  16  30  52  75 100 129 159 195 236 284
#     4   8  17  33  51  72  99 128 161 200 241 283
#
# _framework density 24.059398000000002
#
# number of rings (size 3 to 8) (size 9 to 14) (size 15 to 20)
#    0.000    2.857    0.000    3.429    0.000    3.429 
#    0.000    5.714    0.000    6.857    0.000    0.000 
#    0.000    0.000    0.000    0.000    0.000    0.000 
#
# Total GULP energy -156050.285339 kJ/mol
# GULP energy per Si atom -5573.224476 kJ/mol
# Density = 2.400464 g / cm^3
# Si number density = 24.059398 Si / 1000 Ang^3
#
#
#
# Elastic Constant Matrix: (Units=GPa)
#
#
# Indices 1 2 3 4 5 6 
#
# 1 205.2266 11.0331 32.8677 0.0000 41.7642 0.0000
# 2 11.0331 52.6058 -0.9975 0.0000 3.6285 0.0000
# 3 32.8677 -0.9975 44.7719 0.0000 26.6774 0.0000
# 4 0.0000 0.0000 0.0000 9.6374 0.0000 10.8476
# 5 41.7642 3.6285 26.6774 0.0000 37.6167 0.0000
# 6 0.0000 0.0000 0.0000 10.8476 0.0000 34.8447
#
#
#
# Elastic Compliance Matrix: (Units=1/GPa)
#
#
# Indices 1 2 3 4 5 6 
#
# 1 0.006354 -0.000915 -0.000925 0.000000 -0.006311 0.000000
# 2 -0.000915 0.019451 0.002802 0.000000 -0.002847 0.000000
# 3 -0.000925 0.002802 0.039184 0.000000 -0.027032 0.000000
# 4 0.000000 0.000000 0.000000 0.159735 0.000000 -0.049727
# 5 -0.006311 -0.002847 -0.027032 0.000000 0.053036 0.000000
# 6 0.000000 0.000000 0.000000 -0.049727 0.000000 0.044179
#
#
# Mechanical properties :
#
#
# Convention : Reuss Voigt Hill
#
# Bulk Modulus (GPa) = 14.94495 43.15679 29.05087
# Shear Modulus (GPa) = 14.60622 33.73315 24.16969
#
# Velocity S-wave (km/s) = 2.46659 3.74850 3.17296
# Velocity P-wave (km/s) = 3.78646 6.05900 5.05217
#
# Compressibility (1/GPa) = 0.06691223
#
# Stress axis : x y z
#
# Youngs Moduli (GPa) = 157.37605 51.41203 25.52061
#
# Poissons Ratio (x) = 0.04704 0.02360
# Poissons Ratio (y) = 0.14399 -0.07150
# Poissons Ratio (z) = 0.14556 -0.14403
#
# Static dielectric constant tensor:
#      x y z
#    x 2.076750 0.000000 -0.038740 
#    y 0.000000 1.871370 0.000000 
#    z -0.038740 0.000000 2.013910 
# 
# From -- ./inp_files/28972.got.cif
#   From: 2010.05.17/outbox.cif.g08.bks.cpg/sg11_15_cif.got.tgz:28972.got - 2010.06.03 12:22:45.
