data_PCOD9158854
_publ_section_title
;
Structure prediction by ZEFSAII (Michael W. Deem and Ramdas Pophale) SiO2 
 PCOD9158854
Probable space group: P 21/M
;
_chemical_formula_sum "Si O2"
_cell_formula_units_Z 32
_cell_length_a 12.020203
_cell_length_b 8.921797
_cell_length_c 21.954797
_cell_angle_alpha 90.000000
_cell_angle_beta 127.934794
_cell_angle_gamma 90.000000
_cell_volume 1856.997887
_symmetry_space_group_name_H-M "P 21/M"
_symmetry_group_IT_number 11
_symmetry_cell_setting 'monoclinic'
loop_
_space_group_symop_operation_xyz
x,y,z
-x,1/2+y,-z
-x,-y,-z
x,1/2-y,z
loop_
_atom_site_type_symbol
_atom_site_label
_atom_site_fract_x
_atom_site_fract_y
_atom_site_fract_z
Si Si1 0.014316 0.071773 0.777597
Si Si2 0.727081 0.071893 0.079372
Si Si3 0.725748 0.930652 0.648635
Si Si4 0.445929 0.569537 0.625062
Si Si5 0.095923 0.570776 0.676609
Si Si6 0.496517 0.071849 0.903439
Si Si7 0.417074 0.929485 0.752400
Si Si8 0.203955 0.071024 0.467219
O O1 0.010795 0.250000 0.778384
O O2 0.122672 0.006857 0.863482
O O3 0.074536 0.015687 0.732620
O O4 0.857642 0.004099 0.727505
O O5 0.742929 0.250000 0.092478
O O6 0.625517 0.009766 0.098681
O O7 0.642175 0.042498 0.988431
O O8 0.737731 0.750000 0.657034
O O9 0.577298 0.978012 0.627315
O O10 0.740603 0.969357 0.582134
O O11 0.439693 0.750000 0.621875
O O12 0.466578 0.523819 0.702087
O O13 0.300883 0.507792 0.549113
O O14 0.086046 0.750000 0.686100
O O15 0.249090 0.540407 0.701062
O O16 0.962261 0.532524 0.589154
O O17 0.470551 0.250000 0.896271
O O18 0.491500 0.011445 0.833447
O O19 0.436064 0.750000 0.765424
O O20 0.216889 0.250000 0.478369
#
# Coordination Sequence:
#
# PCOD9158854 Si02
#       8
#     4   4   4   4   4   4   4   4
#     4  11  20  30  51  81 105 128 170 215 253 303
#     4  10  19  32  51  76 108 138 163 202 255 301
#     4   9  19  36  54  72 101 135 171 216 265 306
#     4  10  21  35  52  75  99 135 180 214 253 309
#     4   9  18  33  50  71 103 140 169 201 259 312
#     4  10  20  32  50  78 106 135 172 206 242 297
#     4  10  20  34  52  72 104 143 173 206 253 307
#     4   9  18  32  51  73  98 133 172 217 265 303
#
# _framework density 17.232113999999999
#
# number of rings (size 3 to 8) (size 9 to 14) (size 15 to 20)
#    0.000    2.250    1.250    3.000    0.000    5.000 
#    0.000    0.000    0.000    0.750    0.000    0.000 
#    0.000    0.000    0.000    0.000    0.000    0.000 
#
# Total GULP energy -178552.258427 kJ/mol
# GULP energy per Si atom -5579.758076 kJ/mol
# Density = 1.719289 g / cm^3
# Si number density = 17.232114 Si / 1000 Ang^3
#
#
#
# Elastic Constant Matrix: (Units=GPa)
#
#
# Indices 1 2 3 4 5 6 
#
# 1 4.5478 3.4784 4.2201 0.0000 -5.4905 0.0000
# 2 3.4784 29.1636 29.7014 0.0000 0.7054 0.0000
# 3 4.2201 29.7014 106.5634 0.0000 -0.2599 0.0000
# 4 0.0000 0.0000 0.0000 32.0661 0.0000 3.2254
# 5 -5.4905 0.7054 -0.2599 0.0000 19.6793 0.0000
# 6 0.0000 0.0000 0.0000 3.2254 0.0000 12.1285
#
#
#
# Elastic Compliance Matrix: (Units=1/GPa)
#
#
# Indices 1 2 3 4 5 6 
#
# 1 0.392115 -0.047360 -0.002057 0.000000 0.111071 0.000000
# 2 -0.047360 0.053672 -0.013121 0.000000 -0.015311 0.000000
# 3 -0.002057 -0.013121 0.013123 0.000000 0.000070 0.000000
# 4 0.000000 0.000000 0.000000 0.032043 0.000000 -0.008521
# 5 0.111071 -0.015311 0.000070 0.000000 0.082353 0.000000
# 6 0.000000 0.000000 0.000000 -0.008521 0.000000 0.084717
#
#
# Mechanical properties :
#
#
# Convention : Reuss Voigt Hill
#
# Bulk Modulus (GPa) = 2.99552 23.89718 13.44635
# Shear Modulus (GPa) = 5.59048 19.63310 12.61179
#
# Velocity S-wave (km/s) = 1.80313 3.37906 2.70826
# Velocity P-wave (km/s) = 2.46518 5.39648 4.19518
#
# Compressibility (1/GPa) = 0.33383237
#
# Stress axis : x y z
#
# Youngs Moduli (GPa) = 2.55027 18.63181 76.20294
#
# Poissons Ratio (x) = 0.88241 0.15677
# Poissons Ratio (y) = 0.12078 0.99987
# Poissons Ratio (z) = 0.00525 0.24447
#
# Static dielectric constant tensor:
#      x y z
#    x 1.572790 0.000000 0.009730 
#    y 0.000000 1.575060 0.000000 
#    z 0.009730 0.000000 1.588630 
# 
# From -- ./inp_files/42411.got.cif
#   From: 2010.05.17/outbox.cif.g08.bks.cpg/sg11_22_cif.got.tgz:42411.got - 2010.06.03 12:22:45.
