data_PCOD9158912
_publ_section_title
;
Structure prediction by ZEFSAII (Michael W. Deem and Ramdas Pophale) SiO2 
 PCOD9158912
Probable space group: P 21/M
;
_chemical_formula_sum "Si O2"
_cell_formula_units_Z 28
_cell_length_a 28.807073
_cell_length_b 8.610063
_cell_length_c 9.894386
_cell_angle_alpha 90.000000
_cell_angle_beta 139.837321
_cell_angle_gamma 90.000000
_cell_volume 1582.803912
_symmetry_space_group_name_H-M "P 21/M"
_symmetry_group_IT_number 11
_symmetry_cell_setting 'monoclinic'
loop_
_space_group_symop_operation_xyz
x,y,z
-x,1/2+y,-z
-x,-y,-z
x,1/2-y,z
loop_
_atom_site_type_symbol
_atom_site_label
_atom_site_fract_x
_atom_site_fract_y
_atom_site_fract_z
Si Si1 0.421200 0.563698 0.357896
Si Si2 0.603767 0.932356 0.119247
Si Si3 0.298456 0.933940 0.881100
Si Si4 0.561677 0.064560 0.302901
Si Si5 0.857010 0.935684 0.501559
Si Si6 0.931619 0.937080 0.930771
Si Si7 0.993137 0.436514 0.637332
O O1 0.500000 0.500000 0.500000
O O2 0.425020 0.750000 0.352092
O O3 0.406021 0.528286 0.480097
O O4 0.357725 0.506421 0.120289
O O5 0.615908 0.750000 0.123416
O O6 0.664427 0.029132 0.179249
O O7 0.598475 0.971895 0.264824
O O8 0.523800 0.973086 0.885768
O O9 0.289404 0.750000 0.878848
O O10 0.221538 0.013770 0.720137
O O11 0.566549 0.250000 0.287564
O O12 0.864858 0.750000 0.511027
O O13 0.867931 0.982175 0.685052
O O14 0.919197 0.009920 0.546227
O O15 0.933196 0.750000 0.937207
O O16 0.944199 0.987161 0.114751
O O17 0.000000 0.000000 0.000000
O O18 0.994019 0.250000 0.631796
O O19 0.000000 0.500000 0.500000
#
# Coordination Sequence:
#
# PCOD9158912 Si02
#       7
#     4   4   4   4   4   4   4
#     4  10  20  34  53  76 103 137 179 224 272 325
#     4  10  19  32  52  75  99 131 171 215 265 318
#     4  11  22  35  53  78 108 141 177 222 274 323
#     4   9  18  33  51  73 100 128 167 219 268 315
#     4  10  20  36  56  79 108 143 181 220 264 315
#     4   8  16  31  53  78 104 135 172 212 251 301
#     4  10  19  34  57  86 115 142 176 216 261 313
#
# _framework density 17.690125999999999
#
# number of rings (size 3 to 8) (size 9 to 14) (size 15 to 20)
#    0.000    2.286    1.429    1.714    0.000    2.857 
#    0.000    1.429    0.000    0.000    0.000    0.000 
#    0.000    0.000    0.000    0.000    0.000    0.000 
#
# Total GULP energy -156016.142687 kJ/mol
# GULP energy per Si atom -5572.005096 kJ/mol
# Density = 1.764986 g / cm^3
# Si number density = 17.690126 Si / 1000 Ang^3
#
#
#
# Elastic Constant Matrix: (Units=GPa)
#
#
# Indices 1 2 3 4 5 6 
#
# 1 70.9897 20.3683 57.5810 0.0000 -14.6705 0.0000
# 2 20.3683 25.1408 27.5307 0.0000 -5.7177 0.0000
# 3 57.5810 27.5307 136.3828 0.0000 -12.0390 0.0000
# 4 0.0000 0.0000 0.0000 22.5597 0.0000 0.0542
# 5 -14.6705 -5.7177 -12.0390 0.0000 25.9377 0.0000
# 6 0.0000 0.0000 0.0000 0.0542 0.0000 29.8055
#
#
#
# Elastic Compliance Matrix: (Units=1/GPa)
#
#
# Indices 1 2 3 4 5 6 
#
# 1 0.024960 -0.009747 -0.007835 0.000000 0.008332 0.000000
# 2 -0.009747 0.056029 -0.006873 0.000000 0.003648 0.000000
# 3 -0.007835 -0.006873 0.011994 0.000000 -0.000380 0.000000
# 4 0.000000 0.000000 0.000000 0.044327 0.000000 -0.000081
# 5 0.008332 0.003648 -0.000380 0.000000 0.043895 0.000000
# 6 0.000000 0.000000 0.000000 -0.000081 0.000000 0.033551
#
#
# Mechanical properties :
#
#
# Convention : Reuss Voigt Hill
#
# Bulk Modulus (GPa) = 22.68970 49.27479 35.98224
# Shear Modulus (GPa) = 17.96251 24.12945 21.04598
#
# Velocity S-wave (km/s) = 3.18999 3.69725 3.45295
# Velocity P-wave (km/s) = 5.14024 6.79273 6.02342
#
# Compressibility (1/GPa) = 0.04407287
#
# Stress axis : x y z
#
# Youngs Moduli (GPa) = 40.06345 17.84801 83.37359
#
# Poissons Ratio (x) = 0.17397 0.65325
# Poissons Ratio (y) = 0.39050 0.57302
# Poissons Ratio (z) = 0.31390 0.12267
#
# Static dielectric constant tensor:
#      x y z
#    x 1.569460 0.000000 -0.026730 
#    y 0.000000 1.597600 0.000000 
#    z -0.026730 0.000000 1.650270 
# 
# From -- ./inp_files/28608.got.cif
#   From: 2010.05.17/outbox.cif.g08.bks.cpg/sg11_15_cif.got.tgz:28608.got - 2010.06.03 12:22:45.
