data_PCOD9158042
_publ_section_title
;
Structure prediction by ZEFSAII (Michael W. Deem and Ramdas Pophale) SiO2 
 PCOD9158042
Probable space group: P 21/M
;
_chemical_formula_sum "Si O2"
_cell_formula_units_Z 32
_cell_length_a 15.984892
_cell_length_b 20.974831
_cell_length_c 15.738385
_cell_angle_alpha 90.000000
_cell_angle_beta 18.677034
_cell_angle_gamma 90.000000
_cell_volume 1689.798118
_symmetry_space_group_name_H-M "P 21/M"
_symmetry_group_IT_number 11
_symmetry_cell_setting 'monoclinic'
loop_
_space_group_symop_operation_xyz
x,y,z
-x,1/2+y,-z
-x,-y,-z
x,1/2-y,z
loop_
_atom_site_type_symbol
_atom_site_label
_atom_site_fract_x
_atom_site_fract_y
_atom_site_fract_z
Si Si1 0.412430 0.987820 0.387783
Si Si2 0.741173 0.322360 0.903535
Si Si3 0.812862 0.560841 0.693119
Si Si4 0.326380 0.871448 0.223566
Si Si5 0.047425 0.459679 0.039341
Si Si6 0.574754 0.149532 0.690088
Si Si7 0.036986 0.178629 0.113193
Si Si8 0.732920 0.608674 0.580715
O O1 0.412507 0.927915 0.323449
O O2 0.173606 0.978242 0.681049
O O3 0.370342 0.054517 0.382205
O O4 0.676618 0.980492 0.186835
O O5 0.827411 0.250000 0.826674
O O6 0.684482 0.337797 0.858326
O O7 0.972720 0.367201 0.715560
O O8 0.478090 0.335295 0.208933
O O9 0.739762 0.579209 0.668139
O O10 0.000000 0.500000 0.500000
O O11 0.026145 0.608524 0.528299
O O12 0.540098 0.570705 0.005928
O O13 0.407422 0.831861 0.228470
O O14 0.032979 0.381805 0.052141
O O15 0.000000 0.500000 0.000000
O O16 0.806056 0.171392 0.404888
O O17 0.306315 0.171096 0.905728
O O18 0.022337 0.250000 0.089654
#
# Coordination Sequence:
#
# PCOD9158042 Si02
#       8
#     4   4   4   4   4   4   4   4
#     4  10  20  35  58  85 110 137 175 220 273 331
#     4  10  21  35  50  70 101 146 194 236 279 319
#     4  10  19  30  47  71 102 137 176 223 273 317
#     4  10  20  32  47  71 102 142 186 225 270 320
#     4  10  21  38  61  87 114 141 173 219 272 335
#     4  10  20  34  53  81 114 145 179 224 270 323
#     4  10  21  36  56  82 112 148 180 213 270 334
#     4  10  20  34  53  75 100 138 181 228 276 321
#
# _framework density 18.937172
#
# number of rings (size 3 to 8) (size 9 to 14) (size 15 to 20)
#    0.000    2.000    0.000    3.750    0.000    5.000 
#    0.000    0.000    0.000    4.500    0.000    0.000 
#    0.000    0.000    0.000    0.000    0.000    0.000 
#
# Total GULP energy -178346.114530 kJ/mol
# GULP energy per Si atom -5573.316079 kJ/mol
# Density = 1.889407 g / cm^3
# Si number density = 18.937172 Si / 1000 Ang^3
#
#
#
# Elastic Constant Matrix: (Units=GPa)
#
#
# Indices 1 2 3 4 5 6 
#
# 1 61.4537 44.6972 39.8814 0.0000 -14.5492 0.0000
# 2 44.6972 108.1204 18.9603 0.0000 -6.8502 0.0000
# 3 39.8814 18.9603 126.8702 0.0000 -15.3254 0.0000
# 4 0.0000 0.0000 0.0000 33.0682 0.0000 -9.8354
# 5 -14.5492 -6.8502 -15.3254 0.0000 8.5947 0.0000
# 6 0.0000 0.0000 0.0000 -9.8354 0.0000 8.7213
#
#
#
# Elastic Compliance Matrix: (Units=1/GPa)
#
#
# Indices 1 2 3 4 5 6 
#
# 1 0.040395 -0.012710 -0.004795 0.000000 0.049702 0.000000
# 2 -0.012710 0.013783 0.000846 0.000000 -0.009022 0.000000
# 3 -0.004795 0.000846 0.010660 0.000000 0.011565 0.000000
# 4 0.000000 0.000000 0.000000 0.045503 0.000000 0.051316
# 5 0.049702 -0.009022 0.011565 0.000000 0.213918 0.000000
# 6 0.000000 0.000000 0.000000 0.051316 0.000000 0.172533
#
#
# Mechanical properties :
#
#
# Convention : Reuss Voigt Hill
#
# Bulk Modulus (GPa) = 31.72538 55.94690 43.83614
# Shear Modulus (GPa) = 9.24868 22.93721 16.09295
#
# Velocity S-wave (km/s) = 2.21235 3.48404 2.91831
# Velocity P-wave (km/s) = 4.82859 6.76700 5.87825
#
# Compressibility (1/GPa) = 0.03152050
#
# Stress axis : x y z
#
# Youngs Moduli (GPa) = 24.75537 72.55177 93.80851
#
# Poissons Ratio (x) = 0.92211 0.44981
# Poissons Ratio (y) = 0.31463 -0.07933
# Poissons Ratio (z) = 0.11870 -0.06135
#
# Static dielectric constant tensor:
#      x y z
#    x 1.631070 0.000000 -0.002680 
#    y 0.000000 1.734840 0.000000 
#    z -0.002680 0.000000 1.671390 
# 
# From -- ./inp_files/52692.got.cif
#   From: 2010.05.17/outbox.cif.g08.bks.cpg/sg11_27_cif.got.tgz:52692.got - 2010.06.03 12:22:45.
