data_PCOD9158509
_publ_section_title
;
Structure prediction by ZEFSAII (Michael W. Deem and Ramdas Pophale) SiO2 
 PCOD9158509
Probable space group: P 21/M
;
_chemical_formula_sum "Si O2"
_cell_formula_units_Z 28
_cell_length_a 19.372448
_cell_length_b 8.692912
_cell_length_c 10.698075
_cell_angle_alpha 90.000000
_cell_angle_beta 57.398314
_cell_angle_gamma 90.000000
_cell_volume 1517.723373
_symmetry_space_group_name_H-M "P 21/M"
_symmetry_group_IT_number 11
_symmetry_cell_setting 'monoclinic'
loop_
_space_group_symop_operation_xyz
x,y,z
-x,1/2+y,-z
-x,-y,-z
x,1/2-y,z
loop_
_atom_site_type_symbol
_atom_site_label
_atom_site_fract_x
_atom_site_fract_y
_atom_site_fract_z
Si Si1 0.026208 0.073169 0.169269
Si Si2 0.079902 0.573482 0.360065
Si Si3 0.559294 0.065538 0.049184
Si Si4 0.260387 0.069931 0.832141
Si Si5 0.251388 0.936563 0.116708
Si Si6 0.546329 0.569675 0.336264
Si Si7 0.881999 0.429473 0.148506
O O1 0.040013 0.250000 0.196346
O O2 0.930174 0.051994 0.231266
O O3 0.059167 0.951770 0.234980
O O4 0.073333 0.040212 0.994531
O O5 0.081568 0.750000 0.396899
O O6 0.173911 0.513227 0.277853
O O7 0.000000 0.500000 0.500000
O O8 0.555988 0.250000 0.049973
O O9 0.533734 0.008602 0.212947
O O10 0.655649 0.019989 0.935501
O O11 0.500000 0.000000 0.000000
O O12 0.239733 0.250000 0.846147
O O13 0.357394 0.053314 0.727997
O O14 0.211743 0.977228 0.773726
O O15 0.238268 0.004556 0.990789
O O16 0.248229 0.750000 0.111989
O O17 0.500000 0.500000 0.500000
O O18 0.526765 0.750000 0.343075
O O19 0.892627 0.250000 0.103392
#
# Coordination Sequence:
#
# PCOD9158509 Si02
#       7
#     4   4   4   4   4   4   4
#     4  10  20  33  50  74 103 135 173 218 262 308
#     4  11  22  36  54  76 105 143 184 227 273 325
#     4  10  20  37  61  88 116 149 189 237 287 346
#     4  10  19  31  53  81 108 138 180 226 268 322
#     4   9  19  35  55  78 106 141 184 226 273 331
#     4  10  21  37  57  85 116 149 187 233 286 343
#     4  10  19  31  50  76 105 136 171 213 263 313
#
# _framework density 18.448684
#
# number of rings (size 3 to 8) (size 9 to 14) (size 15 to 20)
#    0.000    2.000    1.429    2.571    0.000    4.571 
#    0.000    1.429    0.000    1.714    0.000    0.000 
#    0.000    0.000    0.000    0.000    0.000    0.000 
#
# Total GULP energy -156010.563660 kJ/mol
# GULP energy per Si atom -5571.805845 kJ/mol
# Density = 1.840669 g / cm^3
# Si number density = 18.448684 Si / 1000 Ang^3
#
#
#
# Elastic Constant Matrix: (Units=GPa)
#
#
# Indices 1 2 3 4 5 6 
#
# 1 115.5610 37.1260 37.1164 0.0000 -11.9712 0.0000
# 2 37.1260 49.9670 28.9240 0.0000 -13.2899 0.0000
# 3 37.1164 28.9240 102.5249 0.0000 -23.8489 0.0000
# 4 0.0000 0.0000 0.0000 28.5543 0.0000 -0.0357
# 5 -11.9712 -13.2899 -23.8489 0.0000 17.4312 0.0000
# 6 0.0000 0.0000 0.0000 -0.0357 0.0000 30.7039
#
#
#
# Elastic Compliance Matrix: (Units=1/GPa)
#
#
# Indices 1 2 3 4 5 6 
#
# 1 0.011756 -0.007639 -0.002314 0.000000 -0.000917 0.000000
# 2 -0.007639 0.031153 -0.002521 0.000000 0.015056 0.000000
# 3 -0.002314 -0.002521 0.015381 0.000000 0.017533 0.000000
# 4 0.000000 0.000000 0.000000 0.035021 0.000000 0.000041
# 5 -0.000917 0.015056 0.017533 0.000000 0.092206 0.000000
# 6 0.000000 0.000000 0.000000 0.000041 0.000000 0.032569
#
#
# Mechanical properties :
#
#
# Convention : Reuss Voigt Hill
#
# Bulk Modulus (GPa) = 29.99228 52.70952 41.35090
# Shear Modulus (GPa) = 19.67360 26.33033 23.00196
#
# Velocity S-wave (km/s) = 3.26911 3.78195 3.53485
# Velocity P-wave (km/s) = 5.52647 6.90680 6.25483
#
# Compressibility (1/GPa) = 0.03334191
#
# Stress axis : x y z
#
# Youngs Moduli (GPa) = 85.06380 32.09969 65.01522
#
# Poissons Ratio (x) = 0.24521 0.15044
# Poissons Ratio (y) = 0.64980 0.16390
# Poissons Ratio (z) = 0.19684 0.08092
#
# Static dielectric constant tensor:
#      x y z
#    x 1.683650 0.000000 -0.040310 
#    y 0.000000 1.629310 0.000000 
#    z -0.040310 0.000000 1.668270 
# 
# From -- ./inp_files/42352.got.cif
#   From: 2010.05.17/outbox.cif.g08.bks.cpg/sg11_22_cif.got.tgz:42352.got - 2010.06.03 12:22:45.
