data_PCOD9158740
_publ_section_title
;
Structure prediction by ZEFSAII (Michael W. Deem and Ramdas Pophale) SiO2 
 PCOD9158740
Probable space group: P 21/M
;
_chemical_formula_sum "Si O2"
_cell_formula_units_Z 32
_cell_length_a 23.071319
_cell_length_b 8.397720
_cell_length_c 14.833940
_cell_angle_alpha 90.000000
_cell_angle_beta 142.660633
_cell_angle_gamma 90.000000
_cell_volume 1743.195379
_symmetry_space_group_name_H-M "P 21/M"
_symmetry_group_IT_number 11
_symmetry_cell_setting 'monoclinic'
loop_
_space_group_symop_operation_xyz
x,y,z
-x,1/2+y,-z
-x,-y,-z
x,1/2-y,z
loop_
_atom_site_type_symbol
_atom_site_label
_atom_site_fract_x
_atom_site_fract_y
_atom_site_fract_z
Si Si1 0.086116 0.557479 0.952355
Si Si2 0.327020 0.439789 0.936637
Si Si3 0.869337 0.555138 0.652927
Si Si4 0.607855 0.940168 0.640267
Si Si5 0.477003 0.440499 0.870733
Si Si6 0.742506 0.060037 0.962958
Si Si7 0.726677 0.943884 0.330668
Si Si8 0.777747 0.558275 0.724019
O O1 0.085681 0.750000 0.958363
O O2 0.978054 0.502968 0.802739
O O3 0.157300 0.511829 0.958999
O O4 0.135494 0.490193 0.102994
O O5 0.321668 0.250000 0.928985
O O6 0.289714 0.499271 0.792454
O O7 0.438457 0.488365 0.084207
O O8 0.269271 0.505019 0.949563
O O9 0.870193 0.750000 0.653618
O O10 0.820904 0.503399 0.499556
O O11 0.803743 0.503705 0.655959
O O12 0.606250 0.750000 0.633810
O O13 0.679551 0.999673 0.649360
O O14 0.500000 0.000000 0.500000
O O15 0.658947 0.990797 0.796302
O O16 0.483464 0.250000 0.874304
O O17 0.366277 0.486583 0.723729
O O18 0.500000 0.500000 0.000000
O O19 0.735903 0.250000 0.950999
O O20 0.727371 0.750000 0.327422
O O21 0.772618 0.750000 0.715399
#
# Coordination Sequence:
#
# PCOD9158740 Si02
#       8
#     4   4   4   4   4   4   4   4
#     4   9  18  32  52  73  95 124 162 205 248 293
#     4  10  19  32  50  72  97 132 172 210 250 296
#     4   9  16  30  51  74  97 125 160 201 247 298
#     4  10  20  34  51  76 107 136 164 200 243 292
#     4   9  16  28  47  70  96 129 163 200 243 293
#     4  10  20  34  51  72  97 131 170 207 247 296
#     4   8  16  29  47  72 101 129 162 201 245 295
#     4   9  18  31  51  75 100 130 163 196 240 297
#
# _framework density 18.357094
#
# number of rings (size 3 to 8) (size 9 to 14) (size 15 to 20)
#    0.000    2.750    0.000    2.625    0.000    2.000 
#    0.000    3.125    0.000    9.000    0.000    0.000 
#    0.000    0.000    0.000    0.000    0.000    0.000 
#
# Total GULP energy -178333.868536 kJ/mol
# GULP energy per Si atom -5572.933392 kJ/mol
# Density = 1.831531 g / cm^3
# Si number density = 18.357094 Si / 1000 Ang^3
#
#
#
# Elastic Constant Matrix: (Units=GPa)
#
#
# Indices 1 2 3 4 5 6 
#
# 1 105.8398 15.0122 64.6238 0.0000 -7.6149 0.0000
# 2 15.0122 17.2257 14.0848 0.0000 1.7138 0.0000
# 3 64.6238 14.0848 118.3382 0.0000 14.3538 0.0000
# 4 0.0000 0.0000 0.0000 19.5215 0.0000 -1.8445
# 5 -7.6149 1.7138 14.3538 0.0000 19.6225 0.0000
# 6 0.0000 0.0000 0.0000 -1.8445 0.0000 20.5295
#
#
#
# Elastic Compliance Matrix: (Units=1/GPa)
#
#
# Indices 1 2 3 4 5 6 
#
# 1 0.018607 -0.008766 -0.011069 0.000000 0.016083 0.000000
# 2 -0.008766 0.068441 -0.002438 0.000000 -0.007596 0.000000
# 3 -0.011069 -0.002438 0.016768 0.000000 -0.016348 0.000000
# 4 0.000000 0.000000 0.000000 0.051664 0.000000 0.004642
# 5 0.016083 -0.007596 -0.016348 0.000000 0.069825 0.000000
# 6 0.000000 0.000000 0.000000 0.004642 0.000000 0.049128
#
#
# Mechanical properties :
#
#
# Convention : Reuss Voigt Hill
#
# Bulk Modulus (GPa) = 16.87144 47.64948 32.26046
# Shear Modulus (GPa) = 14.76084 21.78024 18.27054
#
# Velocity S-wave (km/s) = 2.83873 3.44826 3.15824
# Velocity P-wave (km/s) = 4.46712 6.47050 5.55979
#
# Compressibility (1/GPa) = 0.05927176
#
# Stress axis : x y z
#
# Youngs Moduli (GPa) = 53.74322 14.61115 59.63745
#
# Poissons Ratio (x) = 0.12808 0.66011
# Poissons Ratio (y) = 0.47109 0.14538
# Poissons Ratio (z) = 0.59487 0.03562
#
# Static dielectric constant tensor:
#      x y z
#    x 1.644940 0.000000 0.014020 
#    y 0.000000 1.628040 0.000000 
#    z 0.014020 0.000000 1.629860 
# 
# From -- ./inp_files/51416.got.cif
#   From: 2010.05.17/outbox.cif.g08.bks.cpg/sg11_26_cif.got.tgz:51416.got - 2010.06.03 12:22:45.
