data_PCOD9158386
_publ_section_title
;
Structure prediction by ZEFSAII (Michael W. Deem and Ramdas Pophale) SiO2 
 PCOD9158386
Probable space group: P 21/M
;
_chemical_formula_sum "Si O2"
_cell_formula_units_Z 32
_cell_length_a 11.572871
_cell_length_b 15.759552
_cell_length_c 18.918176
_cell_angle_alpha 90.000000
_cell_angle_beta 25.376229
_cell_angle_gamma 90.000000
_cell_volume 1478.686805
_symmetry_space_group_name_H-M "P 21/M"
_symmetry_group_IT_number 11
_symmetry_cell_setting 'monoclinic'
loop_
_space_group_symop_operation_xyz
x,y,z
-x,1/2+y,-z
-x,-y,-z
x,1/2-y,z
loop_
_atom_site_type_symbol
_atom_site_label
_atom_site_fract_x
_atom_site_fract_y
_atom_site_fract_z
Si Si1 0.130572 0.648558 0.348230
Si Si2 0.536664 0.005884 0.126898
Si Si3 0.273445 0.849202 0.420771
Si Si4 0.089669 0.347157 0.673982
Si Si5 0.686027 0.988660 0.191701
Si Si6 0.902999 0.153086 0.324539
Si Si7 0.165907 0.998086 0.735295
Si Si8 0.465713 0.342927 0.063746
O O1 0.200283 0.750000 0.301923
O O2 0.367982 0.579538 0.205871
O O3 0.081415 0.634531 0.459355
O O4 0.903386 0.632397 0.413977
O O5 0.530108 0.033331 0.213234
O O6 0.432195 0.080489 0.135579
O O7 0.851338 0.995464 0.932796
O O8 0.320874 0.750000 0.396349
O O9 0.156695 0.872360 0.561496
O O10 0.559923 0.895116 0.252804
O O11 0.186554 0.250000 0.632677
O O12 0.194926 0.417701 0.670640
O O13 0.765320 0.346166 0.867247
O O14 0.662989 0.006882 0.287405
O O15 0.000000 0.000000 0.000000
O O16 0.812993 0.250000 0.362849
O O17 0.227533 0.151305 0.138794
O O18 0.783143 0.084529 0.339124
O O19 0.430493 0.250000 0.117889
#
# Coordination Sequence:
#
# PCOD9158386 Si02
#       8
#     4   4   4   4   4   4   4   4
#     4   9  16  28  47  69  94 123 156 201 252 295
#     4   9  17  31  49  72 100 128 168 212 251 294
#     4   9  19  35  53  72  98 132 167 204 245 298
#     4   9  17  29  48  75 101 126 163 208 253 299
#     4   9  19  35  52  72  97 128 172 214 248 293
#     4  10  20  33  50  74 101 132 168 201 248 311
#     4  10  19  31  49  72 101 135 166 207 250 288
#     4   9  17  30  49  72 100 131 161 202 253 301
#
# _framework density 21.640825
#
# number of rings (size 3 to 8) (size 9 to 14) (size 15 to 20)
#    0.000    2.750    0.000    1.500    0.000    4.500 
#    0.000   10.000    0.000    0.000    0.000    0.875 
#    0.000    0.000    0.000    0.000    0.000    0.000 
#
# Total GULP energy -178354.540407 kJ/mol
# GULP energy per Si atom -5573.579388 kJ/mol
# Density = 2.159157 g / cm^3
# Si number density = 21.640825 Si / 1000 Ang^3
#
#
#
# Elastic Constant Matrix: (Units=GPa)
#
#
# Indices 1 2 3 4 5 6 
#
# 1 136.0640 73.5116 31.0866 0.0000 34.5963 0.0000
# 2 73.5116 81.9798 26.3767 0.0000 19.7074 0.0000
# 3 31.0866 26.3767 52.9832 0.0000 1.5931 0.0000
# 4 0.0000 0.0000 0.0000 6.4346 0.0000 23.7091
# 5 34.5963 19.7074 1.5931 0.0000 43.4982 0.0000
# 6 0.0000 0.0000 0.0000 23.7091 0.0000 2.1057
#
#
#
# Elastic Compliance Matrix: (Units=1/GPa)
#
#
# Indices 1 2 3 4 5 6 
#
# 1 0.016475 -0.011791 -0.003567 0.000000 -0.007631 0.000000
# 2 -0.011791 0.024937 -0.005444 0.000000 -0.001720 0.000000
# 3 -0.003567 -0.005444 0.023543 0.000000 0.004441 0.000000
# 4 0.000000 0.000000 0.000000 -0.003839 0.000000 0.043220
# 5 -0.007631 -0.001720 0.004441 0.000000 0.029675 0.000000
# 6 0.000000 0.000000 0.000000 0.043220 0.000000 -0.011730
#
#
# Mechanical properties :
#
#
# Convention : Reuss Voigt Hill
#
# Bulk Modulus (GPa) = 42.82585 59.21964 51.02274
# Shear Modulus (GPa) = 38.92551 19.74451 29.33501
#
# Velocity S-wave (km/s) = 4.24572 3.02383 3.68576
# Velocity P-wave (km/s) = 6.62323 6.29409 6.46076
#
# Compressibility (1/GPa) = 0.02335038
#
# Stress axis : x y z
#
# Youngs Moduli (GPa) = 60.69749 40.10162 42.47462
#
# Poissons Ratio (x) = 0.47285 0.15150
# Poissons Ratio (y) = 0.71570 0.23124
# Poissons Ratio (z) = 0.21650 0.21832
#
# Static dielectric constant tensor:
#      x y z
#    x 1.809380 0.000000 0.041990 
#    y 0.000000 1.760520 0.000000 
#    z 0.041990 0.000000 1.859710 
# 
# From -- ./inp_files/59455.got.cif
#   From: 2010.05.17/outbox.cif.g08.bks.cpg/sg11_30_cif.got.tgz:59455.got - 2010.06.03 12:22:45.
