data_PCOD9158992
_publ_section_title
;
Structure prediction by ZEFSAII (Michael W. Deem and Ramdas Pophale) SiO2 
 PCOD9158992
Probable space group: P 21/M
;
_chemical_formula_sum "Si O2"
_cell_formula_units_Z 24
_cell_length_a 5.200807
_cell_length_b 24.146017
_cell_length_c 10.828686
_cell_angle_alpha 90.000000
_cell_angle_beta 87.267823
_cell_angle_gamma 90.000000
_cell_volume 1358.307319
_symmetry_space_group_name_H-M "P 21/M"
_symmetry_group_IT_number 11
_symmetry_cell_setting 'monoclinic'
loop_
_space_group_symop_operation_xyz
x,y,z
-x,1/2+y,-z
-x,-y,-z
x,1/2-y,z
loop_
_atom_site_type_symbol
_atom_site_label
_atom_site_fract_x
_atom_site_fract_y
_atom_site_fract_z
Si Si1 0.594969 0.185882 0.410804
Si Si2 0.741958 0.994052 0.083324
Si Si3 0.262289 0.530513 0.403743
Si Si4 0.776980 0.584535 0.285773
Si Si5 0.076272 0.311803 0.578949
Si Si6 0.377644 0.563423 0.669856
O O1 0.634670 0.250000 0.362627
O O2 0.311009 0.184538 0.476328
O O3 0.614121 0.130129 0.327811
O O4 0.811415 0.177324 0.512049
O O5 0.719152 0.036811 0.199698
O O6 0.739522 0.933809 0.146977
O O7 0.500000 0.000000 0.000000
O O8 0.000000 0.000000 0.000000
O O9 0.514692 0.566517 0.360211
O O10 0.224067 0.543651 0.549564
O O11 0.351007 0.468208 0.366220
O O12 0.020102 0.550688 0.333058
O O13 0.852890 0.646363 0.315187
O O14 0.063118 0.250000 0.628000
#
# Coordination Sequence:
#
# PCOD9158992 Si02
#       6
#     4   4   4   4   4   4
#     4  10  20  33  52  82 114 140 169 213 281 343
#     4  11  25  38  52  76 106 149 186 222 263 308
#     4  10  21  30  56  89 103 140 173 220 296 325
#     4  11  19  37  55  79 114 138 179 224 272 339
#     4  10  19  32  52  82 114 138 168 215 278 341
#     4  10  20  36  56  79 116 138 180 229 271 339
#
# _framework density 17.669052000000001
#
# number of rings (size 3 to 8) (size 9 to 14) (size 15 to 20)
#    0.000    1.667    3.333    2.000    0.000   11.333 
#    0.000    0.000    0.000    2.000    0.000    0.000 
#    0.000    0.000    0.000    0.000    0.000    0.000 
#
# Total GULP energy -133801.757915 kJ/mol
# GULP energy per Si atom -5575.073246 kJ/mol
# Density = 1.762884 g / cm^3
# Si number density = 17.669052 Si / 1000 Ang^3
#
#
#
# Elastic Constant Matrix: (Units=GPa)
#
#
# Indices 1 2 3 4 5 6 
#
# 1 112.8821 18.3147 36.8276 0.0000 8.6622 0.0000
# 2 18.3147 152.2439 41.6614 0.0000 -1.1549 0.0000
# 3 36.8276 41.6614 102.3874 0.0000 -1.8078 0.0000
# 4 0.0000 0.0000 0.0000 25.7027 0.0000 4.2697
# 5 8.6622 -1.1549 -1.8078 0.0000 28.6791 0.0000
# 6 0.0000 0.0000 0.0000 4.2697 0.0000 20.8552
#
#
#
# Elastic Compliance Matrix: (Units=1/GPa)
#
#
# Indices 1 2 3 4 5 6 
#
# 1 0.010361 -0.000265 -0.003678 0.000000 -0.003372 0.000000
# 2 -0.000265 0.007399 -0.002912 0.000000 0.000195 0.000000
# 3 -0.003678 -0.002912 0.012306 0.000000 0.001769 0.000000
# 4 0.000000 0.000000 0.000000 0.040276 0.000000 -0.008246
# 5 -0.003372 0.000195 0.001769 0.000000 0.036006 0.000000
# 6 0.000000 0.000000 0.000000 -0.008246 0.000000 0.049638
#
#
# Mechanical properties :
#
#
# Convention : Reuss Voigt Hill
#
# Bulk Modulus (GPa) = 61.14454 62.34674 61.74564
# Shear Modulus (GPa) = 28.54743 33.09472 30.82107
#
# Velocity S-wave (km/s) = 4.02391 4.33255 4.18108
# Velocity P-wave (km/s) = 7.50131 7.77113 7.63741
#
# Compressibility (1/GPa) = 0.01635469
#
# Stress axis : x y z
#
# Youngs Moduli (GPa) = 96.51967 135.16145 81.26276
#
# Poissons Ratio (x) = 0.03588 0.29889
# Poissons Ratio (y) = 0.02562 0.23660
# Poissons Ratio (z) = 0.35501 0.39353
#
# Static dielectric constant tensor:
#      x y z
#    x 1.637030 0.000000 -0.006650 
#    y 0.000000 1.670460 0.000000 
#    z -0.006650 0.000000 1.590050 
# 
# From -- ./inp_files/10443.got.cif
#   From: 2010.05.17/outbox.cif.g08.bks.cpg/sg11_6_cif.got.tgz:10443.got - 2010.06.03 12:22:45.
