data_PCOD9158437
_publ_section_title
;
Structure prediction by ZEFSAII (Michael W. Deem and Ramdas Pophale) SiO2 
 PCOD9158437
Probable space group: P 21/M
;
_chemical_formula_sum "Si O2"
_cell_formula_units_Z 32
_cell_length_a 23.214441
_cell_length_b 10.317334
_cell_length_c 13.644060
_cell_angle_alpha 90.000000
_cell_angle_beta 33.197715
_cell_angle_gamma 90.000000
_cell_volume 1789.275205
_symmetry_space_group_name_H-M "P 21/M"
_symmetry_group_IT_number 11
_symmetry_cell_setting 'monoclinic'
loop_
_space_group_symop_operation_xyz
x,y,z
-x,1/2+y,-z
-x,-y,-z
x,1/2-y,z
loop_
_atom_site_type_symbol
_atom_site_label
_atom_site_fract_x
_atom_site_fract_y
_atom_site_fract_z
Si Si1 0.933601 0.973716 0.837224
Si Si2 0.155596 0.898060 0.452596
Si Si3 0.745805 0.901525 0.544309
Si Si4 0.157120 0.599762 0.226772
Si Si5 0.029212 0.106887 0.879128
Si Si6 0.706695 0.898813 0.225825
Si Si7 0.604913 0.594003 0.573125
Si Si8 0.379505 0.597702 0.810692
O O1 0.042534 0.898338 0.667681
O O2 0.901868 0.024888 0.775301
O O3 0.830641 0.903523 0.025698
O O4 0.961673 0.084238 0.876481
O O5 0.196516 0.750000 0.393038
O O6 0.139252 0.942061 0.363536
O O7 0.228630 0.000869 0.404289
O O8 0.730988 0.750000 0.595382
O O9 0.849670 0.902346 0.327244
O O10 0.650614 0.950556 0.611628
O O11 0.125064 0.750000 0.265858
O O12 0.280785 0.591147 0.024788
O O13 0.010221 0.250000 0.946656
O O14 0.000000 0.000000 0.000000
O O15 0.669567 0.750000 0.264013
O O16 0.681280 0.937426 0.373491
O O17 0.648717 0.001112 0.237666
O O18 0.605484 0.750000 0.580190
O O19 0.487449 0.556843 0.709179
O O20 0.388933 0.750000 0.766218
#
# Coordination Sequence:
#
# PCOD9158437 Si02
#       8
#     4   4   4   4   4   4   4   4
#     4  10  19  32  50  73 100 133 165 194 235 293
#     4  10  20  34  51  73  99 127 160 204 250 286
#     4   9  19  35  51  69  95 130 168 202 238 289
#     4   9  18  33  52  73  98 126 161 203 245 289
#     4  10  20  32  49  72 101 134 166 199 237 283
#     4  10  19  31  49  75 103 128 158 200 242 285
#     4   9  17  32  53  72  95 130 166 197 238 289
#     4   9  18  33  52  73  97 128 163 199 241 292
#
# _framework density 17.884336000000001
#
# number of rings (size 3 to 8) (size 9 to 14) (size 15 to 20)
#    0.000    2.500    0.000    2.250    0.000    4.500 
#    0.000    5.000    0.000    0.000    0.000    0.000 
#    0.000    0.000    0.000    0.000    0.000    0.000 
#
# Total GULP energy -178324.158901 kJ/mol
# GULP energy per Si atom -5572.629966 kJ/mol
# Density = 1.784363 g / cm^3
# Si number density = 17.884336 Si / 1000 Ang^3
#
#
#
# Elastic Constant Matrix: (Units=GPa)
#
#
# Indices 1 2 3 4 5 6 
#
# 1 101.8266 37.3997 23.4483 0.0000 -5.5275 0.0000
# 2 37.3997 72.1445 13.0209 0.0000 5.7468 0.0000
# 3 23.4483 13.0209 27.2910 0.0000 5.0260 0.0000
# 4 0.0000 0.0000 0.0000 19.5179 0.0000 6.1058
# 5 -5.5275 5.7468 5.0260 0.0000 20.7383 0.0000
# 6 0.0000 0.0000 0.0000 6.1058 0.0000 16.6554
#
#
#
# Elastic Compliance Matrix: (Units=1/GPa)
#
#
# Indices 1 2 3 4 5 6 
#
# 1 0.015409 -0.006571 -0.011719 0.000000 0.008768 0.000000
# 2 -0.006571 0.018101 -0.001825 0.000000 -0.006325 0.000000
# 3 -0.011719 -0.001825 0.050309 0.000000 -0.014810 0.000000
# 4 0.000000 0.000000 0.000000 0.057872 0.000000 -0.021215
# 5 0.008768 -0.006325 -0.014810 0.000000 0.055899 0.000000
# 6 0.000000 0.000000 0.000000 -0.021215 0.000000 0.067818
#
#
# Mechanical properties :
#
#
# Convention : Reuss Voigt Hill
#
# Bulk Modulus (GPa) = 22.94197 38.77776 30.85987
# Shear Modulus (GPa) = 15.61686 19.87520 17.74603
#
# Velocity S-wave (km/s) = 2.95823 3.33726 3.15344
# Velocity P-wave (km/s) = 4.95217 6.04809 5.52735
#
# Compressibility (1/GPa) = 0.04358824
#
# Stress axis : x y z
#
# Youngs Moduli (GPa) = 64.89878 55.24599 19.87718
#
# Poissons Ratio (x) = 0.36303 0.23293
# Poissons Ratio (y) = 0.42647 0.03628
# Poissons Ratio (z) = 0.76052 0.10084
#
# Static dielectric constant tensor:
#      x y z
#    x 1.619370 0.000000 -0.013600 
#    y 0.000000 1.616160 0.000000 
#    z -0.013600 0.000000 1.612590 
# 
# From -- ./inp_files/43137.got.cif
#   From: 2010.05.17/outbox.cif.g08.bks.cpg/sg11_22_cif.got.tgz:43137.got - 2010.06.03 12:22:45.
