data_PCOD9158197
_publ_section_title
;
Structure prediction by ZEFSAII (Michael W. Deem and Ramdas Pophale) SiO2 
 PCOD9158197
Probable space group: P 21/M
;
_chemical_formula_sum "Si O2"
_cell_formula_units_Z 28
_cell_length_a 20.171447
_cell_length_b 10.681665
_cell_length_c 12.582909
_cell_angle_alpha 90.000000
_cell_angle_beta 34.381714
_cell_angle_gamma 90.000000
_cell_volume 1531.008666
_symmetry_space_group_name_H-M "P 21/M"
_symmetry_group_IT_number 11
_symmetry_cell_setting 'monoclinic'
loop_
_space_group_symop_operation_xyz
x,y,z
-x,1/2+y,-z
-x,-y,-z
x,1/2-y,z
loop_
_atom_site_type_symbol
_atom_site_label
_atom_site_fract_x
_atom_site_fract_y
_atom_site_fract_z
Si Si1 0.991687 0.998676 0.822300
Si Si2 0.880994 0.117466 0.161615
Si Si3 0.209626 0.395707 0.414349
Si Si4 0.359622 0.100302 0.015022
Si Si5 0.749554 0.897383 0.065671
Si Si6 0.299377 0.394143 0.633056
Si Si7 0.446742 0.105202 0.237064
O O1 0.034352 0.892929 0.848950
O O2 0.874178 0.964693 0.915126
O O3 0.099771 0.028639 0.603484
O O4 0.955706 0.105953 0.954567
O O5 0.816567 0.250000 0.248753
O O6 0.795158 0.998054 0.276568
O O7 0.177786 0.250000 0.465300
O O8 0.252017 0.420010 0.238528
O O9 0.325700 0.414132 0.332786
O O10 0.390852 0.250000 0.980569
O O11 0.320386 0.068518 0.947328
O O12 0.462267 0.004041 0.910166
O O13 0.774139 0.750000 0.023998
O O14 0.680868 0.915720 0.267818
O O15 0.255575 0.250000 0.678259
O O16 0.410327 0.404755 0.409175
O O17 0.485556 0.250000 0.164857
#
# Coordination Sequence:
#
# PCOD9158197 Si02
#       7
#     4   4   4   4   4   4   4
#     4  10  19  32  53  79 112 146 174 211 271 331
#     4  10  19  30  51  85 113 134 172 225 267 313
#     4  10  20  36  57  80 107 144 182 221 272 322
#     4  10  22  39  57  77 107 146 188 227 261 311
#     4   9  19  36  54  78 112 148 179 214 268 325
#     4   9  18  34  57  79 108 146 174 211 276 333
#     4  10  20  37  58  80 105 140 183 227 277 322
#
# _framework density 18.288595999999998
#
# number of rings (size 3 to 8) (size 9 to 14) (size 15 to 20)
#    0.000    2.286    1.429    1.286    0.000    5.143 
#    0.000    5.000    0.000    0.000    0.000    0.000 
#    0.000    0.000    0.000    0.000    0.000    0.000 
#
# Total GULP energy -156018.866579 kJ/mol
# GULP energy per Si atom -5572.102378 kJ/mol
# Density = 1.824697 g / cm^3
# Si number density = 18.288596 Si / 1000 Ang^3
#
#
#
# Elastic Constant Matrix: (Units=GPa)
#
#
# Indices 1 2 3 4 5 6 
#
# 1 36.8684 6.4602 -2.9181 0.0000 11.8300 0.0000
# 2 6.4602 65.2991 19.7329 0.0000 -0.3219 0.0000
# 3 -2.9181 19.7329 48.9976 0.0000 7.4260 0.0000
# 4 0.0000 0.0000 0.0000 13.2627 0.0000 -8.6671
# 5 11.8300 -0.3219 7.4260 0.0000 17.4516 0.0000
# 6 0.0000 0.0000 0.0000 -8.6671 0.0000 7.2412
#
#
#
# Elastic Compliance Matrix: (Units=1/GPa)
#
#
# Indices 1 2 3 4 5 6 
#
# 1 0.038970 -0.006962 0.009778 0.000000 -0.030706 0.000000
# 2 -0.006962 0.018887 -0.009395 0.000000 0.009065 0.000000
# 3 0.009778 -0.009395 0.027585 0.000000 -0.018540 0.000000
# 4 0.000000 0.000000 0.000000 0.346134 0.000000 0.414291
# 5 -0.030706 0.009065 -0.018540 0.000000 0.086173 0.000000
# 6 0.000000 0.000000 0.000000 0.414291 0.000000 0.633967
#
#
# Mechanical properties :
#
#
# Convention : Reuss Voigt Hill
#
# Bulk Modulus (GPa) = 13.83407 21.96834 17.90121
# Shear Modulus (GPa) = 4.20533 16.11711 10.16122
#
# Velocity S-wave (km/s) = 1.51803 2.97183 2.35968
# Velocity P-wave (km/s) = 3.26394 4.87994 4.15133
#
# Compressibility (1/GPa) = 0.07228529
#
# Stress axis : x y z
#
# Youngs Moduli (GPa) = 25.66076 52.94760 36.25173
#
# Poissons Ratio (x) = 0.36861 -0.35448
# Poissons Ratio (y) = 0.17864 0.34058
# Poissons Ratio (z) = -0.25092 0.49743
#
# Static dielectric constant tensor:
#      x y z
#    x 1.642520 0.000000 0.029180 
#    y 0.000000 1.681160 0.000000 
#    z 0.029180 0.000000 1.630320 
# 
# From -- ./inp_files/43218.got.cif
#   From: 2010.05.17/outbox.cif.g08.bks.cpg/sg11_22_cif.got.tgz:43218.got - 2010.06.03 12:22:45.
