data_PCOD9158599
_publ_section_title
;
Structure prediction by ZEFSAII (Michael W. Deem and Ramdas Pophale) SiO2 
 PCOD9158599
Probable space group: P 21/M
;
_chemical_formula_sum "Si O2"
_cell_formula_units_Z 28
_cell_length_a 14.682786
_cell_length_b 18.038648
_cell_length_c 5.470299
_cell_angle_alpha 90.000000
_cell_angle_beta 106.573427
_cell_angle_gamma 90.000000
_cell_volume 1388.657780
_symmetry_space_group_name_H-M "P 21/M"
_symmetry_group_IT_number 11
_symmetry_cell_setting 'monoclinic'
loop_
_space_group_symop_operation_xyz
x,y,z
-x,1/2+y,-z
-x,-y,-z
x,1/2-y,z
loop_
_atom_site_type_symbol
_atom_site_label
_atom_site_fract_x
_atom_site_fract_y
_atom_site_fract_z
Si Si1 0.473743 0.836054 0.694947
Si Si2 0.312220 0.169229 0.025517
Si Si3 0.019058 0.064799 0.824953
Si Si4 0.449392 0.576796 0.191079
Si Si5 0.876171 0.833454 0.794753
Si Si6 0.652539 0.974264 0.223980
Si Si7 0.146582 0.014755 0.527844
O O1 0.444787 0.750000 0.670433
O O2 0.588403 0.838762 0.755409
O O3 0.432812 0.879678 0.429371
O O4 0.454608 0.871361 0.949117
O O5 0.313253 0.250000 0.905480
O O6 0.222952 0.166064 0.134742
O O7 0.312949 0.107348 0.820928
O O8 0.117424 0.038861 0.777075
O O9 0.038650 0.144773 0.953471
O O10 0.927411 0.051857 0.584662
O O11 0.000000 0.000000 0.000000
O O12 0.552022 0.535133 0.283015
O O13 0.372170 0.516680 0.047221
O O14 0.888184 0.750000 0.699944
O O15 0.873489 0.906971 0.625301
O O16 0.744436 0.008610 0.422213
#
# Coordination Sequence:
#
# PCOD9158599 Si02
#       7
#     4   4   4   4   4   4   4
#     4  10  20  37  56  79 114 152 194 238 285 341
#     4   9  18  31  51  80 114 149 176 218 287 347
#     4   9  19  35  52  77 106 138 182 218 271 331
#     4  10  22  35  56  87 114 154 193 237 289 328
#     4  10  19  31  52  82 112 141 174 221 280 340
#     4  10  20  34  54  82 117 144 188 235 272 335
#     4  10  19  33  54  78 104 146 181 224 269 334
#
# _framework density 20.163356
#
# number of rings (size 3 to 8) (size 9 to 14) (size 15 to 20)
#    0.000    2.286    1.429    1.286    0.000    8.000 
#    0.000    0.000    0.000    1.714    0.000    0.000 
#    0.000    0.000    0.000    0.000    0.000    0.000 
#
# Total GULP energy -155950.646827 kJ/mol
# GULP energy per Si atom -5569.665958 kJ/mol
# Density = 2.011746 g / cm^3
# Si number density = 20.163356 Si / 1000 Ang^3
#
#
#
# Elastic Constant Matrix: (Units=GPa)
#
#
# Indices 1 2 3 4 5 6 
#
# 1 51.6336 25.9058 15.3754 0.0000 9.5305 0.0000
# 2 25.9058 89.2766 28.0191 0.0000 2.9259 0.0000
# 3 15.3754 28.0191 57.8936 0.0000 -1.1514 0.0000
# 4 0.0000 0.0000 0.0000 27.9441 0.0000 -3.7985
# 5 9.5305 2.9259 -1.1514 0.0000 24.4797 0.0000
# 6 0.0000 0.0000 0.0000 -3.7985 0.0000 16.0786
#
#
#
# Elastic Compliance Matrix: (Units=1/GPa)
#
#
# Indices 1 2 3 4 5 6 
#
# 1 0.025174 -0.005711 -0.004107 0.000000 -0.009311 0.000000
# 2 -0.005711 0.014590 -0.005540 0.000000 0.000219 0.000000
# 3 -0.004107 -0.005540 0.021110 0.000000 0.003254 0.000000
# 4 0.000000 0.000000 0.000000 0.036973 0.000000 0.008735
# 5 -0.009311 0.000219 0.003254 0.000000 0.044602 0.000000
# 6 0.000000 0.000000 0.000000 0.008735 0.000000 0.064258
#
#
# Mechanical properties :
#
#
# Convention : Reuss Voigt Hill
#
# Bulk Modulus (GPa) = 33.15877 37.48938 35.32408
# Shear Modulus (GPa) = 20.20400 22.33404 21.26902
#
# Velocity S-wave (km/s) = 3.16890 3.33176 3.25135
# Velocity P-wave (km/s) = 5.46534 5.78221 5.62601
#
# Compressibility (1/GPa) = 0.03015793
#
# Stress axis : x y z
#
# Youngs Moduli (GPa) = 39.72326 68.54097 47.37126
#
# Poissons Ratio (x) = 0.39142 0.19456
# Poissons Ratio (y) = 0.22685 0.26244
# Poissons Ratio (z) = 0.16315 0.37972
#
# Static dielectric constant tensor:
#      x y z
#    x 1.739540 0.000000 0.022170 
#    y 0.000000 1.762150 0.000000 
#    z 0.022170 0.000000 1.860580 
# 
# From -- ./inp_files/6664.got.cif
#   From: 2010.05.17/outbox.cif.g08.bks.cpg/sg11_4_cif.got.tgz:6664.got - 2010.06.03 12:22:45.
