data_PCOD9158743
_publ_section_title
;
Structure prediction by ZEFSAII (Michael W. Deem and Ramdas Pophale) SiO2 
 PCOD9158743
Probable space group: P 21/M
;
_chemical_formula_sum "Si O2"
_cell_formula_units_Z 28
_cell_length_a 30.514417
_cell_length_b 7.713504
_cell_length_c 9.265786
_cell_angle_alpha 90.000000
_cell_angle_beta 39.648749
_cell_angle_gamma 90.000000
_cell_volume 1391.597793
_symmetry_space_group_name_H-M "P 21/M"
_symmetry_group_IT_number 11
_symmetry_cell_setting 'monoclinic'
loop_
_space_group_symop_operation_xyz
x,y,z
-x,1/2+y,-z
-x,-y,-z
x,1/2-y,z
loop_
_atom_site_type_symbol
_atom_site_label
_atom_site_fract_x
_atom_site_fract_y
_atom_site_fract_z
Si Si1 0.863287 0.459801 0.515692
Si Si2 0.717003 0.537614 0.557093
Si Si3 0.432334 0.542381 0.760592
Si Si4 0.714536 0.452303 0.902395
Si Si5 0.133469 0.042306 0.831698
Si Si6 0.001310 0.541241 0.664650
Si Si7 0.570117 0.550904 0.898680
O O1 0.860993 0.250000 0.530808
O O2 0.788665 0.526543 0.759078
O O3 0.871929 0.504131 0.325061
O O4 0.928845 0.523819 0.437836
O O5 0.716675 0.750000 0.564065
O O6 0.715955 0.470351 0.724503
O O7 0.790898 0.482072 0.308337
O O8 0.645363 0.473146 0.670106
O O9 0.500000 0.500000 0.500000
O O10 0.426454 0.750000 0.787708
O O11 0.361047 0.475949 0.868986
O O12 0.437821 0.471455 0.909029
O O13 0.714584 0.250000 0.943646
O O14 0.133195 0.250000 0.849046
O O15 0.067391 0.973036 0.083150
O O16 0.001659 0.750000 0.680755
O O17 0.000000 0.500000 0.500000
O O18 0.577863 0.750000 0.842727
O O19 0.500000 0.500000 0.000000
#
# Coordination Sequence:
#
# PCOD9158743 Si02
#       7
#     4   4   4   4   4   4   4
#     4   9  17  31  51  74  95 119 155 197 235 276
#     4   8  15  28  47  69  94 121 153 194 237 277
#     4  10  19  32  50  72  98 129 162 199 241 287
#     4   8  15  28  47  69  94 121 153 194 237 277
#     4   9  17  31  51  74  95 119 155 197 235 276
#     4  10  21  34  48  68  98 130 157 188 230 278
#     4  10  19  32  50  72  98 129 162 199 241 287
#
# _framework density 20.120757000000001
#
# number of rings (size 3 to 8) (size 9 to 14) (size 15 to 20)
#    0.000    2.857    0.000    1.286    0.000    2.286 
#    0.000    1.429    0.000    3.429    0.000    0.000 
#    0.000    0.000    0.000    0.000    0.000    0.000 
#
# Total GULP energy -155906.385225 kJ/mol
# GULP energy per Si atom -5568.085187 kJ/mol
# Density = 2.007496 g / cm^3
# Si number density = 20.120757 Si / 1000 Ang^3
#
#
#
# Elastic Constant Matrix: (Units=GPa)
#
#
# Indices 1 2 3 4 5 6 
#
# 1 143.8161 -1.0120 91.5481 0.0000 -59.0318 0.0000
# 2 -1.0120 26.5103 -9.5913 0.0000 -9.2449 0.0000
# 3 91.5481 -9.5913 147.7082 0.0000 -60.7551 0.0000
# 4 0.0000 0.0000 0.0000 13.8768 0.0000 5.4406
# 5 -59.0318 -9.2449 -60.7551 0.0000 43.6830 0.0000
# 6 0.0000 0.0000 0.0000 5.4406 0.0000 17.5844
#
#
#
# Elastic Compliance Matrix: (Units=1/GPa)
#
#
# Indices 1 2 3 4 5 6 
#
# 1 0.017725 0.010851 0.001205 0.000000 0.027926 0.000000
# 2 0.010851 0.066954 0.022158 0.000000 0.059651 0.000000
# 3 0.001205 0.022158 0.023510 0.000000 0.039016 0.000000
# 4 0.000000 0.000000 0.000000 0.082011 0.000000 -0.025374
# 5 0.027926 0.059651 0.039016 0.000000 0.127519 0.000000
# 6 0.000000 0.000000 0.000000 -0.025374 0.000000 0.064719
#
#
# Mechanical properties :
#
#
# Convention : Reuss Voigt Hill
#
# Bulk Modulus (GPa) = 5.66197 53.32493 29.49345
# Shear Modulus (GPa) = 13.40905 30.83483 22.12194
#
# Velocity S-wave (km/s) = 2.58433 3.91895 3.31941
# Velocity P-wave (km/s) = 3.42419 6.85839 5.42045
#
# Compressibility (1/GPa) = 0.17661711
#
# Stress axis : x y z
#
# Youngs Moduli (GPa) = 56.41694 14.93564 42.53506
#
# Poissons Ratio (x) = -0.16207 -0.05126
# Poissons Ratio (y) = -0.61219 -0.94248
# Poissons Ratio (z) = -0.06799 -0.33094
#
# Static dielectric constant tensor:
#      x y z
#    x 1.722080 0.000000 -0.089130 
#    y 0.000000 1.653880 0.000000 
#    z -0.089130 0.000000 1.742970 
# 
# From -- ./inp_files/28985.got.cif
#   From: 2010.05.17/outbox.cif.g08.bks.cpg/sg11_15_cif.got.tgz:28985.got - 2010.06.03 12:22:45.
