data_PCOD9158449
_publ_section_title
;
Structure prediction by ZEFSAII (Michael W. Deem and Ramdas Pophale) SiO2 
 PCOD9158449
Probable space group: P 21/M
;
_chemical_formula_sum "Si O2"
_cell_formula_units_Z 28
_cell_length_a 17.779441
_cell_length_b 8.846759
_cell_length_c 13.345771
_cell_angle_alpha 90.000000
_cell_angle_beta 42.780173
_cell_angle_gamma 90.000000
_cell_volume 1425.724332
_symmetry_space_group_name_H-M "P 21/M"
_symmetry_group_IT_number 11
_symmetry_cell_setting 'monoclinic'
loop_
_space_group_symop_operation_xyz
x,y,z
-x,1/2+y,-z
-x,-y,-z
x,1/2-y,z
loop_
_atom_site_type_symbol
_atom_site_label
_atom_site_fract_x
_atom_site_fract_y
_atom_site_fract_z
Si Si1 0.380073 0.569816 0.993862
Si Si2 0.233464 0.575467 0.527478
Si Si3 0.021610 0.934414 0.866705
Si Si4 0.378504 0.086506 0.719211
Si Si5 0.809456 0.575640 0.960944
Si Si6 0.365667 0.430164 0.227534
Si Si7 0.579107 0.585329 0.557438
O O1 0.372596 0.750000 0.994691
O O2 0.281208 0.500183 0.023041
O O3 0.359643 0.513338 0.127143
O O4 0.511303 0.530426 0.847324
O O5 0.213063 0.750000 0.522212
O O6 0.137824 0.525137 0.698636
O O7 0.264151 0.482244 0.397491
O O8 0.347623 0.550257 0.474903
O O9 0.016420 0.750000 0.879699
O O10 0.929427 0.985003 0.874267
O O11 0.000000 0.000000 0.000000
O O12 0.415462 0.250000 0.725117
O O13 0.396885 0.090937 0.583855
O O14 0.450471 0.951602 0.692726
O O15 0.252180 0.072328 0.871392
O O16 0.821948 0.750000 0.915708
O O17 0.363712 0.250000 0.214020
O O18 0.607467 0.750000 0.573755
#
# Coordination Sequence:
#
# PCOD9158449 Si02
#       7
#     4   4   4   4   4   4   4
#     4  10  21  37  59  89 119 146 182 230 284 341
#     4  11  22  36  55  80 111 147 188 233 280 331
#     4  10  23  41  60  83 113 152 196 241 285 330
#     4   9  18  31  49  74 105 140 177 223 277 333
#     4  10  20  36  56  78 108 147 189 231 280 335
#     4  10  21  38  61  88 117 149 184 227 282 342
#     4  10  19  31  49  75 107 141 179 224 276 336
#
# _framework density 19.639140999999999
#
# number of rings (size 3 to 8) (size 9 to 14) (size 15 to 20)
#    0.000    2.000    0.000    3.429    0.000    8.000 
#    0.000    0.714    0.000    0.000    0.000    0.000 
#    0.000    0.000    0.000    0.000    0.000    0.000 
#
# Total GULP energy -155915.245583 kJ/mol
# GULP energy per Si atom -5568.401628 kJ/mol
# Density = 1.959444 g / cm^3
# Si number density = 19.639141 Si / 1000 Ang^3
#
#
#
# Elastic Constant Matrix: (Units=GPa)
#
#
# Indices 1 2 3 4 5 6 
#
# 1 79.5076 21.4135 22.0691 0.0000 -2.9854 0.0000
# 2 21.4135 47.6398 22.2537 0.0000 0.7308 0.0000
# 3 22.0691 22.2537 105.2961 0.0000 -0.4504 0.0000
# 4 0.0000 0.0000 0.0000 26.0572 0.0000 4.9325
# 5 -2.9854 0.7308 -0.4504 0.0000 24.6374 0.0000
# 6 0.0000 0.0000 0.0000 4.9325 0.0000 27.5378
#
#
#
# Elastic Compliance Matrix: (Units=1/GPa)
#
#
# Indices 1 2 3 4 5 6 
#
# 1 0.014721 -0.005780 -0.001856 0.000000 0.001921 0.000000
# 2 -0.005780 0.025574 -0.004200 0.000000 -0.001536 0.000000
# 3 -0.001856 -0.004200 0.010774 0.000000 0.000097 0.000000
# 4 0.000000 0.000000 0.000000 0.039724 0.000000 -0.007115
# 5 0.001921 -0.001536 0.000097 0.000000 0.040869 0.000000
# 6 0.000000 0.000000 0.000000 -0.007115 0.000000 0.037588
#
#
# Mechanical properties :
#
#
# Convention : Reuss Voigt Hill
#
# Bulk Modulus (GPa) = 36.49835 40.43514 38.46674
# Shear Modulus (GPa) = 24.74579 26.76030 25.75305
#
# Velocity S-wave (km/s) = 3.55353 3.69535 3.62513
# Velocity P-wave (km/s) = 5.95497 6.23227 6.09520
#
# Compressibility (1/GPa) = 0.02739850
#
# Stress axis : x y z
#
# Youngs Moduli (GPa) = 67.92890 39.10175 92.81548
#
# Poissons Ratio (x) = 0.22599 0.17224
# Poissons Ratio (y) = 0.39261 0.38984
# Poissons Ratio (z) = 0.12606 0.16423
#
# Static dielectric constant tensor:
#      x y z
#    x 1.715210 0.000000 0.030440 
#    y 0.000000 1.709180 0.000000 
#    z 0.030440 0.000000 1.697300 
# 
# From -- ./inp_files/53217.got.cif
#   From: 2010.05.17/outbox.cif.g08.bks.cpg/sg11_27_cif.got.tgz:53217.got - 2010.06.03 12:22:45.
