data_PCOD9158055
_publ_section_title
;
Structure prediction by ZEFSAII (Michael W. Deem and Ramdas Pophale) SiO2 
 PCOD9158055
Probable space group: P 21/M
;
_chemical_formula_sum "Si O2"
_cell_formula_units_Z 32
_cell_length_a 11.954148
_cell_length_b 15.143356
_cell_length_c 11.648419
_cell_angle_alpha 90.000000
_cell_angle_beta 35.583891
_cell_angle_gamma 90.000000
_cell_volume 1227.020666
_symmetry_space_group_name_H-M "P 21/M"
_symmetry_group_IT_number 11
_symmetry_cell_setting 'monoclinic'
loop_
_space_group_symop_operation_xyz
x,y,z
-x,1/2+y,-z
-x,-y,-z
x,1/2-y,z
loop_
_atom_site_type_symbol
_atom_site_label
_atom_site_fract_x
_atom_site_fract_y
_atom_site_fract_z
Si Si1 0.493489 0.140462 0.136514
Si Si2 0.105791 0.088681 0.015112
Si Si3 0.677557 0.144197 0.456265
Si Si4 0.910414 0.410176 0.724197
Si Si5 0.705930 0.845757 0.930113
Si Si6 0.895222 0.398832 0.476379
Si Si7 0.058290 0.878221 0.064251
Si Si8 0.490263 0.848467 0.629759
O O1 0.512087 0.250000 0.121347
O O2 0.691649 0.088556 0.951772
O O3 0.372783 0.114879 0.123857
O O4 0.421228 0.114288 0.324791
O O5 0.108572 0.135588 0.889172
O O6 0.276310 0.112908 0.958773
O O7 0.891904 0.117219 0.234488
O O8 0.096641 0.983328 0.022699
O O9 0.658993 0.250000 0.471824
O O10 0.533534 0.108689 0.477132
O O11 0.698902 0.112497 0.569996
O O12 0.020415 0.502512 0.615329
O O13 0.001268 0.358238 0.755804
O O14 0.885201 0.374299 0.617855
O O15 0.613583 0.750000 0.018647
O O16 0.932606 0.839475 0.713922
O O17 0.263878 0.839430 0.857526
O O18 0.568504 0.750000 0.549774
#
# Coordination Sequence:
#
# PCOD9158055 Si02
#       8
#     4   4   4   4   4   4   4   4
#     4   9  19  33  49  70  97 127 158 199 245 285
#     4   9  15  25  44  71  93 117 156 193 241 280
#     4   9  15  26  45  67  90 117 158 202 234 273
#     4  10  19  32  47  69 102 129 155 194 236 292
#     4  10  19  33  51  72  97 124 162 204 238 282
#     4  10  19  30  47  72  98 126 159 195 239 283
#     4   9  15  26  44  67  95 124 149 194 238 281
#     4   8  15  27  43  66  92 119 154 197 236 274
#
# _framework density 26.079431
#
# number of rings (size 3 to 8) (size 9 to 14) (size 15 to 20)
#    0.000    2.750    2.500    1.500    0.000    2.000 
#    0.000    0.000    0.000    1.500    0.000    7.000 
#    0.000    0.000    0.000    0.000    0.000    0.000 
#
# Total GULP energy -178246.303328 kJ/mol
# GULP energy per Si atom -5570.196979 kJ/mol
# Density = 2.602007 g / cm^3
# Si number density = 26.079431 Si / 1000 Ang^3
#
#
#
# Elastic Constant Matrix: (Units=GPa)
#
#
# Indices 1 2 3 4 5 6 
#
# 1 220.2716 27.4197 36.2088 0.0000 56.0568 0.0000
# 2 27.4197 62.0654 -6.6571 0.0000 6.9465 0.0000
# 3 36.2088 -6.6571 45.4103 0.0000 -3.0757 0.0000
# 4 0.0000 0.0000 0.0000 18.2462 0.0000 4.0519
# 5 56.0568 6.9465 -3.0757 0.0000 55.9930 0.0000
# 6 0.0000 0.0000 0.0000 4.0519 0.0000 26.2601
#
#
#
# Elastic Compliance Matrix: (Units=1/GPa)
#
#
# Indices 1 2 3 4 5 6 
#
# 1 0.008410 -0.003613 -0.007805 0.000000 -0.008400 0.000000
# 2 -0.003613 0.018126 0.005651 0.000000 0.001678 0.000000
# 3 -0.007805 0.005651 0.029665 0.000000 0.008742 0.000000
# 4 0.000000 0.000000 0.000000 0.056751 0.000000 -0.008757
# 5 -0.008400 0.001678 0.008742 0.000000 0.026541 0.000000
# 6 0.000000 0.000000 0.000000 -0.008757 0.000000 0.039432
#
#
# Mechanical properties :
#
#
# Convention : Reuss Voigt Hill
#
# Bulk Modulus (GPa) = 22.38614 49.07669 35.73141
# Shear Modulus (GPa) = 24.34900 38.15158 31.25029
#
# Velocity S-wave (km/s) = 3.05888 3.82894 3.46536
# Velocity P-wave (km/s) = 4.59109 6.19731 5.45366
#
# Compressibility (1/GPa) = 0.04467050
#
# Stress axis : x y z
#
# Youngs Moduli (GPa) = 118.90144 55.16834 33.70940
#
# Poissons Ratio (x) = 0.19930 0.26309
# Poissons Ratio (y) = 0.42953 -0.19051
# Poissons Ratio (z) = 0.92799 -0.31178
#
# Static dielectric constant tensor:
#      x y z
#    x 2.235680 0.000000 0.137700 
#    y 0.000000 2.044450 0.000000 
#    z 0.137700 0.000000 2.155580 
# 
# From -- ./inp_files/36040.got.cif
#   From: 2010.05.17/outbox.cif.g08.bks.cpg/sg11_19_cif.got.tgz:36040.got - 2010.06.03 12:22:45.
