data_PCOD9158603
_publ_section_title
;
Structure prediction by ZEFSAII (Michael W. Deem and Ramdas Pophale) SiO2 
 PCOD9158603
Probable space group: P 21/M
;
_chemical_formula_sum "Si O2"
_cell_formula_units_Z 24
_cell_length_a 18.282855
_cell_length_b 10.773865
_cell_length_c 11.805289
_cell_angle_alpha 90.000000
_cell_angle_beta 29.882743
_cell_angle_gamma 90.000000
_cell_volume 1158.561497
_symmetry_space_group_name_H-M "P 21/M"
_symmetry_group_IT_number 11
_symmetry_cell_setting 'monoclinic'
loop_
_space_group_symop_operation_xyz
x,y,z
-x,1/2+y,-z
-x,-y,-z
x,1/2-y,z
loop_
_atom_site_type_symbol
_atom_site_label
_atom_site_fract_x
_atom_site_fract_y
_atom_site_fract_z
Si Si1 0.211052 0.603502 0.846317
Si Si2 0.340041 0.016339 0.452620
Si Si3 0.495804 0.625020 0.073634
Si Si4 0.664745 0.107543 0.079760
Si Si5 0.084234 0.396435 0.633928
Si Si6 0.181645 0.391748 0.260874
O O1 0.197626 0.750000 0.832298
O O2 0.262567 0.520359 0.673027
O O3 0.324335 0.597100 0.798912
O O4 0.055529 0.558915 0.107004
O O5 0.497423 0.081737 0.264272
O O6 0.229129 0.084647 0.515819
O O7 0.382931 0.892178 0.326853
O O8 0.462427 0.750000 0.051021
O O9 0.500000 0.500000 0.000000
O O10 0.656251 0.632300 0.908671
O O11 0.707063 0.250000 0.993789
O O12 0.777955 0.004027 0.879047
O O13 0.062854 0.250000 0.646892
O O14 0.098994 0.443092 0.484496
O O15 0.129236 0.250000 0.295312
#
# Coordination Sequence:
#
# PCOD9158603 Si02
#       6
#     4   4   4   4   4   4
#     4  10  22  39  56  80 118 156 193 234 288 344
#     4  11  20  36  58  85 111 151 193 237 283 341
#     4  10  19  31  52  82 114 144 183 233 287 334
#     4  10  22  38  60  88 115 150 193 243 287 335
#     4  10  20  36  58  83 115 155 191 235 290 346
#     4   9  19  36  57  84 116 153 190 233 289 344
#
# _framework density 20.715344000000002
#
# number of rings (size 3 to 8) (size 9 to 14) (size 15 to 20)
#    0.000    2.000    1.667    2.000    0.000    4.000 
#    0.000    1.667    0.000    4.000    0.000    0.000 
#    0.000    0.000    0.000    0.000    0.000    0.000 
#
# Total GULP energy -133632.387149 kJ/mol
# GULP energy per Si atom -5568.016131 kJ/mol
# Density = 2.066819 g / cm^3
# Si number density = 20.715344 Si / 1000 Ang^3
#
#
#
# Elastic Constant Matrix: (Units=GPa)
#
#
# Indices 1 2 3 4 5 6 
#
# 1 37.8140 4.4393 11.1393 0.0000 4.1448 0.0000
# 2 4.4393 105.9162 18.3255 0.0000 22.4528 0.0000
# 3 11.1393 18.3255 108.2907 0.0000 15.9117 0.0000
# 4 0.0000 0.0000 0.0000 20.0358 0.0000 14.0114
# 5 4.1448 22.4528 15.9117 0.0000 42.9932 0.0000
# 6 0.0000 0.0000 0.0000 14.0114 0.0000 17.2476
#
#
#
# Elastic Compliance Matrix: (Units=1/GPa)
#
#
# Indices 1 2 3 4 5 6 
#
# 1 0.027402 -0.000393 -0.002532 0.000000 -0.001500 0.000000
# 2 -0.000393 0.010734 -0.001013 0.000000 -0.005193 0.000000
# 3 -0.002532 -0.001013 0.010102 0.000000 -0.002966 0.000000
# 4 0.000000 0.000000 0.000000 0.115562 0.000000 -0.093879
# 5 -0.001500 -0.005193 -0.002966 0.000000 0.027214 0.000000
# 6 0.000000 0.000000 0.000000 -0.093879 0.000000 0.134243
#
#
# Mechanical properties :
#
#
# Convention : Reuss Voigt Hill
#
# Bulk Modulus (GPa) = 24.77539 35.53656 30.15598
# Shear Modulus (GPa) = 14.42646 30.59643 22.51144
#
# Velocity S-wave (km/s) = 2.64183 3.84734 3.30010
# Velocity P-wave (km/s) = 4.61428 6.07684 5.39535
#
# Compressibility (1/GPa) = 0.04036263
#
# Stress axis : x y z
#
# Youngs Moduli (GPa) = 36.49433 93.16191 98.99001
#
# Poissons Ratio (x) = 0.03657 0.25063
# Poissons Ratio (y) = 0.01433 0.10028
# Poissons Ratio (z) = 0.09240 0.09438
#
# Static dielectric constant tensor:
#      x y z
#    x 1.755160 0.000000 0.011830 
#    y 0.000000 1.854210 0.000000 
#    z 0.011830 0.000000 1.786590 
# 
# From -- ./inp_files/41279.got.cif
#   From: 2010.05.17/outbox.cif.g08.bks.cpg/sg11_21_cif.got.tgz:41279.got - 2010.06.03 12:22:45.
