data_PCOD9158625
_publ_section_title
;
Structure prediction by ZEFSAII (Michael W. Deem and Ramdas Pophale) SiO2 
 PCOD9158625
Probable space group: P 21/M
;
_chemical_formula_sum "Si O2"
_cell_formula_units_Z 32
_cell_length_a 13.042120
_cell_length_b 13.378426
_cell_length_c 12.330045
_cell_angle_alpha 90.000000
_cell_angle_beta 40.178450
_cell_angle_gamma 90.000000
_cell_volume 1388.009007
_symmetry_space_group_name_H-M "P 21/M"
_symmetry_group_IT_number 11
_symmetry_cell_setting 'monoclinic'
loop_
_space_group_symop_operation_xyz
x,y,z
-x,1/2+y,-z
-x,-y,-z
x,1/2-y,z
loop_
_atom_site_type_symbol
_atom_site_label
_atom_site_fract_x
_atom_site_fract_y
_atom_site_fract_z
Si Si1 0.103787 0.640254 0.702646
Si Si2 0.289399 0.135045 0.308469
Si Si3 0.064453 0.111118 0.944310
Si Si4 0.507180 0.450184 0.378039
Si Si5 0.333589 0.635445 0.932558
Si Si6 0.214880 0.060104 0.142286
Si Si7 0.179773 0.090483 0.625810
Si Si8 0.602790 0.639530 0.197538
O O1 0.170699 0.750000 0.615329
O O2 0.184473 0.530269 0.637822
O O3 0.951336 0.612785 0.751324
O O4 0.043494 0.655119 0.874176
O O5 0.264228 0.250000 0.295627
O O6 0.478650 0.126656 0.184164
O O7 0.251814 0.063765 0.238471
O O8 0.170702 0.113386 0.505684
O O9 0.073607 0.135154 0.808469
O O10 0.242224 0.123433 0.850324
O O11 0.000000 0.000000 0.000000
O O12 0.500000 0.500000 0.500000
O O13 0.657007 0.394216 0.203099
O O14 0.360735 0.374786 0.499442
O O15 0.491122 0.546887 0.312986
O O16 0.284591 0.750000 0.988082
O O17 0.231866 0.551393 0.077470
O O18 0.340385 0.124911 0.971374
O O19 0.541057 0.750000 0.266675
#
# Coordination Sequence:
#
# PCOD9158625 Si02
#       8
#     4   4   4   4   4   4   4   4
#     4  10  21  37  58  79 107 148 188 230 275 331
#     4  10  20  35  57  85 112 146 185 228 282 335
#     4   9  17  32  53  72 102 138 176 219 269 320
#     4  10  19  34  54  78 113 147 176 226 277 333
#     4   9  20  36  56  83 114 147 185 231 283 328
#     4  10  19  36  58  79 111 146 189 229 272 324
#     4  10  21  36  54  79 115 142 183 231 284 327
#     4  10  19  31  54  81 104 140 183 222 266 326
#
# _framework density 23.054603
#
# number of rings (size 3 to 8) (size 9 to 14) (size 15 to 20)
#    0.000    2.250    1.250    2.625    0.000    2.500 
#    0.000    1.250    0.000    4.500    0.000    0.000 
#    0.000    0.000    0.000    0.000    0.000    0.000 
#
# Total GULP energy -178161.521675 kJ/mol
# GULP energy per Si atom -5567.547552 kJ/mol
# Density = 2.300213 g / cm^3
# Si number density = 23.054603 Si / 1000 Ang^3
#
#
#
# Elastic Constant Matrix: (Units=GPa)
#
#
# Indices 1 2 3 4 5 6 
#
# 1 63.7277 4.9167 33.8308 0.0000 22.5732 0.0000
# 2 4.9167 163.7588 8.5212 0.0000 0.7450 0.0000
# 3 33.8308 8.5212 78.9259 0.0000 26.6484 0.0000
# 4 0.0000 0.0000 0.0000 17.2117 0.0000 -26.0367
# 5 22.5732 0.7450 26.6484 0.0000 36.4099 0.0000
# 6 0.0000 0.0000 0.0000 -26.0367 0.0000 87.6371
#
#
#
# Elastic Compliance Matrix: (Units=1/GPa)
#
#
# Indices 1 2 3 4 5 6 
#
# 1 0.022390 -0.000293 -0.006483 0.000000 -0.009130 0.000000
# 2 -0.000293 0.006151 -0.000740 0.000000 0.000598 0.000000
# 3 -0.006483 -0.000740 0.018817 0.000000 -0.009738 0.000000
# 4 0.000000 0.000000 0.000000 0.105527 0.000000 0.031352
# 5 -0.009130 0.000598 -0.009738 0.000000 0.040240 0.000000
# 6 0.000000 0.000000 0.000000 0.031352 0.000000 0.020725
#
#
# Mechanical properties :
#
#
# Convention : Reuss Voigt Hill
#
# Bulk Modulus (GPa) = 30.93571 44.54996 37.74284
# Shear Modulus (GPa) = 20.86308 45.52798 33.19553
#
# Velocity S-wave (km/s) = 3.01149 4.44868 3.79867
# Velocity P-wave (km/s) = 5.05368 6.76412 5.97047
#
# Compressibility (1/GPa) = 0.03232510
#
# Stress axis : x y z
#
# Youngs Moduli (GPa) = 44.66278 162.57133 53.14467
#
# Poissons Ratio (x) = 0.04769 0.34452
# Poissons Ratio (y) = 0.01310 0.03934
# Poissons Ratio (z) = 0.28954 0.12033
#
# Static dielectric constant tensor:
#      x y z
#    x 1.964670 0.000000 -0.036660 
#    y 0.000000 1.913190 0.000000 
#    z -0.036660 0.000000 1.901480 
# 
# From -- ./inp_files/39643.got.cif
#   From: 2010.05.17/outbox.cif.g08.bks.cpg/sg11_20_cif.got.tgz:39643.got - 2010.06.03 12:22:45.
