data_PCOD9158082
_publ_section_title
;
Structure prediction by ZEFSAII (Michael W. Deem and Ramdas Pophale) SiO2 
 PCOD9158082
Probable space group: P 21/M
;
_chemical_formula_sum "Si O2"
_cell_formula_units_Z 32
_cell_length_a 16.148148
_cell_length_b 8.729298
_cell_length_c 21.810720
_cell_angle_alpha 90.000000
_cell_angle_beta 41.862827
_cell_angle_gamma 90.000000
_cell_volume 2051.754481
_symmetry_space_group_name_H-M "P 21/M"
_symmetry_group_IT_number 11
_symmetry_cell_setting 'monoclinic'
loop_
_space_group_symop_operation_xyz
x,y,z
-x,1/2+y,-z
-x,-y,-z
x,1/2-y,z
loop_
_atom_site_type_symbol
_atom_site_label
_atom_site_fract_x
_atom_site_fract_y
_atom_site_fract_z
Si Si1 0.720502 0.935314 0.096829
Si Si2 0.556410 0.433655 0.788004
Si Si3 0.603160 0.566070 0.897477
Si Si4 0.199298 0.067055 0.394242
Si Si5 0.104313 0.065831 0.897202
Si Si6 0.883344 0.933443 0.782225
Si Si7 0.929593 0.065898 0.890286
Si Si8 0.013328 0.566784 0.395857
O O1 0.729112 0.750000 0.086100
O O2 0.579817 0.980052 0.160253
O O3 0.768176 0.977926 0.139021
O O4 0.815008 0.008094 0.995525
O O5 0.560598 0.250000 0.789641
O O6 0.580656 0.502259 0.841934
O O7 0.666280 0.492176 0.683877
O O8 0.595404 0.750000 0.900759
O O9 0.740832 0.523155 0.844788
O O10 0.500000 0.500000 0.000000
O O11 0.210028 0.250000 0.383235
O O12 0.117508 0.029968 0.499318
O O13 0.118996 0.006248 0.380968
O O14 0.098834 0.250000 0.901220
O O15 0.056467 0.019551 0.856341
O O16 0.000000 0.000000 0.000000
O O17 0.890889 0.750000 0.776963
O O18 0.918396 0.994951 0.829546
O O19 0.968673 0.002664 0.681794
O O20 0.924561 0.250000 0.889148
O O21 0.028373 0.750000 0.387941
#
# Coordination Sequence:
#
# PCOD9158082 Si02
#       8
#     4   4   4   4   4   4   4   4
#     4   9  18  32  48  69  98 129 162 198 238 281
#     4  11  21  32  49  71  95 128 164 196 234 282
#     4  11  23  35  46  63  93 131 166 197 233 277
#     4  10  20  34  51  72  96 122 154 198 245 283
#     4   8  15  29  47  67  93 123 157 199 240 280
#     4  11  22  34  48  68  96 129 161 196 240 282
#     4  10  19  30  48  72  96 127 164 199 239 283
#     4  10  20  34  53  72  92 121 159 199 239 285
#
# _framework density 15.596408
#
# number of rings (size 3 to 8) (size 9 to 14) (size 15 to 20)
#    0.000    2.000    1.250    3.000    0.000    7.500 
#    0.000    0.000    0.000    0.000    0.000    0.875 
#    0.000    0.000    0.000    0.000    0.000    0.000 
#
# Total GULP energy -178471.020778 kJ/mol
# GULP energy per Si atom -5577.219399 kJ/mol
# Density = 1.556091 g / cm^3
# Si number density = 15.596408 Si / 1000 Ang^3
#
#
#
# Elastic Constant Matrix: (Units=GPa)
#
#
# Indices 1 2 3 4 5 6 
#
# 1 146.4658 36.6897 65.8049 0.0000 9.1007 0.0000
# 2 36.6897 33.6227 31.2858 0.0000 3.2100 0.0000
# 3 65.8049 31.2858 98.9098 0.0000 8.4211 0.0000
# 4 0.0000 0.0000 0.0000 26.6802 0.0000 2.2802
# 5 9.1007 3.2100 8.4211 0.0000 8.0579 0.0000
# 6 0.0000 0.0000 0.0000 2.2802 0.0000 15.7274
#
#
#
# Elastic Compliance Matrix: (Units=1/GPa)
#
#
# Indices 1 2 3 4 5 6 
#
# 1 0.011022 -0.007266 -0.004634 0.000000 -0.004712 0.000000
# 2 -0.007266 0.047009 -0.010032 0.000000 -0.000036 0.000000
# 3 -0.004634 -0.010032 0.017102 0.000000 -0.008643 0.000000
# 4 0.000000 0.000000 0.000000 0.037951 0.000000 -0.005502
# 5 -0.004712 -0.000036 -0.008643 0.000000 0.138471 0.000000
# 6 0.000000 0.000000 0.000000 -0.005502 0.000000 0.064381
#
#
# Mechanical properties :
#
#
# Convention : Reuss Voigt Hill
#
# Bulk Modulus (GPa) = 31.97990 60.72879 46.35434
# Shear Modulus (GPa) = 13.50537 19.77430 16.63983
#
# Velocity S-wave (km/s) = 2.94586 3.56459 3.26989
# Velocity P-wave (km/s) = 5.66745 7.48090 6.63641
#
# Compressibility (1/GPa) = 0.03126964
#
# Stress axis : x y z
#
# Youngs Moduli (GPa) = 90.72480 21.27250 58.47268
#
# Poissons Ratio (x) = 0.15457 0.27094
# Poissons Ratio (y) = 0.65924 0.58659
# Poissons Ratio (z) = 0.42039 0.21340
#
# Static dielectric constant tensor:
#      x y z
#    x 1.534140 0.000000 -0.007560 
#    y 0.000000 1.521480 0.000000 
#    z -0.007560 0.000000 1.500840 
# 
# From -- ./inp_files/51321.got.cif
#   From: 2010.05.17/outbox.cif.g08.bks.cpg/sg11_26_cif.got.tgz:51321.got - 2010.06.03 12:22:45.
