data_PCOD9158296
_publ_section_title
;
Structure prediction by ZEFSAII (Michael W. Deem and Ramdas Pophale) SiO2 
 PCOD9158296
Probable space group: P 21/M
;
_chemical_formula_sum "Si O2"
_cell_formula_units_Z 32
_cell_length_a 16.182485
_cell_length_b 8.413564
_cell_length_c 14.727158
_cell_angle_alpha 90.000000
_cell_angle_beta 89.113102
_cell_angle_gamma 90.000000
_cell_volume 2004.897293
_symmetry_space_group_name_H-M "P 21/M"
_symmetry_group_IT_number 11
_symmetry_cell_setting 'monoclinic'
loop_
_space_group_symop_operation_xyz
x,y,z
-x,1/2+y,-z
-x,-y,-z
x,1/2-y,z
loop_
_atom_site_type_symbol
_atom_site_label
_atom_site_fract_x
_atom_site_fract_y
_atom_site_fract_z
Si Si1 0.404837 0.058139 0.904018
Si Si2 0.334256 0.442334 0.715136
Si Si3 0.493169 0.940836 0.602914
Si Si4 0.403449 0.560290 0.100991
Si Si5 0.816541 0.943816 0.598784
Si Si6 0.827335 0.558405 0.387770
Si Si7 0.655820 0.558282 0.710335
Si Si8 0.997568 0.559847 0.603906
O O1 0.404470 0.250000 0.906607
O O2 0.352669 0.004906 0.817769
O O3 0.500587 0.005949 0.889696
O O4 0.375977 0.995802 0.001952
O O5 0.333531 0.250000 0.715036
O O6 0.410380 0.496472 0.651573
O O7 0.247811 0.497379 0.673830
O O8 0.492193 0.750000 0.603546
O O9 0.573473 0.995778 0.658451
O O10 0.500000 0.000000 0.500000
O O11 0.402965 0.750000 0.104234
O O12 0.351605 0.494682 0.185739
O O13 0.814498 0.750000 0.597746
O O14 0.812982 0.994418 0.492904
O O15 0.737969 0.999132 0.657321
O O16 0.906072 0.990365 0.637838
O O17 0.826813 0.750000 0.389123
O O18 0.918199 0.504774 0.354715
O O19 0.656482 0.750000 0.707620
O O20 0.000700 0.750000 0.604885
O O21 0.000000 0.500000 0.500000
#
# Coordination Sequence:
#
# PCOD9158296 Si02
#       8
#     4   4   4   4   4   4   4   4
#     4   9  18  32  49  67  90 121 155 192 236 283
#     4  10  19  33  50  68  93 125 160 195 232 279
#     4  11  22  32  45  65  94 130 163 193 227 270
#     4  10  19  31  48  69  92 117 152 198 240 276
#     4   8  15  28  45  65  90 123 156 186 223 273
#     4   9  17  30  48  68  94 125 156 191 234 277
#     4  10  19  32  48  66  90 124 161 191 229 278
#     4   9  16  28  46  67  92 121 157 195 233 273
#
# _framework density 15.960915999999999
#
# number of rings (size 3 to 8) (size 9 to 14) (size 15 to 20)
#    0.000    2.500    1.250    2.625    0.000    4.000 
#    0.000    3.125    0.000    0.000    0.000    0.875 
#    0.000    0.000    0.000    0.000    0.000    0.000 
#
# Total GULP energy -178356.264346 kJ/mol
# GULP energy per Si atom -5573.633261 kJ/mol
# Density = 1.592459 g / cm^3
# Si number density = 15.960916 Si / 1000 Ang^3
#
#
#
# Elastic Constant Matrix: (Units=GPa)
#
#
# Indices 1 2 3 4 5 6 
#
# 1 139.0822 17.0478 66.3089 0.0000 18.8431 0.0000
# 2 17.0478 5.4103 13.0036 0.0000 3.7949 0.0000
# 3 66.3089 13.0036 110.5002 0.0000 13.9066 0.0000
# 4 0.0000 0.0000 0.0000 20.4069 0.0000 -1.9837
# 5 18.8431 3.7949 13.9066 0.0000 11.4493 0.0000
# 6 0.0000 0.0000 0.0000 -1.9837 0.0000 19.8783
#
#
#
# Elastic Compliance Matrix: (Units=1/GPa)
#
#
# Indices 1 2 3 4 5 6 
#
# 1 0.013534 -0.027501 -0.003812 0.000000 -0.008528 0.000000
# 2 -0.027501 0.350028 -0.018631 0.000000 -0.048128 0.000000
# 3 -0.003812 -0.018631 0.014122 0.000000 -0.004704 0.000000
# 4 0.000000 0.000000 0.000000 0.049483 0.000000 0.004938
# 5 -0.008528 -0.048128 -0.004704 0.000000 0.123043 0.000000
# 6 0.000000 0.000000 0.000000 0.004938 0.000000 0.050799
#
#
# Mechanical properties :
#
#
# Convention : Reuss Voigt Hill
#
# Bulk Modulus (GPa) = 3.59977 49.74591 26.67284
# Shear Modulus (GPa) = 6.30124 20.92239 13.61182
#
# Velocity S-wave (km/s) = 1.98909 3.62450 2.92348
# Velocity P-wave (km/s) = 2.74510 6.98219 5.30502
#
# Compressibility (1/GPa) = 0.27779538
#
# Stress axis : x y z
#
# Youngs Moduli (GPa) = 73.89049 2.85691 70.81392
#
# Poissons Ratio (x) = 0.07857 0.26991
# Poissons Ratio (y) = 2.03206 1.31936
# Poissons Ratio (z) = 0.28164 0.05323
#
# Static dielectric constant tensor:
#      x y z
#    x 1.551890 0.000000 0.013600 
#    y 0.000000 1.552950 0.000000 
#    z 0.013600 0.000000 1.514290 
# 
# From -- ./inp_files/51297.got.cif
#   From: 2010.05.17/outbox.cif.g08.bks.cpg/sg11_26_cif.got.tgz:51297.got - 2010.06.03 12:22:45.
