data_PCOD9158887
_publ_section_title
;
Structure prediction by ZEFSAII (Michael W. Deem and Ramdas Pophale) SiO2 
 PCOD9158887
Probable space group: P 21/M
;
_chemical_formula_sum "Si O2"
_cell_formula_units_Z 22
_cell_length_a 28.651987
_cell_length_b 9.783611
_cell_length_c 12.326421
_cell_angle_alpha 90.000000
_cell_angle_beta 158.846032
_cell_angle_gamma 90.000000
_cell_volume 1246.947634
_symmetry_space_group_name_H-M "P 21/M"
_symmetry_group_IT_number 11
_symmetry_cell_setting 'monoclinic'
loop_
_space_group_symop_operation_xyz
x,y,z
-x,1/2+y,-z
-x,-y,-z
x,1/2-y,z
loop_
_atom_site_type_symbol
_atom_site_label
_atom_site_fract_x
_atom_site_fract_y
_atom_site_fract_z
Si Si1 0.275931 0.750000 0.741758
Si Si2 0.844835 0.250000 0.297745
Si Si3 0.874521 0.977484 0.652883
Si Si4 0.169023 0.750000 0.981523
Si Si5 0.985235 0.000503 0.250850
Si Si6 0.675986 0.250000 0.474161
Si Si7 0.245555 0.447860 0.398944
Si Si8 0.529649 0.750000 0.146001
O O1 0.267119 0.750000 0.853363
O O2 0.196023 0.618129 0.530479
O O3 0.415042 0.750000 0.985558
O O4 0.798046 0.250000 0.073154
O O5 0.931482 0.385967 0.507082
O O6 0.926647 0.925464 0.650546
O O7 0.781645 0.902266 0.536742
O O8 0.000000 0.000000 0.000000
O O9 0.084628 0.615459 0.828782
O O10 0.293432 0.750000 0.331526
O O11 0.874015 0.921494 0.940579
O O12 0.741432 0.388216 0.572906
O O13 0.536129 0.250000 0.115660
O O14 0.376278 0.379784 0.640530
#
# Coordination Sequence:
#
# PCOD9158887 Si02
#       8
#     2   2   4   2   4   2   4   2
#     4  10  20  32  49  73 102 138 174 209 251 309
#     4  10  19  36  54  74 100 134 179 212 253 306
#     4   9  17  30  49  73 109 130 161 203 264 314
#     4  10  20  34  53  76 101 136 168 218 264 294
#     4   9  19  32  54  80 104 130 169 212 261 312
#     4  10  20  33  49  72 106 136 173 204 251 305
#     4  10  19  32  51  80 106 140 161 208 260 311
#     4  12  21  31  53  77 109 136 176 205 251 306
#
# _framework density 17.643083000000001
#
# number of rings (size 3 to 8) (size 9 to 14) (size 15 to 20)
#    0.000    2.182    1.818    1.636    0.000    2.909 
#    0.000    0.000    0.000    4.364    9.455    0.000 
#    0.000    0.000    0.000    0.000    0.000    0.000 
#
# Total GULP energy -122505.848671 kJ/mol
# GULP energy per Si atom -5568.447667 kJ/mol
# Density = 1.760293 g / cm^3
# Si number density = 17.643083 Si / 1000 Ang^3
#
#
#
# Elastic Constant Matrix: (Units=GPa)
#
#
# Indices 1 2 3 4 5 6 
#
# 1 150.6726 32.7003 53.1230 0.0000 -5.9553 0.0000
# 2 32.7003 77.9120 16.5113 0.0000 2.5754 0.0000
# 3 53.1230 16.5113 71.9665 0.0000 5.8559 0.0000
# 4 0.0000 0.0000 0.0000 2.5409 0.0000 -9.1928
# 5 -5.9553 2.5754 5.8559 0.0000 32.5860 0.0000
# 6 0.0000 0.0000 0.0000 -9.1928 0.0000 9.8944
#
#
#
# Elastic Compliance Matrix: (Units=1/GPa)
#
#
# Indices 1 2 3 4 5 6 
#
# 1 0.009778 -0.002760 -0.006848 0.000000 0.003236 0.000000
# 2 -0.002760 0.014278 -0.001122 0.000000 -0.001431 0.000000
# 3 -0.006848 -0.001122 0.019589 0.000000 -0.004683 0.000000
# 4 0.000000 0.000000 0.000000 -0.166667 0.000000 -0.154849
# 5 0.003236 -0.001431 -0.004683 0.000000 0.032234 0.000000
# 6 0.000000 0.000000 0.000000 -0.154849 0.000000 -0.042801
#
#
# Mechanical properties :
#
#
# Convention : Reuss Voigt Hill
#
# Bulk Modulus (GPa) = 45.07481 56.13558 50.60519
# Shear Modulus (GPa) = -47.74014 22.21870 -12.76072
#
# Velocity S-wave (km/s) = -5.20745 3.55257 -2.69229
# Velocity P-wave (km/s) = 3.24856 6.97955 4.36812
#
# Compressibility (1/GPa) = 0.02218534
#
# Stress axis : x y z
#
# Youngs Moduli (GPa) = 102.26886 70.03577 51.04945
#
# Poissons Ratio (x) = 0.19328 0.34959
# Poissons Ratio (y) = 0.28223 0.05730
# Poissons Ratio (z) = 0.70034 0.07860
#
# Static dielectric constant tensor:
#      x y z
#    x 1.635350 0.000000 0.011970 
#    y 0.000000 1.625580 0.000000 
#    z 0.011970 0.000000 1.587500 
# 
# From -- ./inp_files/31111.got.cif
#   From: 2010.05.17/outbox.cif.g08.bks.cpg/sg11_16_cif.got.tgz:31111.got - 2010.06.03 12:22:45.
