data_PCOD9158143
_publ_section_title
;
Structure prediction by ZEFSAII (Michael W. Deem and Ramdas Pophale) SiO2 
 PCOD9158143
Probable space group: P 21/M
;
_chemical_formula_sum "Si O2"
_cell_formula_units_Z 32
_cell_length_a 20.204198
_cell_length_b 9.641020
_cell_length_c 13.282263
_cell_angle_alpha 90.000000
_cell_angle_beta 44.020904
_cell_angle_gamma 90.000000
_cell_volume 1797.926641
_symmetry_space_group_name_H-M "P 21/M"
_symmetry_group_IT_number 11
_symmetry_cell_setting 'monoclinic'
loop_
_space_group_symop_operation_xyz
x,y,z
-x,1/2+y,-z
-x,-y,-z
x,1/2-y,z
loop_
_atom_site_type_symbol
_atom_site_label
_atom_site_fract_x
_atom_site_fract_y
_atom_site_fract_z
Si Si1 0.117964 0.916314 0.577718
Si Si2 0.661851 0.592198 0.003262
Si Si3 0.685809 0.418838 0.547528
Si Si4 0.928465 0.412172 0.797073
Si Si5 0.460979 0.592423 0.131483
Si Si6 0.409695 0.585128 0.556268
Si Si7 0.195173 0.913924 0.269806
Si Si8 0.733725 0.088791 0.105877
O O1 0.105921 0.750000 0.597279
O O2 0.204315 0.958133 0.557622
O O3 0.150395 0.947235 0.427037
O O4 0.020223 0.993276 0.707485
O O5 0.698118 0.750000 0.964189
O O6 0.713745 0.506377 0.857984
O O7 0.549153 0.597127 0.112176
O O8 0.685472 0.512740 0.079219
O O9 0.683070 0.250000 0.549842
O O10 0.629267 0.462849 0.709388
O O11 0.629232 0.463310 0.509866
O O12 0.954800 0.250000 0.771697
O O13 0.877940 0.436834 0.743384
O O14 0.846586 0.437216 0.970526
O O15 0.441587 0.750000 0.118306
O O16 0.500000 0.500000 0.000000
O O17 0.500000 0.500000 0.500000
O O18 0.434081 0.750000 0.523939
O O19 0.319851 0.572359 0.730383
O O20 0.219508 0.750000 0.243300
O O21 0.720628 0.250000 0.088094
#
# Coordination Sequence:
#
# PCOD9158143 Si02
#       8
#     4   4   4   4   4   4   4   4
#     4  10  19  32  51  73  99 137 179 213 250 300
#     4  10  19  30  49  77 103 128 166 215 256 293
#     4   9  19  35  53  74 102 135 170 208 253 305
#     4   9  18  32  49  72 102 134 171 214 255 296
#     4  10  20  33  49  71 101 136 168 200 244 298
#     4  10  20  37  60  81 103 132 167 209 256 307
#     4   9  18  32  50  73 104 141 174 204 250 311
#     4   9  19  35  54  75 100 133 167 201 254 314
#
# _framework density 17.798279000000001
#
# number of rings (size 3 to 8) (size 9 to 14) (size 15 to 20)
#    0.000    2.500    0.000    3.000    0.000    6.000 
#    0.000    2.500    0.000    0.000    0.000    0.000 
#    0.000    0.000    0.000    0.000    0.000    0.000 
#
# Total GULP energy -178413.286733 kJ/mol
# GULP energy per Si atom -5575.415210 kJ/mol
# Density = 1.775777 g / cm^3
# Si number density = 17.798279 Si / 1000 Ang^3
#
#
#
# Elastic Constant Matrix: (Units=GPa)
#
#
# Indices 1 2 3 4 5 6 
#
# 1 93.9347 33.2421 42.9224 0.0000 -14.4639 0.0000
# 2 33.2421 42.4590 34.6712 0.0000 -5.7291 0.0000
# 3 42.9224 34.6712 81.8866 0.0000 -5.1043 0.0000
# 4 0.0000 0.0000 0.0000 23.7731 0.0000 -7.3591
# 5 -14.4639 -5.7291 -5.1043 0.0000 27.3742 0.0000
# 6 0.0000 0.0000 0.0000 -7.3591 0.0000 23.2995
#
#
#
# Elastic Compliance Matrix: (Units=1/GPa)
#
#
# Indices 1 2 3 4 5 6 
#
# 1 0.016775 -0.008301 -0.004891 0.000000 0.006214 0.000000
# 2 -0.008301 0.040727 -0.012783 0.000000 0.001754 0.000000
# 3 -0.004891 -0.012783 0.020094 0.000000 -0.001513 0.000000
# 4 0.000000 0.000000 0.000000 0.046623 0.000000 0.014726
# 5 0.006214 0.001754 -0.001513 0.000000 0.039899 0.000000
# 6 0.000000 0.000000 0.000000 0.014726 0.000000 0.047570
#
#
# Mechanical properties :
#
#
# Convention : Reuss Voigt Hill
#
# Bulk Modulus (GPa) = 38.99433 48.88352 43.93893
# Shear Modulus (GPa) = 18.36973 22.05233 20.21103
#
# Velocity S-wave (km/s) = 3.21613 3.52378 3.37346
# Velocity P-wave (km/s) = 5.97896 6.63935 6.31779
#
# Compressibility (1/GPa) = 0.02564476
#
# Stress axis : x y z
#
# Youngs Moduli (GPa) = 59.61227 24.55394 49.76665
#
# Poissons Ratio (x) = 0.20383 0.24340
# Poissons Ratio (y) = 0.49486 0.63618
# Poissons Ratio (z) = 0.29155 0.31388
#
# Static dielectric constant tensor:
#      x y z
#    x 1.619940 0.000000 0.006650 
#    y 0.000000 1.601010 0.000000 
#    z 0.006650 0.000000 1.615080 
# 
# From -- ./inp_files/42836.got.cif
#   From: 2010.05.17/outbox.cif.g08.bks.cpg/sg11_22_cif.got.tgz:42836.got - 2010.06.03 12:22:45.
