data_PCOD9158546
_publ_section_title
;
Structure prediction by ZEFSAII (Michael W. Deem and Ramdas Pophale) SiO2 
 PCOD9158546
Probable space group: P 21/M
;
_chemical_formula_sum "Si O2"
_cell_formula_units_Z 32
_cell_length_a 15.899184
_cell_length_b 8.726976
_cell_length_c 16.021872
_cell_angle_alpha 90.000000
_cell_angle_beta 123.586628
_cell_angle_gamma 90.000000
_cell_volume 1851.923903
_symmetry_space_group_name_H-M "P 21/M"
_symmetry_group_IT_number 11
_symmetry_cell_setting 'monoclinic'
loop_
_space_group_symop_operation_xyz
x,y,z
-x,1/2+y,-z
-x,-y,-z
x,1/2-y,z
loop_
_atom_site_type_symbol
_atom_site_label
_atom_site_fract_x
_atom_site_fract_y
_atom_site_fract_z
Si Si1 0.570733 0.434226 0.222607
Si Si2 0.322311 0.433124 0.881486
Si Si3 0.040703 0.434333 0.148146
Si Si4 0.907500 0.565891 0.638188
Si Si5 0.359878 0.932373 0.084539
Si Si6 0.845060 0.567320 0.959921
Si Si7 0.873344 0.064659 0.308370
Si Si8 0.771271 0.433524 0.425638
O O1 0.567161 0.250000 0.215729
O O2 0.608402 0.498842 0.154187
O O3 0.461356 0.501364 0.181193
O O4 0.658000 0.478174 0.336543
O O5 0.328695 0.250000 0.885304
O O6 0.208952 0.487773 0.796961
O O7 0.353429 0.498998 0.987744
O O8 0.025486 0.250000 0.141418
O O9 0.086179 0.482211 0.261808
O O10 0.933149 0.511587 0.070668
O O11 0.113214 0.469340 0.109786
O O12 0.902912 0.750000 0.633805
O O13 0.815687 0.502263 0.533991
O O14 0.013483 0.519964 0.653195
O O15 0.364641 0.750000 0.082690
O O16 0.259336 0.985757 0.076640
O O17 0.832648 0.750000 0.960280
O O18 0.863763 0.250000 0.295220
O O19 0.842034 0.022214 0.385512
O O20 0.773952 0.250000 0.432853
#
# Coordination Sequence:
#
# PCOD9158546 Si02
#       8
#     4   4   4   4   4   4   4   4
#     4  10  21  38  54  72 102 137 172 212 256 298
#     4  11  21  33  51  77 106 137 172 209 251 301
#     4   9  19  35  54  79 109 137 166 206 257 306
#     4  10  19  31  51  75 101 135 172 210 252 301
#     4  12  23  35  53  76 102 134 172 212 255 305
#     4  10  20  35  55  79 106 135 168 208 255 307
#     4   9  18  32  48  72 107 142 172 207 252 296
#     4   9  19  33  49  71 102 137 171 210 252 296
#
# _framework density 17.279326999999999
#
# number of rings (size 3 to 8) (size 9 to 14) (size 15 to 20)
#    0.000    2.000    0.000    5.250    0.000    5.000 
#    0.000    0.000    0.000    0.750    0.000    0.000 
#    0.000    0.000    0.000    0.000    0.000    0.000 
#
# Total GULP energy -178723.464550 kJ/mol
# GULP energy per Si atom -5585.108267 kJ/mol
# Density = 1.724000 g / cm^3
# Si number density = 17.279327 Si / 1000 Ang^3
#
#
#
# Elastic Constant Matrix: (Units=GPa)
#
#
# Indices 1 2 3 4 5 6 
#
# 1 91.1032 42.9391 66.8674 0.0000 21.6038 0.0000
# 2 42.9391 63.1405 42.2341 0.0000 8.3533 0.0000
# 3 66.8674 42.2341 147.2972 0.0000 6.8048 0.0000
# 4 0.0000 0.0000 0.0000 28.0711 0.0000 4.2999
# 5 21.6038 8.3533 6.8048 0.0000 17.8232 0.0000
# 6 0.0000 0.0000 0.0000 4.2999 0.0000 25.9750
#
#
#
# Elastic Compliance Matrix: (Units=1/GPa)
#
#
# Indices 1 2 3 4 5 6 
#
# 1 0.028379 -0.009907 -0.008824 0.000000 -0.026387 0.000000
# 2 -0.009907 0.023996 -0.002462 0.000000 0.001701 0.000000
# 3 -0.008824 -0.002462 0.011150 0.000000 0.007592 0.000000
# 4 0.000000 0.000000 0.000000 0.036551 0.000000 -0.006051
# 5 -0.026387 0.001701 0.007592 0.000000 0.084395 0.000000
# 6 0.000000 0.000000 0.000000 -0.006051 0.000000 0.039500
#
#
# Mechanical properties :
#
#
# Convention : Reuss Voigt Hill
#
# Bulk Modulus (GPa) = 47.30046 67.29135 57.29590
# Shear Modulus (GPa) = 18.28803 24.34054 21.31429
#
# Velocity S-wave (km/s) = 3.25680 3.75727 3.51595
# Velocity P-wave (km/s) = 6.44793 7.60596 7.05076
#
# Compressibility (1/GPa) = 0.02114144
#
# Stress axis : x y z
#
# Youngs Moduli (GPa) = 35.23672 41.67307 89.68816
#
# Poissons Ratio (x) = 0.41284 0.79138
# Poissons Ratio (y) = 0.34908 0.22079
# Poissons Ratio (z) = 0.31092 0.10259
#
# Static dielectric constant tensor:
#      x y z
#    x 1.582060 0.000000 0.001880 
#    y 0.000000 1.576270 0.000000 
#    z 0.001880 0.000000 1.577990 
# 
# From -- ./inp_files/51759.got.cif
#   From: 2010.05.17/outbox.cif.g08.bks.cpg/sg11_26_cif.got.tgz:51759.got - 2010.06.03 12:22:45.
