data_PCOD9158498
_publ_section_title
;
Structure prediction by ZEFSAII (Michael W. Deem and Ramdas Pophale) SiO2 
 PCOD9158498
Probable space group: P 21/M
;
_chemical_formula_sum "Si O2"
_cell_formula_units_Z 32
_cell_length_a 21.372520
_cell_length_b 8.180150
_cell_length_c 14.533257
_cell_angle_alpha 90.000000
_cell_angle_beta 136.113909
_cell_angle_gamma 90.000000
_cell_volume 1761.389295
_symmetry_space_group_name_H-M "P 21/M"
_symmetry_group_IT_number 11
_symmetry_cell_setting 'monoclinic'
loop_
_space_group_symop_operation_xyz
x,y,z
-x,1/2+y,-z
-x,-y,-z
x,1/2-y,z
loop_
_atom_site_type_symbol
_atom_site_label
_atom_site_fract_x
_atom_site_fract_y
_atom_site_fract_z
Si Si1 0.484501 0.553608 0.588709
Si Si2 0.141166 0.950613 0.417148
Si Si3 0.711767 0.443506 0.562375
Si Si4 0.807646 0.555104 0.138544
Si Si5 0.808932 0.558551 0.844837
Si Si6 0.672767 0.440230 0.854011
Si Si7 0.101179 0.554235 0.582166
Si Si8 0.952992 0.948844 0.137822
O O1 0.500000 0.500000 0.500000
O O2 0.483549 0.750000 0.589415
O O3 0.387733 0.489596 0.521570
O O4 0.569276 0.491451 0.736837
O O5 0.140882 0.750000 0.416464
O O6 0.232674 0.008444 0.465808
O O7 0.127288 0.003128 0.507533
O O8 0.054403 0.003017 0.264879
O O9 0.700461 0.250000 0.536332
O O10 0.774514 0.468892 0.718121
O O11 0.798929 0.750000 0.122061
O O12 0.832742 0.507868 0.268179
O O13 0.890723 0.504904 0.159348
O O14 0.719124 0.474845 0.000890
O O15 0.819101 0.750000 0.834441
O O16 0.731714 0.538331 0.841155
O O17 0.900461 0.495357 0.990658
O O18 0.681373 0.250000 0.839402
O O19 0.102768 0.750000 0.583278
O O20 0.000000 0.500000 0.500000
O O21 0.952906 0.750000 0.134467
#
# Coordination Sequence:
#
# PCOD9158498 Si02
#       8
#     4   4   4   4   4   4   4   4
#     4  11  21  34  54  80 107 140 181 226 274 319
#     4   9  18  34  53  75 106 145 182 221 266 316
#     4  10  21  35  53  75 104 143 186 223 265 321
#     4  10  19  34  55  81 111 139 172 221 274 321
#     4  10  19  31  50  75 108 144 179 218 263 314
#     4  11  21  34  54  81 108 138 178 222 269 323
#     4  11  20  33  56  82 109 143 184 225 268 316
#     4   8  15  29  49  73 103 141 175 208 258 312
#
# _framework density 18.167477999999999
#
# number of rings (size 3 to 8) (size 9 to 14) (size 15 to 20)
#    0.000    2.000    2.500    3.375    0.000    1.000 
#    0.000    1.250    0.000    0.750    0.000    0.000 
#    0.000    0.000    0.000    0.000    0.000    0.000 
#
# Total GULP energy -178604.189572 kJ/mol
# GULP energy per Si atom -5581.380924 kJ/mol
# Density = 1.812613 g / cm^3
# Si number density = 18.167478 Si / 1000 Ang^3
#
#
#
# Elastic Constant Matrix: (Units=GPa)
#
#
# Indices 1 2 3 4 5 6 
#
# 1 111.4496 0.6741 61.9499 0.0000 11.0163 0.0000
# 2 0.6741 25.2080 3.2211 0.0000 7.7366 0.0000
# 3 61.9499 3.2211 115.8722 0.0000 10.4059 0.0000
# 4 0.0000 0.0000 0.0000 26.5095 0.0000 -3.0268
# 5 11.0163 7.7366 10.4059 0.0000 20.8440 0.0000
# 6 0.0000 0.0000 0.0000 -3.0268 0.0000 12.5724
#
#
#
# Elastic Compliance Matrix: (Units=1/GPa)
#
#
# Indices 1 2 3 4 5 6 
#
# 1 0.013088 0.001810 -0.006665 0.000000 -0.004261 0.000000
# 2 0.001810 0.045027 -0.000662 0.000000 -0.017338 0.000000
# 3 -0.006665 -0.000662 0.012431 0.000000 -0.002438 0.000000
# 4 0.000000 0.000000 0.000000 0.038789 0.000000 0.009338
# 5 -0.004261 -0.017338 -0.002438 0.000000 0.057880 0.000000
# 6 0.000000 0.000000 0.000000 0.009338 0.000000 0.081787
#
#
# Mechanical properties :
#
#
# Convention : Reuss Voigt Hill
#
# Bulk Modulus (GPa) = 16.80358 42.69112 29.74735
# Shear Modulus (GPa) = 17.86521 24.43082 21.14802
#
# Velocity S-wave (km/s) = 3.13926 3.67107 3.41553
# Velocity P-wave (km/s) = 4.73385 6.44350 5.65367
#
# Compressibility (1/GPa) = 0.05951113
#
# Stress axis : x y z
#
# Youngs Moduli (GPa) = 76.40839 22.20868 80.44560
#
# Poissons Ratio (x) = -0.04019 0.53615
# Poissons Ratio (y) = -0.13826 0.05326
# Poissons Ratio (z) = 0.50924 0.01470
#
# Static dielectric constant tensor:
#      x y z
#    x 1.652570 0.000000 0.001090 
#    y 0.000000 1.665190 0.000000 
#    z 0.001090 0.000000 1.629470 
# 
# From -- ./inp_files/54369.got.cif
#   From: 2010.05.17/outbox.cif.g08.bks.cpg/sg11_28_cif.got.tgz:54369.got - 2010.06.03 12:22:45.
