data_PCOD9158380
_publ_section_title
;
Structure prediction by ZEFSAII (Michael W. Deem and Ramdas Pophale) SiO2 
 PCOD9158380
Probable space group: P 21/M
;
_chemical_formula_sum "Si O2"
_cell_formula_units_Z 32
_cell_length_a 31.428270
_cell_length_b 8.893621
_cell_length_c 15.299313
_cell_angle_alpha 90.000000
_cell_angle_beta 151.279297
_cell_angle_gamma 90.000000
_cell_volume 2054.948480
_symmetry_space_group_name_H-M "P 21/M"
_symmetry_group_IT_number 11
_symmetry_cell_setting 'monoclinic'
loop_
_space_group_symop_operation_xyz
x,y,z
-x,1/2+y,-z
-x,-y,-z
x,1/2-y,z
loop_
_atom_site_type_symbol
_atom_site_label
_atom_site_fract_x
_atom_site_fract_y
_atom_site_fract_z
Si Si1 0.875176 0.070573 0.125689
Si Si2 0.868589 0.428662 0.822448
Si Si3 0.751814 0.571124 0.753049
Si Si4 0.051046 0.570713 0.214350
Si Si5 0.610934 0.928699 0.781448
Si Si6 0.066492 0.569527 0.441615
Si Si7 0.590644 0.071098 0.554195
Si Si8 0.213639 0.930018 0.846608
O O1 0.873367 0.250000 0.108889
O O2 0.832453 0.037673 0.143075
O O3 0.975137 0.010737 0.302233
O O4 0.817620 0.992605 0.946483
O O5 0.858908 0.250000 0.815531
O O6 0.789829 0.511797 0.729986
O O7 0.881844 0.463791 0.743710
O O8 0.960380 0.482231 0.032511
O O9 0.752944 0.750000 0.757845
O O10 0.655229 0.508356 0.602514
O O11 0.031289 0.750000 0.173494
O O12 0.084296 0.538459 0.371525
O O13 0.617956 0.750000 0.779967
O O14 0.513738 0.959650 0.645824
O O15 0.614350 0.010571 0.693615
O O16 0.692348 0.987997 0.984674
O O17 0.054104 0.750000 0.428854
O O18 0.146555 0.524709 0.649027
O O19 0.605201 0.250000 0.578365
O O20 0.227245 0.750000 0.866124
#
# Coordination Sequence:
#
# PCOD9158380 Si02
#       8
#     4   4   4   4   4   4   4   4
#     4  11  21  32  46  69  99 135 170 203 238 281
#     4  10  19  31  49  71  97 128 161 203 250 293
#     4  12  22  32  49  73  99 132 164 199 245 296
#     4   9  18  32  49  70  97 128 164 204 246 291
#     4  10  20  33  51  73  97 128 163 201 244 289
#     4  10  20  34  50  70  97 134 172 206 240 283
#     4  10  20  34  51  72  98 126 161 203 246 293
#     4  10  21  34  49  69 100 136 170 204 239 282
#
# _framework density 15.572167
#
# number of rings (size 3 to 8) (size 9 to 14) (size 15 to 20)
#    0.000    1.750    2.500    3.000    0.000    3.000 
#    0.000    0.000    0.000    0.000    0.000    0.875 
#    0.000    0.000    0.000    0.000    0.000    0.000 
#
# Total GULP energy -178646.419817 kJ/mol
# GULP energy per Si atom -5582.700619 kJ/mol
# Density = 1.553672 g / cm^3
# Si number density = 15.572167 Si / 1000 Ang^3
#
#
#
# Elastic Constant Matrix: (Units=GPa)
#
#
# Indices 1 2 3 4 5 6 
#
# 1 106.5202 57.9761 56.4489 0.0000 17.7986 0.0000
# 2 57.9761 63.5854 45.4058 0.0000 10.4431 0.0000
# 3 56.4489 45.4058 94.4428 0.0000 11.1094 0.0000
# 4 0.0000 0.0000 0.0000 24.7412 0.0000 5.6293
# 5 17.7986 10.4431 11.1094 0.0000 20.6385 0.0000
# 6 0.0000 0.0000 0.0000 5.6293 0.0000 22.0582
#
#
#
# Elastic Compliance Matrix: (Units=1/GPa)
#
#
# Indices 1 2 3 4 5 6 
#
# 1 0.021237 -0.014659 -0.004659 0.000000 -0.008390 0.000000
# 2 -0.014659 0.034865 -0.007914 0.000000 -0.000740 0.000000
# 3 -0.004659 -0.007914 0.017332 0.000000 -0.001307 0.000000
# 4 0.000000 0.000000 0.000000 0.042910 0.000000 -0.010951
# 5 -0.008390 -0.000740 -0.001307 0.000000 0.056766 0.000000
# 6 0.000000 0.000000 0.000000 -0.010951 0.000000 0.048129
#
#
# Mechanical properties :
#
#
# Convention : Reuss Voigt Hill
#
# Bulk Modulus (GPa) = 52.71218 64.91224 58.81221
# Shear Modulus (GPa) = 17.72887 20.46875 19.09881
#
# Velocity S-wave (km/s) = 3.37782 3.62946 3.50590
# Velocity P-wave (km/s) = 7.00975 7.70320 7.36464
#
# Compressibility (1/GPa) = 0.01897095
#
# Stress axis : x y z
#
# Youngs Moduli (GPa) = 47.08748 28.68197 57.69814
#
# Poissons Ratio (x) = 0.42044 0.26882
# Poissons Ratio (y) = 0.69024 0.45660
# Poissons Ratio (z) = 0.21938 0.22698
#
# Static dielectric constant tensor:
#      x y z
#    x 1.523690 0.000000 0.005110 
#    y 0.000000 1.520520 0.000000 
#    z 0.005110 0.000000 1.497920 
# 
# From -- ./inp_files/51238.got.cif
#   From: 2010.05.17/outbox.cif.g08.bks.cpg/sg11_26_cif.got.tgz:51238.got - 2010.06.03 12:22:45.
