data_PCOD9158124
_publ_section_title
;
Structure prediction by ZEFSAII (Michael W. Deem and Ramdas Pophale) SiO2 
 PCOD9158124
Probable space group: P 21/M
;
_chemical_formula_sum "Si O2"
_cell_formula_units_Z 28
_cell_length_a 11.802687
_cell_length_b 24.967465
_cell_length_c 5.332747
_cell_angle_alpha 90.000000
_cell_angle_beta 91.135720
_cell_angle_gamma 90.000000
_cell_volume 1571.162099
_symmetry_space_group_name_H-M "P 21/M"
_symmetry_group_IT_number 11
_symmetry_cell_setting 'monoclinic'
loop_
_space_group_symop_operation_xyz
x,y,z
-x,1/2+y,-z
-x,-y,-z
x,1/2-y,z
loop_
_atom_site_type_symbol
_atom_site_label
_atom_site_fract_x
_atom_site_fract_y
_atom_site_fract_z
Si Si1 0.098123 0.515176 0.700011
Si Si2 0.729381 0.522247 0.655954
Si Si3 0.333527 0.311400 0.428539
Si Si4 0.815864 0.811715 0.082371
Si Si5 0.591841 0.047164 0.978083
Si Si6 0.495122 0.090145 0.465863
Si Si7 0.923645 0.582906 0.918937
O O1 0.213920 0.514316 0.552737
O O2 0.000000 0.500000 0.500000
O O3 0.048299 0.569468 0.817490
O O4 0.095675 0.464641 0.884089
O O5 0.703824 0.484466 0.894276
O O6 0.611436 0.548350 0.561647
O O7 0.819934 0.569093 0.722574
O O8 0.370745 0.250000 0.462177
O O9 0.249108 0.322769 0.659123
O O10 0.436099 0.352590 0.441490
O O11 0.270047 0.315054 0.158019
O O12 0.858159 0.750000 0.092793
O O13 0.905809 0.858647 0.032427
O O14 0.554133 0.081600 0.735114
O O15 0.578288 0.079035 0.235654
O O16 0.500000 0.000000 0.000000
#
# Coordination Sequence:
#
# PCOD9158124 Si02
#       7
#     4   4   4   4   4   4   4
#     4   9  20  32  47  74  98 137 172 203 257 314
#     4  10  19  30  49  68 104 137 161 209 246 298
#     4  10  20  33  51  75 101 136 172 203 252 302
#     4  10  20  33  52  77 102 135 171 205 252 306
#     4  10  22  31  46  74 101 135 174 197 247 304
#     4  11  20  33  49  73 104 137 166 205 247 296
#     4  10  19  32  51  72 104 137 169 206 258 307
#
# _framework density 17.821206
#
# number of rings (size 3 to 8) (size 9 to 14) (size 15 to 20)
#    0.000    2.000    1.429    3.429   10.000    0.000 
#    0.000    0.000    0.000    0.000    0.000    2.000 
#    0.000    1.429    0.000    0.000    0.000    0.000 
#
# Total GULP energy -156079.848642 kJ/mol
# GULP energy per Si atom -5574.280309 kJ/mol
# Density = 1.778064 g / cm^3
# Si number density = 17.821206 Si / 1000 Ang^3
#
#
#
# Elastic Constant Matrix: (Units=GPa)
#
#
# Indices 1 2 3 4 5 6 
#
# 1 48.1882 33.8297 25.5346 0.0000 -19.6851 0.0000
# 2 33.8297 99.5365 18.3825 0.0000 -16.7904 0.0000
# 3 25.5346 18.3825 96.8801 0.0000 -14.0624 0.0000
# 4 0.0000 0.0000 0.0000 18.6966 0.0000 -4.7335
# 5 -19.6851 -16.7904 -14.0624 0.0000 36.8730 0.0000
# 6 0.0000 0.0000 0.0000 -4.7335 0.0000 33.9541
#
#
#
# Elastic Compliance Matrix: (Units=1/GPa)
#
#
# Indices 1 2 3 4 5 6 
#
# 1 0.035063 -0.008737 -0.005763 0.000000 0.012543 0.000000
# 2 -0.008737 0.013248 -0.000013 0.000000 0.001363 0.000000
# 3 -0.005763 -0.000013 0.012064 0.000000 0.001518 0.000000
# 4 0.000000 0.000000 0.000000 0.055442 0.000000 0.007729
# 5 0.012543 0.001363 0.001518 0.000000 0.035016 0.000000
# 6 0.000000 0.000000 0.000000 0.007729 0.000000 0.030529
#
#
# Mechanical properties :
#
#
# Convention : Reuss Voigt Hill
#
# Bulk Modulus (GPa) = 31.89892 44.45538 38.17715
# Shear Modulus (GPa) = 22.64093 29.02861 25.83477
#
# Velocity S-wave (km/s) = 3.56820 4.04032 3.81158
# Velocity P-wave (km/s) = 5.90884 6.83849 6.39059
#
# Compressibility (1/GPa) = 0.03134903
#
# Stress axis : x y z
#
# Youngs Moduli (GPa) = 28.51995 75.48078 82.89192
#
# Poissons Ratio (x) = 0.65947 0.47772
# Poissons Ratio (y) = 0.24918 0.00109
# Poissons Ratio (z) = 0.16437 0.00099
#
# Static dielectric constant tensor:
#      x y z
#    x 1.651520 0.000000 0.011520 
#    y 0.000000 1.610570 0.000000 
#    z 0.011520 0.000000 1.690320 
# 
# From -- ./inp_files/5252.got.cif
#   From: 2010.05.17/outbox.cif.g08.bks.cpg/sg11_3_cif.got.tgz:5252.got - 2010.06.03 12:22:45.
