data_PCOD9158507
_publ_section_title
;
Structure prediction by ZEFSAII (Michael W. Deem and Ramdas Pophale) SiO2 
 PCOD9158507
Probable space group: P 21/M
;
_chemical_formula_sum "Si O2"
_cell_formula_units_Z 32
_cell_length_a 21.593542
_cell_length_b 9.325362
_cell_length_c 28.216786
_cell_angle_alpha 90.000000
_cell_angle_beta 160.768999
_cell_angle_gamma 90.000000
_cell_volume 1871.505697
_symmetry_space_group_name_H-M "P 21/M"
_symmetry_group_IT_number 11
_symmetry_cell_setting 'monoclinic'
loop_
_space_group_symop_operation_xyz
x,y,z
-x,1/2+y,-z
-x,-y,-z
x,1/2-y,z
loop_
_atom_site_type_symbol
_atom_site_label
_atom_site_fract_x
_atom_site_fract_y
_atom_site_fract_z
Si Si1 0.794171 0.418234 0.224376
Si Si2 0.879543 0.418837 0.046223
Si Si3 0.518120 0.079175 0.845122
Si Si4 0.596802 0.581932 0.999811
Si Si5 0.914957 0.577298 0.484664
Si Si6 0.064134 0.580379 0.092993
Si Si7 0.414182 0.409720 0.374278
Si Si8 0.743383 0.908737 0.631743
O O1 0.817835 0.250000 0.229330
O O2 0.606094 0.430622 0.120695
O O3 0.968298 0.463860 0.383711
O O4 0.748756 0.508031 0.144390
O O5 0.891695 0.250000 0.040854
O O6 0.943604 0.518029 0.049544
O O7 0.037523 0.437456 0.201237
O O8 0.674837 0.449425 0.918620
O O9 0.523453 0.250000 0.859133
O O10 0.307292 0.044552 0.675504
O O11 0.573135 0.995324 0.932423
O O12 0.637898 0.750000 0.023663
O O13 0.937479 0.750000 0.495974
O O14 0.000000 0.500000 0.500000
O O15 0.048229 0.750000 0.078304
O O16 0.277946 0.529847 0.255278
O O17 0.000000 0.500000 0.000000
O O18 0.386656 0.250000 0.334391
O O19 0.348931 0.400579 0.382185
O O20 0.626129 0.465624 0.522912
O O21 0.720020 0.750000 0.593277
#
# Coordination Sequence:
#
# PCOD9158507 Si02
#       8
#     4   4   4   4   4   4   4   4
#     4   9  18  32  49  73 105 137 175 222 272 321
#     4   9  19  35  53  76 105 137 175 215 260 316
#     4  10  20  34  55  79 107 142 180 223 274 329
#     4  10  19  31  50  76 104 136 176 222 271 321
#     4  10  19  32  52  79 107 139 181 228 275 323
#     4  11  21  34  54  78 104 136 174 214 260 311
#     4   9  16  27  46  73 100 124 155 198 243 291
#     4   8  14  26  45  69  97 124 156 197 243 292
#
# _framework density 17.098533
#
# number of rings (size 3 to 8) (size 9 to 14) (size 15 to 20)
#    0.000    2.500    1.250    2.625    0.000    4.500 
#    0.000    0.000    2.750    0.000    0.000    0.000 
#    0.000    0.000    0.000    0.000    0.000    0.000 
#
# Total GULP energy -178291.162741 kJ/mol
# GULP energy per Si atom -5571.598836 kJ/mol
# Density = 1.705962 g / cm^3
# Si number density = 17.098533 Si / 1000 Ang^3
#
#
#
# Elastic Constant Matrix: (Units=GPa)
#
#
# Indices 1 2 3 4 5 6 
#
# 1 38.2849 47.6446 50.5244 0.0000 -7.1637 0.0000
# 2 47.6446 100.4548 64.5517 0.0000 -7.8141 0.0000
# 3 50.5244 64.5517 132.2906 0.0000 -1.5945 0.0000
# 4 0.0000 0.0000 0.0000 23.8766 0.0000 -5.9677
# 5 -7.1637 -7.8141 -1.5945 0.0000 28.6347 0.0000
# 6 0.0000 0.0000 0.0000 -5.9677 0.0000 21.8755
#
#
#
# Elastic Compliance Matrix: (Units=1/GPa)
#
#
# Indices 1 2 3 4 5 6 
#
# 1 0.093562 -0.029754 -0.021044 0.000000 0.014115 0.000000
# 2 -0.029754 0.024338 -0.000522 0.000000 -0.000831 0.000000
# 3 -0.021044 -0.000522 0.015796 0.000000 -0.004528 0.000000
# 4 0.000000 0.000000 0.000000 0.044947 0.000000 0.012262
# 5 0.014115 -0.000831 -0.004528 0.000000 0.037975 0.000000
# 6 0.000000 0.000000 0.000000 0.012262 0.000000 0.049058
#
#
# Mechanical properties :
#
#
# Convention : Reuss Voigt Hill
#
# Bulk Modulus (GPa) = 32.20111 66.27464 49.23787
# Shear Modulus (GPa) = 13.20416 22.09799 17.65108
#
# Velocity S-wave (km/s) = 2.78193 3.59888 3.21645
# Velocity P-wave (km/s) = 5.40300 7.49092 6.53094
#
# Compressibility (1/GPa) = 0.03105483
#
# Stress axis : x y z
#
# Youngs Moduli (GPa) = 10.68811 41.08873 63.30572
#
# Poissons Ratio (x) = 1.22257 1.33222
# Poissons Ratio (y) = 0.31802 0.03303
# Poissons Ratio (z) = 0.22492 0.02144
#
# Static dielectric constant tensor:
#      x y z
#    x 1.559360 0.000000 -0.011260 
#    y 0.000000 1.874870 0.000000 
#    z -0.011260 0.000000 1.627610 
# 
# From -- ./inp_files/72077.got.cif
#   From: 2010.05.17/outbox.cif.g08.bks.cpg/sg11_37_cif.got.tgz:72077.got - 2010.06.03 12:22:45.
