data_PCOD9158559
_publ_section_title
;
Structure prediction by ZEFSAII (Michael W. Deem and Ramdas Pophale) SiO2 
 PCOD9158559
Probable space group: P 21/M
;
_chemical_formula_sum "Si O2"
_cell_formula_units_Z 24
_cell_length_a 10.349781
_cell_length_b 11.804942
_cell_length_c 11.778962
_cell_angle_alpha 90.000000
_cell_angle_beta 43.065840
_cell_angle_gamma 90.000000
_cell_volume 982.697673
_symmetry_space_group_name_H-M "P 21/M"
_symmetry_group_IT_number 11
_symmetry_cell_setting 'monoclinic'
loop_
_space_group_symop_operation_xyz
x,y,z
-x,1/2+y,-z
-x,-y,-z
x,1/2-y,z
loop_
_atom_site_type_symbol
_atom_site_label
_atom_site_fract_x
_atom_site_fract_y
_atom_site_fract_z
Si Si1 0.849389 0.127840 0.119152
Si Si2 0.769732 0.622044 0.523353
Si Si3 0.635763 0.491697 0.051719
Si Si4 0.750203 0.879440 0.781520
Si Si5 0.560796 0.376835 0.641796
Si Si6 0.191316 0.089795 0.743882
O O1 0.782983 0.250000 0.193842
O O2 0.730869 0.077113 0.091572
O O3 0.828456 0.044847 0.236651
O O4 0.059370 0.129296 0.932479
O O5 0.675471 0.750000 0.594361
O O6 0.858683 0.608663 0.591689
O O7 0.664487 0.500461 0.571443
O O8 0.872921 0.631989 0.336680
O O9 0.467428 0.413372 0.111029
O O10 0.546490 0.603417 0.168298
O O11 0.782144 0.533040 0.862384
O O12 0.768765 0.750000 0.806632
O O13 0.650641 0.250000 0.583969
O O14 0.404362 0.378533 0.641665
#
# Coordination Sequence:
#
# PCOD9158559 Si02
#       6
#     4   4   4   4   4   4
#     4  10  20  35  54  74 101 137 174 214 259 310
#     4  10  20  34  53  77 107 141 174 210 258 311
#     4   9  18  31  50  77 100 130 173 214 255 302
#     4   9  17  31  51  73 100 133 169 212 258 303
#     4  10  19  31  51  77 105 136 172 217 261 300
#     4  10  21  34  51  76 103 135 173 211 257 311
#
# _framework density 24.422567000000001
#
# number of rings (size 3 to 8) (size 9 to 14) (size 15 to 20)
#    0.000    2.333    0.000    3.000    0.000    4.667 
#    0.000    2.500    0.000    0.000    0.000    0.000 
#    0.000    0.000    0.000    0.000    0.000    0.000 
#
# Total GULP energy -133699.431755 kJ/mol
# GULP energy per Si atom -5570.809656 kJ/mol
# Density = 2.436698 g / cm^3
# Si number density = 24.422567 Si / 1000 Ang^3
#
#
#
# Elastic Constant Matrix: (Units=GPa)
#
#
# Indices 1 2 3 4 5 6 
#
# 1 26.4183 24.6576 0.8786 0.0000 1.8041 0.0000
# 2 24.6576 224.6505 34.1843 0.0000 5.8611 0.0000
# 3 0.8786 34.1843 74.6281 0.0000 37.8359 0.0000
# 4 0.0000 0.0000 0.0000 12.3845 0.0000 5.6320
# 5 1.8041 5.8611 37.8359 0.0000 32.0029 0.0000
# 6 0.0000 0.0000 0.0000 5.6320 0.0000 7.3272
#
#
#
# Elastic Compliance Matrix: (Units=1/GPa)
#
#
# Indices 1 2 3 4 5 6 
#
# 1 0.043479 -0.005573 0.006905 0.000000 -0.009594 0.000000
# 2 -0.005573 0.005746 -0.005472 0.000000 0.005732 0.000000
# 3 0.006905 -0.005472 0.038728 0.000000 -0.045173 0.000000
# 4 0.000000 0.000000 0.000000 0.124139 0.000000 -0.095419
# 5 -0.009594 0.005732 -0.045173 0.000000 0.084145 0.000000
# 6 0.000000 0.000000 0.000000 -0.095419 0.000000 0.209821
#
#
# Mechanical properties :
#
#
# Convention : Reuss Voigt Hill
#
# Bulk Modulus (GPa) = 12.55138 49.45976 31.00557
# Shear Modulus (GPa) = 9.24391 28.07469 18.65930
#
# Velocity S-wave (km/s) = 1.94762 3.39416 2.76709
# Velocity P-wave (km/s) = 3.19500 5.97127 4.78874
#
# Compressibility (1/GPa) = 0.07967249
#
# Stress axis : x y z
#
# Youngs Moduli (GPa) = 22.99942 174.02863 25.82131
#
# Poissons Ratio (x) = 0.96980 -0.17829
# Poissons Ratio (y) = 0.12817 0.14130
# Poissons Ratio (z) = -0.15880 0.95234
#
# Static dielectric constant tensor:
#      x y z
#    x 1.953140 0.000000 -0.031850 
#    y 0.000000 1.980610 0.000000 
#    z -0.031850 0.000000 2.028770 
# 
# From -- ./inp_files/34499.got.cif
#   From: 2010.05.17/outbox.cif.g08.bks.cpg/sg11_18_cif.got.tgz:34499.got - 2010.06.03 12:22:45.
