data_PCOD9158098
_publ_section_title
;
Structure prediction by ZEFSAII (Michael W. Deem and Ramdas Pophale) SiO2 
 PCOD9158098
Probable space group: P 21/M
;
_chemical_formula_sum "Si O2"
_cell_formula_units_Z 32
_cell_length_a 16.599956
_cell_length_b 13.440383
_cell_length_c 8.449189
_cell_angle_alpha 90.000000
_cell_angle_beta 104.955424
_cell_angle_gamma 90.000000
_cell_volume 1821.242509
_symmetry_space_group_name_H-M "P 21/M"
_symmetry_group_IT_number 11
_symmetry_cell_setting 'monoclinic'
loop_
_space_group_symop_operation_xyz
x,y,z
-x,1/2+y,-z
-x,-y,-z
x,1/2-y,z
loop_
_atom_site_type_symbol
_atom_site_label
_atom_site_fract_x
_atom_site_fract_y
_atom_site_fract_z
Si Si1 0.979795 0.465630 0.739558
Si Si2 0.769517 0.458714 0.096134
Si Si3 0.918402 0.135543 0.018591
Si Si4 0.280285 0.138109 0.523182
Si Si5 0.390117 0.497553 0.801876
Si Si6 0.277492 0.135055 0.156045
Si Si7 0.123672 0.439711 0.595076
Si Si8 0.460108 0.134523 0.114989
O O1 0.917929 0.511344 0.579092
O O2 0.025980 0.558128 0.850599
O O3 0.050397 0.406478 0.676119
O O4 0.934709 0.399051 0.847310
O O5 0.821914 0.380211 0.020992
O O6 0.676405 0.445566 0.117225
O O7 0.825018 0.479156 0.278722
O O8 0.765505 0.558670 0.986050
O O9 0.942692 0.250000 0.055101
O O10 0.315919 0.250000 0.544256
O O11 0.340476 0.059300 0.638882
O O12 0.261096 0.112474 0.331174
O O13 0.193645 0.136532 0.575009
O O14 0.461778 0.572067 0.782627
O O15 0.433303 0.414048 0.934187
O O16 0.253623 0.250000 0.111064
O O17 0.376953 0.126771 0.178682
O O18 0.480902 0.250000 0.107952
#
# Coordination Sequence:
#
# PCOD9158098 Si02
#       8
#     4   4   4   4   4   4   4   4
#     4   9  19  36  52  72  99 126 163 203 241 290
#     4   9  18  33  51  72  99 127 161 199 240 291
#     4  10  20  34  52  72  98 131 162 198 243 289
#     4  10  19  30  48  74 100 127 162 202 244 289
#     4   9  18  31  49  73  98 129 162 200 244 283
#     4   9  18  32  51  74  99 127 159 200 247 289
#     4   9  18  33  52  71  98 128 158 202 246 283
#     4   9  17  31  50  71  97 128 162 198 240 291
#
# _framework density 17.570423000000002
#
# number of rings (size 3 to 8) (size 9 to 14) (size 15 to 20)
#    0.000    2.750    0.000    1.125    0.000    5.000 
#    0.000   12.500    0.000    4.500    0.000    0.000 
#    0.000    0.000    0.000    0.000    0.000    0.000 
#
# Total GULP energy -178192.841368 kJ/mol
# GULP energy per Si atom -5568.526293 kJ/mol
# Density = 1.753043 g / cm^3
# Si number density = 17.570423 Si / 1000 Ang^3
#
#
#
# Elastic Constant Matrix: (Units=GPa)
#
#
# Indices 1 2 3 4 5 6 
#
# 1 41.1267 25.8559 22.5945 0.0000 3.5589 0.0000
# 2 25.8559 58.0233 18.4734 0.0000 -5.4144 0.0000
# 3 22.5945 18.4734 75.9677 0.0000 -4.2032 0.0000
# 4 0.0000 0.0000 0.0000 10.0237 0.0000 -1.9041
# 5 3.5589 -5.4144 -4.2032 0.0000 24.8518 0.0000
# 6 0.0000 0.0000 0.0000 -1.9041 0.0000 22.5623
#
#
#
# Elastic Compliance Matrix: (Units=1/GPa)
#
#
# Indices 1 2 3 4 5 6 
#
# 1 0.040111 -0.016136 -0.008599 0.000000 -0.010714 0.000000
# 2 -0.016136 0.025450 -0.000964 0.000000 0.007692 0.000000
# 3 -0.008599 -0.000964 0.016163 0.000000 0.003755 0.000000
# 4 0.000000 0.000000 0.000000 0.101389 0.000000 0.008557
# 5 -0.010714 0.007692 0.003755 0.000000 0.044084 0.000000
# 6 0.000000 0.000000 0.000000 0.008557 0.000000 0.045044
#
#
# Mechanical properties :
#
#
# Convention : Reuss Voigt Hill
#
# Bulk Modulus (GPa) = 32.97477 34.32947 33.65212
# Shear Modulus (GPa) = 14.98144 18.70049 16.84097
#
# Velocity S-wave (km/s) = 2.92319 3.26593 3.09930
# Velocity P-wave (km/s) = 5.49557 5.81398 5.65701
#
# Compressibility (1/GPa) = 0.03032621
#
# Stress axis : x y z
#
# Youngs Moduli (GPa) = 24.93088 39.29341 61.86922
#
# Poissons Ratio (x) = 0.63404 0.53200
# Poissons Ratio (y) = 0.40229 0.05963
# Poissons Ratio (z) = 0.21438 0.03787
#
# Static dielectric constant tensor:
#      x y z
#    x 1.630940 0.000000 -0.016870 
#    y 0.000000 1.578860 0.000000 
#    z -0.016870 0.000000 1.588240 
# 
# From -- ./inp_files/21909.got.cif
#   From: 2010.05.17/outbox.cif.g08.bks.cpg/sg11_11_cif.got.tgz:21909.got - 2010.06.03 12:22:45.
