data_PCOD9158369
_publ_section_title
;
Structure prediction by ZEFSAII (Michael W. Deem and Ramdas Pophale) SiO2 
 PCOD9158369
Probable space group: P 21/M
;
_chemical_formula_sum "Si O2"
_cell_formula_units_Z 30
_cell_length_a 19.943703
_cell_length_b 7.691864
_cell_length_c 10.732527
_cell_angle_alpha 90.000000
_cell_angle_beta 45.184737
_cell_angle_gamma 90.000000
_cell_volume 1167.939008
_symmetry_space_group_name_H-M "P 21/M"
_symmetry_group_IT_number 11
_symmetry_cell_setting 'monoclinic'
loop_
_space_group_symop_operation_xyz
x,y,z
-x,1/2+y,-z
-x,-y,-z
x,1/2-y,z
loop_
_atom_site_type_symbol
_atom_site_label
_atom_site_fract_x
_atom_site_fract_y
_atom_site_fract_z
Si Si1 0.423588 0.549502 0.208104
Si Si2 0.608830 0.455217 0.370297
Si Si3 0.210872 0.449232 0.760732
Si Si4 0.790979 0.449691 0.723862
Si Si5 0.266991 0.250000 0.365927
Si Si6 0.598612 0.456818 0.117973
Si Si7 0.111110 0.462012 0.144650
Si Si8 0.054505 0.547091 0.799087
O O1 0.391212 0.750000 0.236006
O O2 0.343243 0.403967 0.311661
O O3 0.497934 0.543296 0.225536
O O4 0.500000 0.500000 0.000000
O O5 0.500000 0.500000 0.500000
O O6 0.620230 0.250000 0.367540
O O7 0.677030 0.535835 0.382127
O O8 0.643201 0.517409 0.189117
O O9 0.183029 0.250000 0.798869
O O10 0.161628 0.513316 0.700196
O O11 0.171653 0.523841 0.943136
O O12 0.802374 0.250000 0.666901
O O13 0.801693 0.597241 0.607358
O O14 0.852181 0.471109 0.770655
O O15 0.681250 0.482556 0.910367
O O16 0.581233 0.250000 0.148139
O O17 0.117149 0.250000 0.144398
O O18 0.005987 0.521546 0.238471
O O19 0.046586 0.750000 0.793911
O O20 0.000000 0.500000 0.000000
#
# Coordination Sequence:
#
# PCOD9158369 Si02
#       8
#     4   4   4   4   2   4   4   4
#     4  12  20  31  49  68  92 126 162 202 248 297
#     4  11  23  37  52  70  96 130 174 218 259 295
#     4  10  19  31  49  67  92 124 166 213 255 295
#     4  11  20  30  47  68  94 134 167 201 246 292
#     4  12  22  32  44  68 102 120 166 202 242 302
#     4  10  20  34  48  66  91 124 167 210 251 293
#     4   9  17  29  44  67  97 128 165 207 243 295
#     4   9  17  28  44  66  93 124 161 204 249 292
#
# _framework density 25.686271999999999
#
# number of rings (size 3 to 8) (size 9 to 14) (size 15 to 20)
#    0.000    1.600    4.667    2.400    0.000    3.733 
#    0.000    0.000    0.000    0.000    0.000    0.000 
#    0.000    0.000    0.000    1.200    5.867    1.733 
#
# Total GULP energy -167129.873492 kJ/mol
# GULP energy per Si atom -5570.995783 kJ/mol
# Density = 2.562781 g / cm^3
# Si number density = 25.686272 Si / 1000 Ang^3
#
#
#
# Elastic Constant Matrix: (Units=GPa)
#
#
# Indices 1 2 3 4 5 6 
#
# 1 235.2499 57.5311 37.2068 0.0000 -36.5701 0.0000
# 2 57.5311 126.3578 22.4208 0.0000 -4.9167 0.0000
# 3 37.2068 22.4208 59.7690 0.0000 -12.6727 0.0000
# 4 0.0000 0.0000 0.0000 -11.3388 0.0000 -15.4699
# 5 -36.5701 -4.9167 -12.6727 0.0000 41.2991 0.0000
# 6 0.0000 0.0000 0.0000 -15.4699 0.0000 40.8296
#
#
#
# Elastic Compliance Matrix: (Units=1/GPa)
#
#
# Indices 1 2 3 4 5 6 
#
# 1 0.005722 -0.002108 -0.001872 0.000000 0.004241 0.000000
# 2 -0.002108 0.009255 -0.002483 0.000000 -0.001527 0.000000
# 3 -0.001872 -0.002483 0.019695 0.000000 0.004090 0.000000
# 4 0.000000 0.000000 0.000000 -0.058139 0.000000 -0.022028
# 5 0.004241 -0.001527 0.004090 0.000000 0.029042 0.000000
# 6 0.000000 0.000000 0.000000 -0.022028 0.000000 0.016146
#
#
# Mechanical properties :
#
#
# Convention : Reuss Voigt Hill
#
# Bulk Modulus (GPa) = 45.98602 72.85490 59.42046
# Shear Modulus (GPa) = 119.34384 34.43918 76.89151
#
# Velocity S-wave (km/s) = 6.82371 3.66561 5.47721
# Velocity P-wave (km/s) = 8.94571 6.80739 7.94878
#
# Compressibility (1/GPa) = 0.02174574
#
# Stress axis : x y z
#
# Youngs Moduli (GPa) = 174.77509 108.04969 50.77399
#
# Poissons Ratio (x) = 0.22776 0.09504
# Poissons Ratio (y) = 0.36841 0.12609
# Poissons Ratio (z) = 0.32715 0.26832
#
# Static dielectric constant tensor:
#      x y z
#    x 2.100070 0.000000 0.079220 
#    y 0.000000 1.970260 0.000000 
#    z 0.079220 0.000000 2.155730 
# 
# From -- ./inp_files/54092.got.cif
#   From: 2010.05.17/outbox.cif.g08.bks.cpg/sg11_28_cif.got.tgz:54092.got - 2010.06.03 12:22:45.
