data_PCOD9158714
_publ_section_title
;
Structure prediction by ZEFSAII (Michael W. Deem and Ramdas Pophale) SiO2 
 PCOD9158714
Probable space group: P 21/M
;
_chemical_formula_sum "Si O2"
_cell_formula_units_Z 32
_cell_length_a 13.926116
_cell_length_b 22.930090
_cell_length_c 5.444396
_cell_angle_alpha 90.000000
_cell_angle_beta 88.069064
_cell_angle_gamma 90.000000
_cell_volume 1737.555950
_symmetry_space_group_name_H-M "P 21/M"
_symmetry_group_IT_number 11
_symmetry_cell_setting 'monoclinic'
loop_
_space_group_symop_operation_xyz
x,y,z
-x,1/2+y,-z
-x,-y,-z
x,1/2-y,z
loop_
_atom_site_type_symbol
_atom_site_label
_atom_site_fract_x
_atom_site_fract_y
_atom_site_fract_z
Si Si1 0.313686 0.682358 0.353243
Si Si2 0.422871 0.082355 0.163832
Si Si3 0.043434 0.434621 0.532740
Si Si4 0.234899 0.573980 0.100377
Si Si5 0.966755 0.068162 0.038886
Si Si6 0.603460 0.483224 0.219677
Si Si7 0.247539 0.466338 0.424359
Si Si8 0.564405 0.316055 0.163610
O O1 0.277542 0.750000 0.383624
O O2 0.243026 0.629362 0.280654
O O3 0.368684 0.667152 0.604899
O O4 0.380996 0.683548 0.103227
O O5 0.504515 0.046383 0.307132
O O6 0.317874 0.079521 0.288686
O O7 0.470786 0.144540 0.141929
O O8 0.417768 0.044074 0.916283
O O9 0.156929 0.439875 0.568349
O O10 0.000000 0.500000 0.500000
O O11 0.994132 0.405928 0.771555
O O12 0.022057 0.407257 0.269373
O O13 0.147083 0.578866 0.917085
O O14 0.207532 0.513613 0.237319
O O15 0.339351 0.559353 0.974687
O O16 0.000000 0.000000 0.000000
O O17 0.680654 0.496147 0.417720
O O18 0.536268 0.250000 0.220967
#
# Coordination Sequence:
#
# PCOD9158714 Si02
#       8
#     4   4   4   4   4   4   4   4
#     4  10  22  37  55  79 104 138 182 222 262 315
#     4  10  21  32  48  77 107 140 178 214 262 318
#     4  10  19  33  48  70 107 132 175 211 250 310
#     4  11  20  31  55  76 106 147 171 219 271 323
#     4  10  19  32  49  74 103 134 175 208 253 311
#     4  10  20  32  46  76 112 141 172 208 265 331
#     4  11  21  30  51  74 110 146 175 215 268 320
#     4  10  21  39  57  73 104 143 182 222 258 308
#
# _framework density 18.416674
#
# number of rings (size 3 to 8) (size 9 to 14) (size 15 to 20)
#    0.000    1.750    3.750    2.625    3.500    0.000 
#    0.000    0.000    0.000    0.000    0.000    1.750 
#    0.000    0.000    0.000    0.000    0.000    0.000 
#
# Total GULP energy -178221.886890 kJ/mol
# GULP energy per Si atom -5569.433965 kJ/mol
# Density = 1.837476 g / cm^3
# Si number density = 18.416674 Si / 1000 Ang^3
#
#
#
# Elastic Constant Matrix: (Units=GPa)
#
#
# Indices 1 2 3 4 5 6 
#
# 1 89.4113 14.2219 3.7259 0.0000 -4.1485 0.0000
# 2 14.2219 48.2493 -3.1138 0.0000 -2.6641 0.0000
# 3 3.7259 -3.1138 76.6102 0.0000 2.0094 0.0000
# 4 0.0000 0.0000 0.0000 15.0571 0.0000 5.9465
# 5 -4.1485 -2.6641 2.0094 0.0000 20.8374 0.0000
# 6 0.0000 0.0000 0.0000 5.9465 0.0000 11.4668
#
#
#
# Elastic Compliance Matrix: (Units=1/GPa)
#
#
# Indices 1 2 3 4 5 6 
#
# 1 0.011855 -0.003434 -0.000768 0.000000 0.001995 0.000000
# 2 -0.003434 0.021914 0.001005 0.000000 0.002021 0.000000
# 3 -0.000768 0.001005 0.013165 0.000000 -0.001294 0.000000
# 4 0.000000 0.000000 0.000000 0.083519 0.000000 -0.043312
# 5 0.001995 0.002021 -0.001294 0.000000 0.048771 0.000000
# 6 0.000000 0.000000 0.000000 -0.043312 0.000000 0.109669
#
#
# Mechanical properties :
#
#
# Convention : Reuss Voigt Hill
#
# Bulk Modulus (GPa) = 24.66736 27.10431 25.88583
# Shear Modulus (GPa) = 16.19160 22.76806 19.47983
#
# Velocity S-wave (km/s) = 2.96832 3.51988 3.25580
# Velocity P-wave (km/s) = 5.01707 5.59184 5.31223
#
# Compressibility (1/GPa) = 0.04053940
#
# Stress axis : x y z
#
# Youngs Moduli (GPa) = 84.35222 45.63241 75.95763
#
# Poissons Ratio (x) = 0.15669 0.05837
# Poissons Ratio (y) = 0.28965 -0.07631
# Poissons Ratio (z) = 0.06482 -0.04585
#
# Static dielectric constant tensor:
#      x y z
#    x 1.652440 0.000000 -0.024790 
#    y 0.000000 1.633310 0.000000 
#    z -0.024790 0.000000 1.691250 
# 
# From -- ./inp_files/5380.got.cif
#   From: 2010.05.17/outbox.cif.g08.bks.cpg/sg11_3_cif.got.tgz:5380.got - 2010.06.03 12:22:45.
