data_PCOD9158802
_publ_section_title
;
Structure prediction by ZEFSAII (Michael W. Deem and Ramdas Pophale) SiO2 
 PCOD9158802
Probable space group: P 21/M
;
_chemical_formula_sum "Si O2"
_cell_formula_units_Z 32
_cell_length_a 14.928917
_cell_length_b 9.091535
_cell_length_c 11.436616
_cell_angle_alpha 90.000000
_cell_angle_beta 73.297394
_cell_angle_gamma 90.000000
_cell_volume 1486.764434
_symmetry_space_group_name_H-M "P 21/M"
_symmetry_group_IT_number 11
_symmetry_cell_setting 'monoclinic'
loop_
_space_group_symop_operation_xyz
x,y,z
-x,1/2+y,-z
-x,-y,-z
x,1/2-y,z
loop_
_atom_site_type_symbol
_atom_site_label
_atom_site_fract_x
_atom_site_fract_y
_atom_site_fract_z
Si Si1 0.829696 0.920981 0.618488
Si Si2 0.227033 0.580600 0.880941
Si Si3 0.891182 0.079012 0.372119
Si Si4 0.612423 0.580185 0.610759
Si Si5 0.751376 0.080795 0.851111
Si Si6 0.440227 0.425828 0.124156
Si Si7 0.052108 0.079007 0.873756
Si Si8 0.671922 0.416250 0.371388
O O1 0.850912 0.750000 0.631149
O O2 0.721529 0.929283 0.612203
O O3 0.891533 0.990350 0.492710
O O4 0.830322 0.017225 0.735869
O O5 0.195221 0.750000 0.860106
O O6 0.159492 0.449379 0.868805
O O7 0.321387 0.557285 0.770438
O O8 0.229163 0.581587 0.018948
O O9 0.914757 0.250000 0.378786
O O10 0.781852 0.073002 0.369738
O O11 0.953359 0.003907 0.248213
O O12 0.588231 0.750000 0.609174
O O13 0.552100 0.520715 0.743143
O O14 0.612197 0.511287 0.482783
O O15 0.729072 0.250000 0.824758
O O16 0.665034 0.970981 0.868324
O O17 0.453872 0.250000 0.117410
O O18 0.500000 0.500000 0.000000
O O19 0.027274 0.250000 0.874263
O O20 0.000000 0.000000 0.000000
O O21 0.641589 0.250000 0.400854
#
# Coordination Sequence:
#
# PCOD9158802 Si02
#       8
#     4   4   4   4   4   4   4   4
#     4   9  16  27  44  69  98 125 160 203 242 284
#     4   9  19  34  50  72 101 131 165 202 242 292
#     4   9  16  28  46  69  96 125 161 202 244 288
#     4   8  15  26  41  64  92 119 150 194 239 279
#     4  10  19  32  51  73 100 133 164 200 247 293
#     4  10  20  33  49  71  99 128 162 203 246 296
#     4  11  21  33  51  74 101 132 165 203 247 293
#     4   8  14  25  43  66  91 119 153 195 235 276
#
# _framework density 21.523247000000001
#
# number of rings (size 3 to 8) (size 9 to 14) (size 15 to 20)
#    0.000    2.750    0.000    4.125    0.000    7.500 
#    0.000    0.000    0.000    1.500    0.000    0.000 
#    0.000    0.000    0.000    0.000    0.000    0.000 
#
# Total GULP energy -178360.029122 kJ/mol
# GULP energy per Si atom -5573.750910 kJ/mol
# Density = 2.147426 g / cm^3
# Si number density = 21.523247 Si / 1000 Ang^3
#
#
#
# Elastic Constant Matrix: (Units=GPa)
#
#
# Indices 1 2 3 4 5 6 
#
# 1 27.9528 -5.3293 1.2723 0.0000 -7.8151 0.0000
# 2 -5.3293 98.5144 91.7077 0.0000 -10.8821 0.0000
# 3 1.2723 91.7077 236.3477 0.0000 -10.5624 0.0000
# 4 0.0000 0.0000 0.0000 46.5317 0.0000 -2.6145
# 5 -7.8151 -10.8821 -10.5624 0.0000 16.1368 0.0000
# 6 0.0000 0.0000 0.0000 -2.6145 0.0000 8.1595
#
#
#
# Elastic Compliance Matrix: (Units=1/GPa)
#
#
# Indices 1 2 3 4 5 6 
#
# 1 0.044057 0.006744 -0.001748 0.000000 0.024740 0.000000
# 2 0.006744 0.017701 -0.006413 0.000000 0.011005 0.000000
# 3 -0.001748 -0.006413 0.006693 0.000000 -0.000790 0.000000
# 4 0.000000 0.000000 0.000000 0.021885 0.000000 0.007012
# 5 0.024740 0.011005 -0.000790 0.000000 0.080856 0.000000
# 6 0.000000 0.000000 0.000000 0.007012 0.000000 0.124804
#
#
# Mechanical properties :
#
#
# Convention : Reuss Voigt Hill
#
# Bulk Modulus (GPa) = 15.24011 59.79070 37.51541
# Shear Modulus (GPa) = 15.59076 32.50988 24.05032
#
# Velocity S-wave (km/s) = 2.69433 3.89067 3.34640
# Velocity P-wave (km/s) = 4.09577 6.92986 5.69203
#
# Compressibility (1/GPa) = 0.06561631
#
# Stress axis : x y z
#
# Youngs Moduli (GPa) = 22.69801 56.49390 149.39931
#
# Poissons Ratio (x) = -0.38097 0.26117
# Poissons Ratio (y) = -0.15307 0.95807
# Poissons Ratio (z) = 0.03968 0.36229
#
# Static dielectric constant tensor:
#      x y z
#    x 1.891010 0.000000 -0.007130 
#    y 0.000000 1.753840 0.000000 
#    z -0.007130 0.000000 1.847750 
# 
# From -- ./inp_files/42421.got.cif
#   From: 2010.05.17/outbox.cif.g08.bks.cpg/sg11_22_cif.got.tgz:42421.got - 2010.06.03 12:22:45.
