data_PCOD9158395
_publ_section_title
;
Structure prediction by ZEFSAII (Michael W. Deem and Ramdas Pophale) SiO2 
 PCOD9158395
Probable space group: P 21/M
;
_chemical_formula_sum "Si O2"
_cell_formula_units_Z 32
_cell_length_a 7.685108
_cell_length_b 7.413356
_cell_length_c 27.715819
_cell_angle_alpha 90.000000
_cell_angle_beta 113.564004
_cell_angle_gamma 90.000000
_cell_volume 1447.368331
_symmetry_space_group_name_H-M "P 21/M"
_symmetry_group_IT_number 11
_symmetry_cell_setting 'monoclinic'
loop_
_space_group_symop_operation_xyz
x,y,z
-x,1/2+y,-z
-x,-y,-z
x,1/2-y,z
loop_
_atom_site_type_symbol
_atom_site_label
_atom_site_fract_x
_atom_site_fract_y
_atom_site_fract_z
Si Si1 0.643555 0.465992 0.559962
Si Si2 0.802419 0.534883 0.046754
Si Si3 0.028477 0.970327 0.160681
Si Si4 0.430885 0.534858 0.064135
Si Si5 0.563872 0.470546 0.754309
Si Si6 0.970191 0.534183 0.440118
Si Si7 0.346332 0.469560 0.821585
Si Si8 0.445401 0.471105 0.635041
O O1 0.500000 0.500000 0.500000
O O2 0.657588 0.250000 0.565763
O O3 0.848690 0.537971 0.568197
O O4 0.565972 0.532268 0.602317
O O5 0.803794 0.750000 0.051065
O O6 0.974053 0.471904 0.099886
O O7 0.610481 0.466017 0.052378
O O8 0.763273 0.500778 0.986043
O O9 0.032368 0.750000 0.161093
O O10 0.852697 0.024655 0.176074
O O11 0.231166 0.029306 0.202979
O O12 0.444921 0.750000 0.066811
O O13 0.481163 0.474551 0.123519
O O14 0.565493 0.250000 0.754375
O O15 0.400816 0.527099 0.774008
O O16 0.523281 0.528674 0.695405
O O17 0.967430 0.750000 0.433963
O O18 0.000000 0.500000 0.500000
O O19 0.769411 0.468240 0.398545
O O20 0.341011 0.250000 0.820646
O O21 0.446402 0.250000 0.635077
#
# Coordination Sequence:
#
# PCOD9158395 Si02
#       8
#     4   4   4   4   4   4   4   4
#     4  10  19  31  49  72  98 126 153 185 227 272
#     4   8  13  22  37  58  83 109 140 179 221 266
#     4   8  14  24  38  57  82 112 145 180 220 268
#     4   8  13  22  37  58  83 109 140 179 221 266
#     4   9  16  26  41  60  86 118 146 180 228 266
#     4  10  19  31  49  72  98 126 153 185 227 272
#     4   8  14  24  38  57  82 112 145 180 220 268
#     4   9  18  30  43  66  96 120 152 194 226 266
#
# _framework density 22.109095
#
# number of rings (size 3 to 8) (size 9 to 14) (size 15 to 20)
#    0.000    3.250    1.250    1.500    0.000    1.000 
#    0.000    5.625    0.000    0.000    0.000    3.500 
#    0.000    4.000    0.000    0.000    0.000    0.000 
#
# Total GULP energy -178473.184684 kJ/mol
# GULP energy per Si atom -5577.287021 kJ/mol
# Density = 2.205877 g / cm^3
# Si number density = 22.109095 Si / 1000 Ang^3
#
#
#
# Elastic Constant Matrix: (Units=GPa)
#
#
# Indices 1 2 3 4 5 6 
#
# 1 98.4243 2.3988 39.6879 0.0000 3.3342 0.0000
# 2 2.3988 70.9296 -1.3676 0.0000 0.7771 0.0000
# 3 39.6879 -1.3676 122.7225 0.0000 1.8500 0.0000
# 4 0.0000 0.0000 0.0000 15.8930 0.0000 1.0501
# 5 3.3342 0.7771 1.8500 0.0000 36.9068 0.0000
# 6 0.0000 0.0000 0.0000 1.0501 0.0000 -4.2539
#
#
#
# Elastic Compliance Matrix: (Units=1/GPa)
#
#
# Indices 1 2 3 4 5 6 
#
# 1 0.011726 -0.000460 -0.003784 0.000000 -0.000860 0.000000
# 2 -0.000460 0.014123 0.000310 0.000000 -0.000271 0.000000
# 3 -0.003784 0.000310 0.009378 0.000000 -0.000135 0.000000
# 4 0.000000 0.000000 0.000000 0.061911 0.000000 0.015283
# 5 -0.000860 -0.000271 -0.000135 0.000000 0.027185 0.000000
# 6 0.000000 0.000000 0.000000 0.015283 0.000000 -0.231303
#
#
# Mechanical properties :
#
#
# Convention : Reuss Voigt Hill
#
# Bulk Modulus (GPa) = 36.55145 41.50161 39.02653
# Shear Modulus (GPa) = -55.56082 26.46632 -14.54725
#
# Velocity S-wave (km/s) = -5.01845 3.46364 -2.56789
# Velocity P-wave (km/s) = 4.12451 5.89981 2.98296
#
# Compressibility (1/GPa) = 0.02735870
#
# Stress axis : x y z
#
# Youngs Moduli (GPa) = 85.27729 70.80646 106.63456
#
# Poissons Ratio (x) = 0.03258 0.40355
# Poissons Ratio (y) = 0.03924 -0.03309
# Poissons Ratio (z) = 0.32273 -0.02197
#
# Static dielectric constant tensor:
#      x y z
#    x 1.807570 0.000000 -0.004250 
#    y 0.000000 1.890720 0.000000 
#    z -0.004250 0.000000 1.789180 
# 
# From -- ./inp_files/70979.got.cif
#   From: 2010.05.17/outbox.cif.g08.bks.cpg/sg11_36_cif.got.tgz:70979.got - 2010.06.03 12:22:45.
