data_PCOD9158693
_publ_section_title
;
Structure prediction by ZEFSAII (Michael W. Deem and Ramdas Pophale) SiO2 
 PCOD9158693
Probable space group: P 21/M
;
_chemical_formula_sum "Si O2"
_cell_formula_units_Z 28
_cell_length_a 13.841683
_cell_length_b 13.917317
_cell_length_c 8.234757
_cell_angle_alpha 90.000000
_cell_angle_beta 119.612570
_cell_angle_gamma 90.000000
_cell_volume 1379.139256
_symmetry_space_group_name_H-M "P 21/M"
_symmetry_group_IT_number 11
_symmetry_cell_setting 'monoclinic'
loop_
_space_group_symop_operation_xyz
x,y,z
-x,1/2+y,-z
-x,-y,-z
x,1/2-y,z
loop_
_atom_site_type_symbol
_atom_site_label
_atom_site_fract_x
_atom_site_fract_y
_atom_site_fract_z
Si Si1 0.575818 0.359364 0.643894
Si Si2 0.332420 0.861002 0.843945
Si Si3 0.805546 0.962896 0.656240
Si Si4 0.433421 0.515348 0.677059
Si Si5 0.007391 0.861107 0.703866
Si Si6 0.110867 0.642467 0.449201
Si Si7 0.787255 0.061259 0.947233
O O1 0.540784 0.250000 0.624772
O O2 0.518825 0.427916 0.730298
O O3 0.543047 0.408287 0.447230
O O4 0.709495 0.367551 0.774563
O O5 0.358493 0.750000 0.917653
O O6 0.234146 0.850786 0.629110
O O7 0.427439 0.921677 0.834194
O O8 0.275904 0.926455 0.934616
O O9 0.878465 0.058523 0.672836
O O10 0.785941 0.966952 0.833594
O O11 0.687911 0.971430 0.467781
O O12 0.881494 0.878676 0.651126
O O13 0.040177 0.750000 0.739262
O O14 0.032873 0.887258 0.536977
O O15 0.088403 0.913071 0.898668
O O16 0.079763 0.750000 0.366243
#
# Coordination Sequence:
#
# PCOD9158693 Si02
#       7
#     4   4   4   4   4   4   4
#     4  10  19  34  53  72  96 123 158 201 236 274
#     4   9  16  30  50  72  99 125 154 195 237 278
#     4  10  19  32  50  72  99 125 156 198 239 280
#     4   9  20  33  50  75  96 124 160 192 236 287
#     4  10  19  32  49  71  98 128 159 192 238 288
#     4   8  16  29  48  72  96 125 161 197 232 275
#     4  10  20  32  49  72  95 125 163 200 236 274
#
# _framework density 20.302517999999999
#
# number of rings (size 3 to 8) (size 9 to 14) (size 15 to 20)
#    0.000    2.571    0.000    3.429    0.000    5.714 
#    0.000    0.000    0.000    0.857    0.000    0.000 
#    0.000    0.000    0.000    0.000    0.000    0.000 
#
# Total GULP energy -155922.708942 kJ/mol
# GULP energy per Si atom -5568.668176 kJ/mol
# Density = 2.025631 g / cm^3
# Si number density = 20.302518 Si / 1000 Ang^3
#
#
#
# Elastic Constant Matrix: (Units=GPa)
#
#
# Indices 1 2 3 4 5 6 
#
# 1 68.1312 23.5450 13.2462 0.0000 3.5831 0.0000
# 2 23.5450 50.7539 1.7630 0.0000 0.9356 0.0000
# 3 13.2462 1.7630 32.3968 0.0000 -5.4725 0.0000
# 4 0.0000 0.0000 0.0000 3.7055 0.0000 -1.8519
# 5 3.5831 0.9356 -5.4725 0.0000 24.0072 0.0000
# 6 0.0000 0.0000 0.0000 -1.8519 0.0000 25.4576
#
#
#
# Elastic Compliance Matrix: (Units=1/GPa)
#
#
# Indices 1 2 3 4 5 6 
#
# 1 0.019520 -0.008686 -0.008262 0.000000 -0.004458 0.000000
# 2 -0.008686 0.023631 0.002422 0.000000 0.000928 0.000000
# 3 -0.008262 0.002422 0.035680 0.000000 0.009272 0.000000
# 4 0.000000 0.000000 0.000000 0.280050 0.000000 0.020372
# 5 -0.004458 0.000928 0.009272 0.000000 0.044397 0.000000
# 6 0.000000 0.000000 0.000000 0.020372 0.000000 0.040763
#
#
# Mechanical properties :
#
#
# Convention : Reuss Voigt Hill
#
# Bulk Modulus (GPa) = 20.08851 25.37672 22.73261
# Shear Modulus (GPa) = 10.21063 18.14923 14.17993
#
# Velocity S-wave (km/s) = 2.24503 2.99313 2.64565
# Velocity P-wave (km/s) = 4.07876 4.94687 4.53364
#
# Compressibility (1/GPa) = 0.04977971
#
# Stress axis : x y z
#
# Youngs Moduli (GPa) = 51.22912 42.31676 28.02718
#
# Poissons Ratio (x) = 0.36758 0.23155
# Poissons Ratio (y) = 0.44499 -0.06789
# Poissons Ratio (z) = 0.42324 -0.10250
#
# Static dielectric constant tensor:
#      x y z
#    x 1.770780 0.000000 -0.053220 
#    y 0.000000 1.753330 0.000000 
#    z -0.053220 0.000000 1.784750 
# 
# From -- ./inp_files/21282.got.cif
#   From: 2010.05.17/outbox.cif.g08.bks.cpg/sg11_11_cif.got.tgz:21282.got - 2010.06.03 12:22:45.
