data_PCOD9158486
_publ_section_title
;
Structure prediction by ZEFSAII (Michael W. Deem and Ramdas Pophale) SiO2 
 PCOD9158486
Probable space group: P 21/M
;
_chemical_formula_sum "Si O2"
_cell_formula_units_Z 32
_cell_length_a 14.513768
_cell_length_b 7.469786
_cell_length_c 14.206471
_cell_angle_alpha 90.000000
_cell_angle_beta 60.805378
_cell_angle_gamma 90.000000
_cell_volume 1344.537140
_symmetry_space_group_name_H-M "P 21/M"
_symmetry_group_IT_number 11
_symmetry_cell_setting 'monoclinic'
loop_
_space_group_symop_operation_xyz
x,y,z
-x,1/2+y,-z
-x,-y,-z
x,1/2-y,z
loop_
_atom_site_type_symbol
_atom_site_label
_atom_site_fract_x
_atom_site_fract_y
_atom_site_fract_z
Si Si1 0.120194 0.969796 0.649653
Si Si2 0.891327 0.539830 0.823978
Si Si3 0.701432 0.468739 0.293742
Si Si4 0.745149 0.045166 0.581715
Si Si5 0.470585 0.964940 0.879711
Si Si6 0.753744 0.034186 0.055292
Si Si7 0.309100 0.044384 0.182571
Si Si8 0.524210 0.537061 0.632108
O O1 0.121418 0.750000 0.649602
O O2 0.210918 0.027722 0.676688
O O3 0.157829 0.026314 0.527377
O O4 0.005155 0.031943 0.738900
O O5 0.894983 0.750000 0.797703
O O6 0.791172 0.459385 0.818598
O O7 0.858577 0.523734 0.949231
O O8 0.697821 0.250000 0.295714
O O9 0.739055 0.523157 0.170267
O O10 0.579976 0.527992 0.370968
O O11 0.766111 0.250000 0.596519
O O12 0.718218 0.951337 0.692517
O O13 0.640924 0.041823 0.566746
O O14 0.470626 0.750000 0.891655
O O15 0.350650 0.028857 0.950416
O O16 0.573261 0.038518 0.882591
O O17 0.493464 0.995846 0.757189
O O18 0.751615 0.250000 0.056663
O O19 0.318071 0.250000 0.147321
O O20 0.534096 0.750000 0.614354
#
# Coordination Sequence:
#
# PCOD9158486 Si02
#       8
#     4   4   4   4   4   4   4   4
#     4   9  19  34  49  70 101 134 167 200 242 295
#     4  10  21  35  50  70  98 132 169 207 244 285
#     4   8  15  31  54  74  98 135 165 188 237 306
#     4  10  19  31  50  75 101 128 160 204 250 287
#     4   7  12  26  47  69  93 120 152 190 236 293
#     4   9  17  31  52  74  95 124 163 203 242 290
#     4   9  18  34  53  71  96 132 167 198 242 299
#     4   8  14  28  51  75  98 127 161 193 235 298
#
# _framework density 23.800011000000001
#
# number of rings (size 3 to 8) (size 9 to 14) (size 15 to 20)
#    0.000    3.250    0.000    2.625    0.000    2.500 
#    0.000    6.875    0.000    3.000    0.000    0.000 
#    0.000    0.000    0.000    0.000    0.000    0.000 
#
# Total GULP energy -178651.249316 kJ/mol
# GULP energy per Si atom -5582.851541 kJ/mol
# Density = 2.374584 g / cm^3
# Si number density = 23.800011 Si / 1000 Ang^3
#
#
#
# Elastic Constant Matrix: (Units=GPa)
#
#
# Indices 1 2 3 4 5 6 
#
# 1 69.4280 7.3703 42.7371 0.0000 -11.4586 0.0000
# 2 7.3703 69.0286 -0.1963 0.0000 -1.8982 0.0000
# 3 42.7371 -0.1963 123.4135 0.0000 -35.3176 0.0000
# 4 0.0000 0.0000 0.0000 17.0565 0.0000 -0.1547
# 5 -11.4586 -1.8982 -35.3176 0.0000 39.6845 0.0000
# 6 0.0000 0.0000 0.0000 -0.1547 0.0000 25.1480
#
#
#
# Elastic Compliance Matrix: (Units=1/GPa)
#
#
# Indices 1 2 3 4 5 6 
#
# 1 0.018589 -0.002021 -0.006618 0.000000 -0.000618 0.000000
# 2 -0.002021 0.014734 0.001017 0.000000 0.001026 0.000000
# 3 -0.006618 0.001017 0.013234 0.000000 0.009915 0.000000
# 4 0.000000 0.000000 0.000000 0.058632 0.000000 0.000361
# 5 -0.000618 0.001026 0.009915 0.000000 0.033893 0.000000
# 6 0.000000 0.000000 0.000000 0.000361 0.000000 0.039767
#
#
# Mechanical properties :
#
#
# Convention : Reuss Voigt Hill
#
# Bulk Modulus (GPa) = 31.93481 40.18803 36.06142
# Shear Modulus (GPa) = 24.44640 30.50841 27.47741
#
# Velocity S-wave (km/s) = 3.20841 3.58420 3.40150
# Velocity P-wave (km/s) = 5.21271 5.83533 5.53278
#
# Compressibility (1/GPa) = 0.03131379
#
# Stress axis : x y z
#
# Youngs Moduli (GPa) = 53.79431 67.87210 75.56574
#
# Poissons Ratio (x) = 0.13714 0.50006
# Poissons Ratio (y) = 0.10870 -0.07684
# Poissons Ratio (z) = 0.35599 -0.06902
#
# Static dielectric constant tensor:
#      x y z
#    x 1.932120 0.000000 0.012680 
#    y 0.000000 1.872180 0.000000 
#    z 0.012680 0.000000 1.924230 
# 
# From -- ./inp_files/51711.got.cif
#   From: 2010.05.17/outbox.cif.g08.bks.cpg/sg11_26_cif.got.tgz:51711.got - 2010.06.03 12:22:45.
