data_PCOD9158490
_publ_section_title
;
Structure prediction by ZEFSAII (Michael W. Deem and Ramdas Pophale) SiO2 
 PCOD9158490
Probable space group: P 21/M
;
_chemical_formula_sum "Si O2"
_cell_formula_units_Z 32
_cell_length_a 22.073414
_cell_length_b 8.955862
_cell_length_c 28.560569
_cell_angle_alpha 90.000000
_cell_angle_beta 19.358595
_cell_angle_gamma 90.000000
_cell_volume 1871.545242
_symmetry_space_group_name_H-M "P 21/M"
_symmetry_group_IT_number 11
_symmetry_cell_setting 'monoclinic'
loop_
_space_group_symop_operation_xyz
x,y,z
-x,1/2+y,-z
-x,-y,-z
x,1/2-y,z
loop_
_atom_site_type_symbol
_atom_site_label
_atom_site_fract_x
_atom_site_fract_y
_atom_site_fract_z
Si Si1 0.043061 0.573107 0.392298
Si Si2 0.193393 0.918358 0.918419
Si Si3 0.692566 0.569134 0.876656
Si Si4 0.921426 0.931037 0.904170
Si Si5 0.684002 0.076388 0.351169
Si Si6 0.324525 0.430975 0.002408
Si Si7 0.766953 0.584363 0.199917
Si Si8 0.272674 0.572326 0.320882
O O1 0.030328 0.750000 0.392389
O O2 0.144917 0.492206 0.274939
O O3 0.170856 0.552254 0.345178
O O4 0.847502 0.508032 0.551611
O O5 0.268442 0.750000 0.864109
O O6 0.279636 0.030611 0.818036
O O7 0.984477 0.906240 0.051470
O O8 0.184966 0.990700 0.975656
O O9 0.685773 0.750000 0.878544
O O10 0.500000 0.500000 0.000000
O O11 0.710366 0.524623 0.918469
O O12 0.912299 0.750000 0.916494
O O13 0.132331 0.978263 0.756849
O O14 0.833581 0.972119 0.918754
O O15 0.671738 0.250000 0.368858
O O16 0.500000 0.000000 0.500000
O O17 0.705387 0.040249 0.281013
O O18 0.334720 0.250000 0.995796
O O19 0.520279 0.481633 0.838877
O O20 0.692175 0.750000 0.264269
O O21 0.275050 0.750000 0.329178
#
# Coordination Sequence:
#
# PCOD9158490 Si02
#       8
#     4   4   4   4   4   4   4   4
#     4  10  19  32  50  77 107 135 172 219 266 313
#     4   9  16  27  45  71 100 123 150 194 245 292
#     4  11  20  33  53  79 107 139 178 224 270 315
#     4   9  18  33  53  74  98 132 172 211 250 305
#     4  10  19  31  50  75 101 131 169 212 258 305
#     4   9  18  34  55  77 103 135 179 223 262 314
#     4   9  16  27  46  71  96 123 156 194 239 291
#     4   9  17  32  52  75 102 135 171 213 264 313
#
# _framework density 17.098171000000001
#
# number of rings (size 3 to 8) (size 9 to 14) (size 15 to 20)
#    0.000    2.500    1.250    1.875    0.000    4.000 
#    0.000    1.875    2.750    0.000    0.000    0.000 
#    0.000    0.000    0.000    0.000    0.000    0.000 
#
# Total GULP energy -178205.145549 kJ/mol
# GULP energy per Si atom -5568.910798 kJ/mol
# Density = 1.705925 g / cm^3
# Si number density = 17.098171 Si / 1000 Ang^3
#
#
#
# Elastic Constant Matrix: (Units=GPa)
#
#
# Indices 1 2 3 4 5 6 
#
# 1 121.3320 34.5812 52.0666 0.0000 13.8319 0.0000
# 2 34.5812 44.2923 29.8906 0.0000 3.6420 0.0000
# 3 52.0666 29.8906 100.4790 0.0000 16.1439 0.0000
# 4 0.0000 0.0000 0.0000 27.3546 0.0000 6.4029
# 5 13.8319 3.6420 16.1439 0.0000 16.0198 0.0000
# 6 0.0000 0.0000 0.0000 6.4029 0.0000 19.7135
#
#
#
# Elastic Compliance Matrix: (Units=1/GPa)
#
#
# Indices 1 2 3 4 5 6 
#
# 1 0.012303 -0.006819 -0.003447 0.000000 -0.005598 0.000000
# 2 -0.006819 0.032108 -0.006910 0.000000 0.005552 0.000000
# 3 -0.003447 -0.006910 0.015587 0.000000 -0.011161 0.000000
# 4 0.000000 0.000000 0.000000 0.039565 0.000000 -0.012851
# 5 -0.005598 0.005552 -0.011161 0.000000 0.077242 0.000000
# 6 0.000000 0.000000 0.000000 -0.012851 0.000000 0.054901
#
#
# Mechanical properties :
#
#
# Convention : Reuss Voigt Hill
#
# Bulk Modulus (GPa) = 38.99236 55.46444 47.22840
# Shear Modulus (GPa) = 18.20789 22.58856 20.39822
#
# Velocity S-wave (km/s) = 3.26683 3.63865 3.45774
# Velocity P-wave (km/s) = 6.08967 7.08253 6.60478
#
# Compressibility (1/GPa) = 0.02564605
#
# Stress axis : x y z
#
# Youngs Moduli (GPa) = 81.28264 31.14509 64.15426
#
# Poissons Ratio (x) = 0.21237 0.22115
# Poissons Ratio (y) = 0.55424 0.44331
# Poissons Ratio (z) = 0.28019 0.21522
#
# Static dielectric constant tensor:
#      x y z
#    x 1.595390 0.000000 0.028140 
#    y 0.000000 1.585000 0.000000 
#    z 0.028140 0.000000 1.610540 
# 
# From -- ./inp_files/70337.got.cif
#   From: 2010.05.17/outbox.cif.g08.bks.cpg/sg11_36_cif.got.tgz:70337.got - 2010.06.03 12:22:45.
