data_PCOD9158819
_publ_section_title
;
Structure prediction by ZEFSAII (Michael W. Deem and Ramdas Pophale) SiO2 
 PCOD9158819
Probable space group: P 21/M
;
_chemical_formula_sum "Si O2"
_cell_formula_units_Z 24
_cell_length_a 14.051699
_cell_length_b 13.126754
_cell_length_c 19.265863
_cell_angle_alpha 90.000000
_cell_angle_beta 19.761232
_cell_angle_gamma 90.000000
_cell_volume 1201.493386
_symmetry_space_group_name_H-M "P 21/M"
_symmetry_group_IT_number 11
_symmetry_cell_setting 'monoclinic'
loop_
_space_group_symop_operation_xyz
x,y,z
-x,1/2+y,-z
-x,-y,-z
x,1/2-y,z
loop_
_atom_site_type_symbol
_atom_site_label
_atom_site_fract_x
_atom_site_fract_y
_atom_site_fract_z
Si Si1 0.459195 0.358769 0.592356
Si Si2 0.394611 0.089220 0.477183
Si Si3 0.680844 0.634318 0.843402
Si Si4 0.073760 0.577773 0.303141
Si Si5 0.141176 0.910149 0.947011
Si Si6 0.409996 0.370073 0.257687
O O1 0.596549 0.250000 0.516633
O O2 0.581516 0.465062 0.537498
O O3 0.450458 0.372096 0.515461
O O4 0.134297 0.353685 0.838480
O O5 0.631925 0.132658 0.262826
O O6 0.096203 0.114559 0.647981
O O7 0.786275 0.750000 0.776958
O O8 0.884071 0.544184 0.728069
O O9 0.619811 0.612530 0.803683
O O10 0.385943 0.623529 0.086950
O O11 0.878380 0.605719 0.502913
O O12 0.337523 0.932761 0.879089
O O13 0.000000 0.000000 0.000000
O O14 0.475990 0.250000 0.222289
#
# Coordination Sequence:
#
# PCOD9158819 Si02
#       6
#     4   4   4   4   4   4
#     4  10  19  32  51  74 102 134 167 203 244 291
#     4   9  20  34  49  74 103 132 166 204 246 294
#     4  10  21  35  53  76  99 129 169 209 251 299
#     4  10  20  35  53  73 102 133 164 208 254 295
#     4   9  18  32  49  72 102 131 161 200 244 290
#     4  10  19  32  53  78 102 131 168 206 246 295
#
# _framework density 19.97514
#
# number of rings (size 3 to 8) (size 9 to 14) (size 15 to 20)
#    0.000    2.333    0.000    2.500    0.000    6.000 
#    0.000    0.000    0.000    0.000    0.000   14.000 
#    0.000    0.000    0.000    0.000    0.000    0.000 
#
# Total GULP energy -133741.500241 kJ/mol
# GULP energy per Si atom -5572.562510 kJ/mol
# Density = 1.992968 g / cm^3
# Si number density = 19.975140 Si / 1000 Ang^3
#
#
#
# Elastic Constant Matrix: (Units=GPa)
#
#
# Indices 1 2 3 4 5 6 
#
# 1 44.9062 0.8407 15.3301 0.0000 -0.5869 0.0000
# 2 0.8407 70.8490 4.6159 0.0000 0.3410 0.0000
# 3 15.3301 4.6159 46.1872 0.0000 -1.1866 0.0000
# 4 0.0000 0.0000 0.0000 29.9041 0.0000 17.7249
# 5 -0.5869 0.3410 -1.1866 0.0000 21.8967 0.0000
# 6 0.0000 0.0000 0.0000 17.7249 0.0000 24.3096
#
#
#
# Elastic Compliance Matrix: (Units=1/GPa)
#
#
# Indices 1 2 3 4 5 6 
#
# 1 0.025120 0.000245 -0.008356 0.000000 0.000217 0.000000
# 2 0.000245 0.014211 -0.001509 0.000000 -0.000297 0.000000
# 3 -0.008356 -0.001509 0.024605 0.000000 0.001133 0.000000
# 4 0.000000 0.000000 0.000000 0.058892 0.000000 -0.042940
# 5 0.000217 -0.000297 0.001133 0.000000 0.045741 0.000000
# 6 0.000000 0.000000 0.000000 -0.042940 0.000000 0.072445
#
#
# Mechanical properties :
#
#
# Convention : Reuss Voigt Hill
#
# Bulk Modulus (GPa) = 22.37404 22.61286 22.49345
# Shear Modulus (GPa) = 18.17175 24.63246 21.40211
#
# Velocity S-wave (km/s) = 3.01943 3.51544 3.27683
# Velocity P-wave (km/s) = 4.83541 5.27474 5.05984
#
# Compressibility (1/GPa) = 0.04469466
#
# Stress axis : x y z
#
# Youngs Moduli (GPa) = 39.80960 70.36616 40.64293
#
# Poissons Ratio (x) = -0.01726 0.33963
# Poissons Ratio (y) = -0.00977 0.06134
# Poissons Ratio (z) = 0.33267 0.10620
#
# Static dielectric constant tensor:
#      x y z
#    x 1.689200 0.000000 0.002930 
#    y 0.000000 1.740710 0.000000 
#    z 0.002930 0.000000 1.699620 
# 
# From -- ./inp_files/39717.got.cif
#   From: 2010.05.17/outbox.cif.g08.bks.cpg/sg11_20_cif.got.tgz:39717.got - 2010.06.03 12:22:45.
