data_PCOD9158388
_publ_section_title
;
Structure prediction by ZEFSAII (Michael W. Deem and Ramdas Pophale) SiO2 
 PCOD9158388
Probable space group: P 21/M
;
_chemical_formula_sum "Si O2"
_cell_formula_units_Z 32
_cell_length_a 27.027030
_cell_length_b 8.900981
_cell_length_c 14.685284
_cell_angle_alpha 90.000000
_cell_angle_beta 145.247311
_cell_angle_gamma 90.000000
_cell_volume 2013.818453
_symmetry_space_group_name_H-M "P 21/M"
_symmetry_group_IT_number 11
_symmetry_cell_setting 'monoclinic'
loop_
_space_group_symop_operation_xyz
x,y,z
-x,1/2+y,-z
-x,-y,-z
x,1/2-y,z
loop_
_atom_site_type_symbol
_atom_site_label
_atom_site_fract_x
_atom_site_fract_y
_atom_site_fract_z
Si Si1 0.098304 0.929642 0.753762
Si Si2 0.555042 0.075821 0.321213
Si Si3 0.087478 0.569024 0.524576
Si Si4 0.652845 0.580755 0.994160
Si Si5 0.584858 0.927847 0.176991
Si Si6 0.417707 0.569352 0.429358
Si Si7 0.732448 0.426376 0.280976
Si Si8 0.732094 0.573793 0.913471
O O1 0.102424 0.750000 0.767047
O O2 0.110667 0.970441 0.664989
O O3 0.002935 0.989680 0.634343
O O4 0.173281 0.003985 0.927283
O O5 0.582193 0.250000 0.349842
O O6 0.450590 0.072624 0.159786
O O7 0.580297 0.026322 0.461006
O O8 0.587433 0.978861 0.285731
O O9 0.076748 0.750000 0.505821
O O10 0.167045 0.528141 0.578935
O O11 0.678767 0.750000 0.063902
O O12 0.684949 0.561485 0.940249
O O13 0.691969 0.458635 0.120437
O O14 0.576806 0.750000 0.156669
O O15 0.671472 0.984302 0.257650
O O16 0.500000 0.000000 0.000000
O O17 0.500000 0.500000 0.500000
O O18 0.424707 0.750000 0.435047
O O19 0.329402 0.512200 0.249852
O O20 0.728295 0.250000 0.295751
O O21 0.737638 0.750000 0.898701
#
# Coordination Sequence:
#
# PCOD9158388 Si02
#       8
#     4   4   4   4   4   4   4   4
#     4  10  19  32  50  75 104 137 174 212 257 308
#     4  10  21  38  53  72 102 137 176 218 258 298
#     4   9  19  33  49  74 104 136 172 211 258 309
#     4  10  19  31  49  72 103 139 175 213 253 298
#     4  12  24  36  52  75 102 136 176 215 258 306
#     4  11  22  36  54  76 104 137 176 217 259 308
#     4  11  21  34  52  75 103 137 176 214 256 306
#     4  11  21  34  51  75 106 141 177 214 258 305
#
# _framework density 15.890211000000001
#
# number of rings (size 3 to 8) (size 9 to 14) (size 15 to 20)
#    0.000    1.500    3.750    2.625    0.000    3.000 
#    0.000    0.000    0.000    0.000    0.000    0.875 
#    0.000    0.000    0.000    0.000    0.000    0.000 
#
# Total GULP energy -178638.440699 kJ/mol
# GULP energy per Si atom -5582.451272 kJ/mol
# Density = 1.585404 g / cm^3
# Si number density = 15.890211 Si / 1000 Ang^3
#
#
#
# Elastic Constant Matrix: (Units=GPa)
#
#
# Indices 1 2 3 4 5 6 
#
# 1 106.5528 57.3215 54.4138 0.0000 8.8274 0.0000
# 2 57.3215 73.6713 43.4302 0.0000 3.8134 0.0000
# 3 54.4138 43.4302 94.5875 0.0000 7.5066 0.0000
# 4 0.0000 0.0000 0.0000 26.6703 0.0000 1.2208
# 5 8.8274 3.8134 7.5066 0.0000 23.3083 0.0000
# 6 0.0000 0.0000 0.0000 1.2208 0.0000 24.8667
#
#
#
# Elastic Compliance Matrix: (Units=1/GPa)
#
#
# Indices 1 2 3 4 5 6 
#
# 1 0.018189 -0.010924 -0.005176 0.000000 -0.003435 0.000000
# 2 -0.010924 0.025174 -0.005414 0.000000 0.001762 0.000000
# 3 -0.005176 -0.005414 0.016224 0.000000 -0.002379 0.000000
# 4 0.000000 0.000000 0.000000 0.037579 0.000000 -0.001845
# 5 -0.003435 0.001762 -0.002379 0.000000 0.044682 0.000000
# 6 0.000000 0.000000 0.000000 -0.001845 0.000000 0.040305
#
#
# Mechanical properties :
#
#
# Convention : Reuss Voigt Hill
#
# Bulk Modulus (GPa) = 60.38559 65.01584 62.70071
# Shear Modulus (GPa) = 21.67313 22.94547 22.30930
#
# Velocity S-wave (km/s) = 3.69715 3.80412 3.75102
# Velocity P-wave (km/s) = 7.50396 7.76528 7.63574
#
# Compressibility (1/GPa) = 0.01656024
#
# Stress axis : x y z
#
# Youngs Moduli (GPa) = 54.97822 39.72398 61.63535
#
# Poissons Ratio (x) = 0.43392 0.31900
# Poissons Ratio (y) = 0.60055 0.33372
# Poissons Ratio (z) = 0.28454 0.21508
#
# Static dielectric constant tensor:
#      x y z
#    x 1.527320 0.000000 0.005630 
#    y 0.000000 1.527870 0.000000 
#    z 0.005630 0.000000 1.514950 
# 
# From -- ./inp_files/56176.got.cif
#   From: 2010.05.17/outbox.cif.g08.bks.cpg/sg11_29_cif.got.tgz:56176.got - 2010.06.03 12:22:45.
