data_PCOD9158968
_publ_section_title
;
Structure prediction by ZEFSAII (Michael W. Deem and Ramdas Pophale) SiO2 
 PCOD9158968
Probable space group: P 21/M
;
_chemical_formula_sum "Si O2"
_cell_formula_units_Z 32
_cell_length_a 15.534593
_cell_length_b 13.535071
_cell_length_c 8.960074
_cell_angle_alpha 90.000000
_cell_angle_beta 62.301261
_cell_angle_gamma 90.000000
_cell_volume 1668.066741
_symmetry_space_group_name_H-M "P 21/M"
_symmetry_group_IT_number 11
_symmetry_cell_setting 'monoclinic'
loop_
_space_group_symop_operation_xyz
x,y,z
-x,1/2+y,-z
-x,-y,-z
x,1/2-y,z
loop_
_atom_site_type_symbol
_atom_site_label
_atom_site_fract_x
_atom_site_fract_y
_atom_site_fract_z
Si Si1 0.735264 0.866166 0.834766
Si Si2 0.769413 0.005569 0.067227
Si Si3 0.618644 0.939766 0.647984
Si Si4 0.405334 0.633473 0.827924
Si Si5 0.201801 0.368117 0.689236
Si Si6 0.077288 0.131577 0.497420
Si Si7 0.866116 0.367351 0.742999
Si Si8 0.656094 0.363549 0.777385
O O1 0.737946 0.750000 0.861890
O O2 0.656628 0.888023 0.770522
O O3 0.840464 0.900992 0.685673
O O4 0.718390 0.928504 0.995254
O O5 0.816294 0.938867 0.156525
O O6 0.682609 0.078463 0.184308
O O7 0.843457 0.071931 0.911160
O O8 0.509948 0.907635 0.700881
O O9 0.694926 0.902019 0.463725
O O10 0.623684 0.055632 0.684224
O O11 0.399741 0.750000 0.806277
O O12 0.389864 0.619247 0.020394
O O13 0.203092 0.250000 0.720560
O O14 0.122533 0.386550 0.624077
O O15 0.075451 0.250000 0.479167
O O16 0.965630 0.099754 0.584231
O O17 0.873986 0.250000 0.772945
O O18 0.771559 0.376615 0.714268
O O19 0.636661 0.250000 0.751042
#
# Coordination Sequence:
#
# PCOD9158968 Si02
#       8
#     4   4   4   4   4   4   4   4
#     4  10  19  32  52  80 105 137 184 223 261 314
#     4  11  21  34  52  79 108 142 176 224 270 315
#     4  11  19  37  56  78 103 146 181 214 268 324
#     4  10  20  35  57  81 108 138 178 222 267 322
#     4  10  22  38  53  75 110 144 178 223 269 313
#     4   8  17  34  56  77 104 143 180 217 264 319
#     4   9  17  34  57  79 108 142 177 219 269 319
#     4   9  18  32  53  85 112 132 170 229 274 307
#
# _framework density 19.183883999999999
#
# number of rings (size 3 to 8) (size 9 to 14) (size 15 to 20)
#    0.000    2.250    2.500    3.750    0.000    1.500 
#    0.000    1.875    0.000    0.000    0.000    0.000 
#    0.000    0.000    0.000    0.000    0.000    0.000 
#
# Total GULP energy -178548.027626 kJ/mol
# GULP energy per Si atom -5579.625863 kJ/mol
# Density = 1.914022 g / cm^3
# Si number density = 19.183884 Si / 1000 Ang^3
#
#
#
# Elastic Constant Matrix: (Units=GPa)
#
#
# Indices 1 2 3 4 5 6 
#
# 1 20.4296 3.6576 1.7421 0.0000 -16.0200 0.0000
# 2 3.6576 116.1572 16.5126 0.0000 6.4567 0.0000
# 3 1.7421 16.5126 5.5934 0.0000 -0.3932 0.0000
# 4 0.0000 0.0000 0.0000 29.3588 0.0000 -1.5138
# 5 -16.0200 6.4567 -0.3932 0.0000 22.0738 0.0000
# 6 0.0000 0.0000 0.0000 -1.5138 0.0000 27.5105
#
#
#
# Elastic Compliance Matrix: (Units=1/GPa)
#
#
# Indices 1 2 3 4 5 6 
#
# 1 0.122321 -0.007568 -0.009372 0.000000 0.090821 0.000000
# 2 -0.007568 0.015906 -0.045369 0.000000 -0.010953 0.000000
# 3 -0.009372 -0.045369 0.316489 0.000000 0.012107 0.000000
# 4 0.000000 0.000000 0.000000 0.034158 0.000000 0.001880
# 5 0.090821 -0.010953 0.012107 0.000000 0.114635 0.000000
# 6 0.000000 0.000000 0.000000 0.001880 0.000000 0.036453
#
#
# Mechanical properties :
#
#
# Convention : Reuss Voigt Hill
#
# Bulk Modulus (GPa) = 3.02940 20.66720 11.84830
# Shear Modulus (GPa) = 5.71683 23.80649 14.76166
#
# Velocity S-wave (km/s) = 1.72814 3.52655 2.77696
# Velocity P-wave (km/s) = 2.35893 5.23246 4.05852
#
# Compressibility (1/GPa) = 0.33009807
#
# Stress axis : x y z
#
# Youngs Moduli (GPa) = 8.17523 62.87066 3.15967
#
# Poissons Ratio (x) = 0.47579 0.02961
# Poissons Ratio (y) = 0.06187 0.14335
# Poissons Ratio (z) = 0.07662 2.85238
#
# Static dielectric constant tensor:
#      x y z
#    x 1.649270 0.000000 -0.015170 
#    y 0.000000 1.701680 0.000000 
#    z -0.015170 0.000000 1.665810 
# 
# From -- ./inp_files/22154.got.cif
#   From: 2010.05.17/outbox.cif.g08.bks.cpg/sg11_12_cif.got.tgz:22154.got - 2010.06.03 12:22:45.
