data_PCOD9158941
_publ_section_title
;
Structure prediction by ZEFSAII (Michael W. Deem and Ramdas Pophale) SiO2 
 PCOD9158941
Probable space group: P 21/M
;
_chemical_formula_sum "Si O2"
_cell_formula_units_Z 32
_cell_length_a 24.862989
_cell_length_b 8.487202
_cell_length_c 18.071144
_cell_angle_alpha 90.000000
_cell_angle_beta 27.362059
_cell_angle_gamma 90.000000
_cell_volume 1752.647878
_symmetry_space_group_name_H-M "P 21/M"
_symmetry_group_IT_number 11
_symmetry_cell_setting 'monoclinic'
loop_
_space_group_symop_operation_xyz
x,y,z
-x,1/2+y,-z
-x,-y,-z
x,1/2-y,z
loop_
_atom_site_type_symbol
_atom_site_label
_atom_site_fract_x
_atom_site_fract_y
_atom_site_fract_z
Si Si1 0.136884 0.560095 0.198409
Si Si2 0.380015 0.061910 0.482341
Si Si3 0.882562 0.559583 0.465291
Si Si4 0.787107 0.560129 0.742813
Si Si5 0.522683 0.559731 0.054938
Si Si6 0.367452 0.938448 0.653814
Si Si7 0.650731 0.441825 0.161060
Si Si8 0.695775 0.061622 0.579390
O O1 0.139153 0.750000 0.195119
O O2 0.136837 0.505537 0.283160
O O3 0.018159 0.510984 0.302354
O O4 0.253810 0.501496 0.014274
O O5 0.383278 0.250000 0.478856
O O6 0.516654 0.004957 0.311233
O O7 0.326050 0.005324 0.626136
O O8 0.311929 0.002555 0.494010
O O9 0.876854 0.750000 0.468866
O O10 0.826782 0.510392 0.612433
O O11 0.807127 0.492453 0.490516
O O12 0.792356 0.750000 0.738312
O O13 0.652614 0.509060 0.919516
O O14 0.521150 0.750000 0.055716
O O15 0.420169 0.504404 0.234578
O O16 0.500000 0.500000 0.000000
O O17 0.367561 0.750000 0.649489
O O18 0.311706 0.984462 0.800805
O O19 0.500000 0.000000 0.500000
O O20 0.648370 0.250000 0.160774
O O21 0.692461 0.250000 0.581312
#
# Coordination Sequence:
#
# PCOD9158941 Si02
#       8
#     4   4   4   4   4   4   4   4
#     4  10  20  34  53  75  97 130 174 209 247 300
#     4  10  19  32  52  78 107 136 164 202 253 305
#     4  10  21  36  52  69  97 136 173 213 253 293
#     4  10  20  34  50  72 101 130 165 211 259 295
#     4  10  20  33  50  72 100 131 165 205 251 300
#     4   9  16  29  50  76 107 136 163 201 250 304
#     4   8  16  31  51  77 105 131 161 201 250 299
#     4  11  22  34  51  75 101 134 173 210 251 302
#
# _framework density 18.258088000000001
#
# number of rings (size 3 to 8) (size 9 to 14) (size 15 to 20)
#    0.000    2.250    1.250    3.000    0.000    2.000 
#    0.000    3.125    0.000    0.750    0.000    0.000 
#    0.000    0.000    0.000    0.000    0.000    0.000 
#
# Total GULP energy -178513.435051 kJ/mol
# GULP energy per Si atom -5578.544845 kJ/mol
# Density = 1.821653 g / cm^3
# Si number density = 18.258088 Si / 1000 Ang^3
#
#
#
# Elastic Constant Matrix: (Units=GPa)
#
#
# Indices 1 2 3 4 5 6 
#
# 1 154.6879 25.4783 41.1188 0.0000 12.1369 0.0000
# 2 25.4783 18.6201 10.2380 0.0000 -0.6118 0.0000
# 3 41.1188 10.2380 38.7476 0.0000 -2.6167 0.0000
# 4 0.0000 0.0000 0.0000 12.6926 0.0000 2.7096
# 5 12.1369 -0.6118 -2.6167 0.0000 27.7924 0.0000
# 6 0.0000 0.0000 0.0000 2.7096 0.0000 32.8016
#
#
#
# Elastic Compliance Matrix: (Units=1/GPa)
#
#
# Indices 1 2 3 4 5 6 
#
# 1 0.011153 -0.010212 -0.009543 0.000000 -0.005994 0.000000
# 2 -0.010212 0.072184 -0.007878 0.000000 0.005307 0.000000
# 3 -0.009543 -0.007878 0.038531 0.000000 0.007622 0.000000
# 4 0.000000 0.000000 0.000000 0.080201 0.000000 -0.006625
# 5 -0.005994 0.005307 0.007622 0.000000 0.039433 0.000000
# 6 0.000000 0.000000 0.000000 -0.006625 0.000000 0.031034
#
#
# Mechanical properties :
#
#
# Convention : Reuss Voigt Hill
#
# Bulk Modulus (GPa) = 15.01407 40.63619 27.82513
# Shear Modulus (GPa) = 14.28569 23.67202 18.97885
#
# Velocity S-wave (km/s) = 2.80023 3.60463 3.22759
# Velocity P-wave (km/s) = 4.32390 6.29518 5.40025
#
# Compressibility (1/GPa) = 0.06660420
#
# Stress axis : x y z
#
# Youngs Moduli (GPa) = 89.65850 13.85350 25.95325
#
# Poissons Ratio (x) = 0.14147 0.24766
# Poissons Ratio (y) = 0.91555 0.20445
# Poissons Ratio (z) = 0.85558 0.10914
#
# Static dielectric constant tensor:
#      x y z
#    x 1.619650 0.000000 0.007290 
#    y 0.000000 1.613790 0.000000 
#    z 0.007290 0.000000 1.641250 
# 
# From -- ./inp_files/61761.got.cif
#   From: 2010.05.17/outbox.cif.g08.bks.cpg/sg11_31_cif.got.tgz:61761.got - 2010.06.03 12:22:45.
