data_PCOD9158652
_publ_section_title
;
Structure prediction by ZEFSAII (Michael W. Deem and Ramdas Pophale) SiO2 
 PCOD9158652
Probable space group: P 21/M
;
_chemical_formula_sum "Si O2"
_cell_formula_units_Z 32
_cell_length_a 11.601377
_cell_length_b 8.706581
_cell_length_c 24.129630
_cell_angle_alpha 90.000000
_cell_angle_beta 125.513597
_cell_angle_gamma 90.000000
_cell_volume 1983.902604
_symmetry_space_group_name_H-M "P 21/M"
_symmetry_group_IT_number 11
_symmetry_cell_setting 'monoclinic'
loop_
_space_group_symop_operation_xyz
x,y,z
-x,1/2+y,-z
-x,-y,-z
x,1/2-y,z
loop_
_atom_site_type_symbol
_atom_site_label
_atom_site_fract_x
_atom_site_fract_y
_atom_site_fract_z
Si Si1 0.524641 0.567814 0.773920
Si Si2 0.921101 0.569917 0.345921
Si Si3 0.302396 0.435672 0.800018
Si Si4 0.671201 0.929410 0.368842
Si Si5 0.814906 0.067090 0.893884
Si Si6 0.118761 0.565535 0.961262
Si Si7 0.119666 0.564408 0.491759
Si Si8 0.646857 0.434425 0.064050
O O1 0.510766 0.750000 0.774246
O O2 0.429750 0.490548 0.795802
O O3 0.459789 0.511535 0.697395
O O4 0.685150 0.515785 0.827993
O O5 0.946536 0.750000 0.342539
O O6 0.844303 0.507182 0.269807
O O7 0.797766 0.559392 0.358322
O O8 0.063382 0.510831 0.415544
O O9 0.302688 0.250000 0.800425
O O10 0.322686 0.499153 0.866845
O O11 0.642234 0.750000 0.369026
O O12 0.733698 0.003491 0.442175
O O13 0.797738 0.250000 0.884281
O O14 0.818146 0.026768 0.960436
O O15 0.967467 0.015640 0.913840
O O16 0.097572 0.750000 0.954567
O O17 0.228271 0.523669 0.943880
O O18 0.117613 0.750000 0.492863
O O19 0.000000 0.500000 0.500000
O O20 0.638460 0.250000 0.064196
O O21 0.500000 0.500000 0.000000
#
# Coordination Sequence:
#
# PCOD9158652 Si02
#       8
#     4   4   4   4   4   4   4   4
#     4  11  20  30  46  68  94 125 159 192 232 281
#     4   7  13  24  38  55  80 115 150 186 226 267
#     4  10  19  32  47  66  94 125 159 197 234 274
#     4   9  16  26  38  57  86 118 152 190 230 271
#     4  10  19  33  53  72  91 118 152 192 236 278
#     4   9  20  36  51  69  93 120 152 191 232 276
#     4   9  14  22  36  55  80 114 153 188 226 272
#     4  11  22  35  51  71  96 126 158 192 232 276
#
# _framework density 16.129823999999999
#
# number of rings (size 3 to 8) (size 9 to 14) (size 15 to 20)
#    0.000    2.500    0.000    5.250    0.000    2.500 
#    0.000    1.875    0.000    0.000    0.000    0.000 
#    0.000    1.000    0.000    3.000    0.000    6.250 
#
# Total GULP energy -178261.988196 kJ/mol
# GULP energy per Si atom -5570.687131 kJ/mol
# Density = 1.609311 g / cm^3
# Si number density = 16.129824 Si / 1000 Ang^3
#
#
#
# Elastic Constant Matrix: (Units=GPa)
#
#
# Indices 1 2 3 4 5 6 
#
# 1 47.9297 26.8902 52.7814 0.0000 5.5171 0.0000
# 2 26.8902 67.2342 53.4576 0.0000 7.4227 0.0000
# 3 52.7814 53.4576 178.4212 0.0000 13.6341 0.0000
# 4 0.0000 0.0000 0.0000 28.8537 0.0000 3.8263
# 5 5.5171 7.4227 13.6341 0.0000 16.4515 0.0000
# 6 0.0000 0.0000 0.0000 3.8263 0.0000 18.4605
#
#
#
# Elastic Compliance Matrix: (Units=1/GPa)
#
#
# Indices 1 2 3 4 5 6 
#
# 1 0.033465 -0.007128 -0.007636 0.000000 -0.001678 0.000000
# 2 -0.007128 0.021322 -0.003979 0.000000 -0.003932 0.000000
# 3 -0.007636 -0.003979 0.009313 0.000000 -0.003362 0.000000
# 4 0.000000 0.000000 0.000000 0.035637 0.000000 -0.007386
# 5 -0.001678 -0.003932 -0.003362 0.000000 0.065908 0.000000
# 6 0.000000 0.000000 0.000000 -0.007386 0.000000 0.055701
#
#
# Mechanical properties :
#
#
# Convention : Reuss Voigt Hill
#
# Bulk Modulus (GPa) = 37.57446 62.20483 49.88965
# Shear Modulus (GPa) = 18.67748 23.45023 21.06385
#
# Velocity S-wave (km/s) = 3.40655 3.81707 3.61764
# Velocity P-wave (km/s) = 6.23044 7.62073 6.96038
#
# Compressibility (1/GPa) = 0.02661382
#
# Stress axis : x y z
#
# Youngs Moduli (GPa) = 29.88218 46.89946 107.37927
#
# Poissons Ratio (x) = 0.33428 0.81994
# Poissons Ratio (y) = 0.21299 0.42731
# Poissons Ratio (z) = 0.22818 0.18663
#
# Static dielectric constant tensor:
#      x y z
#    x 1.511480 0.000000 0.009660 
#    y 0.000000 1.542230 0.000000 
#    z 0.009660 0.000000 1.584610 
# 
# From -- ./inp_files/68333.got.cif
#   From: 2010.05.17/outbox.cif.g08.bks.cpg/sg11_35_cif.got.tgz:68333.got - 2010.06.03 12:22:45.
