data_PCOD9158702
_publ_section_title
;
Structure prediction by ZEFSAII (Michael W. Deem and Ramdas Pophale) SiO2 
 PCOD9158702
Probable space group: P 21/M
;
_chemical_formula_sum "Si O2"
_cell_formula_units_Z 32
_cell_length_a 22.551636
_cell_length_b 8.796428
_cell_length_c 17.783090
_cell_angle_alpha 90.000000
_cell_angle_beta 156.269177
_cell_angle_gamma 90.000000
_cell_volume 1419.688641
_symmetry_space_group_name_H-M "P 21/M"
_symmetry_group_IT_number 11
_symmetry_cell_setting 'monoclinic'
loop_
_space_group_symop_operation_xyz
x,y,z
-x,1/2+y,-z
-x,-y,-z
x,1/2-y,z
loop_
_atom_site_type_symbol
_atom_site_label
_atom_site_fract_x
_atom_site_fract_y
_atom_site_fract_z
Si Si1 0.444849 0.430500 0.066661
Si Si2 0.368396 0.066971 0.151700
Si Si3 0.624657 0.072036 0.550292
Si Si4 0.252830 0.423073 0.600664
Si Si5 0.848668 0.417900 0.305470
Si Si6 0.927573 0.078461 0.224658
Si Si7 0.819880 0.922872 0.656375
Si Si8 0.104108 0.932484 0.054804
O O1 0.444092 0.250000 0.063884
O O2 0.428578 0.474518 0.137389
O O3 0.596269 0.492181 0.207809
O O4 0.301941 0.491968 0.856670
O O5 0.371202 0.250000 0.157299
O O6 0.473891 0.005566 0.341062
O O7 0.201526 0.010807 0.966909
O O8 0.597753 0.250000 0.533709
O O9 0.728637 0.008951 0.738606
O O10 0.734442 0.044962 0.607111
O O11 0.256918 0.250000 0.635390
O O12 0.245893 0.418510 0.502080
O O13 0.090398 0.490202 0.428094
O O14 0.842380 0.250000 0.332169
O O15 0.859929 0.404448 0.228799
O O16 0.000000 0.500000 0.500000
O O17 0.949199 0.250000 0.218382
O O18 0.803618 0.750000 0.669668
O O19 0.994807 0.959577 0.857956
O O20 0.115375 0.750000 0.076067
O O21 0.000000 0.000000 0.000000
#
# Coordination Sequence:
#
# PCOD9158702 Si02
#       8
#     4   4   4   4   4   4   4   4
#     4  10  19  32  52  78 103 129 164 200 238 283
#     4   9  17  29  46  69  95 125 163 205 245 286
#     4   9  15  25  41  63  92 122 158 204 248 287
#     4  10  19  32  49  72 102 131 162 201 243 287
#     4  10  20  37  59  80 102 129 161 196 236 281
#     4   9  20  35  51  72  99 130 161 196 239 287
#     4   9  16  25  41  65  92 124 160 197 242 290
#     4   8  14  23  36  58  88 121 156 197 243 288
#
# _framework density 22.540153
#
# number of rings (size 3 to 8) (size 9 to 14) (size 15 to 20)
#    0.000    2.750    1.250    0.750    0.000    2.000 
#    0.000    0.625    0.000    0.750    0.000    0.000 
#    0.000    0.000    0.000    0.000    0.000    0.000 
#
# Total GULP energy -178175.426218 kJ/mol
# GULP energy per Si atom -5567.982069 kJ/mol
# Density = 2.248885 g / cm^3
# Si number density = 22.540153 Si / 1000 Ang^3
#
#
#
# Elastic Constant Matrix: (Units=GPa)
#
#
# Indices 1 2 3 4 5 6 
#
# 1 36.1858 3.0659 15.1974 0.0000 21.0980 0.0000
# 2 3.0659 22.9489 57.5664 0.0000 9.0903 0.0000
# 3 15.1974 57.5664 219.5942 0.0000 27.8698 0.0000
# 4 0.0000 0.0000 0.0000 32.9851 0.0000 6.5048
# 5 21.0980 9.0903 27.8698 0.0000 29.2272 0.0000
# 6 0.0000 0.0000 0.0000 6.5048 0.0000 12.4117
#
#
#
# Elastic Compliance Matrix: (Units=1/GPa)
#
#
# Indices 1 2 3 4 5 6 
#
# 1 0.049563 0.014416 -0.002388 0.000000 -0.037984 0.000000
# 2 0.014416 0.133491 -0.033450 0.000000 -0.020028 0.000000
# 3 -0.002388 -0.033450 0.013594 0.000000 -0.000835 0.000000
# 4 0.000000 0.000000 0.000000 0.033811 0.000000 -0.017720
# 5 -0.037984 -0.020028 -0.000835 0.000000 0.068659 0.000000
# 6 0.000000 0.000000 0.000000 -0.017720 0.000000 0.089856
#
#
# Mechanical properties :
#
#
# Convention : Reuss Voigt Hill
#
# Bulk Modulus (GPa) = 6.50186 47.82092 27.16139
# Shear Modulus (GPa) = 10.35007 28.45140 19.40074
#
# Velocity S-wave (km/s) = 2.14518 3.55668 2.93698
# Velocity P-wave (km/s) = 3.00442 6.17483 4.85567
#
# Compressibility (1/GPa) = 0.15380222
#
# Stress axis : x y z
#
# Youngs Moduli (GPa) = 20.17616 7.49115 73.56162
#
# Poissons Ratio (x) = -0.10799 0.17569
# Poissons Ratio (y) = -0.29085 2.46066
# Poissons Ratio (z) = 0.04819 0.25058
#
# Static dielectric constant tensor:
#      x y z
#    x 1.890090 0.000000 -0.038430 
#    y 0.000000 1.830480 0.000000 
#    z -0.038430 0.000000 1.911780 
# 
# From -- ./inp_files/67242.got.cif
#   From: 2010.05.17/outbox.cif.g08.bks.cpg/sg11_34_cif.got.tgz:67242.got - 2010.06.03 12:22:45.
