data_PCOD9158259
_publ_section_title
;
Structure prediction by ZEFSAII (Michael W. Deem and Ramdas Pophale) SiO2 
 PCOD9158259
Probable space group: P 21/M
;
_chemical_formula_sum "Si O2"
_cell_formula_units_Z 32
_cell_length_a 30.246995
_cell_length_b 9.914253
_cell_length_c 9.750308
_cell_angle_alpha 90.000000
_cell_angle_beta 31.575491
_cell_angle_gamma 90.000000
_cell_volume 1531.010096
_symmetry_space_group_name_H-M "P 21/M"
_symmetry_group_IT_number 11
_symmetry_cell_setting 'monoclinic'
loop_
_space_group_symop_operation_xyz
x,y,z
-x,1/2+y,-z
-x,-y,-z
x,1/2-y,z
loop_
_atom_site_type_symbol
_atom_site_label
_atom_site_fract_x
_atom_site_fract_y
_atom_site_fract_z
Si Si1 0.461934 0.587092 0.382147
Si Si2 0.166494 0.911535 0.917410
Si Si3 0.356198 0.595176 0.416444
Si Si4 0.353662 0.513758 0.118064
Si Si5 0.181692 0.104635 0.634013
Si Si6 0.701103 0.095062 0.027126
Si Si7 0.113767 0.912998 0.356164
Si Si8 0.951294 0.592181 0.239312
O O1 0.468855 0.750000 0.373080
O O2 0.431802 0.541305 0.309609
O O3 0.384413 0.536413 0.681033
O O4 0.554540 0.534298 0.170297
O O5 0.167528 0.750000 0.890979
O O6 0.262832 0.959670 0.695897
O O7 0.148548 0.988584 0.823373
O O8 0.111606 0.936304 0.198218
O O9 0.350622 0.750000 0.473423
O O10 0.367887 0.589999 0.223310
O O11 0.282334 0.405916 0.349474
O O12 0.309742 0.588641 0.107607
O O13 0.158299 0.250000 0.756226
O O14 0.139777 0.097321 0.595571
O O15 0.700449 0.250000 0.072872
O O16 0.791258 0.047852 0.844308
O O17 0.101455 0.750000 0.413567
O O18 0.054622 0.008986 0.603728
O O19 0.979411 0.750000 0.179131
O O20 0.000000 0.500000 0.000000
#
# Coordination Sequence:
#
# PCOD9158259 Si02
#       8
#     4   4   4   4   4   4   4   4
#     4  10  19  31  47  69 106 151 195 242 288 332
#     4   9  18  34  60  87 115 154 202 240 279 337
#     4   9  17  30  47  72 104 143 196 247 280 324
#     4  11  19  31  50  76 107 151 193 235 293 337
#     4  10  22  38  57  85 122 153 190 239 294 345
#     4  10  19  32  51  77 108 145 192 242 288 337
#     4  10  19  37  63  90 118 153 193 239 289 345
#     4  11  24  43  65  93 122 152 186 233 287 352
#
# _framework density 20.901233999999999
#
# number of rings (size 3 to 8) (size 9 to 14) (size 15 to 20)
#    0.000    2.000    2.500    1.875    0.000    2.000 
#    0.000    0.625    0.000    1.500    0.000    0.000 
#    0.000    0.000    0.000    0.000    0.000    0.000 
#
# Total GULP energy -178211.231418 kJ/mol
# GULP energy per Si atom -5569.100982 kJ/mol
# Density = 2.085366 g / cm^3
# Si number density = 20.901234 Si / 1000 Ang^3
#
#
#
# Elastic Constant Matrix: (Units=GPa)
#
#
# Indices 1 2 3 4 5 6 
#
# 1 63.8422 4.6249 -0.3907 0.0000 12.9325 0.0000
# 2 4.6249 71.7649 32.4397 0.0000 15.2681 0.0000
# 3 -0.3907 32.4397 84.2826 0.0000 16.4507 0.0000
# 4 0.0000 0.0000 0.0000 24.8109 0.0000 6.2208
# 5 12.9325 15.2681 16.4507 0.0000 39.3186 0.0000
# 6 0.0000 0.0000 0.0000 6.2208 0.0000 22.2272
#
#
#
# Elastic Compliance Matrix: (Units=1/GPa)
#
#
# Indices 1 2 3 4 5 6 
#
# 1 0.016917 -0.000461 0.001423 0.000000 -0.005981 0.000000
# 2 -0.000461 0.017536 -0.005937 0.000000 -0.004174 0.000000
# 3 0.001423 -0.005937 0.015025 0.000000 -0.004449 0.000000
# 4 0.000000 0.000000 0.000000 0.043347 0.000000 -0.012132
# 5 -0.005981 -0.004174 -0.004449 0.000000 0.030883 0.000000
# 6 0.000000 0.000000 0.000000 -0.012132 0.000000 0.048385
#
#
# Mechanical properties :
#
#
# Convention : Reuss Voigt Hill
#
# Bulk Modulus (GPa) = 25.29827 32.58194 28.94011
# Shear Modulus (GPa) = 25.61238 29.48571 27.54905
#
# Velocity S-wave (km/s) = 3.50437 3.76002 3.63445
# Velocity P-wave (km/s) = 5.33893 5.87135 5.61146
#
# Compressibility (1/GPa) = 0.03952839
#
# Stress axis : x y z
#
# Youngs Moduli (GPa) = 59.11123 57.02651 66.55630
#
# Poissons Ratio (x) = 0.02630 -0.09473
# Poissons Ratio (y) = 0.02726 0.39513
# Poissons Ratio (z) = -0.08413 0.33856
#
# Static dielectric constant tensor:
#      x y z
#    x 1.793940 0.000000 -0.025560 
#    y 0.000000 1.746850 0.000000 
#    z -0.025560 0.000000 1.796250 
# 
# From -- ./inp_files/29245.got.cif
#   From: 2010.05.17/outbox.cif.g08.bks.cpg/sg11_15_cif.got.tgz:29245.got - 2010.06.03 12:22:45.
