data_PCOD9158587
_publ_section_title
;
Structure prediction by ZEFSAII (Michael W. Deem and Ramdas Pophale) SiO2 
 PCOD9158587
Probable space group: P 21/M
;
_chemical_formula_sum "Si O2"
_cell_formula_units_Z 32
_cell_length_a 25.998131
_cell_length_b 8.653575
_cell_length_c 20.876201
_cell_angle_alpha 90.000000
_cell_angle_beta 22.703502
_cell_angle_gamma 90.000000
_cell_volume 1812.734456
_symmetry_space_group_name_H-M "P 21/M"
_symmetry_group_IT_number 11
_symmetry_cell_setting 'monoclinic'
loop_
_space_group_symop_operation_xyz
x,y,z
-x,1/2+y,-z
-x,-y,-z
x,1/2-y,z
loop_
_atom_site_type_symbol
_atom_site_label
_atom_site_fract_x
_atom_site_fract_y
_atom_site_fract_z
Si Si1 0.094102 0.565190 0.541420
Si Si2 0.678501 0.064653 0.473954
Si Si3 0.125279 0.435514 0.644391
Si Si4 0.854332 0.935212 0.649298
Si Si5 0.146025 0.563183 0.848627
Si Si6 0.166813 0.562088 0.969878
Si Si7 0.785157 0.564184 0.866431
Si Si8 0.382964 0.935051 0.825723
O O1 0.100409 0.750000 0.535493
O O2 0.142068 0.495699 0.553070
O O3 0.174217 0.503867 0.387583
O O4 0.937335 0.521465 0.711639
O O5 0.679703 0.250000 0.474959
O O6 0.751045 0.014787 0.324688
O O7 0.764888 0.000100 0.433520
O O8 0.528434 0.005075 0.649873
O O9 0.128898 0.250000 0.640860
O O10 0.978711 0.486377 0.837660
O O11 0.860343 0.750000 0.638427
O O12 0.767205 0.976011 0.811924
O O13 0.000000 0.000000 0.500000
O O14 0.139899 0.750000 0.855588
O O15 0.184864 0.512499 0.875686
O O16 0.000000 0.500000 0.000000
O O17 0.167509 0.750000 0.969894
O O18 0.282144 0.510259 0.885536
O O19 0.774703 0.750000 0.884376
O O20 0.683008 0.484964 0.031521
O O21 0.391196 0.750000 0.813548
#
# Coordination Sequence:
#
# PCOD9158587 Si02
#       8
#     4   4   4   4   4   4   4   4
#     4  10  19  31  51  82 116 146 184 234 280 331
#     4  11  24  39  56  82 114 148 185 232 284 338
#     4  11  20  35  59  83 111 147 187 235 280 332
#     4   9  17  29  47  76 112 149 186 229 281 331
#     4  10  20  37  59  82 111 144 183 231 282 333
#     4   9  19  35  57  84 110 140 184 233 278 326
#     4   9  18  32  51  77 112 148 183 228 277 326
#     4  11  22  37  57  81 111 150 190 230 278 336
#
# _framework density 17.652888999999998
#
# number of rings (size 3 to 8) (size 9 to 14) (size 15 to 20)
#    0.000    2.000    2.500    2.625    0.000    3.500 
#    0.000    1.250    0.000    0.750    0.000    0.000 
#    0.000    0.000    0.000    0.000    0.000    0.000 
#
# Total GULP energy -178565.546627 kJ/mol
# GULP energy per Si atom -5580.173332 kJ/mol
# Density = 1.761271 g / cm^3
# Si number density = 17.652889 Si / 1000 Ang^3
#
#
#
# Elastic Constant Matrix: (Units=GPa)
#
#
# Indices 1 2 3 4 5 6 
#
# 1 165.5532 39.2360 95.2599 0.0000 24.6220 0.0000
# 2 39.2360 40.4186 38.7047 0.0000 7.2860 0.0000
# 3 95.2599 38.7047 123.8479 0.0000 10.1170 0.0000
# 4 0.0000 0.0000 0.0000 24.1401 0.0000 1.2049
# 5 24.6220 7.2860 10.1170 0.0000 34.4531 0.0000
# 6 0.0000 0.0000 0.0000 1.2049 0.0000 20.8453
#
#
#
# Elastic Compliance Matrix: (Units=1/GPa)
#
#
# Indices 1 2 3 4 5 6 
#
# 1 0.012213 -0.003249 -0.007911 0.000000 -0.005718 0.000000
# 2 -0.003249 0.036814 -0.008770 0.000000 -0.002888 0.000000
# 3 -0.007911 -0.008770 0.016687 0.000000 0.002608 0.000000
# 4 0.000000 0.000000 0.000000 0.041545 0.000000 -0.002401
# 5 -0.005718 -0.002888 0.002608 0.000000 0.032956 0.000000
# 6 0.000000 0.000000 0.000000 -0.002401 0.000000 0.048111
#
#
# Mechanical properties :
#
#
# Convention : Reuss Voigt Hill
#
# Bulk Modulus (GPa) = 38.67989 75.13565 56.90777
# Shear Modulus (GPa) = 21.11445 26.32898 23.72171
#
# Velocity S-wave (km/s) = 3.46221 3.86616 3.66975
# Velocity P-wave (km/s) = 6.15966 7.91106 7.08965
#
# Compressibility (1/GPa) = 0.02585323
#
# Stress axis : x y z
#
# Youngs Moduli (GPa) = 81.87998 27.16379 59.92576
#
# Poissons Ratio (x) = 0.08826 0.47410
# Poissons Ratio (y) = 0.26603 0.52555
# Poissons Ratio (z) = 0.64778 0.23823
#
# Static dielectric constant tensor:
#      x y z
#    x 1.600500 0.000000 0.026670 
#    y 0.000000 1.592730 0.000000 
#    z 0.026670 0.000000 1.580210 
# 
# From -- ./inp_files/67094.got.cif
#   From: 2010.05.17/outbox.cif.g08.bks.cpg/sg11_34_cif.got.tgz:67094.got - 2010.06.03 12:22:45.
