data_PCOD9158186
_publ_section_title
;
Structure prediction by ZEFSAII (Michael W. Deem and Ramdas Pophale) SiO2 
 PCOD9158186
Probable space group: P 21/M
;
_chemical_formula_sum "Si O2"
_cell_formula_units_Z 32
_cell_length_a 18.619015
_cell_length_b 14.439494
_cell_length_c 26.803626
_cell_angle_alpha 90.000000
_cell_angle_beta 165.431745
_cell_angle_gamma 90.000000
_cell_volume 1812.581175
_symmetry_space_group_name_H-M "P 21/M"
_symmetry_group_IT_number 11
_symmetry_cell_setting 'monoclinic'
loop_
_space_group_symop_operation_xyz
x,y,z
-x,1/2+y,-z
-x,-y,-z
x,1/2-y,z
loop_
_atom_site_type_symbol
_atom_site_label
_atom_site_fract_x
_atom_site_fract_y
_atom_site_fract_z
Si Si1 0.074252 0.648507 0.423609
Si Si2 0.449270 0.645265 0.041443
Si Si3 0.399988 0.527180 0.104877
Si Si4 0.010583 0.352622 0.747135
Si Si5 0.373866 0.859869 0.801492
Si Si6 0.168866 0.360877 0.408136
Si Si7 0.208523 0.056164 0.542850
Si Si8 0.769138 0.520367 0.646618
O O1 0.172283 0.750000 0.508590
O O2 0.733021 0.646327 0.200424
O O3 0.120422 0.644064 0.395707
O O4 0.183345 0.554898 0.521145
O O5 0.390470 0.750000 0.019404
O O6 0.500691 0.581939 0.123463
O O7 0.170207 0.615543 0.823579
O O8 0.519161 0.423190 0.173214
O O9 0.542584 0.570096 0.249486
O O10 0.057337 0.539430 0.872427
O O11 0.970906 0.250000 0.741564
O O12 0.858478 0.428128 0.677653
O O13 0.352929 0.368750 0.977752
O O14 0.335328 0.750000 0.764659
O O15 0.084990 0.900312 0.631940
O O16 0.205879 0.250000 0.433817
O O17 0.267192 0.403006 0.527094
O O18 0.282940 0.404559 0.432766
O O19 0.500000 0.500000 0.500000
#
# Coordination Sequence:
#
# PCOD9158186 Si02
#       8
#     4   4   4   4   4   4   4   4
#     4  10  19  30  51  79 111 146 180 215 262 319
#     4   9  18  33  52  77 109 148 184 218 255 311
#     4  10  22  36  51  81 113 144 184 223 269 317
#     4   9  18  34  55  82 107 137 182 231 267 316
#     4  10  20  32  51  79 116 153 185 212 257 320
#     4  10  21  36  56  81 110 141 182 225 271 323
#     4  12  21  33  52  82 115 152 173 211 267 331
#     4  10  21  40  63  81  98 137 185 239 282 318
#
# _framework density 17.654381999999998
#
# number of rings (size 3 to 8) (size 9 to 14) (size 15 to 20)
#    0.000    2.000    2.500    1.500    0.000    5.000 
#    0.000    0.625    0.000    0.000    0.000    0.000 
#    0.000    0.000    0.000    0.000    0.000    0.000 
#
# Total GULP energy -178285.955671 kJ/mol
# GULP energy per Si atom -5571.436115 kJ/mol
# Density = 1.761420 g / cm^3
# Si number density = 17.654382 Si / 1000 Ang^3
#
#
#
# Elastic Constant Matrix: (Units=GPa)
#
#
# Indices 1 2 3 4 5 6 
#
# 1 80.2386 40.6217 59.7252 0.0000 -4.4137 0.0000
# 2 40.6217 90.5169 34.8239 0.0000 -11.4611 0.0000
# 3 59.7252 34.8239 60.0596 0.0000 -10.1024 0.0000
# 4 0.0000 0.0000 0.0000 14.5838 0.0000 3.7154
# 5 -4.4137 -11.4611 -10.1024 0.0000 30.4021 0.0000
# 6 0.0000 0.0000 0.0000 3.7154 0.0000 1.5203
#
#
#
# Elastic Compliance Matrix: (Units=1/GPa)
#
#
# Indices 1 2 3 4 5 6 
#
# 1 0.052592 -0.005387 -0.051089 0.000000 -0.011372 0.000000
# 2 -0.005387 0.014996 -0.002668 0.000000 0.003985 0.000000
# 3 -0.051089 -0.002668 0.071586 0.000000 0.015365 0.000000
# 4 0.000000 0.000000 0.000000 0.181687 0.000000 -0.444012
# 5 -0.011372 0.003985 0.015365 0.000000 0.037849 0.000000
# 6 0.000000 0.000000 0.000000 -0.444012 0.000000 1.742851
#
#
# Mechanical properties :
#
#
# Convention : Reuss Voigt Hill
#
# Bulk Modulus (GPa) = 47.87680 55.68410 51.78045
# Shear Modulus (GPa) = 2.24536 15.67753 8.96145
#
# Velocity S-wave (km/s) = 1.12898 2.98321 2.25545
# Velocity P-wave (km/s) = 5.37376 6.59361 6.01469
#
# Compressibility (1/GPa) = 0.02088694
#
# Stress axis : x y z
#
# Youngs Moduli (GPa) = 19.01431 66.68393 13.96929
#
# Poissons Ratio (x) = 0.35922 0.71367
# Poissons Ratio (y) = 0.10243 0.03727
# Poissons Ratio (z) = 0.97141 0.17791
#
# Static dielectric constant tensor:
#      x y z
#    x 1.583900 0.000000 -0.011890 
#    y 0.000000 1.662470 0.000000 
#    z -0.011890 0.000000 1.608820 
# 
# From -- ./inp_files/22148.got.cif
#   From: 2010.05.17/outbox.cif.g08.bks.cpg/sg11_12_cif.got.tgz:22148.got - 2010.06.03 12:22:45.
