data_PCOD9158065
_publ_section_title
;
Structure prediction by ZEFSAII (Michael W. Deem and Ramdas Pophale) SiO2 
 PCOD9158065
Probable space group: P 21/M
;
_chemical_formula_sum "Si O2"
_cell_formula_units_Z 32
_cell_length_a 11.885214
_cell_length_b 8.454199
_cell_length_c 18.694982
_cell_angle_alpha 90.000000
_cell_angle_beta 94.700102
_cell_angle_gamma 90.000000
_cell_volume 1872.154278
_symmetry_space_group_name_H-M "P 21/M"
_symmetry_group_IT_number 11
_symmetry_cell_setting 'monoclinic'
loop_
_space_group_symop_operation_xyz
x,y,z
-x,1/2+y,-z
-x,-y,-z
x,1/2-y,z
loop_
_atom_site_type_symbol
_atom_site_label
_atom_site_fract_x
_atom_site_fract_y
_atom_site_fract_z
Si Si1 0.217842 0.058560 0.346773
Si Si2 0.589881 0.061102 0.247011
Si Si3 0.334021 0.559906 0.214614
Si Si4 0.349538 0.562618 0.059735
Si Si5 0.248274 0.061162 0.620794
Si Si6 0.994024 0.438615 0.418235
Si Si7 0.604122 0.441806 0.088262
Si Si8 0.373933 0.440619 0.483743
O O1 0.217797 0.250000 0.343672
O O2 0.100190 0.006044 0.376250
O O3 0.316414 0.007884 0.406951
O O4 0.247526 0.994087 0.270595
O O5 0.588883 0.250000 0.255960
O O6 0.641499 0.023708 0.171025
O O7 0.459842 0.003351 0.239718
O O8 0.664544 0.986259 0.312998
O O9 0.340245 0.750000 0.213700
O O10 0.301842 0.500697 0.132676
O O11 0.329300 0.750000 0.058773
O O12 0.483077 0.526364 0.074237
O O13 0.322740 0.507815 0.977252
O O14 0.237574 0.250000 0.617957
O O15 0.298824 0.006892 0.547159
O O16 0.124488 0.988659 0.622121
O O17 0.001250 0.250000 0.422288
O O18 0.000000 0.500000 0.500000
O O19 0.587469 0.250000 0.083273
O O20 0.500000 0.500000 0.500000
O O21 0.374836 0.250000 0.484011
#
# Coordination Sequence:
#
# PCOD9158065 Si02
#       8
#     4   4   4   4   4   4   4   4
#     4  10  21  37  52  69  97 129 164 202 244 293
#     4  10  19  31  48  73 103 136 169 201 245 296
#     4  10  19  30  47  74 104 134 167 203 247 292
#     4   8  14  25  41  64  96 130 163 199 237 283
#     4  11  22  37  53  73  99 128 165 207 251 293
#     4  11  22  39  59  76  94 124 165 210 253 294
#     4   8  14  25  42  64  94 131 166 197 234 286
#     4  10  21  35  49  69  96 127 160 193 234 288
#
# _framework density 17.092608999999999
#
# number of rings (size 3 to 8) (size 9 to 14) (size 15 to 20)
#    0.000    2.250    1.250    2.250    0.000    5.500 
#    0.000    0.000    0.000    0.000    0.000    0.875 
#    0.000    0.000    0.000    0.000    0.000    0.000 
#
# Total GULP energy -178314.953765 kJ/mol
# GULP energy per Si atom -5572.342305 kJ/mol
# Density = 1.705371 g / cm^3
# Si number density = 17.092609 Si / 1000 Ang^3
#
#
#
# Elastic Constant Matrix: (Units=GPa)
#
#
# Indices 1 2 3 4 5 6 
#
# 1 65.0149 11.1047 23.3071 0.0000 -25.9041 0.0000
# 2 11.1047 17.2978 11.3495 0.0000 -6.2386 0.0000
# 3 23.3071 11.3495 112.4774 0.0000 -38.3770 0.0000
# 4 0.0000 0.0000 0.0000 19.8105 0.0000 -1.7171
# 5 -25.9041 -6.2386 -38.3770 0.0000 21.8066 0.0000
# 6 0.0000 0.0000 0.0000 -1.7171 0.0000 22.3304
#
#
#
# Elastic Compliance Matrix: (Units=1/GPa)
#
#
# Indices 1 2 3 4 5 6 
#
# 1 0.044990 -0.011247 0.022399 0.000000 0.089646 0.000000
# 2 -0.011247 0.067287 -0.006131 0.000000 -0.004901 0.000000
# 3 0.022399 -0.006131 0.033409 0.000000 0.083649 0.000000
# 4 0.000000 0.000000 0.000000 0.050817 0.000000 0.003908
# 5 0.089646 -0.004901 0.083649 0.000000 0.298159 0.000000
# 6 0.000000 0.000000 0.000000 0.003908 0.000000 0.045082
#
#
# Mechanical properties :
#
#
# Convention : Reuss Voigt Hill
#
# Bulk Modulus (GPa) = 6.42147 31.81252 19.11700
# Shear Modulus (GPa) = 8.59680 22.72477 15.66078
#
# Velocity S-wave (km/s) = 2.24510 3.65020 3.03022
# Velocity P-wave (km/s) = 3.23815 6.03469 4.84268
#
# Compressibility (1/GPa) = 0.15572748
#
# Stress axis : x y z
#
# Youngs Moduli (GPa) = 22.22699 14.86178 29.93229
#
# Poissons Ratio (x) = 0.16716 -0.67046
# Poissons Ratio (y) = 0.25000 0.18351
# Poissons Ratio (z) = -0.49787 0.09112
#
# Static dielectric constant tensor:
#      x y z
#    x 1.543100 0.000000 -0.025520 
#    y 0.000000 1.590910 0.000000 
#    z -0.025520 0.000000 1.630180 
# 
# From -- ./inp_files/40648.got.cif
#   From: 2010.05.17/outbox.cif.g08.bks.cpg/sg11_21_cif.got.tgz:40648.got - 2010.06.03 12:22:45.
