data_PCOD9158131
_publ_section_title
;
Structure prediction by ZEFSAII (Michael W. Deem and Ramdas Pophale) SiO2 
 PCOD9158131
Probable space group: P 21/M
;
_chemical_formula_sum "Si O2"
_cell_formula_units_Z 28
_cell_length_a 22.473401
_cell_length_b 8.968724
_cell_length_c 14.716210
_cell_angle_alpha 90.000000
_cell_angle_beta 143.082104
_cell_angle_gamma 90.000000
_cell_volume 1781.686788
_symmetry_space_group_name_H-M "P 21/M"
_symmetry_group_IT_number 11
_symmetry_cell_setting 'monoclinic'
loop_
_space_group_symop_operation_xyz
x,y,z
-x,1/2+y,-z
-x,-y,-z
x,1/2-y,z
loop_
_atom_site_type_symbol
_atom_site_label
_atom_site_fract_x
_atom_site_fract_y
_atom_site_fract_z
Si Si1 0.258878 0.573751 0.475771
Si Si2 0.580276 0.572271 0.971899
Si Si3 0.108082 0.570774 0.136007
Si Si4 0.637764 0.072979 0.856356
Si Si5 0.263672 0.426142 0.188794
Si Si6 0.411776 0.075947 0.529874
Si Si7 0.630420 0.926918 0.236997
O O1 0.258809 0.750000 0.491190
O O2 0.163105 0.533276 0.298573
O O3 0.350855 0.527765 0.523704
O O4 0.278535 0.489104 0.593584
O O5 0.572293 0.750000 0.949374
O O6 0.633116 0.498250 0.950516
O O7 0.470320 0.503940 0.849737
O O8 0.634468 0.543291 0.134205
O O9 0.104320 0.750000 0.124288
O O10 0.176908 0.504970 0.139986
O O11 0.000000 0.500000 0.000000
O O12 0.653567 0.250000 0.880970
O O13 0.527800 0.047579 0.680115
O O14 0.715293 0.997998 0.882847
O O15 0.243999 0.250000 0.157456
O O16 0.362682 0.445061 0.371550
O O17 0.394664 0.250000 0.534699
O O18 0.620874 0.750000 0.238527
#
# Coordination Sequence:
#
# PCOD9158131 Si02
#       7
#     4   4   4   4   4   4   4
#     4  10  19  30  49  73  98 128 164 202 243 291
#     4  10  20  31  45  66  95 133 172 207 241 281
#     4  10  21  37  55  77 100 125 159 202 249 296
#     4  11  20  30  45  68  98 133 169 203 239 285
#     4  10  20  33  49  69  96 130 164 201 243 291
#     4   9  18  30  44  65  95 131 167 199 236 281
#     4  10  19  31  46  67  96 130 169 207 244 285
#
# _framework density 15.715445000000001
#
# number of rings (size 3 to 8) (size 9 to 14) (size 15 to 20)
#    0.000    2.000    1.429    3.000    0.000    4.571 
#    0.000    0.000    0.000    0.000    0.000    1.000 
#    0.000    0.000    0.000    0.000    0.000    0.000 
#
# Total GULP energy -156219.462706 kJ/mol
# GULP energy per Si atom -5579.266525 kJ/mol
# Density = 1.567968 g / cm^3
# Si number density = 15.715445 Si / 1000 Ang^3
#
#
#
# Elastic Constant Matrix: (Units=GPa)
#
#
# Indices 1 2 3 4 5 6 
#
# 1 108.4358 60.5405 63.7179 0.0000 -21.2111 0.0000
# 2 60.5405 80.1140 60.5029 0.0000 -10.9669 0.0000
# 3 63.7179 60.5029 93.5651 0.0000 -9.3432 0.0000
# 4 0.0000 0.0000 0.0000 23.2989 0.0000 -2.8958
# 5 -21.2111 -10.9669 -9.3432 0.0000 18.5609 0.0000
# 6 0.0000 0.0000 0.0000 -2.8958 0.0000 28.8198
#
#
#
# Elastic Compliance Matrix: (Units=1/GPa)
#
#
# Indices 1 2 3 4 5 6 
#
# 1 0.021407 -0.008208 -0.007699 0.000000 0.015738 0.000000
# 2 -0.008208 0.028391 -0.012667 0.000000 0.001018 0.000000
# 3 -0.007699 -0.012667 0.023687 0.000000 -0.004360 0.000000
# 4 0.000000 0.000000 0.000000 0.043463 0.000000 0.004367
# 5 0.015738 0.001018 -0.004360 0.000000 0.070269 0.000000
# 6 0.000000 0.000000 0.000000 0.004367 0.000000 0.035137
#
#
# Mechanical properties :
#
#
# Convention : Reuss Voigt Hill
#
# Bulk Modulus (GPa) = 61.21489 72.40418 66.80954
# Shear Modulus (GPa) = 17.54702 20.62617 19.08660
#
# Velocity S-wave (km/s) = 3.34510 3.62674 3.48877
# Velocity P-wave (km/s) = 7.34549 7.98184 7.67026
#
# Compressibility (1/GPa) = 0.01633590
#
# Stress axis : x y z
#
# Youngs Moduli (GPa) = 46.71275 35.22276 42.21814
#
# Poissons Ratio (x) = 0.28912 0.32504
# Poissons Ratio (y) = 0.38343 0.53478
# Poissons Ratio (z) = 0.35965 0.44617
#
# Static dielectric constant tensor:
#      x y z
#    x 1.511370 0.000000 -0.032060 
#    y 0.000000 1.519810 0.000000 
#    z -0.032060 0.000000 1.526300 
# 
# From -- ./inp_files/51006.got.cif
#   From: 2010.05.17/outbox.cif.g08.bks.cpg/sg11_26_cif.got.tgz:51006.got - 2010.06.03 12:22:45.
