data_PCOD9158095
_publ_section_title
;
Structure prediction by ZEFSAII (Michael W. Deem and Ramdas Pophale) SiO2 
 PCOD9158095
Probable space group: P 21/M
;
_chemical_formula_sum "Si O2"
_cell_formula_units_Z 28
_cell_length_a 12.202991
_cell_length_b 9.004103
_cell_length_c 17.169979
_cell_angle_alpha 90.000000
_cell_angle_beta 88.875476
_cell_angle_gamma 90.000000
_cell_volume 1886.222225
_symmetry_space_group_name_H-M "P 21/M"
_symmetry_group_IT_number 11
_symmetry_cell_setting 'monoclinic'
loop_
_space_group_symop_operation_xyz
x,y,z
-x,1/2+y,-z
-x,-y,-z
x,1/2-y,z
loop_
_atom_site_type_symbol
_atom_site_label
_atom_site_fract_x
_atom_site_fract_y
_atom_site_fract_z
Si Si1 0.518817 0.424650 0.082101
Si Si2 0.999332 0.071173 0.414676
Si Si3 0.370435 0.074076 0.781914
Si Si4 0.231218 0.571955 0.656113
Si Si5 0.380058 0.572178 0.503570
Si Si6 0.411983 0.075606 0.236777
Si Si7 0.241260 0.071650 0.366382
O O1 0.539367 0.250000 0.072609
O O2 0.614045 0.500475 0.132970
O O3 0.415250 0.442540 0.143112
O O4 0.500000 0.500000 0.000000
O O5 0.995317 0.250000 0.423095
O O6 0.890159 0.027026 0.369808
O O7 0.113558 0.031181 0.371556
O O8 0.000000 0.000000 0.500000
O O9 0.366029 0.250000 0.787664
O O10 0.272358 0.008681 0.732860
O O11 0.483838 0.021374 0.738235
O O12 0.232971 0.750000 0.668122
O O13 0.315130 0.538205 0.584390
O O14 0.500000 0.500000 0.500000
O O15 0.389242 0.750000 0.497161
O O16 0.307236 0.508562 0.434130
O O17 0.437247 0.250000 0.251520
O O18 0.303135 0.037534 0.284737
O O19 0.248671 0.250000 0.378320
#
# Coordination Sequence:
#
# PCOD9158095 Si02
#       7
#     4   4   4   4   4   4   4
#     4   9  17  31  51  75 104 130 151 184 233 291
#     4  10  20  34  51  67  89 125 171 213 248 288
#     4  10  19  30  48  73  98 126 161 195 234 284
#     4  10  20  34  46  63  94 129 162 203 249 284
#     4  11  22  32  45  65  92 126 162 201 247 288
#     4   8  17  31  47  69 100 127 150 191 241 285
#     4  10  19  33  50  68  91 125 166 204 244 289
#
# _framework density 14.844486
#
# number of rings (size 3 to 8) (size 9 to 14) (size 15 to 20)
#    0.857    1.429    1.429    2.571    0.000    5.714 
#    0.000    0.000    0.000    0.000    0.000    1.000 
#    0.000    0.000    0.000    0.000    0.000    0.000 
#
# Total GULP energy -155884.597025 kJ/mol
# GULP energy per Si atom -5567.307037 kJ/mol
# Density = 1.481070 g / cm^3
# Si number density = 14.844486 Si / 1000 Ang^3
#
#
#
# Elastic Constant Matrix: (Units=GPa)
#
#
# Indices 1 2 3 4 5 6 
#
# 1 118.1886 46.0816 61.5131 0.0000 18.0276 0.0000
# 2 46.0816 54.5874 55.7921 0.0000 9.3310 0.0000
# 3 61.5131 55.7921 115.2384 0.0000 19.0705 0.0000
# 4 0.0000 0.0000 0.0000 26.0626 0.0000 5.7624
# 5 18.0276 9.3310 19.0705 0.0000 13.6089 0.0000
# 6 0.0000 0.0000 0.0000 5.7624 0.0000 17.7573
#
#
#
# Elastic Compliance Matrix: (Units=1/GPa)
#
#
# Indices 1 2 3 4 5 6 
#
# 1 0.014304 -0.008417 -0.001796 0.000000 -0.010660 0.000000
# 2 -0.008417 0.041218 -0.016444 0.000000 0.005932 0.000000
# 3 -0.001796 -0.016444 0.019969 0.000000 -0.014329 0.000000
# 4 0.000000 0.000000 0.000000 0.041335 0.000000 -0.013413
# 5 -0.010660 0.005932 -0.014329 0.000000 0.103614 0.000000
# 6 0.000000 0.000000 0.000000 -0.013413 0.000000 0.060668
#
#
# Mechanical properties :
#
#
# Convention : Reuss Voigt Hill
#
# Bulk Modulus (GPa) = 45.09389 68.30978 56.70183
# Shear Modulus (GPa) = 14.62785 19.79424 17.21104
#
# Velocity S-wave (km/s) = 3.14252 3.65559 3.40872
# Velocity P-wave (km/s) = 6.60384 7.99591 7.33299
#
# Compressibility (1/GPa) = 0.02217595
#
# Stress axis : x y z
#
# Youngs Moduli (GPa) = 69.91268 24.26135 50.07776
#
# Poissons Ratio (x) = 0.20421 0.08994
# Poissons Ratio (y) = 0.58846 0.82349
# Poissons Ratio (z) = 0.12556 0.39896
#
# Static dielectric constant tensor:
#      x y z
#    x 1.490130 0.000000 -0.012000 
#    y 0.000000 1.496970 0.000000 
#    z -0.012000 0.000000 1.482910 
# 
# From -- ./inp_files/58546.got.cif
#   From: 2010.05.17/outbox.cif.g08.bks.cpg/sg11_30_cif.got.tgz:58546.got - 2010.06.03 12:22:45.
