data_PCOD9158322
_publ_section_title
;
Structure prediction by ZEFSAII (Michael W. Deem and Ramdas Pophale) SiO2 
 PCOD9158322
Probable space group: P 21/M
;
_chemical_formula_sum "Si O2"
_cell_formula_units_Z 28
_cell_length_a 12.459822
_cell_length_b 7.519552
_cell_length_c 14.914971
_cell_angle_alpha 90.000000
_cell_angle_beta 110.626140
_cell_angle_gamma 90.000000
_cell_volume 1307.841649
_symmetry_space_group_name_H-M "P 21/M"
_symmetry_group_IT_number 11
_symmetry_cell_setting 'monoclinic'
loop_
_space_group_symop_operation_xyz
x,y,z
-x,1/2+y,-z
-x,-y,-z
x,1/2-y,z
loop_
_atom_site_type_symbol
_atom_site_label
_atom_site_fract_x
_atom_site_fract_y
_atom_site_fract_z
Si Si1 0.525402 0.037280 0.903562
Si Si2 0.362473 0.534833 0.368184
Si Si3 0.215058 0.533938 0.027443
Si Si4 0.898820 0.956133 0.194709
Si Si5 0.137462 0.967848 0.195224
Si Si6 0.622686 0.042055 0.424437
Si Si7 0.700732 0.542501 0.258415
O O1 0.529641 0.250000 0.890151
O O2 0.653418 0.973594 0.919850
O O3 0.418133 0.965016 0.815501
O O4 0.500000 0.000000 0.000000
O O5 0.361825 0.750000 0.369285
O O6 0.254611 0.476528 0.278196
O O7 0.355260 0.469896 0.469057
O O8 0.486812 0.482718 0.367509
O O9 0.214264 0.750000 0.021997
O O10 0.141998 0.478845 0.092472
O O11 0.167032 0.464876 0.919619
O O12 0.918994 0.750000 0.225236
O O13 0.813320 0.035087 0.243925
O O14 0.024465 0.033328 0.212911
O O15 0.135883 0.750000 0.195033
O O16 0.647983 0.250000 0.434374
O O17 0.694146 0.966009 0.363238
O O18 0.700000 0.750000 0.231283
#
# Coordination Sequence:
#
# PCOD9158322 Si02
#       7
#     4   4   4   4   4   4   4
#     4  10  19  31  48  71 100 134 169 206 253 300
#     4   9  18  36  58  78 104 132 164 210 260 309
#     4  10  19  31  50  74 101 135 170 210 260 301
#     4  10  20  34  52  73 100 138 179 209 242 300
#     4   9  18  34  55  75  98 134 175 210 250 305
#     4  10  20  33  55  83 104 129 166 211 260 306
#     4  10  20  34  51  73 105 142 172 204 253 305
#
# _framework density 21.409320999999998
#
# number of rings (size 3 to 8) (size 9 to 14) (size 15 to 20)
#    0.000    2.286    1.429    1.714    0.000    4.000 
#    0.000    3.571    0.000    0.000    0.000    0.000 
#    0.000    0.000    0.000    0.000    0.000    0.000 
#
# Total GULP energy -156361.062957 kJ/mol
# GULP energy per Si atom -5584.323677 kJ/mol
# Density = 2.136059 g / cm^3
# Si number density = 21.409321 Si / 1000 Ang^3
#
#
#
# Elastic Constant Matrix: (Units=GPa)
#
#
# Indices 1 2 3 4 5 6 
#
# 1 118.3325 -12.2870 47.8778 0.0000 -23.7138 0.0000
# 2 -12.2870 48.7462 -11.3466 0.0000 3.8303 0.0000
# 3 47.8778 -11.3466 64.6302 0.0000 -26.2804 0.0000
# 4 0.0000 0.0000 0.0000 18.2300 0.0000 -3.5606
# 5 -23.7138 3.8303 -26.2804 0.0000 26.9517 0.0000
# 6 0.0000 0.0000 0.0000 -3.5606 0.0000 7.4215
#
#
#
# Elastic Compliance Matrix: (Units=1/GPa)
#
#
# Indices 1 2 3 4 5 6 
#
# 1 0.012285 0.001075 -0.007587 0.000000 0.003258 0.000000
# 2 0.001075 0.021500 0.003514 0.000000 0.001316 0.000000
# 3 -0.007587 0.003514 0.031139 0.000000 0.023189 0.000000
# 4 0.000000 0.000000 0.000000 0.060526 0.000000 0.029038
# 5 0.003258 0.001316 0.023189 0.000000 0.062394 0.000000
# 6 0.000000 0.000000 0.000000 0.029038 0.000000 0.148675
#
#
# Mechanical properties :
#
#
# Convention : Reuss Voigt Hill
#
# Bulk Modulus (GPa) = 16.97043 31.13302 24.05173
# Shear Modulus (GPa) = 13.80608 24.35162 19.07885
#
# Velocity S-wave (km/s) = 2.54217 3.37624 2.98845
# Velocity P-wave (km/s) = 4.06948 5.45638 4.81315
#
# Compressibility (1/GPa) = 0.05892602
#
# Stress axis : x y z
#
# Youngs Moduli (GPa) = 81.39933 46.51224 32.11381
#
# Poissons Ratio (x) = -0.04998 0.24365
# Poissons Ratio (y) = -0.08746 -0.11284
# Poissons Ratio (z) = 0.61759 -0.16343
#
# Static dielectric constant tensor:
#      x y z
#    x 1.779240 0.000000 0.000600 
#    y 0.000000 1.808500 0.000000 
#    z 0.000600 0.000000 1.738690 
# 
# From -- ./inp_files/37426.got.cif
#   From: 2010.05.17/outbox.cif.g08.bks.cpg/sg11_19_cif.got.tgz:37426.got - 2010.06.03 12:22:45.
