data_PCOD9158910
_publ_section_title
;
Structure prediction by ZEFSAII (Michael W. Deem and Ramdas Pophale) SiO2 
 PCOD9158910
Probable space group: P 21/M
;
_chemical_formula_sum "Si O2"
_cell_formula_units_Z 28
_cell_length_a 33.016315
_cell_length_b 7.538314
_cell_length_c 10.095793
_cell_angle_alpha 90.000000
_cell_angle_beta 33.013815
_cell_angle_gamma 90.000000
_cell_volume 1369.030837
_symmetry_space_group_name_H-M "P 21/M"
_symmetry_group_IT_number 11
_symmetry_cell_setting 'monoclinic'
loop_
_space_group_symop_operation_xyz
x,y,z
-x,1/2+y,-z
-x,-y,-z
x,1/2-y,z
loop_
_atom_site_type_symbol
_atom_site_label
_atom_site_fract_x
_atom_site_fract_y
_atom_site_fract_z
Si Si1 0.001018 0.536786 0.654068
Si Si2 0.546959 0.963044 0.000241
Si Si3 0.869701 0.536107 0.204957
Si Si4 0.299916 0.534350 0.037524
Si Si5 0.132267 0.537824 0.482321
Si Si6 0.703191 0.542608 0.648020
Si Si7 0.548969 0.037709 0.494084
O O1 0.001061 0.750000 0.665843
O O2 0.000000 0.500000 0.500000
O O3 0.073363 0.470077 0.536356
O O4 0.929383 0.472258 0.933910
O O5 0.553554 0.750000 0.999318
O O6 0.497765 0.034844 0.255706
O O7 0.631549 0.032780 0.769260
O O8 0.500000 0.000000 0.000000
O O9 0.867417 0.750000 0.203577
O O10 0.889243 0.496120 0.304968
O O11 0.786207 0.466406 0.405895
O O12 0.299564 0.750000 0.039910
O O13 0.216765 0.472237 0.230863
O O14 0.315346 0.473389 0.145175
O O15 0.367152 0.472731 0.760358
O O16 0.134823 0.750000 0.460807
O O17 0.709547 0.750000 0.595365
O O18 0.554823 0.250000 0.494670
O O19 0.500000 0.000000 0.500000
#
# Coordination Sequence:
#
# PCOD9158910 Si02
#       7
#     4   4   4   4   4   4   4
#     4  10  21  36  52  74 105 136 165 201 246 295
#     4  10  21  35  49  70 101 135 169 205 246 293
#     4   9  18  33  55  78  99 128 166 207 248 292
#     4   9  17  30  51  77 101 125 160 207 251 291
#     4   9  18  33  53  77 103 129 163 205 247 293
#     4   9  17  32  52  73 100 129 163 206 248 291
#     4  10  19  32  52  75  99 129 166 206 248 293
#
# _framework density 20.452424000000001
#
# number of rings (size 3 to 8) (size 9 to 14) (size 15 to 20)
#    0.000    2.571    1.429    0.429    0.000    2.286 
#    2.571    0.000    0.000    0.000    0.000    0.000 
#    0.000    0.000    0.000    0.000    0.000    0.000 
#
# Total GULP energy -156162.021333 kJ/mol
# GULP energy per Si atom -5577.215048 kJ/mol
# Density = 2.040587 g / cm^3
# Si number density = 20.452424 Si / 1000 Ang^3
#
#
#
# Elastic Constant Matrix: (Units=GPa)
#
#
# Indices 1 2 3 4 5 6 
#
# 1 181.8125 -5.2785 100.2816 0.0000 -15.5973 0.0000
# 2 -5.2785 50.0317 -0.5645 0.0000 -6.2691 0.0000
# 3 100.2816 -0.5645 137.3119 0.0000 -11.6702 0.0000
# 4 0.0000 0.0000 0.0000 9.5294 0.0000 7.5483
# 5 -15.5973 -6.2691 -11.6702 0.0000 28.5367 0.0000
# 6 0.0000 0.0000 0.0000 7.5483 0.0000 20.9938
#
#
#
# Elastic Compliance Matrix: (Units=1/GPa)
#
#
# Indices 1 2 3 4 5 6 
#
# 1 0.009444 0.001261 -0.006661 0.000000 0.002715 0.000000
# 2 0.001261 0.020753 -0.000404 0.000000 0.005083 0.000000
# 3 -0.006661 -0.000404 0.012255 0.000000 0.001282 0.000000
# 4 0.000000 0.000000 0.000000 0.146725 0.000000 -0.052754
# 5 0.002715 0.005083 0.001282 0.000000 0.038167 0.000000
# 6 0.000000 0.000000 0.000000 -0.052754 0.000000 0.066601
#
#
# Mechanical properties :
#
#
# Convention : Reuss Voigt Hill
#
# Bulk Modulus (GPa) = 32.42106 62.00372 47.21239
# Shear Modulus (GPa) = 15.83118 30.12648 22.97883
#
# Velocity S-wave (km/s) = 2.78519 3.84214 3.35554
# Velocity P-wave (km/s) = 5.12147 7.07563 6.17632
#
# Compressibility (1/GPa) = 0.03084415
#
# Stress axis : x y z
#
# Youngs Moduli (GPa) = 105.89124 48.18629 81.60164
#
# Poissons Ratio (x) = -0.06078 0.54355
# Poissons Ratio (y) = -0.13356 0.03295
# Poissons Ratio (z) = 0.70534 0.01946
#
# Static dielectric constant tensor:
#      x y z
#    x 1.421550 0.000000 -0.117400 
#    y 0.000000 1.750550 0.000000 
#    z -0.117400 0.000000 1.723270 
# 
# From -- ./inp_files/26362.got.cif
#   From: 2010.05.17/outbox.cif.g08.bks.cpg/sg11_14_cif.got.tgz:26362.got - 2010.06.03 12:22:45.
