data_PCOD9158564
_publ_section_title
;
Structure prediction by ZEFSAII (Michael W. Deem and Ramdas Pophale) SiO2 
 PCOD9158564
Probable space group: P 21/M
;
_chemical_formula_sum "Si O2"
_cell_formula_units_Z 32
_cell_length_a 23.927934
_cell_length_b 8.570344
_cell_length_c 12.870769
_cell_angle_alpha 90.000000
_cell_angle_beta 43.949835
_cell_angle_gamma 90.000000
_cell_volume 1831.829826
_symmetry_space_group_name_H-M "P 21/M"
_symmetry_group_IT_number 11
_symmetry_cell_setting 'monoclinic'
loop_
_space_group_symop_operation_xyz
x,y,z
-x,1/2+y,-z
-x,-y,-z
x,1/2-y,z
loop_
_atom_site_type_symbol
_atom_site_label
_atom_site_fract_x
_atom_site_fract_y
_atom_site_fract_z
Si Si1 0.190838 0.938864 0.675867
Si Si2 0.982863 0.062284 0.138125
Si Si3 0.843935 0.937327 0.046267
Si Si4 0.324490 0.938614 0.334194
Si Si5 0.462576 0.936757 0.655291
Si Si6 0.719620 0.436551 0.045022
Si Si7 0.675897 0.936793 0.885438
Si Si8 0.504027 0.062089 0.818139
O O1 0.192045 0.750000 0.683615
O O2 0.268366 0.987243 0.505744
O O3 0.109749 0.984517 0.720190
O O4 0.184173 0.005569 0.801447
O O5 0.983807 0.250000 0.136792
O O6 0.062281 0.012086 0.094680
O O7 0.000000 0.000000 0.000000
O O8 0.840545 0.750000 0.050164
O O9 0.787199 0.002229 0.032368
O O10 0.324137 0.750000 0.331756
O O11 0.416403 0.993281 0.229172
O O12 0.293974 0.000976 0.264956
O O13 0.467514 0.750000 0.651642
O O14 0.368639 0.982187 0.792704
O O15 0.500000 0.000000 0.500000
O O16 0.507494 0.007358 0.694638
O O17 0.722857 0.250000 0.036150
O O18 0.722619 0.502790 0.924200
O O19 0.676285 0.750000 0.885520
O O20 0.582487 0.992686 0.023240
O O21 0.503651 0.250000 0.821732
#
# Coordination Sequence:
#
# PCOD9158564 Si02
#       8
#     4   4   4   4   4   4   4   4
#     4   9  18  32  50  75 106 137 166 198 247 304
#     4   8  15  29  48  71 101 134 163 197 244 297
#     4  10  19  31  51  78 105 131 165 208 249 295
#     4  10  20  33  52  75 101 132 167 208 248 296
#     4  10  21  34  49  69  98 134 166 203 249 296
#     4  10  21  36  53  72  97 132 171 206 247 301
#     4  10  20  35  53  72  98 131 170 214 253 289
#     4   9  19  34  50  71  98 131 170 207 245 291
#
# _framework density 17.468871
#
# number of rings (size 3 to 8) (size 9 to 14) (size 15 to 20)
#    0.000    2.500    0.000    1.875    1.750    3.500 
#    0.000    0.000    0.000    0.750    0.000    0.000 
#    0.000    0.000    0.000    0.000    0.000    0.000 
#
# Total GULP energy -178360.811485 kJ/mol
# GULP energy per Si atom -5573.775359 kJ/mol
# Density = 1.742911 g / cm^3
# Si number density = 17.468871 Si / 1000 Ang^3
#
#
#
# Elastic Constant Matrix: (Units=GPa)
#
#
# Indices 1 2 3 4 5 6 
#
# 1 140.7556 21.1698 37.9842 0.0000 2.1440 0.0000
# 2 21.1698 12.2184 9.4507 0.0000 -2.0125 0.0000
# 3 37.9842 9.4507 41.6899 0.0000 7.7068 0.0000
# 4 0.0000 0.0000 0.0000 20.0724 0.0000 5.9232
# 5 2.1440 -2.0125 7.7068 0.0000 18.7988 0.0000
# 6 0.0000 0.0000 0.0000 5.9232 0.0000 27.4371
#
#
#
# Elastic Compliance Matrix: (Units=1/GPa)
#
#
# Indices 1 2 3 4 5 6 
#
# 1 0.011051 -0.013725 -0.006982 0.000000 0.000133 0.000000
# 2 -0.013725 0.125007 -0.020121 0.000000 0.023197 0.000000
# 3 -0.006982 -0.020121 0.038043 0.000000 -0.016954 0.000000
# 4 0.000000 0.000000 0.000000 0.053209 0.000000 -0.011487
# 5 0.000133 0.023197 -0.016954 0.000000 0.062614 0.000000
# 6 0.000000 0.000000 0.000000 -0.011487 0.000000 0.038927
#
#
# Mechanical properties :
#
#
# Convention : Reuss Voigt Hill
#
# Bulk Modulus (GPa) = 10.81718 36.87481 23.84600
# Shear Modulus (GPa) = 11.32963 21.66561 16.49762
#
# Velocity S-wave (km/s) = 2.54945 3.52553 3.07644
# Velocity P-wave (km/s) = 3.85642 6.14224 5.12831
#
# Compressibility (1/GPa) = 0.09244553
#
# Stress axis : x y z
#
# Youngs Moduli (GPa) = 90.49131 7.99957 26.28592
#
# Poissons Ratio (x) = 0.10979 0.18352
# Poissons Ratio (y) = 1.24195 0.52890
# Poissons Ratio (z) = 0.63179 0.16096
#
# Static dielectric constant tensor:
#      x y z
#    x 1.605380 0.000000 -0.038290 
#    y 0.000000 1.587490 0.000000 
#    z -0.038290 0.000000 1.588840 
# 
# From -- ./inp_files/42768.got.cif
#   From: 2010.05.17/outbox.cif.g08.bks.cpg/sg11_22_cif.got.tgz:42768.got - 2010.06.03 12:22:45.
