data_PCOD9158115
_publ_section_title
;
Structure prediction by ZEFSAII (Michael W. Deem and Ramdas Pophale) SiO2 
 PCOD9158115
Probable space group: P 21/M
;
_chemical_formula_sum "Si O2"
_cell_formula_units_Z 32
_cell_length_a 18.120445
_cell_length_b 7.704151
_cell_length_c 24.370296
_cell_angle_alpha 90.000000
_cell_angle_beta 28.411410
_cell_angle_gamma 90.000000
_cell_volume 1618.744539
_symmetry_space_group_name_H-M "P 21/M"
_symmetry_group_IT_number 11
_symmetry_cell_setting 'monoclinic'
loop_
_space_group_symop_operation_xyz
x,y,z
-x,1/2+y,-z
-x,-y,-z
x,1/2-y,z
loop_
_atom_site_type_symbol
_atom_site_label
_atom_site_fract_x
_atom_site_fract_y
_atom_site_fract_z
Si Si1 0.334056 0.039020 0.846900
Si Si2 0.848705 0.957977 0.135176
Si Si3 0.030841 0.545062 0.116639
Si Si4 0.871548 0.953797 0.829404
Si Si5 0.223666 0.050021 0.310957
Si Si6 0.023354 0.963939 0.617774
Si Si7 0.525073 0.541967 0.047450
Si Si8 0.320560 0.951022 0.365466
O O1 0.330289 0.250000 0.851583
O O2 0.290224 0.982243 0.813376
O O3 0.505473 0.975172 0.750280
O O4 0.196096 0.983081 0.977882
O O5 0.833714 0.750000 0.149595
O O6 0.895759 0.025439 0.164526
O O7 0.000000 0.000000 0.000000
O O8 0.008525 0.750000 0.136496
O O9 0.039093 0.471427 0.172093
O O10 0.849327 0.750000 0.832521
O O11 0.959126 0.023586 0.718571
O O12 0.696779 0.023747 0.950371
O O13 0.186029 0.250000 0.347364
O O14 0.094968 0.981487 0.352946
O O15 0.387802 0.039115 0.172425
O O16 0.242948 0.958367 0.356387
O O17 0.024125 0.750000 0.616992
O O18 0.195447 0.025020 0.489738
O O19 0.516128 0.750000 0.061884
O O20 0.500000 0.500000 0.000000
O O21 0.341695 0.750000 0.367034
#
# Coordination Sequence:
#
# PCOD9158115 Si02
#       8
#     4   4   4   4   4   4   4   4
#     4   9  17  31  51  74  99 128 158 194 241 292
#     4   8  15  28  46  70 100 127 153 188 237 290
#     4  10  19  30  48  76 103 127 156 195 240 291
#     4  10  20  35  51  68  96 132 164 198 239 287
#     4  11  21  35  52  72 100 130 162 204 252 292
#     4   9  19  36  52  67  93 130 170 207 241 285
#     4  11  21  34  52  73  98 128 162 200 244 290
#     4  10  20  34  53  74  94 124 169 210 243 286
#
# _framework density 19.768405999999999
#
# number of rings (size 3 to 8) (size 9 to 14) (size 15 to 20)
#    0.000    2.250    1.250    2.250    0.000    5.000 
#    0.000    1.250    0.000    0.750    0.000    0.000 
#    0.000    0.000    0.000    0.000    0.000    0.625 
#
# Total GULP energy -178489.076630 kJ/mol
# GULP energy per Si atom -5577.783645 kJ/mol
# Density = 1.972341 g / cm^3
# Si number density = 19.768406 Si / 1000 Ang^3
#
#
#
# Elastic Constant Matrix: (Units=GPa)
#
#
# Indices 1 2 3 4 5 6 
#
# 1 104.5548 -12.0959 19.6900 0.0000 -0.3697 0.0000
# 2 -12.0959 31.1832 -5.4946 0.0000 -6.1383 0.0000
# 3 19.6900 -5.4946 68.2767 0.0000 2.0331 0.0000
# 4 0.0000 0.0000 0.0000 8.1615 0.0000 1.3293
# 5 -0.3697 -6.1383 2.0331 0.0000 7.6191 0.0000
# 6 0.0000 0.0000 0.0000 1.3293 0.0000 19.6546
#
#
#
# Elastic Compliance Matrix: (Units=1/GPa)
#
#
# Indices 1 2 3 4 5 6 
#
# 1 0.010652 0.004613 -0.002849 0.000000 0.004994 0.000000
# 2 0.004613 0.040432 0.000954 0.000000 0.032543 0.000000
# 3 -0.002849 0.000954 0.015650 0.000000 -0.003546 0.000000
# 4 0.000000 0.000000 0.000000 0.123891 0.000000 -0.008379
# 5 0.004994 0.032543 -0.003546 0.000000 0.158657 0.000000
# 6 0.000000 0.000000 0.000000 -0.008379 0.000000 0.051445
#
#
# Mechanical properties :
#
#
# Convention : Reuss Voigt Hill
#
# Bulk Modulus (GPa) = 13.85606 23.13486 18.49546
# Shear Modulus (GPa) = 11.92325 20.54804 16.23565
#
# Velocity S-wave (km/s) = 2.45857 3.22753 2.86893
# Velocity P-wave (km/s) = 3.88379 5.06139 4.51118
#
# Compressibility (1/GPa) = 0.07217060
#
# Stress axis : x y z
#
# Youngs Moduli (GPa) = 93.87642 24.73280 63.89608
#
# Poissons Ratio (x) = -0.11409 0.18207
# Poissons Ratio (y) = -0.43304 -0.06098
# Poissons Ratio (z) = 0.26750 -0.02361
#
# Static dielectric constant tensor:
#      x y z
#    x 1.724800 0.000000 -0.018770 
#    y 0.000000 1.738620 0.000000 
#    z -0.018770 0.000000 1.685400 
# 
# From -- ./inp_files/69428.got.cif
#   From: 2010.05.17/outbox.cif.g08.bks.cpg/sg11_35_cif.got.tgz:69428.got - 2010.06.03 12:22:45.
