data_PCOD9158227
_publ_section_title
;
Structure prediction by ZEFSAII (Michael W. Deem and Ramdas Pophale) SiO2 
 PCOD9158227
Probable space group: P 21/M
;
_chemical_formula_sum "Si O2"
_cell_formula_units_Z 32
_cell_length_a 11.654837
_cell_length_b 8.929997
_cell_length_c 21.799611
_cell_angle_alpha 90.000000
_cell_angle_beta 117.088133
_cell_angle_gamma 90.000000
_cell_volume 2019.975565
_symmetry_space_group_name_H-M "P 21/M"
_symmetry_group_IT_number 11
_symmetry_cell_setting 'monoclinic'
loop_
_space_group_symop_operation_xyz
x,y,z
-x,1/2+y,-z
-x,-y,-z
x,1/2-y,z
loop_
_atom_site_type_symbol
_atom_site_label
_atom_site_fract_x
_atom_site_fract_y
_atom_site_fract_z
Si Si1 0.505265 0.070465 0.267900
Si Si2 0.639545 0.069140 0.017857
Si Si3 0.300391 0.929684 0.460395
Si Si4 0.276238 0.074927 0.842921
Si Si5 0.462165 0.069400 0.395030
Si Si6 0.424002 0.923714 0.128089
Si Si7 0.015486 0.569687 0.436550
Si Si8 0.795874 0.429909 0.298255
O O1 0.500559 0.250000 0.266580
O O2 0.463619 0.017251 0.325056
O O3 0.654702 0.029235 0.291271
O O4 0.420716 0.012061 0.190652
O O5 0.633666 0.250000 0.020493
O O6 0.731959 0.002799 0.092599
O O7 0.660350 0.028071 0.951395
O O8 0.500000 0.000000 0.000000
O O9 0.306095 0.750000 0.455437
O O10 0.403575 0.971958 0.538407
O O11 0.156550 0.970729 0.444782
O O12 0.349734 0.003374 0.409783
O O13 0.242536 0.250000 0.837973
O O14 0.427081 0.065995 0.858934
O O15 0.201153 0.990889 0.770566
O O16 0.454083 0.250000 0.393359
O O17 0.396961 0.750000 0.133603
O O18 0.006879 0.750000 0.437663
O O19 0.000000 0.500000 0.500000
O O20 0.905614 0.504435 0.365818
O O21 0.806739 0.250000 0.301742
#
# Coordination Sequence:
#
# PCOD9158227 Si02
#       8
#     4   4   4   4   4   4   4   4
#     4   9  17  28  43  63  89 119 148 182 223 264
#     4   9  15  23  35  53  79 113 150 186 223 262
#     4   9  19  34  49  66  88 114 145 183 224 264
#     4   9  16  26  39  57  82 114 151 186 221 263
#     4   9  17  31  49  67  87 112 145 183 222 265
#     4   8  15  24  35  55  83 113 147 183 216 259
#     4  11  22  35  50  68  92 119 149 184 222 264
#     4  10  19  31  46  65  91 121 152 185 223 266
#
# _framework density 15.841775
#
# number of rings (size 3 to 8) (size 9 to 14) (size 15 to 20)
#    0.000    2.750    0.000    3.000    0.000    7.500 
#    0.000    2.500    0.000    0.000    0.000    0.000 
#    0.000    1.000    0.000    3.250    0.000    5.625 
#
# Total GULP energy -178225.269120 kJ/mol
# GULP energy per Si atom -5569.539660 kJ/mol
# Density = 1.580572 g / cm^3
# Si number density = 15.841775 Si / 1000 Ang^3
#
#
#
# Elastic Constant Matrix: (Units=GPa)
#
#
# Indices 1 2 3 4 5 6 
#
# 1 64.5622 32.1721 63.4272 0.0000 -16.2798 0.0000
# 2 32.1721 45.1725 52.7690 0.0000 -8.3134 0.0000
# 3 63.4272 52.7690 167.7010 0.0000 -27.8271 0.0000
# 4 0.0000 0.0000 0.0000 32.8481 0.0000 -3.2861
# 5 -16.2798 -8.3134 -27.8271 0.0000 21.8875 0.0000
# 6 0.0000 0.0000 0.0000 -3.2861 0.0000 18.0744
#
#
#
# Elastic Compliance Matrix: (Units=1/GPa)
#
#
# Indices 1 2 3 4 5 6 
#
# 1 0.030026 -0.012998 -0.005551 0.000000 0.010339 0.000000
# 2 -0.012998 0.040644 -0.008765 0.000000 -0.005373 0.000000
# 3 -0.005551 -0.008765 0.012145 0.000000 0.007983 0.000000
# 4 0.000000 0.000000 0.000000 0.031007 0.000000 0.005637
# 5 0.010339 -0.005373 0.007983 0.000000 0.061487 0.000000
# 6 0.000000 0.000000 0.000000 0.005637 0.000000 0.056352
#
#
# Mechanical properties :
#
#
# Convention : Reuss Voigt Hill
#
# Bulk Modulus (GPa) = 35.47520 63.79692 49.63606
# Shear Modulus (GPa) = 16.90991 23.16649 20.03820
#
# Velocity S-wave (km/s) = 3.27069 3.82824 3.56040
# Velocity P-wave (km/s) = 6.05849 7.73946 6.94999
#
# Compressibility (1/GPa) = 0.02818871
#
# Stress axis : x y z
#
# Youngs Moduli (GPa) = 33.30420 24.60373 82.33811
#
# Poissons Ratio (x) = 0.31979 0.45705
# Poissons Ratio (y) = 0.43288 0.72168
# Poissons Ratio (z) = 0.18487 0.21565
#
# Static dielectric constant tensor:
#      x y z
#    x 1.507130 0.000000 -0.007970 
#    y 0.000000 1.531300 0.000000 
#    z -0.007970 0.000000 1.555960 
# 
# From -- ./inp_files/43767.got.cif
#   From: 2010.05.17/outbox.cif.g08.bks.cpg/sg11_22_cif.got.tgz:43767.got - 2010.06.03 12:22:45.
