data_PCOD9158416
_publ_section_title
;
Structure prediction by ZEFSAII (Michael W. Deem and Ramdas Pophale) SiO2 
 PCOD9158416
Probable space group: P 21/M
;
_chemical_formula_sum "Si O2"
_cell_formula_units_Z 20
_cell_length_a 23.794117
_cell_length_b 8.380190
_cell_length_c 16.752569
_cell_angle_alpha 90.000000
_cell_angle_beta 160.543419
_cell_angle_gamma 90.000000
_cell_volume 1112.678331
_symmetry_space_group_name_H-M "P 21/M"
_symmetry_group_IT_number 11
_symmetry_cell_setting 'monoclinic'
loop_
_space_group_symop_operation_xyz
x,y,z
-x,1/2+y,-z
-x,-y,-z
x,1/2-y,z
loop_
_atom_site_type_symbol
_atom_site_label
_atom_site_fract_x
_atom_site_fract_y
_atom_site_fract_z
Si Si1 0.766068 0.942572 0.870631
Si Si2 0.451054 0.441332 0.738626
Si Si3 0.454570 0.559346 0.563083
Si Si4 0.133522 0.943498 0.417392
Si Si5 0.340972 0.942341 0.839186
O O1 0.767912 0.750000 0.874139
O O2 0.622718 0.997257 0.741366
O O3 0.703324 0.997039 0.699850
O O4 0.951086 0.999479 0.143704
O O5 0.450219 0.250000 0.735838
O O6 0.454908 0.504274 0.654365
O O7 0.282556 0.498304 0.558867
O O8 0.611697 0.495729 0.008023
O O9 0.452507 0.750000 0.557974
O O10 0.134149 0.750000 0.416417
O O11 0.181225 0.994342 0.572098
O O12 0.338398 0.750000 0.837013
O O13 0.500000 0.000000 0.000000
#
# Coordination Sequence:
#
# PCOD9158416 Si02
#       5
#     4   4   4   4   4
#     4   9  19  35  53  71  93 124 161 200 241 284
#     4  10  19  31  49  74 101 127 158 194 233 281
#     4  10  20  34  51  70  95 128 162 196 238 285
#     4   9  17  32  53  74  96 123 158 199 240 280
#     4   8  15  28  47  70  96 125 154 189 234 280
#
# _framework density 17.974647999999998
#
# number of rings (size 3 to 8) (size 9 to 14) (size 15 to 20)
#    0.000    2.800    0.000    1.200    0.000    3.200 
#    0.000    1.000    0.000    0.000    0.000    0.000 
#    0.000    0.000    0.000    0.000    0.000    0.000 
#
# Total GULP energy -111390.538043 kJ/mol
# GULP energy per Si atom -5569.526902 kJ/mol
# Density = 1.793374 g / cm^3
# Si number density = 17.974648 Si / 1000 Ang^3
#
#
#
# Elastic Constant Matrix: (Units=GPa)
#
#
# Indices 1 2 3 4 5 6 
#
# 1 73.7520 8.0688 111.7808 0.0000 -23.6940 0.0000
# 2 8.0688 10.2318 21.0010 0.0000 -3.1403 0.0000
# 3 111.7808 21.0010 78.0022 0.0000 -78.6955 0.0000
# 4 0.0000 0.0000 0.0000 8.1117 0.0000 16.1288
# 5 -23.6940 -3.1403 -78.6955 0.0000 14.1436 0.0000
# 6 0.0000 0.0000 0.0000 16.1288 0.0000 -7.3327
#
#
#
# Elastic Compliance Matrix: (Units=1/GPa)
#
#
# Indices 1 2 3 4 5 6 
#
# 1 0.029016 -0.007919 -0.001695 0.000000 0.037422 0.000000
# 2 -0.007919 0.106663 0.001487 0.000000 0.018691 0.000000
# 3 -0.001695 0.001487 -0.002670 0.000000 -0.017364 0.000000
# 4 0.000000 0.000000 0.000000 0.022942 0.000000 0.050463
# 5 0.037422 0.018691 -0.017364 0.000000 0.040933 0.000000
# 6 0.000000 0.000000 0.000000 0.050463 0.000000 -0.025379
#
#
# Mechanical properties :
#
#
# Convention : Reuss Voigt Hill
#
# Bulk Modulus (GPa) = 8.56479 49.29858 28.93168
# Shear Modulus (GPa) = 22.05793 4.39355 13.22574
#
# Velocity S-wave (km/s) = 3.50690 1.56512 2.71551
# Velocity P-wave (km/s) = 4.60142 5.54549 5.09536
#
# Compressibility (1/GPa) = 0.11675709
#
# Stress axis : x y z
#
# Youngs Moduli (GPa) = 34.46343 9.37534 -374.55807
#
# Poissons Ratio (x) = 0.07424 -0.63473
# Poissons Ratio (y) = 0.27290 0.55701
# Poissons Ratio (z) = 0.05840 -0.01394
#
# Static dielectric constant tensor:
#      x y z
#    x 1.584230 0.000000 -0.022640 
#    y 0.000000 1.611040 0.000000 
#    z -0.022640 0.000000 1.653370 
# 
# From -- ./inp_files/16021.got.cif
#   From: 2010.05.17/outbox.cif.g08.bks.cpg/sg11_9_cif.got.tgz:16021.got - 2010.06.03 12:22:45.
