data_PCOD9158170
_publ_section_title
;
Structure prediction by ZEFSAII (Michael W. Deem and Ramdas Pophale) SiO2 
 PCOD9158170
Probable space group: P 21/M
;
_chemical_formula_sum "Si O2"
_cell_formula_units_Z 32
_cell_length_a 13.487508
_cell_length_b 7.804141
_cell_length_c 14.406053
_cell_angle_alpha 90.000000
_cell_angle_beta 94.246476
_cell_angle_gamma 90.000000
_cell_volume 1512.195497
_symmetry_space_group_name_H-M "P 21/M"
_symmetry_group_IT_number 11
_symmetry_cell_setting 'monoclinic'
loop_
_space_group_symop_operation_xyz
x,y,z
-x,1/2+y,-z
-x,-y,-z
x,1/2-y,z
loop_
_atom_site_type_symbol
_atom_site_label
_atom_site_fract_x
_atom_site_fract_y
_atom_site_fract_z
Si Si1 0.190165 0.959759 0.375014
Si Si2 0.645855 0.545644 0.246786
Si Si3 0.731309 0.039278 0.811281
Si Si4 0.102081 0.559374 0.051884
Si Si5 0.165116 0.043904 0.869335
Si Si6 0.214828 0.952178 0.584561
Si Si7 0.971481 0.952671 0.301171
Si Si8 0.469331 0.543045 0.103754
O O1 0.188895 0.750000 0.376143
O O2 0.263812 0.008934 0.296430
O O3 0.219468 0.018464 0.479786
O O4 0.077487 0.018802 0.343238
O O5 0.635068 0.750000 0.255398
O O6 0.738124 0.511993 0.184765
O O7 0.685595 0.481782 0.348556
O O8 0.549459 0.479962 0.185812
O O9 0.731775 0.250000 0.815460
O O10 0.834580 0.973807 0.863207
O O11 0.638185 0.982827 0.866872
O O12 0.082062 0.750000 0.083353
O O13 0.172787 0.550053 0.966993
O O14 0.000000 0.500000 0.000000
O O15 0.157821 0.250000 0.884510
O O16 0.071643 0.982785 0.800359
O O17 0.197441 0.750000 0.579708
O O18 0.118483 0.024861 0.631919
O O19 0.984173 0.750000 0.289126
O O20 0.469518 0.750000 0.107575
O O21 0.500000 0.500000 0.000000
#
# Coordination Sequence:
#
# PCOD9158170 Si02
#       8
#     4   4   4   4   4   4   4   4
#     4   9  17  31  50  72 101 137 175 213 253 300
#     4   9  19  35  53  74 102 134 164 200 255 313
#     4   9  19  35  53  74 100 133 172 207 248 306
#     4  11  21  32  49  72 100 134 167 201 244 296
#     4   9  17  30  48  70  98 131 164 201 247 299
#     4  10  19  30  50  78 103 132 174 220 254 287
#     4   9  17  31  51  73 103 141 172 205 255 310
#     4  10  20  36  60  83 102 130 167 209 256 305
#
# _framework density 21.161283999999998
#
# number of rings (size 3 to 8) (size 9 to 14) (size 15 to 20)
#    0.000    2.500    0.000    3.375    0.000    4.500 
#    0.000    1.875    0.000    5.250    0.000    0.000 
#    0.000    0.000    0.000    0.000    0.000    0.000 
#
# Total GULP energy -178456.732165 kJ/mol
# GULP energy per Si atom -5576.772880 kJ/mol
# Density = 2.111312 g / cm^3
# Si number density = 21.161284 Si / 1000 Ang^3
#
#
#
# Elastic Constant Matrix: (Units=GPa)
#
#
# Indices 1 2 3 4 5 6 
#
# 1 107.3973 9.2113 55.1098 0.0000 9.6627 0.0000
# 2 9.2113 9.7458 -1.8580 0.0000 3.9515 0.0000
# 3 55.1098 -1.8580 159.3457 0.0000 0.6983 0.0000
# 4 0.0000 0.0000 0.0000 16.8968 0.0000 -1.2215
# 5 9.6627 3.9515 0.6983 0.0000 28.0415 0.0000
# 6 0.0000 0.0000 0.0000 -1.2215 0.0000 12.3573
#
#
#
# Elastic Compliance Matrix: (Units=1/GPa)
#
#
# Indices 1 2 3 4 5 6 
#
# 1 0.012946 -0.012040 -0.004606 0.000000 -0.002650 0.000000
# 2 -0.012040 0.120308 0.005623 0.000000 -0.012945 0.000000
# 3 -0.004606 0.005623 0.007932 0.000000 0.000597 0.000000
# 4 0.000000 0.000000 0.000000 0.059609 0.000000 0.005892
# 5 -0.002650 -0.012945 0.000597 0.000000 0.038384 0.000000
# 6 0.000000 0.000000 0.000000 0.005892 0.000000 0.081507
#
#
# Mechanical properties :
#
#
# Convention : Reuss Voigt Hill
#
# Bulk Modulus (GPa) = 8.39343 44.60168 26.49756
# Shear Modulus (GPa) = 13.07387 25.72749 19.40068
#
# Velocity S-wave (km/s) = 2.48830 3.49059 3.03116
# Velocity P-wave (km/s) = 3.49721 6.11297 4.97990
#
# Compressibility (1/GPa) = 0.11914074
#
# Stress axis : x y z
#
# Youngs Moduli (GPa) = 77.24524 8.31202 126.07758
#
# Poissons Ratio (x) = 0.10007 0.58072
# Poissons Ratio (y) = 0.92999 -0.70898
# Poissons Ratio (z) = 0.35580 -0.04674
#
# Static dielectric constant tensor:
#      x y z
#    x 1.793990 0.000000 0.006060 
#    y 0.000000 1.807790 0.000000 
#    z 0.006060 0.000000 1.780780 
# 
# From -- ./inp_files/49301.got.cif
#   From: 2010.05.17/outbox.cif.g08.bks.cpg/sg11_25_cif.got.tgz:49301.got - 2010.06.03 12:22:45.
