data_PCOD9158130
_publ_section_title
;
Structure prediction by ZEFSAII (Michael W. Deem and Ramdas Pophale) SiO2 
 PCOD9158130
Probable space group: P 21/M
;
_chemical_formula_sum "Si O2"
_cell_formula_units_Z 28
_cell_length_a 10.070728
_cell_length_b 16.214707
_cell_length_c 11.748388
_cell_angle_alpha 90.000000
_cell_angle_beta 141.900567
_cell_angle_gamma 90.000000
_cell_volume 1183.731451
_symmetry_space_group_name_H-M "P 21/M"
_symmetry_group_IT_number 11
_symmetry_cell_setting 'monoclinic'
loop_
_space_group_symop_operation_xyz
x,y,z
-x,1/2+y,-z
-x,-y,-z
x,1/2-y,z
loop_
_atom_site_type_symbol
_atom_site_label
_atom_site_fract_x
_atom_site_fract_y
_atom_site_fract_z
Si Si1 0.197692 0.662918 0.529745
Si Si2 0.422123 0.897963 0.888946
Si Si3 0.770033 0.979558 0.957107
Si Si4 0.649778 0.656812 0.710647
Si Si5 0.153056 0.339150 0.392572
Si Si6 0.316733 0.841296 0.049105
Si Si7 0.015878 0.999782 0.679383
O O1 0.092422 0.750000 0.430783
O O2 0.291586 0.663839 0.720223
O O3 0.403962 0.650769 0.586435
O O4 0.051035 0.584116 0.420387
O O5 0.471180 0.858088 0.044224
O O6 0.605047 0.932142 0.930416
O O7 0.251184 0.970293 0.799744
O O8 0.976868 0.986898 0.178791
O O9 0.689564 0.073817 0.882589
O O10 0.780338 0.917741 0.858092
O O11 0.725674 0.750000 0.796060
O O12 0.675239 0.653298 0.592602
O O13 0.175735 0.250000 0.465863
O O14 0.143057 0.423655 0.455195
O O15 0.920763 0.338044 0.170674
O O16 0.353005 0.750000 0.124116
#
# Coordination Sequence:
#
# PCOD9158130 Si02
#       7
#     4   4   4   4   4   4   4
#     4  10  20  32  47  68  96 126 155 189 230 276
#     4   9  17  33  49  66  93 128 159 186 225 278
#     4   9  18  31  49  71  95 121 153 192 231 274
#     4   9  18  33  51  68  90 124 159 188 226 279
#     4   8  16  31  50  70  90 119 158 191 226 277
#     4   9  16  27  47  71  94 120 153 193 230 270
#     4  10  19  30  49  73  96 119 151 197 236 266
#
# _framework density 23.654012000000002
#
# number of rings (size 3 to 8) (size 9 to 14) (size 15 to 20)
#    0.000    3.143    0.000    2.571    0.000    4.571 
#    0.000    2.143    0.000    4.286    0.000    0.000 
#    0.000    0.000    0.000    0.000    0.000    0.000 
#
# Total GULP energy -156140.243031 kJ/mol
# GULP energy per Si atom -5576.437251 kJ/mol
# Density = 2.360017 g / cm^3
# Si number density = 23.654012 Si / 1000 Ang^3
#
#
#
# Elastic Constant Matrix: (Units=GPa)
#
#
# Indices 1 2 3 4 5 6 
#
# 1 71.8455 4.5315 -4.4885 0.0000 0.2556 0.0000
# 2 4.5315 199.5073 25.5688 0.0000 -14.8240 0.0000
# 3 -4.4885 25.5688 26.5244 0.0000 -1.4914 0.0000
# 4 0.0000 0.0000 0.0000 17.4327 0.0000 -1.7566
# 5 0.2556 -14.8240 -1.4914 0.0000 8.3298 0.0000
# 6 0.0000 0.0000 0.0000 -1.7566 0.0000 1.2127
#
#
#
# Elastic Compliance Matrix: (Units=1/GPa)
#
#
# Indices 1 2 3 4 5 6 
#
# 1 0.014170 -0.000820 0.003113 0.000000 -0.001337 0.000000
# 2 -0.000820 0.006578 -0.005879 0.000000 0.010679 0.000000
# 3 0.003113 -0.005879 0.043742 0.000000 -0.002727 0.000000
# 4 0.000000 0.000000 0.000000 0.067167 0.000000 0.097291
# 5 -0.001337 0.010679 -0.002727 0.000000 0.138609 0.000000
# 6 0.000000 0.000000 0.000000 0.097291 0.000000 0.965529
#
#
# Mechanical properties :
#
#
# Convention : Reuss Voigt Hill
#
# Bulk Modulus (GPa) = 17.44674 38.78900 28.11787
# Shear Modulus (GPa) = 3.96174 23.54607 13.75390
#
# Velocity S-wave (km/s) = 1.29557 3.15848 2.41397
# Velocity P-wave (km/s) = 3.10320 5.45302 4.43651
#
# Compressibility (1/GPa) = 0.05731729
#
# Stress axis : x y z
#
# Youngs Moduli (GPa) = 70.57288 152.02315 22.86129
#
# Poissons Ratio (x) = 0.12469 -0.07117
# Poissons Ratio (y) = 0.05788 0.13441
# Poissons Ratio (z) = -0.21971 0.89379
#
# Static dielectric constant tensor:
#      x y z
#    x 1.922220 0.000000 -0.001320 
#    y 0.000000 1.970650 0.000000 
#    z -0.001320 0.000000 1.966740 
# 
# From -- ./inp_files/50252.got.cif
#   From: 2010.05.17/outbox.cif.g08.bks.cpg/sg11_26_cif.got.tgz:50252.got - 2010.06.03 12:22:45.
