data_PCOD9158102
_publ_section_title
;
Structure prediction by ZEFSAII (Michael W. Deem and Ramdas Pophale) SiO2 
 PCOD9158102
Probable space group: P 21/M
;
_chemical_formula_sum "Si O2"
_cell_formula_units_Z 32
_cell_length_a 24.461999
_cell_length_b 8.872998
_cell_length_c 12.647486
_cell_angle_alpha 90.000000
_cell_angle_beta 45.989358
_cell_angle_gamma 90.000000
_cell_volume 1974.343496
_symmetry_space_group_name_H-M "P 21/M"
_symmetry_group_IT_number 11
_symmetry_cell_setting 'monoclinic'
loop_
_space_group_symop_operation_xyz
x,y,z
-x,1/2+y,-z
-x,-y,-z
x,1/2-y,z
loop_
_atom_site_type_symbol
_atom_site_label
_atom_site_fract_x
_atom_site_fract_y
_atom_site_fract_z
Si Si1 0.689621 0.069106 0.713231
Si Si2 0.167476 0.069547 0.155365
Si Si3 0.681184 0.070906 0.134740
Si Si4 0.156636 0.070324 0.420430
Si Si5 0.583658 0.430288 0.054155
Si Si6 0.575560 0.430028 0.679960
Si Si7 0.576263 0.570341 0.447752
Si Si8 0.998613 0.430248 0.384451
O O1 0.700441 0.250000 0.703838
O O2 0.643493 0.032914 0.669175
O O3 0.770456 0.989745 0.615822
O O4 0.636717 0.026565 0.884363
O O5 0.179234 0.250000 0.131662
O O6 0.168573 0.030955 0.279508
O O7 0.082555 0.034638 0.227258
O O8 0.234467 0.983354 0.006933
O O9 0.679162 0.250000 0.155898
O O10 0.628677 0.038980 0.102460
O O11 0.645335 0.984633 0.281755
O O12 0.150687 0.250000 0.434409
O O13 0.077293 0.997416 0.564412
O O14 0.569931 0.250000 0.066914
O O15 0.504041 0.515869 0.163093
O O16 0.573451 0.250000 0.668115
O O17 0.584200 0.510279 0.555911
O O18 0.500000 0.500000 0.500000
O O19 0.569863 0.750000 0.455967
O O20 0.992462 0.250000 0.399916
O O21 0.000000 0.500000 0.500000
#
# Coordination Sequence:
#
# PCOD9158102 Si02
#       8
#     4   4   4   4   4   4   4   4
#     4  10  21  36  52  75 106 140 175 212 255 307
#     4   9  18  31  47  73 105 137 172 209 254 304
#     4  11  21  33  54  79 103 134 173 214 258 308
#     4  10  19  30  48  74 104 140 176 209 252 305
#     4  10  20  34  52  75 104 138 174 210 257 307
#     4  11  23  37  55  76 101 135 176 218 261 306
#     4  12  24  39  57  74  99 132 173 220 264 308
#     4   9  17  29  46  70 103 138 172 209 252 306
#
# _framework density 16.207919
#
# number of rings (size 3 to 8) (size 9 to 14) (size 15 to 20)
#    0.000    1.750    2.500    3.750    0.000    4.500 
#    0.000    0.000    0.000    0.000    0.000    0.875 
#    0.000    0.000    0.000    0.000    0.000    0.000 
#
# Total GULP energy -178628.837314 kJ/mol
# GULP energy per Si atom -5582.151166 kJ/mol
# Density = 1.617103 g / cm^3
# Si number density = 16.207919 Si / 1000 Ang^3
#
#
#
# Elastic Constant Matrix: (Units=GPa)
#
#
# Indices 1 2 3 4 5 6 
#
# 1 115.5958 60.4186 59.8153 0.0000 -23.9744 0.0000
# 2 60.4186 64.9069 41.6473 0.0000 -15.3372 0.0000
# 3 59.8153 41.6473 61.4578 0.0000 -24.2524 0.0000
# 4 0.0000 0.0000 0.0000 28.9645 0.0000 -5.3471
# 5 -23.9744 -15.3372 -24.2524 0.0000 31.3156 0.0000
# 6 0.0000 0.0000 0.0000 -5.3471 0.0000 24.4852
#
#
#
# Elastic Compliance Matrix: (Units=1/GPa)
#
#
# Indices 1 2 3 4 5 6 
#
# 1 0.021479 -0.011671 -0.012619 0.000000 0.000955 0.000000
# 2 -0.011671 0.033642 -0.012188 0.000000 -0.001897 0.000000
# 3 -0.012619 -0.012188 0.044131 0.000000 0.018548 0.000000
# 4 0.000000 0.000000 0.000000 0.035975 0.000000 0.007856
# 5 0.000955 -0.001897 0.018548 0.000000 0.046099 0.000000
# 6 0.000000 0.000000 0.000000 0.007856 0.000000 0.042557
#
#
# Mechanical properties :
#
#
# Convention : Reuss Voigt Hill
#
# Bulk Modulus (GPa) = 38.02637 62.85810 50.44223
# Shear Modulus (GPa) = 16.36103 22.29167 19.32635
#
# Velocity S-wave (km/s) = 3.18063 3.71260 3.45686
# Velocity P-wave (km/s) = 6.08285 7.56601 6.86460
#
# Compressibility (1/GPa) = 0.02629754
#
# Stress axis : x y z
#
# Youngs Moduli (GPa) = 46.55806 29.72437 22.65966
#
# Poissons Ratio (x) = 0.34691 0.28594
# Poissons Ratio (y) = 0.54337 0.27617
# Poissons Ratio (z) = 0.58751 0.36227
#
# Static dielectric constant tensor:
#      x y z
#    x 1.543690 0.000000 -0.016680 
#    y 0.000000 1.526870 0.000000 
#    z -0.016680 0.000000 1.532890 
# 
# From -- ./inp_files/42742.got.cif
#   From: 2010.05.17/outbox.cif.g08.bks.cpg/sg11_22_cif.got.tgz:42742.got - 2010.06.03 12:22:45.
