data_PCOD9158755
_publ_section_title
;
Structure prediction by ZEFSAII (Michael W. Deem and Ramdas Pophale) SiO2 
 PCOD9158755
Probable space group: P 21/M
;
_chemical_formula_sum "Si O2"
_cell_formula_units_Z 28
_cell_length_a 23.973077
_cell_length_b 7.590331
_cell_length_c 21.636002
_cell_angle_alpha 90.000000
_cell_angle_beta 161.747603
_cell_angle_gamma 90.000000
_cell_volume 1233.071235
_symmetry_space_group_name_H-M "P 21/M"
_symmetry_group_IT_number 11
_symmetry_cell_setting 'monoclinic'
loop_
_space_group_symop_operation_xyz
x,y,z
-x,1/2+y,-z
-x,-y,-z
x,1/2-y,z
loop_
_atom_site_type_symbol
_atom_site_label
_atom_site_fract_x
_atom_site_fract_y
_atom_site_fract_z
Si Si1 0.061160 0.442391 0.632174
Si Si2 0.358284 0.466967 0.526338
Si Si3 0.185177 0.037888 0.885266
Si Si4 0.758274 0.460993 0.920367
Si Si5 0.402689 0.048445 0.705740
Si Si6 0.459095 0.538113 0.027548
Si Si7 0.022823 0.038688 0.095759
O O1 0.980835 0.250000 0.554689
O O2 0.052978 0.529725 0.691838
O O3 0.274253 0.444745 0.848078
O O4 0.000000 0.500000 0.500000
O O5 0.360792 0.250000 0.531202
O O6 0.555794 0.526359 0.714514
O O7 0.321147 0.529947 0.557598
O O8 0.208177 0.523550 0.320554
O O9 0.199009 0.250000 0.893178
O O10 0.139113 0.998636 0.907513
O O11 0.383090 0.957267 0.083538
O O12 0.746275 0.250000 0.902535
O O13 0.863629 0.528905 0.971882
O O14 0.341812 0.250000 0.645038
O O15 0.397720 0.976859 0.770382
O O16 0.437712 0.750000 0.011955
O O17 0.500000 0.500000 0.000000
O O18 0.023867 0.250000 0.102983
O O19 0.000000 0.000000 0.000000
#
# Coordination Sequence:
#
# PCOD9158755 Si02
#       7
#     4   4   4   4   4   4   4
#     4  10  20  34  51  73 103 139 178 221 272 327
#     4   8  15  32  55  75 100 133 173 216 254 304
#     4   9  17  30  51  76 102 130 168 218 267 309
#     4   9  18  34  55  77 101 137 179 211 255 320
#     4   8  15  30  52  72  96 134 176 212 254 313
#     4  10  19  32  50  73 104 139 177 222 271 324
#     4  10  21  36  54  78 108 138 171 214 262 313
#
# _framework density 22.707528
#
# number of rings (size 3 to 8) (size 9 to 14) (size 15 to 20)
#    0.000    2.857    0.000    2.143    0.000    3.429 
#    2.571    2.857    0.000    0.000    0.000    0.000 
#    0.000    0.000    0.000    0.000    0.000    0.000 
#
# Total GULP energy -156032.256930 kJ/mol
# GULP energy per Si atom -5572.580605 kJ/mol
# Density = 2.265584 g / cm^3
# Si number density = 22.707528 Si / 1000 Ang^3
#
#
#
# Elastic Constant Matrix: (Units=GPa)
#
#
# Indices 1 2 3 4 5 6 
#
# 1 183.0423 -1.5119 77.9455 0.0000 -47.7603 0.0000
# 2 -1.5119 62.8163 1.5207 0.0000 1.4026 0.0000
# 3 77.9455 1.5207 127.9799 0.0000 -44.6986 0.0000
# 4 0.0000 0.0000 0.0000 12.6515 0.0000 -10.8878
# 5 -47.7603 1.4026 -44.6986 0.0000 48.2117 0.0000
# 6 0.0000 0.0000 0.0000 -10.8878 0.0000 23.7068
#
#
#
# Elastic Compliance Matrix: (Units=1/GPa)
#
#
# Indices 1 2 3 4 5 6 
#
# 1 0.008156 0.000159 -0.003178 0.000000 0.005129 0.000000
# 2 0.000159 0.015956 -0.000582 0.000000 -0.000846 0.000000
# 3 -0.003178 -0.000582 0.012811 0.000000 0.008746 0.000000
# 4 0.000000 0.000000 0.000000 0.130700 0.000000 0.060027
# 5 0.005129 -0.000846 0.008746 0.000000 0.033956 0.000000
# 6 0.000000 0.000000 0.000000 0.060027 0.000000 0.069751
#
#
# Mechanical properties :
#
#
# Convention : Reuss Voigt Hill
#
# Bulk Modulus (GPa) = 33.64665 58.86078 46.25371
# Shear Modulus (GPa) = 17.33467 36.63962 26.98715
#
# Velocity S-wave (km/s) = 2.76595 4.02125 3.45115
# Velocity P-wave (km/s) = 5.00502 6.89479 6.02446
#
# Compressibility (1/GPa) = 0.02972064
#
# Stress axis : x y z
#
# Youngs Moduli (GPa) = 122.60884 62.67141 78.05878
#
# Poissons Ratio (x) = -0.00995 0.24807
# Poissons Ratio (y) = -0.01946 0.04542
# Poissons Ratio (z) = 0.38966 0.03647
#
# Static dielectric constant tensor:
#      x y z
#    x 1.904960 0.000000 -0.028390 
#    y 0.000000 1.887450 0.000000 
#    z -0.028390 0.000000 1.856700 
# 
# From -- ./inp_files/29012.got.cif
#   From: 2010.05.17/outbox.cif.g08.bks.cpg/sg11_15_cif.got.tgz:29012.got - 2010.06.03 12:22:45.
