data_PCOD9158305
_publ_section_title
;
Structure prediction by ZEFSAII (Michael W. Deem and Ramdas Pophale) SiO2 
 PCOD9158305
Probable space group: P 21/M
;
_chemical_formula_sum "Si O2"
_cell_formula_units_Z 20
_cell_length_a 22.054889
_cell_length_b 7.490861
_cell_length_c 10.468535
_cell_angle_alpha 90.000000
_cell_angle_beta 36.341825
_cell_angle_gamma 90.000000
_cell_volume 1024.908630
_symmetry_space_group_name_H-M "P 21/M"
_symmetry_group_IT_number 11
_symmetry_cell_setting 'monoclinic'
loop_
_space_group_symop_operation_xyz
x,y,z
-x,1/2+y,-z
-x,-y,-z
x,1/2-y,z
loop_
_atom_site_type_symbol
_atom_site_label
_atom_site_fract_x
_atom_site_fract_y
_atom_site_fract_z
Si Si1 0.994048 0.463647 0.358283
Si Si2 0.216305 0.465628 0.971112
Si Si3 0.227675 0.537227 0.254814
Si Si4 0.448567 0.964167 0.952232
Si Si5 0.427325 0.463994 0.502559
O O1 0.993006 0.250000 0.341094
O O2 0.882063 0.534011 0.509606
O O3 0.000000 0.500000 0.500000
O O4 0.103301 0.530836 0.121574
O O5 0.214930 0.250000 0.965635
O O6 0.313607 0.532389 0.726871
O O7 0.232394 0.509639 0.093574
O O8 0.225235 0.750000 0.280334
O O9 0.332405 0.466284 0.137106
O O10 0.442231 0.750000 0.946991
O O11 0.518125 0.033014 0.717522
O O12 0.500000 0.000000 0.000000
O O13 0.500000 0.500000 0.500000
O O14 0.418790 0.250000 0.504480
#
# Coordination Sequence:
#
# PCOD9158305 Si02
#       5
#     4   4   4   4   4
#     4   8  14  24  40  64  91 117 144 179 224 270
#     4   9  16  26  44  70  94 116 146 184 229 275
#     4   9  16  28  45  65  92 121 150 186 225 268
#     4  10  21  34  47  66  92 125 160 191 228 274
#     4  10  19  31  48  70  95 121 152 191 233 275
#
# _framework density 19.513935
#
# number of rings (size 3 to 8) (size 9 to 14) (size 15 to 20)
#    0.000    2.800    2.000    0.000    0.000    1.600 
#    0.000    0.000    0.000    1.200    0.000    0.000 
#    0.000    0.000    0.000    0.000    0.000    0.000 
#
# Total GULP energy -111427.361805 kJ/mol
# GULP energy per Si atom -5571.368090 kJ/mol
# Density = 1.946952 g / cm^3
# Si number density = 19.513935 Si / 1000 Ang^3
#
#
#
# Elastic Constant Matrix: (Units=GPa)
#
#
# Indices 1 2 3 4 5 6 
#
# 1 137.3267 -0.2565 110.4458 0.0000 -39.5002 0.0000
# 2 -0.2565 55.3001 4.1021 0.0000 -7.9690 0.0000
# 3 110.4458 4.1021 169.7483 0.0000 -54.2147 0.0000
# 4 0.0000 0.0000 0.0000 6.1575 0.0000 4.0590
# 5 -39.5002 -7.9690 -54.2147 0.0000 47.6936 0.0000
# 6 0.0000 0.0000 0.0000 4.0590 0.0000 15.7786
#
#
#
# Elastic Compliance Matrix: (Units=1/GPa)
#
#
# Indices 1 2 3 4 5 6 
#
# 1 0.015479 0.001109 -0.009333 0.000000 0.002396 0.000000
# 2 0.001109 0.018687 0.000184 0.000000 0.004251 0.000000
# 3 -0.009333 0.000184 0.014915 0.000000 0.009256 0.000000
# 4 0.000000 0.000000 0.000000 0.195566 0.000000 -0.050308
# 5 0.002396 0.004251 0.009256 0.000000 0.034183 0.000000
# 6 0.000000 0.000000 0.000000 -0.050308 0.000000 0.076319
#
#
# Mechanical properties :
#
#
# Convention : Reuss Voigt Hill
#
# Bulk Modulus (GPa) = 30.30046 65.66199 47.98122
# Shear Modulus (GPa) = 13.08116 30.46486 21.77301
#
# Velocity S-wave (km/s) = 2.59192 3.95547 3.34393
# Velocity P-wave (km/s) = 4.95164 7.38802 6.28894
#
# Compressibility (1/GPa) = 0.03300280
#
# Stress axis : x y z
#
# Youngs Moduli (GPa) = 64.60196 53.51264 67.04582
#
# Poissons Ratio (x) = -0.05937 0.62574
# Poissons Ratio (y) = -0.07167 -0.01234
# Poissons Ratio (z) = 0.60293 -0.00985
#
# Static dielectric constant tensor:
#      x y z
#    x 1.663530 0.000000 -0.079400 
#    y 0.000000 1.756940 0.000000 
#    z -0.079400 0.000000 1.726080 
# 
# From -- ./inp_files/16577.got.cif
#   From: 2010.05.17/outbox.cif.g08.bks.cpg/sg11_9_cif.got.tgz:16577.got - 2010.06.03 12:22:45.
