data_PCOD9158073
_publ_section_title
;
Structure prediction by ZEFSAII (Michael W. Deem and Ramdas Pophale) SiO2 
 PCOD9158073
Probable space group: P 21/M
;
_chemical_formula_sum "Si O2"
_cell_formula_units_Z 28
_cell_length_a 14.059260
_cell_length_b 10.056805
_cell_length_c 14.199160
_cell_angle_alpha 90.000000
_cell_angle_beta 52.249195
_cell_angle_gamma 90.000000
_cell_volume 1587.400206
_symmetry_space_group_name_H-M "P 21/M"
_symmetry_group_IT_number 11
_symmetry_cell_setting 'monoclinic'
loop_
_space_group_symop_operation_xyz
x,y,z
-x,1/2+y,-z
-x,-y,-z
x,1/2-y,z
loop_
_atom_site_type_symbol
_atom_site_label
_atom_site_fract_x
_atom_site_fract_y
_atom_site_fract_z
Si Si1 0.661829 0.399231 0.085359
Si Si2 0.935416 0.093503 0.964624
Si Si3 0.253003 0.096100 0.455510
Si Si4 0.853989 0.603661 0.686435
Si Si5 0.636612 0.466964 0.892164
Si Si6 0.017914 0.093310 0.702480
Si Si7 0.556232 0.401768 0.738996
O O1 0.618131 0.250000 0.136286
O O2 0.564512 0.511592 0.170215
O O3 0.791126 0.423930 0.053089
O O4 0.683228 0.399672 0.959019
O O5 0.960278 0.250000 0.966847
O O6 0.981470 0.061959 0.831294
O O7 0.000000 0.000000 0.000000
O O8 0.296242 0.250000 0.434750
O O9 0.174934 0.087746 0.406167
O O10 0.158503 0.069818 0.595763
O O11 0.358667 0.989258 0.380356
O O12 0.905426 0.750000 0.671094
O O13 0.724955 0.589019 0.816684
O O14 0.938399 0.492395 0.679111
O O15 0.625498 0.395623 0.798229
O O16 0.500000 0.500000 0.000000
O O17 0.995266 0.250000 0.699929
O O18 0.533654 0.250000 0.722414
#
# Coordination Sequence:
#
# PCOD9158073 Si02
#       7
#     4   4   4   4   4   4   4
#     4  10  19  34  54  74 104 142 179 217 266 322
#     4  10  22  39  58  81 104 136 178 227 277 320
#     4   9  19  34  51  74 109 148 180 211 253 316
#     4  10  19  30  47  76 108 141 181 218 257 307
#     4   9  18  30  45  71 108 146 179 210 252 310
#     4  10  20  36  55  75 104 142 180 217 267 321
#     4  10  20  31  50  80 111 142 177 217 259 308
#
# _framework density 17.638904
#
# number of rings (size 3 to 8) (size 9 to 14) (size 15 to 20)
#    0.000    2.286    1.429    1.286    0.000    9.714 
#    0.000    0.000    0.000    0.857    0.000    0.000 
#    0.000    0.000    0.000    0.000    0.000    0.000 
#
# Total GULP energy -156004.833706 kJ/mol
# GULP energy per Si atom -5571.601204 kJ/mol
# Density = 1.759876 g / cm^3
# Si number density = 17.638904 Si / 1000 Ang^3
#
#
#
# Elastic Constant Matrix: (Units=GPa)
#
#
# Indices 1 2 3 4 5 6 
#
# 1 60.5625 42.1745 13.2906 0.0000 -6.9291 0.0000
# 2 42.1745 115.1748 48.6903 0.0000 -12.3093 0.0000
# 3 13.2906 48.6903 77.0616 0.0000 -19.1624 0.0000
# 4 0.0000 0.0000 0.0000 18.3763 0.0000 -4.9594
# 5 -6.9291 -12.3093 -19.1624 0.0000 12.2298 0.0000
# 6 0.0000 0.0000 0.0000 -4.9594 0.0000 27.7844
#
#
#
# Elastic Compliance Matrix: (Units=1/GPa)
#
#
# Indices 1 2 3 4 5 6 
#
# 1 0.023217 -0.009264 0.004590 0.000000 0.011021 0.000000
# 2 -0.009264 0.015544 -0.009237 0.000000 -0.004077 0.000000
# 3 0.004590 -0.009237 0.026797 0.000000 0.035290 0.000000
# 4 0.000000 0.000000 0.000000 0.057172 0.000000 0.010205
# 5 0.011021 -0.004077 0.035290 0.000000 0.139202 0.000000
# 6 0.000000 0.000000 0.000000 0.010205 0.000000 0.037813
#
#
# Mechanical properties :
#
#
# Convention : Reuss Voigt Hill
#
# Bulk Modulus (GPa) = 26.50093 51.23441 38.86767
# Shear Modulus (GPa) = 14.69955 21.58767 18.14361
#
# Velocity S-wave (km/s) = 2.88993 3.50218 3.21068
# Velocity P-wave (km/s) = 5.11784 6.74262 5.98562
#
# Compressibility (1/GPa) = 0.03773453
#
# Stress axis : x y z
#
# Youngs Moduli (GPa) = 43.07221 64.33322 37.31773
#
# Poissons Ratio (x) = 0.59598 -0.17128
# Poissons Ratio (y) = 0.39902 0.34472
# Poissons Ratio (z) = -0.19769 0.59428
#
# Static dielectric constant tensor:
#      x y z
#    x 1.583800 0.000000 -0.015520 
#    y 0.000000 1.666000 0.000000 
#    z -0.015520 0.000000 1.620830 
# 
# From -- ./inp_files/48912.got.cif
#   From: 2010.05.17/outbox.cif.g08.bks.cpg/sg11_25_cif.got.tgz:48912.got - 2010.06.03 12:22:45.
