data_PCOD9158436
_publ_section_title
;
Structure prediction by ZEFSAII (Michael W. Deem and Ramdas Pophale) SiO2 
 PCOD9158436
Probable space group: P 21/M
;
_chemical_formula_sum "Si O2"
_cell_formula_units_Z 32
_cell_length_a 28.824753
_cell_length_b 8.547612
_cell_length_c 23.529867
_cell_angle_alpha 90.000000
_cell_angle_beta 17.784762
_cell_angle_gamma 90.000000
_cell_volume 1770.756010
_symmetry_space_group_name_H-M "P 21/M"
_symmetry_group_IT_number 11
_symmetry_cell_setting 'monoclinic'
loop_
_space_group_symop_operation_xyz
x,y,z
-x,1/2+y,-z
-x,-y,-z
x,1/2-y,z
loop_
_atom_site_type_symbol
_atom_site_label
_atom_site_fract_x
_atom_site_fract_y
_atom_site_fract_z
Si Si1 0.418191 0.062905 0.330040
Si Si2 0.207153 0.939902 0.926710
Si Si3 0.449393 0.062793 0.937255
Si Si4 0.518208 0.062198 0.619378
Si Si5 0.094481 0.061445 0.656497
Si Si6 0.843920 0.437461 0.656026
Si Si7 0.773509 0.438645 0.610286
Si Si8 0.655785 0.061599 0.346006
O O1 0.428732 0.250000 0.314104
O O2 0.247090 0.014778 0.512084
O O3 0.526842 0.989650 0.155447
O O4 0.454128 0.008528 0.351334
O O5 0.213780 0.750000 0.921601
O O6 0.217030 0.985888 0.848303
O O7 0.355827 0.006570 0.784428
O O8 0.055552 0.992182 0.135615
O O9 0.441382 0.250000 0.949398
O O10 0.602487 0.010713 0.792275
O O11 0.299991 0.992036 0.139454
O O12 0.519027 0.250000 0.622123
O O13 0.644600 0.011619 0.424765
O O14 0.091092 0.250000 0.658128
O O15 0.114627 0.998452 0.569327
O O16 0.848819 0.250000 0.649870
O O17 0.818869 0.492166 0.620178
O O18 0.000000 0.500000 0.500000
O O19 0.774581 0.250000 0.608205
O O20 0.652782 0.250000 0.349877
O O21 0.500000 0.000000 0.500000
#
# Coordination Sequence:
#
# PCOD9158436 Si02
#       8
#     4   4   4   4   4   4   4   4
#     4  10  20  35  53  75 103 136 170 208 253 306
#     4   9  17  32  52  74 100 133 171 215 261 306
#     4  10  20  37  59  80 101 132 172 214 256 303
#     4  10  19  31  49  75 102 133 172 214 257 306
#     4   9  19  34  54  77 101 131 171 212 253 302
#     4  11  23  38  55  80 111 141 171 209 254 301
#     4   9  20  37  57  78 103 135 171 208 252 304
#     4   8  15  28  47  69  97 131 169 210 255 304
#
# _framework density 18.071377999999999
#
# number of rings (size 3 to 8) (size 9 to 14) (size 15 to 20)
#    0.000    2.500    0.000    1.875    0.000    4.000 
#    0.000    3.125    0.000    0.000    0.000    0.000 
#    0.000    0.000    0.000    0.000    0.000    0.000 
#
# Total GULP energy -178426.951036 kJ/mol
# GULP energy per Si atom -5575.842220 kJ/mol
# Density = 1.803025 g / cm^3
# Si number density = 18.071378 Si / 1000 Ang^3
#
#
#
# Elastic Constant Matrix: (Units=GPa)
#
#
# Indices 1 2 3 4 5 6 
#
# 1 160.1867 28.9431 82.0634 0.0000 36.2442 0.0000
# 2 28.9431 26.0878 26.8156 0.0000 6.6122 0.0000
# 3 82.0634 26.8156 162.4535 0.0000 33.3624 0.0000
# 4 0.0000 0.0000 0.0000 22.3297 0.0000 -10.7960
# 5 36.2442 6.6122 33.3624 0.0000 22.6290 0.0000
# 6 0.0000 0.0000 0.0000 -10.7960 0.0000 -29.0495
#
#
#
# Elastic Compliance Matrix: (Units=1/GPa)
#
#
# Indices 1 2 3 4 5 6 
#
# 1 0.011659 -0.007584 -0.001804 0.000000 -0.013799 0.000000
# 2 -0.007584 0.051263 -0.005808 0.000000 0.005729 0.000000
# 3 -0.001804 -0.005808 0.010160 0.000000 -0.010392 0.000000
# 4 0.000000 0.000000 0.000000 0.037962 0.000000 -0.014108
# 5 -0.013799 0.005729 -0.010392 0.000000 0.079939 0.000000
# 6 0.000000 0.000000 0.000000 -0.014108 0.000000 -0.029181
#
#
# Mechanical properties :
#
#
# Convention : Reuss Voigt Hill
#
# Bulk Modulus (GPa) = 23.42378 69.37470 46.39924
# Shear Modulus (GPa) = 24.22197 17.24221 20.73209
#
# Velocity S-wave (km/s) = 3.66505 3.09223 3.39076
# Velocity P-wave (km/s) = 5.55878 7.15694 6.40788
#
# Compressibility (1/GPa) = 0.04269165
#
# Stress axis : x y z
#
# Youngs Moduli (GPa) = 85.76857 19.50719 98.42697
#
# Poissons Ratio (x) = 0.14793 0.17758
# Poissons Ratio (y) = 0.65043 0.57163
# Poissons Ratio (z) = 0.15474 0.11329
#
# Static dielectric constant tensor:
#      x y z
#    x 1.611100 0.000000 0.022210 
#    y 0.000000 1.613220 0.000000 
#    z 0.022210 0.000000 1.615350 
# 
# From -- ./inp_files/66971.got.cif
#   From: 2010.05.17/outbox.cif.g08.bks.cpg/sg11_34_cif.got.tgz:66971.got - 2010.06.03 12:22:45.
