data_PCOD9158608
_publ_section_title
;
Structure prediction by ZEFSAII (Michael W. Deem and Ramdas Pophale) SiO2 
 PCOD9158608
Probable space group: P 21/M
;
_chemical_formula_sum "Si O2"
_cell_formula_units_Z 32
_cell_length_a 9.780606
_cell_length_b 32.803607
_cell_length_c 5.621626
_cell_angle_alpha 90.000000
_cell_angle_beta 105.918836
_cell_angle_gamma 90.000000
_cell_volume 1734.470383
_symmetry_space_group_name_H-M "P 21/M"
_symmetry_group_IT_number 11
_symmetry_cell_setting 'monoclinic'
loop_
_space_group_symop_operation_xyz
x,y,z
-x,1/2+y,-z
-x,-y,-z
x,1/2-y,z
loop_
_atom_site_type_symbol
_atom_site_label
_atom_site_fract_x
_atom_site_fract_y
_atom_site_fract_z
Si Si1 0.718923 0.295626 0.625202
Si Si2 0.044816 0.298378 0.665127
Si Si3 0.614698 0.985820 0.360404
Si Si4 0.340326 0.092790 0.393894
Si Si5 0.822053 0.828497 0.770007
Si Si6 0.553462 0.140169 0.848995
Si Si7 0.432545 0.563101 0.885181
Si Si8 0.452035 0.294708 0.155854
O O1 0.718578 0.250000 0.736988
O O2 0.874546 0.302983 0.596226
O O3 0.666270 0.330651 0.776258
O O4 0.601600 0.295225 0.362427
O O5 0.078019 0.250000 0.683133
O O6 0.102651 0.316517 0.442857
O O7 0.102375 0.317078 0.942832
O O8 0.710990 0.950087 0.516499
O O9 0.500000 0.000000 0.500000
O O10 0.668587 0.028864 0.281168
O O11 0.522277 0.961937 0.121354
O O12 0.218892 0.123750 0.256191
O O13 0.442449 0.118015 0.621340
O O14 0.448701 0.079965 0.238478
O O15 0.672930 0.804014 0.718212
O O16 0.630448 0.103611 0.027825
O O17 0.459292 0.169228 0.971011
O O18 0.429850 0.250000 0.036981
#
# Coordination Sequence:
#
# PCOD9158608 Si02
#       8
#     4   4   4   4   4   4   4   4
#     4  10  23  39  55  78 111 157 201 246 297 354
#     4  11  26  43  58  80 119 161 204 247 298 358
#     4   8  16  28  47  77 119 152 179 225 302 357
#     4  10  19  31  52  84 117 146 188 245 298 351
#     4  12  23  40  60  87 115 156 198 249 300 350
#     4  11  18  33  55  83 114 147 196 247 296 346
#     4   9  16  29  49  80 118 147 183 237 298 353
#     4  11  22  35  57  83 112 150 198 249 301 346
#
# _framework density 18.449435999999999
#
# number of rings (size 3 to 8) (size 9 to 14) (size 15 to 20)
#    0.000    1.750    2.500    2.250    3.500    0.000 
#    0.000    0.000    0.000    0.000    0.000    1.750 
#    0.000    0.000    0.000    0.000    0.000    0.000 
#
# Total GULP energy -178279.901230 kJ/mol
# GULP energy per Si atom -5571.246913 kJ/mol
# Density = 1.840744 g / cm^3
# Si number density = 18.449436 Si / 1000 Ang^3
#
#
#
# Elastic Constant Matrix: (Units=GPa)
#
#
# Indices 1 2 3 4 5 6 
#
# 1 72.8942 29.8281 41.5185 0.0000 -6.6772 0.0000
# 2 29.8281 136.1996 46.4384 0.0000 -28.5167 0.0000
# 3 41.5185 46.4384 83.0693 0.0000 -18.9929 0.0000
# 4 0.0000 0.0000 0.0000 50.4923 0.0000 -11.7333
# 5 -6.6772 -28.5167 -18.9929 0.0000 25.0798 0.0000
# 6 0.0000 0.0000 0.0000 -11.7333 0.0000 21.0412
#
#
#
# Elastic Compliance Matrix: (Units=1/GPa)
#
#
# Indices 1 2 3 4 5 6 
#
# 1 0.019648 -0.001875 -0.009752 0.000000 -0.004286 0.000000
# 2 -0.001875 0.010729 -0.002885 0.000000 0.009515 0.000000
# 3 -0.009752 -0.002885 0.020779 0.000000 0.009860 0.000000
# 4 0.000000 0.000000 0.000000 0.022753 0.000000 0.012688
# 5 -0.004286 0.009515 0.009860 0.000000 0.057017 0.000000
# 6 0.000000 0.000000 0.000000 0.012688 0.000000 0.054601
#
#
# Mechanical properties :
#
#
# Convention : Reuss Voigt Hill
#
# Bulk Modulus (GPa) = 45.18431 58.63700 51.91066
# Shear Modulus (GPa) = 22.52990 30.94788 26.73889
#
# Velocity S-wave (km/s) = 3.49832 4.10010 3.81111
# Velocity P-wave (km/s) = 6.39231 7.36655 6.89665
#
# Compressibility (1/GPa) = 0.02213157
#
# Stress axis : x y z
#
# Youngs Moduli (GPa) = 50.89704 93.20824 48.12550
#
# Poissons Ratio (x) = 0.17481 0.46930
# Poissons Ratio (y) = 0.09545 0.13883
# Poissons Ratio (z) = 0.49632 0.26889
#
# Static dielectric constant tensor:
#      x y z
#    x 1.605210 0.000000 -0.012850 
#    y 0.000000 1.712680 0.000000 
#    z -0.012850 0.000000 1.724840 
# 
# From -- ./inp_files/5722.got.cif
#   From: 2010.05.17/outbox.cif.g08.bks.cpg/sg11_3_cif.got.tgz:5722.got - 2010.06.03 12:22:45.
