data_PCOD9158780
_publ_section_title
;
Structure prediction by ZEFSAII (Michael W. Deem and Ramdas Pophale) SiO2 
 PCOD9158780
Probable space group: P 21/M
;
_chemical_formula_sum "Si O2"
_cell_formula_units_Z 32
_cell_length_a 15.513363
_cell_length_b 8.807921
_cell_length_c 23.391557
_cell_angle_alpha 90.000000
_cell_angle_beta 148.535474
_cell_angle_gamma 90.000000
_cell_volume 1668.339786
_symmetry_space_group_name_H-M "P 21/M"
_symmetry_group_IT_number 11
_symmetry_cell_setting 'monoclinic'
loop_
_space_group_symop_operation_xyz
x,y,z
-x,1/2+y,-z
-x,-y,-z
x,1/2-y,z
loop_
_atom_site_type_symbol
_atom_site_label
_atom_site_fract_x
_atom_site_fract_y
_atom_site_fract_z
Si Si1 0.940522 0.930900 0.129363
Si Si2 0.434467 0.430733 0.108661
Si Si3 0.820555 0.571479 0.819550
Si Si4 0.568346 0.420942 0.594017
Si Si5 0.571479 0.433262 0.768775
Si Si6 0.629126 0.567677 0.118187
Si Si7 0.998270 0.932522 0.289454
Si Si8 0.280918 0.420230 0.524219
O O1 0.967429 0.750000 0.139248
O O2 0.018746 0.983540 0.234452
O O3 0.744238 0.955978 0.021811
O O4 0.009652 0.006994 0.110558
O O5 0.459015 0.250000 0.126985
O O6 0.425423 0.504995 0.165736
O O7 0.574131 0.505278 0.148520
O O8 0.832185 0.750000 0.836201
O O9 0.699630 0.527719 0.698923
O O10 0.729073 0.493355 0.821555
O O11 0.500000 0.500000 0.500000
O O12 0.634102 0.250000 0.620958
O O13 0.416313 0.407531 0.550969
O O14 0.574510 0.250000 0.767915
O O15 0.397093 0.484041 0.640767
O O16 0.619140 0.750000 0.111357
O O17 0.814924 0.523518 0.206136
O O18 0.500000 0.500000 0.000000
O O19 0.006986 0.750000 0.292791
O O20 0.131265 0.990870 0.410421
O O21 0.225058 0.250000 0.508640
#
# Coordination Sequence:
#
# PCOD9158780 Si02
#       8
#     4   4   4   4   4   4   4   4
#     4  10  21  38  57  84 122 156 192 245 299 351
#     4  11  23  41  64  90 117 152 198 247 298 356
#     4  11  22  35  54  83 115 155 202 243 289 350
#     4  10  19  32  50  76 111 152 196 244 294 347
#     4  10  22  42  62  83 117 160 201 245 294 346
#     4  11  22  40  63  91 122 155 192 238 296 356
#     4  10  21  37  59  88 121 153 190 239 296 350
#     4   9  20  36  55  81 113 150 194 240 288 344
#
# _framework density 19.180744000000001
#
# number of rings (size 3 to 8) (size 9 to 14) (size 15 to 20)
#    0.000    1.750    1.250    4.125    0.000    8.000 
#    0.000    0.625    0.000    0.000    0.000    0.000 
#    0.000    0.000    0.000    0.000    0.000    0.000 
#
# Total GULP energy -178569.606798 kJ/mol
# GULP energy per Si atom -5580.300212 kJ/mol
# Density = 1.913709 g / cm^3
# Si number density = 19.180744 Si / 1000 Ang^3
#
#
#
# Elastic Constant Matrix: (Units=GPa)
#
#
# Indices 1 2 3 4 5 6 
#
# 1 116.2717 33.2943 26.0269 0.0000 1.1932 0.0000
# 2 33.2943 59.9955 23.3692 0.0000 6.7882 0.0000
# 3 26.0269 23.3692 54.4171 0.0000 13.9054 0.0000
# 4 0.0000 0.0000 0.0000 26.3972 0.0000 -0.1001
# 5 1.1932 6.7882 13.9054 0.0000 28.4271 0.0000
# 6 0.0000 0.0000 0.0000 -0.1001 0.0000 31.5934
#
#
#
# Elastic Compliance Matrix: (Units=1/GPa)
#
#
# Indices 1 2 3 4 5 6 
#
# 1 0.010791 -0.004818 -0.003737 0.000000 0.002526 0.000000
# 2 -0.004818 0.022178 -0.006764 0.000000 -0.001785 0.000000
# 3 -0.003737 -0.006764 0.025847 0.000000 -0.010871 0.000000
# 4 0.000000 0.000000 0.000000 0.037883 0.000000 0.000120
# 5 0.002526 -0.001785 -0.010871 0.000000 0.040816 0.000000
# 6 0.000000 0.000000 0.000000 0.000120 0.000000 0.031653
#
#
# Mechanical properties :
#
#
# Convention : Reuss Voigt Hill
#
# Bulk Modulus (GPa) = 35.48965 44.00722 39.74843
# Shear Modulus (GPa) = 23.90069 27.14978 25.52523
#
# Velocity S-wave (km/s) = 3.53381 3.76636 3.65193
# Velocity P-wave (km/s) = 5.93240 6.47357 6.20888
#
# Compressibility (1/GPa) = 0.02817723
#
# Stress axis : x y z
#
# Youngs Moduli (GPa) = 92.67009 45.08885 38.68972
#
# Poissons Ratio (x) = 0.21726 0.14460
# Poissons Ratio (y) = 0.44653 0.26168
# Poissons Ratio (z) = 0.34634 0.30496
#
# Static dielectric constant tensor:
#      x y z
#    x 1.694230 0.000000 -0.010110 
#    y 0.000000 1.658860 0.000000 
#    z -0.010110 0.000000 1.689190 
# 
# From -- ./inp_files/69113.got.cif
#   From: 2010.05.17/outbox.cif.g08.bks.cpg/sg11_35_cif.got.tgz:69113.got - 2010.06.03 12:22:45.
