data_PCOD9158195
_publ_section_title
;
Structure prediction by ZEFSAII (Michael W. Deem and Ramdas Pophale) SiO2 
 PCOD9158195
Probable space group: P 21/M
;
_chemical_formula_sum "Si O2"
_cell_formula_units_Z 32
_cell_length_a 11.236005
_cell_length_b 9.230240
_cell_length_c 27.387717
_cell_angle_alpha 90.000000
_cell_angle_beta 33.175381
_cell_angle_gamma 90.000000
_cell_volume 1554.281646
_symmetry_space_group_name_H-M "P 21/M"
_symmetry_group_IT_number 11
_symmetry_cell_setting 'monoclinic'
loop_
_space_group_symop_operation_xyz
x,y,z
-x,1/2+y,-z
-x,-y,-z
x,1/2-y,z
loop_
_atom_site_type_symbol
_atom_site_label
_atom_site_fract_x
_atom_site_fract_y
_atom_site_fract_z
Si Si1 0.731397 0.596763 0.806163
Si Si2 0.782566 0.083451 0.386129
Si Si3 0.375040 0.085228 0.271325
Si Si4 0.128506 0.576264 0.911488
Si Si5 0.482154 0.575142 0.616270
Si Si6 0.937894 0.576086 0.430980
Si Si7 0.322092 0.917634 0.091545
Si Si8 0.074376 0.577337 0.819079
O O1 0.648753 0.750000 0.855638
O O2 0.681485 0.595759 0.766558
O O3 0.640180 0.460263 0.865299
O O4 0.991157 0.596020 0.720746
O O5 0.725555 0.250000 0.421043
O O6 0.612158 0.025235 0.404435
O O7 0.848795 0.983896 0.409173
O O8 0.379764 0.250000 0.290485
O O9 0.621269 0.027285 0.184395
O O10 0.171134 0.995814 0.362392
O O11 0.137406 0.750000 0.918258
O O12 0.027754 0.553798 0.892407
O O13 0.000000 0.500000 0.000000
O O14 0.477446 0.750000 0.614145
O O15 0.734444 0.534620 0.535683
O O16 0.316741 0.537660 0.716595
O O17 0.960213 0.750000 0.421407
O O18 0.331035 0.750000 0.080419
O O19 0.093668 0.983191 0.153387
O O20 0.500000 0.000000 0.000000
O O21 0.046894 0.750000 0.819624
#
# Coordination Sequence:
#
# PCOD9158195 Si02
#       8
#     4   4   4   4   4   4   4   4
#     4   9  17  33  56  79 111 152 188 227 284 342
#     4   9  16  30  51  75 112 157 188 227 281 335
#     4   9  20  39  58  81 116 154 189 233 291 342
#     4  10  23  42  67  90 110 145 193 243 293 348
#     4   9  17  32  54  79 114 154 191 232 287 341
#     4  10  19  30  51  84 115 151 196 239 277 330
#     4  12  25  38  56  84 118 151 189 234 288 350
#     4  10  21  42  64  85 115 153 196 238 291 352
#
# _framework density 20.588289
#
# number of rings (size 3 to 8) (size 9 to 14) (size 15 to 20)
#    0.000    2.250    1.250    2.625    1.750    3.000 
#    0.000    2.500    0.000    0.000    0.000    0.000 
#    0.000    0.000    0.000    0.000    0.000    0.000 
#
# Total GULP energy -178330.039954 kJ/mol
# GULP energy per Si atom -5572.813749 kJ/mol
# Density = 2.054143 g / cm^3
# Si number density = 20.588289 Si / 1000 Ang^3
#
#
#
# Elastic Constant Matrix: (Units=GPa)
#
#
# Indices 1 2 3 4 5 6 
#
# 1 19.9019 12.0483 3.5755 0.0000 0.4127 0.0000
# 2 12.0483 77.5989 39.6706 0.0000 4.4053 0.0000
# 3 3.5755 39.6706 88.8295 0.0000 4.3247 0.0000
# 4 0.0000 0.0000 0.0000 29.6800 0.0000 -2.4074
# 5 0.4127 4.4053 4.3247 0.0000 21.8532 0.0000
# 6 0.0000 0.0000 0.0000 -2.4074 0.0000 16.3523
#
#
#
# Elastic Compliance Matrix: (Units=1/GPa)
#
#
# Indices 1 2 3 4 5 6 
#
# 1 0.055766 -0.009754 0.002087 0.000000 0.000500 0.000000
# 2 -0.009754 0.018485 -0.007765 0.000000 -0.002005 0.000000
# 3 0.002087 -0.007765 0.014709 0.000000 -0.001385 0.000000
# 4 0.000000 0.000000 0.000000 0.034100 0.000000 0.005020
# 5 0.000500 -0.002005 -0.001385 0.000000 0.046429 0.000000
# 6 0.000000 0.000000 0.000000 0.005020 0.000000 0.061892
#
#
# Mechanical properties :
#
#
# Convention : Reuss Voigt Hill
#
# Bulk Modulus (GPa) = 17.21289 32.99101 25.10195
# Shear Modulus (GPa) = 17.75510 22.31283 20.03397
#
# Velocity S-wave (km/s) = 2.93983 3.29563 3.12280
# Velocity P-wave (km/s) = 4.46118 5.52635 5.02208
#
# Compressibility (1/GPa) = 0.05809601
#
# Stress axis : x y z
#
# Youngs Moduli (GPa) = 17.93206 54.09890 67.98705
#
# Poissons Ratio (x) = 0.52767 -0.14189
# Poissons Ratio (y) = 0.17491 0.52791
# Poissons Ratio (z) = -0.03742 0.42007
#
# Static dielectric constant tensor:
#      x y z
#    x 1.711730 0.000000 0.017580 
#    y 0.000000 1.718730 0.000000 
#    z 0.017580 0.000000 1.767980 
# 
# From -- ./inp_files/73067.got.cif
#   From: 2010.05.17/outbox.cif.g08.bks.cpg/sg11_37_cif.got.tgz:73067.got - 2010.06.03 12:22:45.
