data_PCOD9158858
_publ_section_title
;
Structure prediction by ZEFSAII (Michael W. Deem and Ramdas Pophale) SiO2 
 PCOD9158858
Probable space group: P 21/M
;
_chemical_formula_sum "Si O2"
_cell_formula_units_Z 32
_cell_length_a 26.967732
_cell_length_b 8.450302
_cell_length_c 13.465202
_cell_angle_alpha 90.000000
_cell_angle_beta 32.444407
_cell_angle_gamma 90.000000
_cell_volume 1646.204922
_symmetry_space_group_name_H-M "P 21/M"
_symmetry_group_IT_number 11
_symmetry_cell_setting 'monoclinic'
loop_
_space_group_symop_operation_xyz
x,y,z
-x,1/2+y,-z
-x,-y,-z
x,1/2-y,z
loop_
_atom_site_type_symbol
_atom_site_label
_atom_site_fract_x
_atom_site_fract_y
_atom_site_fract_z
Si Si1 0.365541 0.437589 0.999889
Si Si2 0.103592 0.561866 0.123700
Si Si3 0.466643 0.059283 0.165446
Si Si4 0.745952 0.567636 0.450691
Si Si5 0.221187 0.570566 0.401810
Si Si6 0.764497 0.442111 0.937482
Si Si7 0.075682 0.563765 0.950287
Si Si8 0.926679 0.067691 0.512661
O O1 0.355159 0.250000 0.029874
O O2 0.300113 0.528050 0.189340
O O3 0.327635 0.487068 0.955596
O O4 0.467124 0.490037 0.861489
O O5 0.113665 0.750000 0.095773
O O6 0.198107 0.506625 0.017751
O O7 0.019270 0.529416 0.341499
O O8 0.076818 0.495747 0.060831
O O9 0.471821 0.250000 0.155402
O O10 0.360619 0.013737 0.367197
O O11 0.500000 0.000000 0.000000
O O12 0.749841 0.750000 0.411627
O O13 0.776620 0.551551 0.513131
O O14 0.821028 0.468461 0.263943
O O15 0.235900 0.750000 0.414183
O O16 0.125869 0.565366 0.503876
O O17 0.757557 0.250000 0.945836
O O18 0.848304 0.489028 0.721291
O O19 0.057722 0.750000 0.986666
O O20 0.000000 0.500000 0.000000
O O21 0.949246 0.250000 0.498793
#
# Coordination Sequence:
#
# PCOD9158858 Si02
#       8
#     4   4   4   4   4   4   4   4
#     4  11  21  33  52  82 115 147 182 222 277 342
#     4  10  21  36  55  77 104 143 190 237 283 335
#     4  11  22  36  57  85 118 152 188 232 287 345
#     4  11  23  37  56  83 113 149 193 237 284 341
#     4  10  19  32  51  76 111 151 186 225 276 333
#     4   9  19  36  54  76 109 146 185 231 285 340
#     4  11  24  41  60  83 113 153 197 241 287 335
#     4   9  18  30  49  78 108 141 179 224 283 339
#
# _framework density 19.438649000000002
#
# number of rings (size 3 to 8) (size 9 to 14) (size 15 to 20)
#    0.000    1.750    1.250    4.500    0.000    7.500 
#    0.000    0.000    0.000    0.750    0.000    0.000 
#    0.000    0.000    0.000    0.000    0.000    0.000 
#
# Total GULP energy -178523.799797 kJ/mol
# GULP energy per Si atom -5578.868744 kJ/mol
# Density = 1.939441 g / cm^3
# Si number density = 19.438649 Si / 1000 Ang^3
#
#
#
# Elastic Constant Matrix: (Units=GPa)
#
#
# Indices 1 2 3 4 5 6 
#
# 1 135.7603 31.1624 36.3696 0.0000 -23.0599 0.0000
# 2 31.1624 28.3651 11.5291 0.0000 -11.7872 0.0000
# 3 36.3696 11.5291 58.4601 0.0000 -16.0116 0.0000
# 4 0.0000 0.0000 0.0000 23.5359 0.0000 -6.1148
# 5 -23.0599 -11.7872 -16.0116 0.0000 21.2227 0.0000
# 6 0.0000 0.0000 0.0000 -6.1148 0.0000 23.1918
#
#
#
# Elastic Compliance Matrix: (Units=1/GPa)
#
#
# Indices 1 2 3 4 5 6 
#
# 1 0.011215 -0.008942 -0.004079 0.000000 0.004142 0.000000
# 2 -0.008942 0.053279 0.000629 0.000000 0.020351 0.000000
# 3 -0.004079 0.000629 0.023194 0.000000 0.013416 0.000000
# 4 0.000000 0.000000 0.000000 0.045613 0.000000 0.012026
# 5 0.004142 0.020351 0.013416 0.000000 0.073044 0.000000
# 6 0.000000 0.000000 0.000000 0.012026 0.000000 0.046289
#
#
# Mechanical properties :
#
#
# Convention : Reuss Voigt Hill
#
# Bulk Modulus (GPa) = 15.89708 42.30085 29.09897
# Shear Modulus (GPa) = 16.75689 23.15839 19.95764
#
# Velocity S-wave (km/s) = 2.93924 3.45535 3.20769
# Velocity P-wave (km/s) = 4.44012 6.14229 5.35921
#
# Compressibility (1/GPa) = 0.06290462
#
# Stress axis : x y z
#
# Youngs Moduli (GPa) = 89.16913 18.76915 43.11494
#
# Poissons Ratio (x) = 0.16782 0.17587
# Poissons Ratio (y) = 0.79731 -0.02713
# Poissons Ratio (z) = 0.36374 -0.01181
#
# Static dielectric constant tensor:
#      x y z
#    x 1.749070 0.000000 -0.005160 
#    y 0.000000 1.675590 0.000000 
#    z -0.005160 0.000000 1.688090 
# 
# From -- ./inp_files/56158.got.cif
#   From: 2010.05.17/outbox.cif.g08.bks.cpg/sg11_29_cif.got.tgz:56158.got - 2010.06.03 12:22:45.
