data_PCOD9158759
_publ_section_title
;
Structure prediction by ZEFSAII (Michael W. Deem and Ramdas Pophale) SiO2 
 PCOD9158759
Probable space group: P 21/M
;
_chemical_formula_sum "Si O2"
_cell_formula_units_Z 32
_cell_length_a 24.430092
_cell_length_b 13.834319
_cell_length_c 7.231805
_cell_angle_alpha 90.000000
_cell_angle_beta 36.539833
_cell_angle_gamma 90.000000
_cell_volume 1455.207518
_symmetry_space_group_name_H-M "P 21/M"
_symmetry_group_IT_number 11
_symmetry_cell_setting 'monoclinic'
loop_
_space_group_symop_operation_xyz
x,y,z
-x,1/2+y,-z
-x,-y,-z
x,1/2-y,z
loop_
_atom_site_type_symbol
_atom_site_label
_atom_site_fract_x
_atom_site_fract_y
_atom_site_fract_z
Si Si1 0.971677 0.984002 0.864791
Si Si2 0.676857 0.491167 0.839029
Si Si3 0.805538 0.856798 0.381448
Si Si4 0.482593 0.404707 0.932329
Si Si5 0.864284 0.360083 0.647052
Si Si6 0.332076 0.927968 0.743390
Si Si7 0.823479 0.361611 0.310691
Si Si8 0.329517 0.147332 0.603909
O O1 0.062545 0.946142 0.515021
O O2 0.904486 0.892388 0.053069
O O3 0.906805 0.076229 0.994757
O O4 0.000000 0.000000 0.000000
O O5 0.760408 0.566706 0.644012
O O6 0.726168 0.419658 0.556349
O O7 0.591026 0.558306 0.019149
O O8 0.650159 0.427859 0.085309
O O9 0.806162 0.750000 0.457771
O O10 0.744266 0.858703 0.362222
O O11 0.581256 0.376200 0.586497
O O12 0.500000 0.500000 0.000000
O O13 0.425830 0.344467 0.233561
O O14 0.895291 0.250000 0.604443
O O15 0.843261 0.362011 0.480883
O O16 0.768091 0.382002 0.009861
O O17 0.329050 0.043182 0.703382
O O18 0.819798 0.250000 0.263145
O O19 0.314450 0.250000 0.747617
#
# Coordination Sequence:
#
# PCOD9158759 Si02
#       8
#     4   4   4   4   4   4   4   4
#     4   9  16  28  48  74 100 129 166 205 244 293
#     4   9  17  30  50  77 103 129 166 210 255 300
#     4   9  17  31  52  73  97 134 171 203 247 305
#     4   9  18  33  52  71  98 135 168 204 251 308
#     4   9  17  29  46  71 101 132 167 206 248 295
#     4  10  19  32  50  74 102 133 168 214 260 296
#     4   8  15  28  46  71 103 133 163 202 247 295
#     4   9  19  35  52  71  97 131 171 212 257 308
#
# _framework density 21.989992000000001
#
# number of rings (size 3 to 8) (size 9 to 14) (size 15 to 20)
#    0.000    3.000    0.000    1.500    0.000    1.500 
#    0.000    3.750    0.000   14.250    0.000    0.000 
#    0.000    0.000    0.000    0.000    0.000    0.000 
#
# Total GULP energy -178187.667280 kJ/mol
# GULP energy per Si atom -5568.364602 kJ/mol
# Density = 2.193994 g / cm^3
# Si number density = 21.989992 Si / 1000 Ang^3
#
#
#
# Elastic Constant Matrix: (Units=GPa)
#
#
# Indices 1 2 3 4 5 6 
#
# 1 10.1647 1.6649 17.0905 0.0000 -4.7447 0.0000
# 2 1.6649 127.3440 32.7662 0.0000 -11.3047 0.0000
# 3 17.0905 32.7662 134.5160 0.0000 -21.4929 0.0000
# 4 0.0000 0.0000 0.0000 3.6247 0.0000 17.1989
# 5 -4.7447 -11.3047 -21.4929 0.0000 29.0166 0.0000
# 6 0.0000 0.0000 0.0000 17.1989 0.0000 -20.2574
#
#
#
# Elastic Compliance Matrix: (Units=1/GPa)
#
#
# Indices 1 2 3 4 5 6 
#
# 1 0.128871 0.003252 -0.015421 0.000000 0.010917 0.000000
# 2 0.003252 0.008562 -0.002133 0.000000 0.002287 0.000000
# 3 -0.015421 -0.002133 0.010636 0.000000 0.004526 0.000000
# 4 0.000000 0.000000 0.000000 0.054864 0.000000 0.046581
# 5 0.010917 0.002287 0.004526 0.000000 0.040491 0.000000
# 6 0.000000 0.000000 0.000000 0.046581 0.000000 -0.009817
#
#
# Mechanical properties :
#
#
# Convention : Reuss Voigt Hill
#
# Bulk Modulus (GPa) = 8.37068 41.67423 25.02246
# Shear Modulus (GPa) = 16.55441 17.17698 16.86569
#
# Velocity S-wave (km/s) = 2.74673 2.79790 2.77243
# Velocity P-wave (km/s) = 3.72481 5.42496 4.65319
#
# Compressibility (1/GPa) = 0.11946457
#
# Stress axis : x y z
#
# Youngs Moduli (GPa) = 7.75970 116.79238 94.01948
#
# Poissons Ratio (x) = -0.37983 1.44989
# Poissons Ratio (y) = -0.02524 0.20058
# Poissons Ratio (z) = 0.11966 0.24916
#
# Static dielectric constant tensor:
#      x y z
#    x 1.328040 0.000000 -0.004460 
#    y 0.000000 1.803420 0.000000 
#    z -0.004460 0.000000 1.848330 
# 
# From -- ./inp_files/26828.got.cif
#   From: 2010.05.17/outbox.cif.g08.bks.cpg/sg11_14_cif.got.tgz:26828.got - 2010.06.03 12:22:45.
