data_PCOD9158155
_publ_section_title
;
Structure prediction by ZEFSAII (Michael W. Deem and Ramdas Pophale) SiO2 
 PCOD9158155
Probable space group: P 21/M
;
_chemical_formula_sum "Si O2"
_cell_formula_units_Z 32
_cell_length_a 29.391555
_cell_length_b 8.443573
_cell_length_c 15.006794
_cell_angle_alpha 90.000000
_cell_angle_beta 26.272126
_cell_angle_gamma 90.000000
_cell_volume 1648.475521
_symmetry_space_group_name_H-M "P 21/M"
_symmetry_group_IT_number 11
_symmetry_cell_setting 'monoclinic'
loop_
_space_group_symop_operation_xyz
x,y,z
-x,1/2+y,-z
-x,-y,-z
x,1/2-y,z
loop_
_atom_site_type_symbol
_atom_site_label
_atom_site_fract_x
_atom_site_fract_y
_atom_site_fract_z
Si Si1 0.830100 0.938297 0.943908
Si Si2 0.440963 0.567465 0.363152
Si Si3 0.315589 0.068934 0.075675
Si Si4 0.232694 0.941024 0.406608
Si Si5 0.398408 0.436379 0.628384
Si Si6 0.405038 0.061089 0.228456
Si Si7 0.030220 0.557327 0.672978
Si Si8 0.135299 0.567233 0.302381
O O1 0.821382 0.750000 0.972238
O O2 0.714155 0.003684 0.146985
O O3 0.912309 0.998449 0.873157
O O4 0.880889 0.969518 0.758413
O O5 0.406130 0.750000 0.431849
O O6 0.404167 0.469126 0.512689
O O7 0.414032 0.500446 0.313439
O O8 0.564305 0.566229 0.151505
O O9 0.278908 0.250000 0.127087
O O10 0.291289 0.012020 0.217970
O O11 0.254985 0.954286 0.116556
O O12 0.237867 0.750000 0.394186
O O13 0.112898 0.989713 0.603181
O O14 0.297347 0.002280 0.376216
O O15 0.500000 0.500000 0.500000
O O16 0.397765 0.250000 0.648649
O O17 0.409364 0.250000 0.219354
O O18 0.500000 0.000000 0.000000
O O19 0.028295 0.750000 0.678131
O O20 0.081824 0.511796 0.487629
O O21 0.109366 0.750000 0.332497
#
# Coordination Sequence:
#
# PCOD9158155 Si02
#       8
#     4   4   4   4   4   4   4   4
#     4  10  20  36  55  75 104 143 188 233 281 337
#     4  11  23  38  57  81 112 150 192 237 285 335
#     4  10  19  31  49  74 107 145 182 221 272 334
#     4  10  19  33  54  81 113 145 177 220 276 334
#     4  11  24  40  59  82 111 151 195 240 286 334
#     4  12  23  36  57  86 120 153 186 227 278 338
#     4   8  17  33  53  78 108 143 182 227 281 338
#     4  10  19  30  49  78 109 141 180 227 282 336
#
# _framework density 19.411874999999998
#
# number of rings (size 3 to 8) (size 9 to 14) (size 15 to 20)
#    0.000    1.750    1.250    4.875    0.000    5.500 
#    0.000    3.125    0.000    0.750    0.000    0.000 
#    0.000    0.000    0.000    0.000    0.000    0.000 
#
# Total GULP energy -178474.606998 kJ/mol
# GULP energy per Si atom -5577.331469 kJ/mol
# Density = 1.936769 g / cm^3
# Si number density = 19.411875 Si / 1000 Ang^3
#
#
#
# Elastic Constant Matrix: (Units=GPa)
#
#
# Indices 1 2 3 4 5 6 
#
# 1 101.5295 -4.7465 48.4974 0.0000 -24.5145 0.0000
# 2 -4.7465 31.9146 19.0153 0.0000 -12.9841 0.0000
# 3 48.4974 19.0153 62.5615 0.0000 -28.7182 0.0000
# 4 0.0000 0.0000 0.0000 13.1958 0.0000 -0.9746
# 5 -24.5145 -12.9841 -28.7182 0.0000 33.4177 0.0000
# 6 0.0000 0.0000 0.0000 -0.9746 0.0000 30.8062
#
#
#
# Elastic Compliance Matrix: (Units=1/GPa)
#
#
# Indices 1 2 3 4 5 6 
#
# 1 0.020878 0.016511 -0.018542 0.000000 0.005796 0.000000
# 2 0.016511 0.052677 -0.022881 0.000000 0.012915 0.000000
# 3 -0.018542 -0.022881 0.044570 0.000000 0.015810 0.000000
# 4 0.000000 0.000000 0.000000 0.075959 0.000000 0.002403
# 5 0.005796 0.012915 0.015810 0.000000 0.052781 0.000000
# 6 0.000000 0.000000 0.000000 0.002403 0.000000 0.032537
#
#
# Mechanical properties :
#
#
# Convention : Reuss Voigt Hill
#
# Bulk Modulus (GPa) = 14.64144 35.72645 25.18394
# Shear Modulus (GPa) = 14.20486 24.36657 19.28572
#
# Velocity S-wave (km/s) = 2.70804 3.54678 3.15540
# Velocity P-wave (km/s) = 4.16376 5.93441 5.12612
#
# Compressibility (1/GPa) = 0.06829928
#
# Stress axis : x y z
#
# Youngs Moduli (GPa) = 47.89836 18.98373 22.43670
#
# Poissons Ratio (x) = -0.31343 0.41602
# Poissons Ratio (y) = -0.79083 0.51338
# Poissons Ratio (z) = 0.88813 0.43437
#
# Static dielectric constant tensor:
#      x y z
#    x 1.704280 0.000000 -0.047560 
#    y 0.000000 1.702310 0.000000 
#    z -0.047560 0.000000 1.722480 
# 
# From -- ./inp_files/56167.got.cif
#   From: 2010.05.17/outbox.cif.g08.bks.cpg/sg11_29_cif.got.tgz:56167.got - 2010.06.03 12:22:45.
