data_PCOD9158943
_publ_section_title
;
Structure prediction by ZEFSAII (Michael W. Deem and Ramdas Pophale) SiO2 
 PCOD9158943
Probable space group: P 21/M
;
_chemical_formula_sum "Si O2"
_cell_formula_units_Z 28
_cell_length_a 12.359855
_cell_length_b 7.373177
_cell_length_c 13.216011
_cell_angle_alpha 90.000000
_cell_angle_beta 85.788722
_cell_angle_gamma 90.000000
_cell_volume 1201.141754
_symmetry_space_group_name_H-M "P 21/M"
_symmetry_group_IT_number 11
_symmetry_cell_setting 'monoclinic'
loop_
_space_group_symop_operation_xyz
x,y,z
-x,1/2+y,-z
-x,-y,-z
x,1/2-y,z
loop_
_atom_site_type_symbol
_atom_site_label
_atom_site_fract_x
_atom_site_fract_y
_atom_site_fract_z
Si Si1 0.745632 0.971676 0.877409
Si Si2 0.559924 0.965662 0.600755
Si Si3 0.797352 0.971866 0.526363
Si Si4 0.929414 0.530324 0.705475
Si Si5 0.506164 0.530690 0.822432
Si Si6 0.727446 0.541359 0.099533
Si Si7 0.823212 0.958026 0.297705
O O1 0.744965 0.750000 0.877483
O O2 0.836686 0.026458 0.790970
O O3 0.624372 0.025935 0.853309
O O4 0.767055 0.035353 0.990209
O O5 0.567556 0.750000 0.612990
O O6 0.683338 0.030452 0.582791
O O7 0.499886 0.031110 0.705511
O O8 0.500000 0.000000 0.500000
O O9 0.799294 0.750000 0.524290
O O10 0.892950 0.027738 0.595402
O O11 0.802813 0.037317 0.410640
O O12 0.933509 0.750000 0.706300
O O13 0.047670 0.461548 0.725222
O O14 0.500973 0.750000 0.827573
O O15 0.403090 0.461351 0.890498
O O16 0.765364 0.750000 0.098567
O O17 0.767351 0.458309 0.202654
O O18 0.783725 0.750000 0.306844
#
# Coordination Sequence:
#
# PCOD9158943 Si02
#       7
#     4   4   4   4   4   4   4
#     4   9  18  35  57  79 103 138 180 217 259 313
#     4  10  19  32  52  78 107 140 174 211 258 312
#     4   9  17  33  54  73 100 138 175 208 256 318
#     4  10  19  35  58  77  97 136 183 218 254 309
#     4  10  19  34  56  80 106 136 178 222 257 306
#     4  10  21  36  54  77 109 143 173 213 268 319
#     4  10  21  35  51  76 108 138 169 215 269 312
#
# _framework density 23.311152
#
# number of rings (size 3 to 8) (size 9 to 14) (size 15 to 20)
#    0.000    2.286    1.429    1.714    0.000    2.857 
#    0.000    2.857    0.000    0.000    0.000    0.000 
#    0.000    0.000    0.000    0.000    0.000    0.000 
#
# Total GULP energy -156514.203698 kJ/mol
# GULP energy per Si atom -5589.792989 kJ/mol
# Density = 2.325809 g / cm^3
# Si number density = 23.311152 Si / 1000 Ang^3
#
#
#
# Elastic Constant Matrix: (Units=GPa)
#
#
# Indices 1 2 3 4 5 6 
#
# 1 43.7319 -8.1398 0.0590 0.0000 -3.1915 0.0000
# 2 -8.1398 85.0573 5.9642 0.0000 4.7781 0.0000
# 3 0.0590 5.9642 147.7142 0.0000 -4.0978 0.0000
# 4 0.0000 0.0000 0.0000 -11.4883 0.0000 -6.6278
# 5 -3.1915 4.7781 -4.0978 0.0000 23.7891 0.0000
# 6 0.0000 0.0000 0.0000 -6.6278 0.0000 13.9632
#
#
#
# Elastic Compliance Matrix: (Units=1/GPa)
#
#
# Indices 1 2 3 4 5 6 
#
# 1 0.023455 0.002093 -0.000018 0.000000 0.002723 0.000000
# 2 0.002093 0.012122 -0.000553 0.000000 -0.002249 0.000000
# 3 -0.000018 -0.000553 0.006828 0.000000 0.001285 0.000000
# 4 0.000000 0.000000 0.000000 -0.068333 0.000000 -0.032435
# 5 0.002723 -0.002249 0.001285 0.000000 0.043074 0.000000
# 6 0.000000 0.000000 0.000000 -0.032435 0.000000 0.056221
#
#
# Mechanical properties :
#
#
# Convention : Reuss Voigt Hill
#
# Bulk Modulus (GPa) = 22.00285 30.25224 26.12754
# Shear Modulus (GPa) = 58.49758 23.82746 41.16252
#
# Velocity S-wave (km/s) = 5.01485 3.20057 4.20668
# Velocity P-wave (km/s) = 6.55674 5.16372 5.90148
#
# Compressibility (1/GPa) = 0.04544866
#
# Stress axis : x y z
#
# Youngs Moduli (GPa) = 42.63496 82.49345 146.46028
#
# Poissons Ratio (x) = -0.17265 0.00269
# Poissons Ratio (y) = -0.08923 0.08095
# Poissons Ratio (z) = 0.00078 0.04559
#
# Static dielectric constant tensor:
#      x y z
#    x 1.813580 0.000000 -0.001710 
#    y 0.000000 1.905110 0.000000 
#    z -0.001710 0.000000 1.760600 
# 
# From -- ./inp_files/34312.got.cif
#   From: 2010.05.17/outbox.cif.g08.bks.cpg/sg11_18_cif.got.tgz:34312.got - 2010.06.03 12:22:45.
