data_PCOD9158605
_publ_section_title
;
Structure prediction by ZEFSAII (Michael W. Deem and Ramdas Pophale) SiO2 
 PCOD9158605
Probable space group: P 21/M
;
_chemical_formula_sum "Si O2"
_cell_formula_units_Z 28
_cell_length_a 14.766202
_cell_length_b 9.814341
_cell_length_c 11.986967
_cell_angle_alpha 90.000000
_cell_angle_beta 49.640129
_cell_angle_gamma 90.000000
_cell_volume 1323.700401
_symmetry_space_group_name_H-M "P 21/M"
_symmetry_group_IT_number 11
_symmetry_cell_setting 'monoclinic'
loop_
_space_group_symop_operation_xyz
x,y,z
-x,1/2+y,-z
-x,-y,-z
x,1/2-y,z
loop_
_atom_site_type_symbol
_atom_site_label
_atom_site_fract_x
_atom_site_fract_y
_atom_site_fract_z
Si Si1 0.306834 0.909101 0.793375
Si Si2 0.153884 0.407974 0.300596
Si Si3 0.511888 0.403655 0.684219
Si Si4 0.577428 0.609059 0.996741
Si Si5 0.896225 0.411596 0.868971
Si Si6 0.222407 0.592904 0.452043
Si Si7 0.096230 0.905754 0.790095
O O1 0.337736 0.750000 0.760756
O O2 0.208449 0.939878 0.777956
O O3 0.425747 0.997228 0.685178
O O4 0.232304 0.926680 0.968456
O O5 0.107791 0.250000 0.345824
O O6 0.287922 0.397015 0.147933
O O7 0.095940 0.504609 0.252847
O O8 0.166370 0.490398 0.406385
O O9 0.522475 0.250000 0.628454
O O10 0.644379 0.448858 0.614406
O O11 0.441129 0.394879 0.857340
O O12 0.524473 0.750000 0.996966
O O13 0.500000 0.500000 0.000000
O O14 0.918156 0.250000 0.837301
O O15 0.991956 0.483584 0.873610
O O16 0.231237 0.750000 0.400941
O O17 0.145234 0.596720 0.625041
O O18 0.056524 0.750000 0.849963
#
# Coordination Sequence:
#
# PCOD9158605 Si02
#       7
#     4   4   4   4   4   4   4
#     4  10  22  39  61  89 117 149 192 243 293 340
#     4  11  22  36  58  88 119 152 191 236 289 346
#     4  10  20  35  57  87 120 153 189 232 287 345
#     4  10  19  31  52  83 117 151 187 232 287 340
#     4  11  23  39  62  89 115 148 194 245 294 342
#     4  10  22  40  60  85 120 159 193 231 284 346
#     4  10  23  43  62  82 115 156 197 241 288 339
#
# _framework density 21.152822
#
# number of rings (size 3 to 8) (size 9 to 14) (size 15 to 20)
#    0.000    1.714    2.857    1.286    0.000    4.571 
#    0.000    0.000    0.000    0.000    0.000    0.000 
#    0.000    0.000    0.000    0.000    0.000    0.000 
#
# Total GULP energy -156257.415605 kJ/mol
# GULP energy per Si atom -5580.621986 kJ/mol
# Density = 2.110468 g / cm^3
# Si number density = 21.152822 Si / 1000 Ang^3
#
#
#
# Elastic Constant Matrix: (Units=GPa)
#
#
# Indices 1 2 3 4 5 6 
#
# 1 114.6678 89.5369 7.2861 0.0000 13.5255 0.0000
# 2 89.5369 144.1068 12.2714 0.0000 12.6191 0.0000
# 3 7.2861 12.2714 46.7630 0.0000 2.6673 0.0000
# 4 0.0000 0.0000 0.0000 13.9273 0.0000 4.6195
# 5 13.5255 12.6191 2.6673 0.0000 11.8356 0.0000
# 6 0.0000 0.0000 0.0000 4.6195 0.0000 37.5280
#
#
#
# Elastic Compliance Matrix: (Units=1/GPa)
#
#
# Indices 1 2 3 4 5 6 
#
# 1 0.017859 -0.010301 0.000464 0.000000 -0.009531 0.000000
# 2 -0.010301 0.013710 -0.001854 0.000000 -0.002428 0.000000
# 3 0.000464 -0.001854 0.021999 0.000000 -0.003511 0.000000
# 4 0.000000 0.000000 0.000000 0.074858 0.000000 -0.009215
# 5 -0.009531 -0.002428 -0.003511 0.000000 0.098762 0.000000
# 6 0.000000 0.000000 0.000000 -0.009215 0.000000 0.027781
#
#
# Mechanical properties :
#
#
# Convention : Reuss Voigt Hill
#
# Bulk Modulus (GPa) = 33.12833 58.19183 45.66008
# Shear Modulus (GPa) = 17.33618 25.75437 21.54528
#
# Velocity S-wave (km/s) = 2.86592 3.49311 3.19494
# Velocity P-wave (km/s) = 5.16205 6.62110 5.93657
#
# Compressibility (1/GPa) = 0.03018565
#
# Stress axis : x y z
#
# Youngs Moduli (GPa) = 55.99386 72.93841 45.45666
#
# Poissons Ratio (x) = 0.75136 -0.02110
# Poissons Ratio (y) = 0.57681 0.08429
# Poissons Ratio (z) = -0.02599 0.13525
#
# Static dielectric constant tensor:
#      x y z
#    x 1.782980 0.000000 0.031350 
#    y 0.000000 1.780610 0.000000 
#    z 0.031350 0.000000 1.797980 
# 
# From -- ./inp_files/37845.got.cif
#   From: 2010.05.17/outbox.cif.g08.bks.cpg/sg11_19_cif.got.tgz:37845.got - 2010.06.03 12:22:45.
