data_PCOD9158909
_publ_section_title
;
Structure prediction by ZEFSAII (Michael W. Deem and Ramdas Pophale) SiO2 
 PCOD9158909
Probable space group: P 21/M
;
_chemical_formula_sum "Si O2"
_cell_formula_units_Z 32
_cell_length_a 16.908381
_cell_length_b 7.385887
_cell_length_c 12.443335
_cell_angle_alpha 90.000000
_cell_angle_beta 111.009596
_cell_angle_gamma 90.000000
_cell_volume 1450.658835
_symmetry_space_group_name_H-M "P 21/M"
_symmetry_group_IT_number 11
_symmetry_cell_setting 'monoclinic'
loop_
_space_group_symop_operation_xyz
x,y,z
-x,1/2+y,-z
-x,-y,-z
x,1/2-y,z
loop_
_atom_site_type_symbol
_atom_site_label
_atom_site_fract_x
_atom_site_fract_y
_atom_site_fract_z
Si Si1 0.748292 0.528405 0.481797
Si Si2 0.637214 0.969937 0.066789
Si Si3 0.417318 0.467535 0.729912
Si Si4 0.243985 0.028449 0.267533
Si Si5 0.905598 0.966027 0.414395
Si Si6 0.395512 0.463283 0.188266
Si Si7 0.099365 0.466013 0.038726
Si Si8 0.166048 0.470331 0.842213
O O1 0.748040 0.750000 0.481272
O O2 0.663524 0.470273 0.377806
O O3 0.750034 0.469859 0.606360
O O4 0.832098 0.468129 0.458671
O O5 0.630363 0.750000 0.062809
O O6 0.588750 0.034392 0.149481
O O7 0.736025 0.015985 0.128434
O O8 0.609808 0.037351 0.936092
O O9 0.411994 0.250000 0.730930
O O10 0.508489 0.514481 0.726319
O O11 0.244859 0.250000 0.270337
O O12 0.323665 0.967492 0.233832
O O13 0.158060 0.969575 0.165337
O O14 0.894717 0.750000 0.404723
O O15 0.888531 0.033756 0.285550
O O16 0.000000 0.000000 0.500000
O O17 0.377428 0.250000 0.169713
O O18 0.110826 0.250000 0.042368
O O19 0.134023 0.535955 0.941759
O O20 0.000000 0.500000 0.000000
O O21 0.162302 0.250000 0.843369
#
# Coordination Sequence:
#
# PCOD9158909 Si02
#       8
#     4   4   4   4   4   4   4   4
#     4   9  18  33  52  73  98 132 171 204 239 294
#     4   9  15  29  52  74  96 128 168 201 237 291
#     4  10  19  32  52  75  99 128 164 205 246 292
#     4   9  18  33  52  73  98 132 171 204 239 294
#     4  10  20  34  54  77 102 132 168 209 250 296
#     4  10  19  32  52  75  99 128 164 205 246 292
#     4  10  20  34  54  77 102 132 168 209 250 296
#     4   9  16  31  54  76  98 132 173 205 240 295
#
# _framework density 22.058944
#
# number of rings (size 3 to 8) (size 9 to 14) (size 15 to 20)
#    0.000    2.500    2.500    0.375    1.750    0.500 
#    0.000    1.250    0.000    3.000    0.000    0.000 
#    0.000    0.000    0.000    0.000    0.000    0.000 
#
# Total GULP energy -178775.303216 kJ/mol
# GULP energy per Si atom -5586.728225 kJ/mol
# Density = 2.200874 g / cm^3
# Si number density = 22.058944 Si / 1000 Ang^3
#
#
#
# Elastic Constant Matrix: (Units=GPa)
#
#
# Indices 1 2 3 4 5 6 
#
# 1 64.2224 -10.4285 29.1830 0.0000 11.1675 0.0000
# 2 -10.4285 75.3057 2.1741 0.0000 -6.2171 0.0000
# 3 29.1830 2.1741 138.4885 0.0000 -0.0089 0.0000
# 4 0.0000 0.0000 0.0000 -4.2067 0.0000 14.0698
# 5 11.1675 -6.2171 -0.0089 0.0000 35.5042 0.0000
# 6 0.0000 0.0000 0.0000 14.0698 0.0000 11.1691
#
#
#
# Elastic Compliance Matrix: (Units=1/GPa)
#
#
# Indices 1 2 3 4 5 6 
#
# 1 0.018697 0.002251 -0.003976 0.000000 -0.005488 0.000000
# 2 0.002251 0.013751 -0.000690 0.000000 0.001700 0.000000
# 3 -0.003976 -0.000690 0.008069 0.000000 0.001132 0.000000
# 4 0.000000 0.000000 0.000000 -0.045599 0.000000 0.057441
# 5 -0.005488 0.001700 0.001132 0.000000 0.030190 0.000000
# 6 0.000000 0.000000 0.000000 0.057441 0.000000 0.017174
#
#
# Mechanical properties :
#
#
# Convention : Reuss Voigt Hill
#
# Bulk Modulus (GPa) = 28.02040 35.54153 31.78097
# Shear Modulus (GPa) = 84.73304 25.63252 55.18278
#
# Velocity S-wave (km/s) = 6.20447 3.41251 5.00703
# Velocity P-wave (km/s) = 8.00359 5.62797 6.91851
#
# Compressibility (1/GPa) = 0.03568828
#
# Stress axis : x y z
#
# Youngs Moduli (GPa) = 53.48380 72.72103 123.92355
#
# Poissons Ratio (x) = -0.16369 0.49268
# Poissons Ratio (y) = -0.12039 0.08552
# Poissons Ratio (z) = 0.21263 0.05018
#
# Static dielectric constant tensor:
#      x y z
#    x 1.764540 0.000000 -0.002580 
#    y 0.000000 1.857640 0.000000 
#    z -0.002580 0.000000 1.789620 
# 
# From -- ./inp_files/38970.got.cif
#   From: 2010.05.17/outbox.cif.g08.bks.cpg/sg11_20_cif.got.tgz:38970.got - 2010.06.03 12:22:45.
