data_PCOD9158767
_publ_section_title
;
Structure prediction by ZEFSAII (Michael W. Deem and Ramdas Pophale) SiO2 
 PCOD9158767
Probable space group: P 21/M
;
_chemical_formula_sum "Si O2"
_cell_formula_units_Z 28
_cell_length_a 12.853467
_cell_length_b 7.543320
_cell_length_c 13.968361
_cell_angle_alpha 90.000000
_cell_angle_beta 108.387249
_cell_angle_gamma 90.000000
_cell_volume 1285.197511
_symmetry_space_group_name_H-M "P 21/M"
_symmetry_group_IT_number 11
_symmetry_cell_setting 'monoclinic'
loop_
_space_group_symop_operation_xyz
x,y,z
-x,1/2+y,-z
-x,-y,-z
x,1/2-y,z
loop_
_atom_site_type_symbol
_atom_site_label
_atom_site_fract_x
_atom_site_fract_y
_atom_site_fract_z
Si Si1 0.831912 0.532962 0.297713
Si Si2 0.163854 0.034822 0.487611
Si Si3 0.745139 0.957500 0.782594
Si Si4 0.961530 0.452667 0.741413
Si Si5 0.374915 0.038229 0.440381
Si Si6 0.638461 0.954716 0.937150
Si Si7 0.394163 0.034530 0.856989
O O1 0.836301 0.750000 0.298264
O O2 0.864057 0.475109 0.413821
O O3 0.707658 0.483201 0.238269
O O4 0.917824 0.470521 0.242238
O O5 0.155041 0.250000 0.481519
O O6 0.288720 0.983218 0.497082
O O7 0.091375 0.961170 0.380312
O O8 0.716227 0.750000 0.781322
O O9 0.671442 0.033413 0.674289
O O10 0.715867 0.034336 0.877790
O O11 0.870962 0.966805 0.785180
O O12 0.973474 0.250000 0.775541
O O13 0.364413 0.250000 0.431957
O O14 0.500000 0.000000 0.500000
O O15 0.671236 0.750000 0.961448
O O16 0.513346 0.964705 0.863124
O O17 0.632090 0.030118 0.042482
O O18 0.402055 0.250000 0.859599
#
# Coordination Sequence:
#
# PCOD9158767 Si02
#       7
#     4   4   4   4   4   4   4
#     4   9  18  32  51  74 101 130 163 203 247 291
#     4   9  18  33  49  67  98 136 164 193 245 298
#     4   9  19  35  51  67  97 136 163 195 248 297
#     4  10  19  32  50  74  99 127 169 210 238 282
#     4   9  18  29  43  65  94 125 158 195 233 281
#     4   9  18  34  54  75 100 129 163 201 246 296
#     4   9  18  33  54  77 100 128 161 201 248 296
#
# _framework density 21.786534
#
# number of rings (size 3 to 8) (size 9 to 14) (size 15 to 20)
#    0.000    2.857    0.000    1.714    2.000    2.857 
#    0.000    3.571    0.000    0.000    0.000    0.000 
#    0.000    0.000    0.000    0.000    0.000    0.000 
#
# Total GULP energy -156157.055768 kJ/mol
# GULP energy per Si atom -5577.037706 kJ/mol
# Density = 2.173695 g / cm^3
# Si number density = 21.786534 Si / 1000 Ang^3
#
#
#
# Elastic Constant Matrix: (Units=GPa)
#
#
# Indices 1 2 3 4 5 6 
#
# 1 59.8133 -10.2218 3.7869 0.0000 -25.2540 0.0000
# 2 -10.2218 50.7796 -2.8166 0.0000 -6.3358 0.0000
# 3 3.7869 -2.8166 21.5451 0.0000 -20.6847 0.0000
# 4 0.0000 0.0000 0.0000 9.4399 0.0000 1.5452
# 5 -25.2540 -6.3358 -20.6847 0.0000 37.2429 0.0000
# 6 0.0000 0.0000 0.0000 1.5452 0.0000 15.3370
#
#
#
# Elastic Compliance Matrix: (Units=1/GPa)
#
#
# Indices 1 2 3 4 5 6 
#
# 1 0.044160 0.020257 0.057723 0.000000 0.065450 0.000000
# 2 0.020257 0.031169 0.040261 0.000000 0.041400 0.000000
# 3 0.057723 0.040261 0.183569 0.000000 0.147945 0.000000
# 4 0.000000 0.000000 0.000000 0.107710 0.000000 -0.010852
# 5 0.065450 0.041400 0.147945 0.000000 0.160444 0.000000
# 6 0.000000 0.000000 0.000000 -0.010852 0.000000 0.066295
#
#
# Mechanical properties :
#
#
# Convention : Reuss Voigt Hill
#
# Bulk Modulus (GPa) = 2.01866 12.62612 7.32239
# Shear Modulus (GPa) = 9.57869 21.82990 15.70430
#
# Velocity S-wave (km/s) = 2.09908 3.16886 2.68773
# Velocity P-wave (km/s) = 2.60834 4.38142 3.60557
#
# Compressibility (1/GPa) = 0.49537866
#
# Stress axis : x y z
#
# Youngs Moduli (GPa) = 22.64497 32.08293 5.44755
#
# Poissons Ratio (x) = -0.64991 -0.31445
# Poissons Ratio (y) = -0.45872 -0.21932
# Poissons Ratio (z) = -1.30713 -1.29168
#
# Static dielectric constant tensor:
#      x y z
#    x 1.808660 0.000000 -0.018200 
#    y 0.000000 1.826760 0.000000 
#    z -0.018200 0.000000 1.790910 
# 
# From -- ./inp_files/37198.got.cif
#   From: 2010.05.17/outbox.cif.g08.bks.cpg/sg11_19_cif.got.tgz:37198.got - 2010.06.03 12:22:45.
