data_PCOD9158121
_publ_section_title
;
Structure prediction by ZEFSAII (Michael W. Deem and Ramdas Pophale) SiO2 
 PCOD9158121
Probable space group: P 21/M
;
_chemical_formula_sum "Si O2"
_cell_formula_units_Z 32
_cell_length_a 12.136869
_cell_length_b 14.483180
_cell_length_c 16.869707
_cell_angle_alpha 90.000000
_cell_angle_beta 26.820867
_cell_angle_gamma 90.000000
_cell_volume 1337.980287
_symmetry_space_group_name_H-M "P 21/M"
_symmetry_group_IT_number 11
_symmetry_cell_setting 'monoclinic'
loop_
_space_group_symop_operation_xyz
x,y,z
-x,1/2+y,-z
-x,-y,-z
x,1/2-y,z
loop_
_atom_site_type_symbol
_atom_site_label
_atom_site_fract_x
_atom_site_fract_y
_atom_site_fract_z
Si Si1 0.000547 0.018932 0.244222
Si Si2 0.356201 0.858951 0.971786
Si Si3 0.049488 0.902059 0.429446
Si Si4 0.559364 0.857377 0.665942
Si Si5 0.899695 0.648873 0.689408
Si Si6 0.188901 0.140265 0.892157
Si Si7 0.570177 0.857931 0.102122
Si Si8 0.731515 0.029625 0.264085
O O1 0.973487 0.063478 0.347615
O O2 0.772720 0.029896 0.331447
O O3 0.205501 0.089485 0.079380
O O4 0.137052 0.921257 0.145466
O O5 0.298784 0.750000 0.010281
O O6 0.418519 0.884000 0.839011
O O7 0.612062 0.870475 0.855402
O O8 0.323052 0.896861 0.224536
O O9 0.843448 0.869221 0.502476
O O10 0.022427 0.841207 0.525217
O O11 0.000000 0.000000 0.500000
O O12 0.503075 0.750000 0.686691
O O13 0.493063 0.921370 0.634855
O O14 0.922790 0.750000 0.714283
O O15 0.153480 0.250000 0.899810
O O16 0.402072 0.129459 0.820900
O O17 0.242814 0.075388 0.782937
O O18 0.952222 0.092381 0.084590
O O19 0.580431 0.750000 0.080302
#
# Coordination Sequence:
#
# PCOD9158121 Si02
#       8
#     4   4   4   4   4   4   4   4
#     4  11  21  34  55  85 118 147 180 226 280 334
#     4   9  18  32  51  75 106 145 186 230 278 327
#     4  11  21  36  59  83 109 144 188 235 278 327
#     4  10  19  33  53  79 113 150 188 230 276 329
#     4  10  21  37  55  80 115 152 186 220 275 341
#     4   9  17  29  47  74 109 143 181 234 283 321
#     4  10  19  32  53  83 113 141 181 232 281 324
#     4  10  19  30  48  78 111 146 186 224 270 332
#
# _framework density 23.916644999999999
#
# number of rings (size 3 to 8) (size 9 to 14) (size 15 to 20)
#    0.000    2.000    0.000    7.500    0.000    3.000 
#    0.000    0.000    0.000    4.500    0.000    5.250 
#    0.000    8.000    0.000    0.000    0.000    0.000 
#
# Total GULP energy -179009.032719 kJ/mol
# GULP energy per Si atom -5594.032272 kJ/mol
# Density = 2.386221 g / cm^3
# Si number density = 23.916645 Si / 1000 Ang^3
#
#
#
# Elastic Constant Matrix: (Units=GPa)
#
#
# Indices 1 2 3 4 5 6 
#
# 1 99.8299 39.6054 21.2553 0.0000 -8.6192 0.0000
# 2 39.6054 160.1667 6.5825 0.0000 3.8525 0.0000
# 3 21.2553 6.5825 37.8223 0.0000 -10.0582 0.0000
# 4 0.0000 0.0000 0.0000 13.6666 0.0000 8.6891
# 5 -8.6192 3.8525 -10.0582 0.0000 30.2358 0.0000
# 6 0.0000 0.0000 0.0000 8.6891 0.0000 27.6358
#
#
#
# Elastic Compliance Matrix: (Units=1/GPa)
#
#
# Indices 1 2 3 4 5 6 
#
# 1 0.012639 -0.002923 -0.006074 0.000000 0.001955 0.000000
# 2 -0.002923 0.007010 -0.000040 0.000000 -0.001740 0.000000
# 3 -0.006074 -0.000040 0.032254 0.000000 0.009003 0.000000
# 4 0.000000 0.000000 0.000000 0.091453 0.000000 -0.028754
# 5 0.001955 -0.001740 0.009003 0.000000 0.036847 0.000000
# 6 0.000000 0.000000 0.000000 -0.028754 0.000000 0.045226
#
#
# Mechanical properties :
#
#
# Convention : Reuss Voigt Hill
#
# Bulk Modulus (GPa) = 29.56075 48.07837 38.81956
# Shear Modulus (GPa) = 19.62490 29.66602 24.64546
#
# Velocity S-wave (km/s) = 2.86764 3.52574 3.21358
# Velocity P-wave (km/s) = 4.83231 6.05975 5.48050
#
# Compressibility (1/GPa) = 0.03382864
#
# Stress axis : x y z
#
# Youngs Moduli (GPa) = 79.12291 142.65991 31.00371
#
# Poissons Ratio (x) = 0.41694 0.18832
# Poissons Ratio (y) = 0.23124 0.00124
# Poissons Ratio (z) = 0.48061 0.00572
#
# Static dielectric constant tensor:
#      x y z
#    x 1.999200 0.000000 0.010490 
#    y 0.000000 1.892260 0.000000 
#    z 0.010490 0.000000 1.891440 
# 
# From -- ./inp_files/59463.got.cif
#   From: 2010.05.17/outbox.cif.g08.bks.cpg/sg11_30_cif.got.tgz:59463.got - 2010.06.03 12:22:45.
