data_PCOD9158192
_publ_section_title
;
Structure prediction by ZEFSAII (Michael W. Deem and Ramdas Pophale) SiO2 
 PCOD9158192
Probable space group: P 21/M
;
_chemical_formula_sum "Si O2"
_cell_formula_units_Z 32
_cell_length_a 16.930128
_cell_length_b 8.775941
_cell_length_c 12.433698
_cell_angle_alpha 90.000000
_cell_angle_beta 87.053210
_cell_angle_gamma 90.000000
_cell_volume 1844.928785
_symmetry_space_group_name_H-M "P 21/M"
_symmetry_group_IT_number 11
_symmetry_cell_setting 'monoclinic'
loop_
_space_group_symop_operation_xyz
x,y,z
-x,1/2+y,-z
-x,-y,-z
x,1/2-y,z
loop_
_atom_site_type_symbol
_atom_site_label
_atom_site_fract_x
_atom_site_fract_y
_atom_site_fract_z
Si Si1 0.332194 0.432912 0.054232
Si Si2 0.659396 0.567358 0.609503
Si Si3 0.723251 0.932250 0.371847
Si Si4 0.892226 0.068681 0.413884
Si Si5 0.201194 0.068467 0.233109
Si Si6 0.630708 0.431763 0.178265
Si Si7 0.946234 0.069296 0.653631
Si Si8 0.543824 0.431773 0.784746
O O1 0.341337 0.250000 0.051028
O O2 0.250244 0.467384 0.121988
O O3 0.401954 0.502048 0.122943
O O4 0.336918 0.501283 0.935827
O O5 0.646941 0.750000 0.619940
O O6 0.675956 0.528788 0.484918
O O7 0.737888 0.531126 0.673991
O O8 0.587431 0.482029 0.671815
O O9 0.719736 0.750000 0.358803
O O10 0.813386 0.984240 0.382540
O O11 0.684477 0.013519 0.273123
O O12 0.881759 0.250000 0.405888
O O13 0.910642 0.031265 0.537779
O O14 0.970091 0.015286 0.344535
O O15 0.187060 0.250000 0.238027
O O16 0.119507 0.982611 0.257021
O O17 0.627747 0.250000 0.173111
O O18 0.542869 0.497803 0.201478
O O19 0.958987 0.250000 0.656676
O O20 0.540040 0.250000 0.792727
#
# Coordination Sequence:
#
# PCOD9158192 Si02
#       8
#     4   4   4   4   4   4   4   4
#     4  10  21  39  60  83 110 142 183 230 279 324
#     4   9  19  35  55  80 111 146 181 222 275 329
#     4  11  22  38  58  79 111 149 185 225 273 330
#     4  10  20  33  51  79 114 149 183 222 267 319
#     4   9  17  32  55  82 111 142 176 224 275 322
#     4  12  25  40  57  79 108 145 188 229 274 328
#     4  10  19  30  51  82 114 146 182 222 266 319
#     4  11  22  37  59  84 110 141 181 231 280 324
#
# _framework density 17.344840999999999
#
# number of rings (size 3 to 8) (size 9 to 14) (size 15 to 20)
#    0.000    1.750    1.250    4.875    0.000    5.000 
#    0.000    0.000    0.000    0.750    0.000    0.000 
#    0.000    0.000    0.000    0.000    0.000    0.000 
#
# Total GULP energy -178756.547553 kJ/mol
# GULP energy per Si atom -5586.142111 kJ/mol
# Density = 1.730536 g / cm^3
# Si number density = 17.344841 Si / 1000 Ang^3
#
#
#
# Elastic Constant Matrix: (Units=GPa)
#
#
# Indices 1 2 3 4 5 6 
#
# 1 27.0541 47.4650 118.0958 0.0000 -47.3306 0.0000
# 2 47.4650 87.7557 65.0716 0.0000 -12.1391 0.0000
# 3 118.0958 65.0716 72.7198 0.0000 13.6385 0.0000
# 4 0.0000 0.0000 0.0000 24.5552 0.0000 -3.9744
# 5 -47.3306 -12.1391 13.6385 0.0000 4.7677 0.0000
# 6 0.0000 0.0000 0.0000 -3.9744 0.0000 33.4385
#
#
#
# Elastic Compliance Matrix: (Units=1/GPa)
#
#
# Indices 1 2 3 4 5 6 
#
# 1 0.002028 -0.006998 0.005471 0.000000 -0.013337 0.000000
# 2 -0.006998 0.019962 -0.006473 0.000000 -0.000132 0.000000
# 3 0.005471 -0.006473 0.007691 0.000000 0.015826 0.000000
# 4 0.000000 0.000000 0.000000 0.041523 0.000000 0.004935
# 5 -0.013337 -0.000132 0.015826 0.000000 0.031732 0.000000
# 6 0.000000 0.000000 0.000000 0.004935 0.000000 0.030492
#
#
# Mechanical properties :
#
#
# Convention : Reuss Voigt Hill
#
# Bulk Modulus (GPa) = 73.09963 72.08828 72.59395
# Shear Modulus (GPa) = 32.46982 9.67876 21.07429
#
# Velocity S-wave (km/s) = 4.33137 2.36481 3.48949
# Velocity P-wave (km/s) = 8.20066 7.00774 7.62756
#
# Compressibility (1/GPa) = 0.01367996
#
# Stress axis : x y z
#
# Youngs Moduli (GPa) = 493.16894 50.09593 130.01971
#
# Poissons Ratio (x) = 0.35058 -0.71127
# Poissons Ratio (y) = 3.45124 0.84158
# Poissons Ratio (z) = -2.69789 0.32426
#
# Static dielectric constant tensor:
#      x y z
#    x 1.568140 0.000000 -0.015280 
#    y 0.000000 1.569440 0.000000 
#    z -0.015280 0.000000 1.577680 
# 
# From -- ./inp_files/38166.got.cif
#   From: 2010.05.17/outbox.cif.g08.bks.cpg/sg11_20_cif.got.tgz:38166.got - 2010.06.03 12:22:45.
