data_PCOD9158033
_publ_section_title
;
Structure prediction by ZEFSAII (Michael W. Deem and Ramdas Pophale) SiO2 
 PCOD9158033
Probable space group: P 21/M
;
_chemical_formula_sum "Si O2"
_cell_formula_units_Z 32
_cell_length_a 11.568159
_cell_length_b 9.392663
_cell_length_c 14.509438
_cell_angle_alpha 90.000000
_cell_angle_beta 69.428503
_cell_angle_gamma 90.000000
_cell_volume 1476.006258
_symmetry_space_group_name_H-M "P 21/M"
_symmetry_group_IT_number 11
_symmetry_cell_setting 'monoclinic'
loop_
_space_group_symop_operation_xyz
x,y,z
-x,1/2+y,-z
-x,-y,-z
x,1/2-y,z
loop_
_atom_site_type_symbol
_atom_site_label
_atom_site_fract_x
_atom_site_fract_y
_atom_site_fract_z
Si Si1 0.390897 0.922604 0.875594
Si Si2 0.878014 0.090990 0.046773
Si Si3 0.877802 0.907212 0.543003
Si Si4 0.368129 0.586252 0.172348
Si Si5 0.868094 0.910850 0.764582
Si Si6 0.377187 0.079888 0.681899
Si Si7 0.349995 0.589933 0.403096
Si Si8 0.143138 0.912285 0.726283
O O1 0.400917 0.750000 0.867282
O O2 0.255271 0.957861 0.954259
O O3 0.511824 0.992842 0.886239
O O4 0.388027 0.994734 0.775309
O O5 0.901206 0.250000 0.004939
O O6 0.857872 0.097396 0.162487
O O7 0.000000 0.000000 0.000000
O O8 0.896688 0.750000 0.498806
O O9 0.854093 0.896031 0.658847
O O10 0.756426 0.982774 0.538611
O O11 0.000000 0.000000 0.500000
O O12 0.379841 0.750000 0.138193
O O13 0.242477 0.512222 0.173810
O O14 0.359522 0.588955 0.287629
O O15 0.861535 0.750000 0.806993
O O16 0.006748 0.967182 0.740106
O O17 0.361254 0.250000 0.701273
O O18 0.512242 0.059831 0.599977
O O19 0.258037 0.010824 0.667772
O O20 0.314454 0.750000 0.439346
O O21 0.155161 0.750000 0.686733
#
# Coordination Sequence:
#
# PCOD9158033 Si02
#       8
#     4   4   4   4   4   4   4   4
#     4   9  16  27  43  64  90 120 153 188 227 270
#     4   9  18  30  46  68  93 121 151 187 228 269
#     4  10  19  30  47  69  92 120 151 185 226 270
#     4   9  16  26  43  68  93 116 147 191 235 268
#     4   9  18  32  49  68  92 124 156 185 225 276
#     4   9  16  26  43  68  93 117 148 190 234 267
#     4   8  15  27  42  63  91 117 145 184 225 266
#     4   9  18  32  48  68  94 123 155 188 225 273
#
# _framework density 21.680126000000001
#
# number of rings (size 3 to 8) (size 9 to 14) (size 15 to 20)
#    0.000    3.000    0.000    3.000    0.000    7.000 
#    0.000    0.000    0.000    1.500    0.000    0.000 
#    0.000    0.000    0.000    0.000    0.000    0.000 
#
# Total GULP energy -178436.248561 kJ/mol
# GULP energy per Si atom -5576.132768 kJ/mol
# Density = 2.163078 g / cm^3
# Si number density = 21.680126 Si / 1000 Ang^3
#
#
#
# Elastic Constant Matrix: (Units=GPa)
#
#
# Indices 1 2 3 4 5 6 
#
# 1 174.0976 101.7538 34.7679 0.0000 -60.3829 0.0000
# 2 101.7538 152.4183 43.8565 0.0000 -60.1883 0.0000
# 3 34.7679 43.8565 47.6869 0.0000 -10.5569 0.0000
# 4 0.0000 0.0000 0.0000 10.2936 0.0000 -16.0429
# 5 -60.3829 -60.1883 -10.5569 0.0000 52.4943 0.0000
# 6 0.0000 0.0000 0.0000 -16.0429 0.0000 32.1164
#
#
#
# Elastic Compliance Matrix: (Units=1/GPa)
#
#
# Indices 1 2 3 4 5 6 
#
# 1 0.011258 -0.003078 -0.003445 0.000000 0.008728 0.000000
# 2 -0.003078 0.017160 -0.010430 0.000000 0.014037 0.000000
# 3 -0.003445 -0.010430 0.030926 0.000000 -0.009702 0.000000
# 4 0.000000 0.000000 0.000000 0.438645 0.000000 0.219114
# 5 0.008728 0.014037 -0.009702 0.000000 0.043232 0.000000
# 6 0.000000 0.000000 0.000000 0.219114 0.000000 0.140589
#
#
# Mechanical properties :
#
#
# Convention : Reuss Voigt Hill
#
# Bulk Modulus (GPa) = 39.31120 81.66212 60.48666
# Shear Modulus (GPa) = 6.90420 31.90249 19.40335
#
# Velocity S-wave (km/s) = 1.78647 3.84019 2.99487
# Velocity P-wave (km/s) = 4.73572 7.57702 6.31816
#
# Compressibility (1/GPa) = 0.02543804
#
# Stress axis : x y z
#
# Youngs Moduli (GPa) = 88.82590 58.27579 32.33497
#
# Poissons Ratio (x) = 0.17937 0.11140
# Poissons Ratio (y) = 0.27340 0.33725
# Poissons Ratio (z) = 0.30602 0.60781
#
# Static dielectric constant tensor:
#      x y z
#    x 1.844990 0.000000 0.047310 
#    y 0.000000 1.775740 0.000000 
#    z 0.047310 0.000000 1.839300 
# 
# From -- ./inp_files/64174.got.cif
#   From: 2010.05.17/outbox.cif.g08.bks.cpg/sg11_33_cif.got.tgz:64174.got - 2010.06.03 12:22:45.
