data_PCOD9158443
_publ_section_title
;
Structure prediction by ZEFSAII (Michael W. Deem and Ramdas Pophale) SiO2 
 PCOD9158443
Probable space group: P 21/M
;
_chemical_formula_sum "Si O2"
_cell_formula_units_Z 32
_cell_length_a 26.788287
_cell_length_b 7.553818
_cell_length_c 21.879394
_cell_angle_alpha 90.000000
_cell_angle_beta 160.089925
_cell_angle_gamma 90.000000
_cell_volume 1507.721449
_symmetry_space_group_name_H-M "P 21/M"
_symmetry_group_IT_number 11
_symmetry_cell_setting 'monoclinic'
loop_
_space_group_symop_operation_xyz
x,y,z
-x,1/2+y,-z
-x,-y,-z
x,1/2-y,z
loop_
_atom_site_type_symbol
_atom_site_label
_atom_site_fract_x
_atom_site_fract_y
_atom_site_fract_z
Si Si1 0.606796 0.467853 0.326895
Si Si2 0.735041 0.041187 0.602179
Si Si3 0.723573 0.963428 0.029963
Si Si4 0.928411 0.458047 0.161083
Si Si5 0.642217 0.037177 0.622983
Si Si6 0.004042 0.462615 0.575968
Si Si7 0.197643 0.951095 0.554264
Si Si8 0.067090 0.963917 0.973415
O O1 0.614057 0.250000 0.333409
O O2 0.695176 0.528950 0.488993
O O3 0.439097 0.522456 0.141670
O O4 0.678498 0.532364 0.346319
O O5 0.703944 0.250000 0.562642
O O6 0.643359 0.970158 0.554317
O O7 0.907682 0.018806 0.813875
O O8 0.722208 0.750000 0.030039
O O9 0.847110 0.026969 0.219980
O O10 0.779125 0.017220 0.026892
O O11 0.964629 0.250000 0.201991
O O12 0.921328 0.522838 0.083796
O O13 0.055192 0.551726 0.345897
O O14 0.653546 0.250000 0.632741
O O15 0.500000 0.000000 0.500000
O O16 0.791672 0.971881 0.827032
O O17 0.002348 0.250000 0.581569
O O18 0.000000 0.500000 0.500000
O O19 0.865745 0.532182 0.456257
O O20 0.244059 0.750000 0.621754
O O21 0.070472 0.750000 0.977859
#
# Coordination Sequence:
#
# PCOD9158443 Si02
#       8
#     4   4   4   4   4   4   4   4
#     4   9  17  32  55  80 104 128 169 226 262 293
#     4  10  20  35  57  80  99 133 183 222 254 307
#     4   9  19  34  53  77 105 136 172 214 260 300
#     4  10  19  31  49  75 104 138 172 207 255 312
#     4  10  23  39  53  76 107 138 178 221 266 316
#     4   9  18  32  52  76 103 139 174 207 250 303
#     4   9  17  33  55  78 103 133 171 213 256 299
#     4  10  21  36  52  74 108 140 169 213 270 320
#
# _framework density 21.224079
#
# number of rings (size 3 to 8) (size 9 to 14) (size 15 to 20)
#    0.000    2.500    1.250    1.500    1.750    3.500 
#    0.000    1.875    0.000    0.000    0.000    0.000 
#    0.000    0.000    0.000    0.000    0.000    0.000 
#
# Total GULP energy -178585.845438 kJ/mol
# GULP energy per Si atom -5580.807670 kJ/mol
# Density = 2.117577 g / cm^3
# Si number density = 21.224079 Si / 1000 Ang^3
#
#
#
# Elastic Constant Matrix: (Units=GPa)
#
#
# Indices 1 2 3 4 5 6 
#
# 1 185.7474 -2.0835 47.4285 0.0000 18.0678 0.0000
# 2 -2.0835 51.7192 -5.4597 0.0000 -3.6362 0.0000
# 3 47.4285 -5.4597 54.2703 0.0000 20.0384 0.0000
# 4 0.0000 0.0000 0.0000 8.8134 0.0000 1.4295
# 5 18.0678 -3.6362 20.0384 0.0000 38.0824 0.0000
# 6 0.0000 0.0000 0.0000 1.4295 0.0000 12.6966
#
#
#
# Elastic Compliance Matrix: (Units=1/GPa)
#
#
# Indices 1 2 3 4 5 6 
#
# 1 0.006938 -0.000369 -0.006046 0.000000 -0.000145 0.000000
# 2 -0.000369 0.019595 0.001909 0.000000 0.001041 0.000000
# 3 -0.006046 0.001909 0.028268 0.000000 -0.011823 0.000000
# 4 0.000000 0.000000 0.000000 0.115575 0.000000 -0.013012
# 5 -0.000145 0.001041 -0.011823 0.000000 0.032648 0.000000
# 6 0.000000 0.000000 0.000000 -0.013012 0.000000 0.080226
#
#
# Mechanical properties :
#
#
# Convention : Reuss Voigt Hill
#
# Bulk Modulus (GPa) = 21.83967 41.27861 31.55914
# Shear Modulus (GPa) = 16.25885 28.70860 22.48372
#
# Velocity S-wave (km/s) = 2.77078 3.68182 3.25830
# Velocity P-wave (km/s) = 4.53306 6.12908 5.39046
#
# Compressibility (1/GPa) = 0.04578823
#
# Stress axis : x y z
#
# Youngs Moduli (GPa) = 144.14361 51.03325 35.37565
#
# Poissons Ratio (x) = 0.01883 0.21390
# Poissons Ratio (y) = 0.05319 -0.06754
# Poissons Ratio (z) = 0.87156 -0.09744
#
# Static dielectric constant tensor:
#      x y z
#    x 1.792330 0.000000 0.007500 
#    y 0.000000 2.832710 0.000000 
#    z 0.007500 0.000000 1.731780 
# 
# From -- ./inp_files/67149.got.cif
#   From: 2010.05.17/outbox.cif.g08.bks.cpg/sg11_34_cif.got.tgz:67149.got - 2010.06.03 12:22:45.
