data_PCOD9158222
_publ_section_title
;
Structure prediction by ZEFSAII (Michael W. Deem and Ramdas Pophale) SiO2 
 PCOD9158222
Probable space group: P 21/M
;
_chemical_formula_sum "Si O2"
_cell_formula_units_Z 28
_cell_length_a 32.016950
_cell_length_b 7.531938
_cell_length_c 32.016984
_cell_angle_alpha 90.000000
_cell_angle_beta 9.639677
_cell_angle_gamma 90.000000
_cell_volume 1292.873887
_symmetry_space_group_name_H-M "P 21/M"
_symmetry_group_IT_number 11
_symmetry_cell_setting 'monoclinic'
loop_
_space_group_symop_operation_xyz
x,y,z
-x,1/2+y,-z
-x,-y,-z
x,1/2-y,z
loop_
_atom_site_type_symbol
_atom_site_label
_atom_site_fract_x
_atom_site_fract_y
_atom_site_fract_z
Si Si1 0.524448 0.037419 0.024816
Si Si2 0.619921 0.466613 0.119411
Si Si3 0.762851 0.457343 0.262851
Si Si4 0.667890 0.031894 0.168599
Si Si5 0.047329 0.032493 0.547690
Si Si6 0.903740 0.966885 0.404246
Si Si7 0.188952 0.454622 0.689680
O O1 0.527039 0.250000 0.027446
O O2 0.786688 0.971757 0.784719
O O3 0.284198 0.971762 0.287166
O O4 0.500000 0.000000 0.000000
O O5 0.619604 0.250000 0.119073
O O6 0.643951 0.519424 0.143933
O O7 0.358130 0.524276 0.357556
O O8 0.858261 0.524275 0.857478
O O9 0.500000 0.500000 0.500000
O O10 0.767004 0.250000 0.267012
O O11 0.785662 0.545042 0.285574
O O12 0.000000 0.500000 0.000000
O O13 0.668662 0.250000 0.169522
O O14 0.432523 0.967881 0.427478
O O15 0.926565 0.967909 0.933517
O O16 0.046970 0.250000 0.547367
O O17 0.071791 0.978707 0.571749
O O18 0.903491 0.750000 0.404025
O O19 0.181758 0.250000 0.682660
#
# Coordination Sequence:
#
# PCOD9158222 Si02
#       7
#     4   4   4   4   4   4   4
#     4  10  19  31  46  64  89 118 153 193 239 291
#     4   9  15  23  37  61  93 127 159 194 239 295
#     4  12  25  42  63  88 117 150 191 237 284 335
#     4   9  17  28  45  70 102 137 170 206 252 303
#     4   9  17  28  42  62  89 122 154 192 241 293
#     4   9  15  23  37  58  89 124 155 189 238 293
#     4  10  19  33  52  75 106 142 176 213 260 312
#
# _framework density 21.657178999999999
#
# number of rings (size 3 to 8) (size 9 to 14) (size 15 to 20)
#    0.000    2.286    0.000    4.286    0.000    8.000 
#    0.000    0.000    0.000    0.000    0.000    0.000 
#    0.000   22.857    0.000    0.000    0.000    0.000 
#
# Total GULP energy -156502.265377 kJ/mol
# GULP energy per Si atom -5589.366621 kJ/mol
# Density = 2.160789 g / cm^3
# Si number density = 21.657179 Si / 1000 Ang^3
#
#
#
# Elastic Constant Matrix: (Units=GPa)
#
#
# Indices 1 2 3 4 5 6 
#
# 1 214.6247 -16.0193 156.4482 0.0000 -3.3402 0.0000
# 2 -16.0193 56.3085 3.7343 0.0000 -1.7371 0.0000
# 3 156.4482 3.7343 281.3718 0.0000 -1.7913 0.0000
# 4 0.0000 0.0000 0.0000 -3.5054 0.0000 1.3218
# 5 -3.3402 -1.7371 -1.7913 0.0000 49.9342 0.0000
# 6 0.0000 0.0000 0.0000 1.3218 0.0000 11.4531
#
#
#
# Elastic Compliance Matrix: (Units=1/GPa)
#
#
# Indices 1 2 3 4 5 6 
#
# 1 0.008220 0.002659 -0.004603 0.000000 0.000477 0.000000
# 2 0.002659 0.018653 -0.001721 0.000000 0.000765 0.000000
# 3 -0.004603 -0.001721 0.006135 0.000000 -0.000148 0.000000
# 4 0.000000 0.000000 0.000000 -0.273379 0.000000 0.031552
# 5 0.000477 0.000765 -0.000148 0.000000 0.020080 0.000000
# 6 0.000000 0.000000 0.000000 0.031552 0.000000 0.083671
#
#
# Mechanical properties :
#
#
# Convention : Reuss Voigt Hill
#
# Bulk Modulus (GPa) = 38.94304 93.40348 66.17326
# Shear Modulus (GPa) = -41.41500 38.78585 -1.31458
#
# Velocity S-wave (km/s) = -4.37773 4.23649 -0.77994
# Velocity P-wave (km/s) = 2.74446 8.19465 5.45987
#
# Compressibility (1/GPa) = 0.02567853
#
# Stress axis : x y z
#
# Youngs Moduli (GPa) = 121.64798 53.60954 162.99240
#
# Poissons Ratio (x) = -0.14253 0.75025
# Poissons Ratio (y) = -0.32342 0.28050
# Poissons Ratio (z) = 0.55994 0.09226
#
# Static dielectric constant tensor:
#      x y z
#    x 0.868750 0.000000 -0.073200 
#    y 0.000000 1.851710 0.000000 
#    z -0.073200 0.000000 1.896460 
# 
# From -- ./inp_files/9595.got.cif
#   From: 2010.05.17/outbox.cif.g08.bks.cpg/sg11_5_cif.got.tgz:9595.got - 2010.06.03 12:22:45.
