data_PCOD9158016
_publ_section_title
;
Structure prediction by ZEFSAII (Michael W. Deem and Ramdas Pophale) SiO2 
 PCOD9158016
Probable space group: P 21/M
;
_chemical_formula_sum "Si O2"
_cell_formula_units_Z 32
_cell_length_a 26.472233
_cell_length_b 8.877613
_cell_length_c 21.051549
_cell_angle_alpha 90.000000
_cell_angle_beta 21.037459
_cell_angle_gamma 90.000000
_cell_volume 1775.983625
_symmetry_space_group_name_H-M "P 21/M"
_symmetry_group_IT_number 11
_symmetry_cell_setting 'monoclinic'
loop_
_space_group_symop_operation_xyz
x,y,z
-x,1/2+y,-z
-x,-y,-z
x,1/2-y,z
loop_
_atom_site_type_symbol
_atom_site_label
_atom_site_fract_x
_atom_site_fract_y
_atom_site_fract_z
Si Si1 0.897375 0.070687 0.909530
Si Si2 0.228366 0.429660 0.539116
Si Si3 0.160870 0.931499 0.403448
Si Si4 0.286483 0.068448 0.135500
Si Si5 0.834514 0.568994 0.250008
Si Si6 0.136168 0.068936 0.184792
Si Si7 0.140046 0.428553 0.917208
Si Si8 0.605135 0.431414 0.771035
O O1 0.889601 0.250000 0.918699
O O2 0.064419 0.029339 0.718084
O O3 0.840401 0.004853 0.910796
O O4 0.823193 0.008636 0.060089
O O5 0.241106 0.250000 0.514899
O O6 0.256560 0.463205 0.580443
O O7 0.327786 0.513179 0.373393
O O8 0.161713 0.750000 0.397582
O O9 0.292529 0.981674 0.292321
O O10 0.017538 0.974706 0.607427
O O11 0.180038 0.000816 0.311681
O O12 0.279682 0.250000 0.147632
O O13 0.244998 0.026840 0.112451
O O14 0.444572 0.017005 0.965851
O O15 0.865355 0.750000 0.215388
O O16 0.780986 0.534068 0.241849
O O17 0.979841 0.480223 0.090538
O O18 0.137407 0.250000 0.175973
O O19 0.145779 0.250000 0.919871
O O20 0.604926 0.250000 0.771484
#
# Coordination Sequence:
#
# PCOD9158016 Si02
#       8
#     4   4   4   4   4   4   4   4
#     4  10  19  30  46  70  98 127 163 203 240 286
#     4   9  17  29  46  69  96 127 162 199 237 281
#     4  10  20  34  53  73  95 124 162 201 237 290
#     4  10  22  36  51  72  99 127 158 199 246 290
#     4   8  15  26  39  63  97 128 162 199 239 285
#     4  10  20  35  52  72  97 127 162 199 241 290
#     4   9  15  24  41  64  95 131 160 195 242 288
#     4  10  20  34  50  72  99 127 161 200 239 285
#
# _framework density 18.018184000000002
#
# number of rings (size 3 to 8) (size 9 to 14) (size 15 to 20)
#    0.000    2.500    1.250    2.250    0.000    4.500 
#    0.000    0.000    0.000    0.000    0.000    0.875 
#    0.000    0.000    0.000    0.000    0.000    0.000 
#
# Total GULP energy -178355.073161 kJ/mol
# GULP energy per Si atom -5573.596036 kJ/mol
# Density = 1.797717 g / cm^3
# Si number density = 18.018184 Si / 1000 Ang^3
#
#
#
# Elastic Constant Matrix: (Units=GPa)
#
#
# Indices 1 2 3 4 5 6 
#
# 1 93.4183 18.4501 12.9297 0.0000 23.5630 0.0000
# 2 18.4501 7.5743 2.9692 0.0000 5.4565 0.0000
# 3 12.9297 2.9692 13.1309 0.0000 5.3729 0.0000
# 4 0.0000 0.0000 0.0000 16.6369 0.0000 13.0878
# 5 23.5630 5.4565 5.3729 0.0000 32.8251 0.0000
# 6 0.0000 0.0000 0.0000 13.0878 0.0000 26.0947
#
#
#
# Elastic Compliance Matrix: (Units=1/GPa)
#
#
# Indices 1 2 3 4 5 6 
#
# 1 0.023233 -0.047807 -0.009104 0.000000 -0.007240 0.000000
# 2 -0.047807 0.256716 -0.008099 0.000000 -0.007031 0.000000
# 3 -0.009104 -0.008099 0.089737 0.000000 -0.006807 0.000000
# 4 0.000000 0.000000 0.000000 0.099278 0.000000 -0.049793
# 5 -0.007240 -0.007031 -0.006807 0.000000 0.037945 0.000000
# 6 0.000000 0.000000 0.000000 -0.049793 0.000000 0.063295
#
#
# Mechanical properties :
#
#
# Convention : Reuss Voigt Hill
#
# Bulk Modulus (GPa) = 4.17246 20.31351 12.24298
# Shear Modulus (GPa) = 6.40934 20.42964 13.41949
#
# Velocity S-wave (km/s) = 1.88809 3.37090 2.73202
# Velocity P-wave (km/s) = 2.65968 5.14286 4.09407
#
# Compressibility (1/GPa) = 0.23966700
#
# Stress axis : x y z
#
# Youngs Moduli (GPa) = 43.04290 3.89535 11.14366
#
# Poissons Ratio (x) = 0.18623 0.10145
# Poissons Ratio (y) = 2.05776 0.09025
# Poissons Ratio (z) = 0.39185 0.03155
#
# Static dielectric constant tensor:
#      x y z
#    x 1.648990 0.000000 0.006330 
#    y 0.000000 1.599100 0.000000 
#    z 0.006330 0.000000 1.600220 
# 
# From -- ./inp_files/67050.got.cif
#   From: 2010.05.17/outbox.cif.g08.bks.cpg/sg11_34_cif.got.tgz:67050.got - 2010.06.03 12:22:45.
