data_PCOD9158845
_publ_section_title
;
Structure prediction by ZEFSAII (Michael W. Deem and Ramdas Pophale) SiO2 
 PCOD9158845
Probable space group: P 21/M
;
_chemical_formula_sum "Si O2"
_cell_formula_units_Z 28
_cell_length_a 8.077274
_cell_length_b 19.451835
_cell_length_c 10.265071
_cell_angle_alpha 90.000000
_cell_angle_beta 128.128294
_cell_angle_gamma 90.000000
_cell_volume 1268.697185
_symmetry_space_group_name_H-M "P 21/M"
_symmetry_group_IT_number 11
_symmetry_cell_setting 'monoclinic'
loop_
_space_group_symop_operation_xyz
x,y,z
-x,1/2+y,-z
-x,-y,-z
x,1/2-y,z
loop_
_atom_site_type_symbol
_atom_site_label
_atom_site_fract_x
_atom_site_fract_y
_atom_site_fract_z
Si Si1 0.905206 0.329314 0.957871
Si Si2 0.077677 0.067028 0.855880
Si Si3 0.217518 0.914568 0.661639
Si Si4 0.784734 0.516677 0.568438
Si Si5 0.670644 0.071418 0.015247
Si Si6 0.072164 0.175117 0.619493
Si Si7 0.533330 0.874124 0.330895
O O1 0.961184 0.250000 0.001461
O O2 0.069775 0.379162 0.968351
O O3 0.688772 0.335296 0.765611
O O4 0.840114 0.369585 0.057206
O O5 0.094873 0.114037 0.735565
O O6 0.856662 0.024524 0.731378
O O7 0.240839 0.005359 0.947192
O O8 0.378068 0.911395 0.858997
O O9 0.003581 0.949754 0.618875
O O10 0.135525 0.843235 0.563438
O O11 0.284188 0.962068 0.574351
O O12 0.614095 0.577092 0.485763
O O13 0.505229 0.080331 0.819284
O O14 0.061158 0.250000 0.677158
O O15 0.271671 0.172318 0.619698
#
# Coordination Sequence:
#
# PCOD9158845 Si02
#       7
#     4   4   4   4   4   4   4
#     4  10  21  34  49  73 104 136 165 206 256 305
#     4  10  19  34  54  73 100 132 176 209 243 296
#     4   8  15  29  48  72 102 122 161 206 244 289
#     4   8  15  29  49  76  95 122 159 209 249 285
#     4   9  19  32  53  76 100 131 170 207 252 293
#     4  10  19  32  51  76 101 136 170 206 253 298
#     4   9  19  31  52  76 102 125 162 211 251 299
#
# _framework density 22.069883999999998
#
# number of rings (size 3 to 8) (size 9 to 14) (size 15 to 20)
#    0.857    2.000    0.000    3.857    0.000    3.429 
#    0.000    0.000    0.000    0.000    0.000    2.000 
#    0.000    0.000    0.000    0.000    0.000    0.000 
#
# Total GULP energy -155957.698286 kJ/mol
# GULP energy per Si atom -5569.917796 kJ/mol
# Density = 2.201965 g / cm^3
# Si number density = 22.069884 Si / 1000 Ang^3
#
#
#
# Elastic Constant Matrix: (Units=GPa)
#
#
# Indices 1 2 3 4 5 6 
#
# 1 15.4814 -0.1141 -3.1612 0.0000 1.3623 0.0000
# 2 -0.1141 142.8604 33.6828 0.0000 -0.9840 0.0000
# 3 -3.1612 33.6828 54.0713 0.0000 -1.0465 0.0000
# 4 0.0000 0.0000 0.0000 20.9728 0.0000 -5.7154
# 5 1.3623 -0.9840 -1.0465 0.0000 16.9431 0.0000
# 6 0.0000 0.0000 0.0000 -5.7154 0.0000 14.5956
#
#
#
# Elastic Compliance Matrix: (Units=1/GPa)
#
#
# Indices 1 2 3 4 5 6 
#
# 1 0.065930 -0.001017 0.004390 0.000000 -0.005089 0.000000
# 2 -0.001017 0.008221 -0.005176 0.000000 0.000240 0.000000
# 3 0.004390 -0.005176 0.021989 0.000000 0.000705 0.000000
# 4 0.000000 0.000000 0.000000 0.053377 0.000000 0.020901
# 5 -0.005089 0.000240 0.000705 0.000000 0.059488 0.000000
# 6 0.000000 0.000000 0.000000 0.020901 0.000000 0.076698
#
#
# Mechanical properties :
#
#
# Convention : Reuss Voigt Hill
#
# Bulk Modulus (GPa) = 10.80698 30.35867 20.58283
# Shear Modulus (GPa) = 15.61748 22.63601 19.12675
#
# Velocity S-wave (km/s) = 2.66303 3.20605 2.94708
# Velocity P-wave (km/s) = 3.78985 5.24315 4.57458
#
# Compressibility (1/GPa) = 0.09253279
#
# Stress axis : x y z
#
# Youngs Moduli (GPa) = 15.16753 121.63896 45.47793
#
# Poissons Ratio (x) = 0.12375 -0.19964
# Poissons Ratio (y) = 0.01543 0.23539
# Poissons Ratio (z) = -0.06658 0.62960
#
# Static dielectric constant tensor:
#      x y z
#    x 1.891100 0.000000 0.026790 
#    y 0.000000 1.806210 0.000000 
#    z 0.026790 0.000000 1.847760 
# 
# From -- ./inp_files/35946.got.cif
#   From: 2010.05.17/outbox.cif.g08.bks.cpg/sg11_18_cif.got.tgz:35946.got - 2010.06.03 12:22:45.
