data_PCOD9158570
_publ_section_title
;
Structure prediction by ZEFSAII (Michael W. Deem and Ramdas Pophale) SiO2 
 PCOD9158570
Probable space group: P 21/M
;
_chemical_formula_sum "Si O2"
_cell_formula_units_Z 28
_cell_length_a 29.838583
_cell_length_b 8.510387
_cell_length_c 9.248135
_cell_angle_alpha 90.000000
_cell_angle_beta 140.828892
_cell_angle_gamma 90.000000
_cell_volume 1483.372500
_symmetry_space_group_name_H-M "P 21/M"
_symmetry_group_IT_number 11
_symmetry_cell_setting 'monoclinic'
loop_
_space_group_symop_operation_xyz
x,y,z
-x,1/2+y,-z
-x,-y,-z
x,1/2-y,z
loop_
_atom_site_type_symbol
_atom_site_label
_atom_site_fract_x
_atom_site_fract_y
_atom_site_fract_z
Si Si1 0.999974 0.439430 0.335250
Si Si2 0.567976 0.561185 0.256737
Si Si3 0.154667 0.440255 0.725813
Si Si4 0.291575 0.439634 0.563924
Si Si5 0.154947 0.938511 0.055849
Si Si6 0.294893 0.059460 0.905653
Si Si7 0.567838 0.062835 0.582764
O O1 0.999458 0.250000 0.333961
O O2 0.077193 0.489215 0.470189
O O3 0.000000 0.500000 0.500000
O O4 0.923399 0.490449 0.083395
O O5 0.566974 0.750000 0.254464
O O6 0.640087 0.508182 0.357045
O O7 0.566720 0.501158 0.417097
O O8 0.500000 0.500000 0.000000
O O9 0.155629 0.250000 0.735870
O O10 0.221028 0.489999 0.795086
O O11 0.161851 0.503416 0.907235
O O12 0.291007 0.250000 0.561163
O O13 0.219301 0.497204 0.310611
O O14 0.297751 0.490644 0.745789
O O15 0.157287 0.750000 0.061640
O O16 0.298293 0.250000 0.918475
O O17 0.361059 0.993801 0.159712
O O18 0.565388 0.250000 0.573450
O O19 0.500000 0.000000 0.500000
#
# Coordination Sequence:
#
# PCOD9158570 Si02
#       7
#     4   4   4   4   4   4   4
#     4   8  15  28  47  74 104 137 177 223 272 321
#     4  11  23  40  62  87 115 148 185 227 274 328
#     4   9  17  32  55  78 105 141 181 225 275 327
#     4  10  22  38  55  77 109 146 182 220 269 327
#     4  10  19  31  51  78 108 140 181 229 273 322
#     4  10  21  38  58  81 109 144 186 229 272 325
#     4  12  25  41  62  87 115 146 181 225 275 330
#
# _framework density 18.875906000000001
#
# number of rings (size 3 to 8) (size 9 to 14) (size 15 to 20)
#    0.000    2.000    0.000    3.857    0.000    7.429 
#    0.000    0.714    0.000    0.000    0.000    0.000 
#    0.000    0.000    0.000    0.000    0.000    0.000 
#
# Total GULP energy -156291.519520 kJ/mol
# GULP energy per Si atom -5581.839983 kJ/mol
# Density = 1.883294 g / cm^3
# Si number density = 18.875906 Si / 1000 Ang^3
#
#
#
# Elastic Constant Matrix: (Units=GPa)
#
#
# Indices 1 2 3 4 5 6 
#
# 1 171.7006 37.9480 119.9767 0.0000 19.1282 0.0000
# 2 37.9480 30.7971 35.4918 0.0000 5.2510 0.0000
# 3 119.9767 35.4918 201.1925 0.0000 21.9986 0.0000
# 4 0.0000 0.0000 0.0000 31.0792 0.0000 1.7746
# 5 19.1282 5.2510 21.9986 0.0000 38.7161 0.0000
# 6 0.0000 0.0000 0.0000 1.7746 0.0000 20.8107
#
#
#
# Elastic Compliance Matrix: (Units=1/GPa)
#
#
# Indices 1 2 3 4 5 6 
#
# 1 0.011368 -0.007687 -0.005249 0.000000 -0.001591 0.000000
# 2 -0.007687 0.046040 -0.003487 0.000000 -0.000465 0.000000
# 3 -0.005249 -0.003487 0.008936 0.000000 -0.002011 0.000000
# 4 0.000000 0.000000 0.000000 0.032333 0.000000 -0.002757
# 5 -0.001591 -0.000465 -0.002011 0.000000 0.027821 0.000000
# 6 0.000000 0.000000 0.000000 -0.002757 0.000000 0.048287
#
#
# Mechanical properties :
#
#
# Convention : Reuss Voigt Hill
#
# Bulk Modulus (GPa) = 29.85269 87.83589 58.84429
# Shear Modulus (GPa) = 22.85212 32.13944 27.49578
#
# Velocity S-wave (km/s) = 3.48321 4.13082 3.82076
# Velocity P-wave (km/s) = 5.65921 8.32982 7.12083
#
# Compressibility (1/GPa) = 0.03349782
#
# Stress axis : x y z
#
# Youngs Moduli (GPa) = 87.96485 21.72002 111.91288
#
# Poissons Ratio (x) = 0.16697 0.58744
# Poissons Ratio (y) = 0.67620 0.39023
# Poissons Ratio (z) = 0.46173 0.07574
#
# Static dielectric constant tensor:
#      x y z
#    x 1.648580 0.000000 0.036620 
#    y 0.000000 1.637780 0.000000 
#    z 0.036620 0.000000 1.635170 
# 
# From -- ./inp_files/28555.got.cif
#   From: 2010.05.17/outbox.cif.g08.bks.cpg/sg11_15_cif.got.tgz:28555.got - 2010.06.03 12:22:45.
