data_PCOD9158722
_publ_section_title
;
Structure prediction by ZEFSAII (Michael W. Deem and Ramdas Pophale) SiO2 
 PCOD9158722
Probable space group: P 21/M
;
_chemical_formula_sum "Si O2"
_cell_formula_units_Z 32
_cell_length_a 12.668723
_cell_length_b 8.172659
_cell_length_c 21.574929
_cell_angle_alpha 90.000000
_cell_angle_beta 36.531022
_cell_angle_gamma 90.000000
_cell_volume 1329.691182
_symmetry_space_group_name_H-M "P 21/M"
_symmetry_group_IT_number 11
_symmetry_cell_setting 'monoclinic'
loop_
_space_group_symop_operation_xyz
x,y,z
-x,1/2+y,-z
-x,-y,-z
x,1/2-y,z
loop_
_atom_site_type_symbol
_atom_site_label
_atom_site_fract_x
_atom_site_fract_y
_atom_site_fract_z
Si Si1 0.989802 0.052438 0.933242
Si Si2 0.711361 0.448660 0.967052
Si Si3 0.038757 0.944549 0.260476
Si Si4 0.309526 0.561250 0.524781
Si Si5 0.358632 0.053338 0.185341
Si Si6 0.665961 0.560301 0.291635
Si Si7 0.126963 0.429590 0.492427
Si Si8 0.571202 0.066912 0.714036
O O1 0.006395 0.250000 0.924796
O O2 0.141338 0.987057 0.813782
O O3 0.803852 0.009864 0.988925
O O4 0.000000 0.000000 0.000000
O O5 0.711741 0.250000 0.962100
O O6 0.842770 0.512046 0.852009
O O7 0.506420 0.499330 0.065291
O O8 0.041619 0.750000 0.256818
O O9 0.160378 0.999823 0.261370
O O10 0.830227 0.991006 0.359568
O O11 0.337783 0.750000 0.525822
O O12 0.504449 0.492573 0.411773
O O13 0.187323 0.540869 0.521079
O O14 0.361101 0.250000 0.190520
O O15 0.429514 0.968045 0.213684
O O16 0.688129 0.750000 0.301460
O O17 0.593550 0.565228 0.254569
O O18 0.072125 0.250000 0.540289
O O19 0.308768 0.423783 0.369121
O O20 0.000000 0.500000 0.500000
O O21 0.650019 0.250000 0.668145
#
# Coordination Sequence:
#
# PCOD9158722 Si02
#       8
#     4   4   4   4   4   4   4   4
#     4  10  19  37  62  89 115 144 177 220 273 331
#     4   9  21  38  58  82 112 144 183 229 279 331
#     4  11  22  38  56  78 107 148 191 231 276 329
#     4  10  20  36  54  77 107 144 185 230 275 325
#     4  11  21  35  54  80 110 147 187 231 279 329
#     4   8  17  33  56  81 111 146 182 220 271 326
#     4  11  20  31  47  71 102 140 180 223 268 320
#     4  10  19  32  49  76 109 143 178 218 265 323
#
# _framework density 24.065739000000001
#
# number of rings (size 3 to 8) (size 9 to 14) (size 15 to 20)
#    0.000    2.000    0.000    5.250    0.000    0.000 
#    0.000    7.500    0.000    0.000    0.000    0.000 
#    0.000    0.000    0.000    0.000    0.000    0.000 
#
# Total GULP energy -178341.097262 kJ/mol
# GULP energy per Si atom -5573.159289 kJ/mol
# Density = 2.401096 g / cm^3
# Si number density = 24.065739 Si / 1000 Ang^3
#
#
#
# Elastic Constant Matrix: (Units=GPa)
#
#
# Indices 1 2 3 4 5 6 
#
# 1 32.7504 0.8186 22.3024 0.0000 -17.6849 0.0000
# 2 0.8186 55.7773 11.0560 0.0000 -6.5989 0.0000
# 3 22.3024 11.0560 164.1320 0.0000 -17.5397 0.0000
# 4 0.0000 0.0000 0.0000 24.9305 0.0000 2.9468
# 5 -17.6849 -6.5989 -17.5397 0.0000 39.9349 0.0000
# 6 0.0000 0.0000 0.0000 2.9468 0.0000 14.2790
#
#
#
# Elastic Compliance Matrix: (Units=1/GPa)
#
#
# Indices 1 2 3 4 5 6 
#
# 1 0.042704 0.002252 -0.004085 0.000000 0.017489 0.000000
# 2 0.002252 0.018548 -0.001177 0.000000 0.003546 0.000000
# 3 -0.004085 -0.001177 0.006834 0.000000 0.000998 0.000000
# 4 0.000000 0.000000 0.000000 0.041115 0.000000 -0.008485
# 5 0.017489 0.003546 0.000998 0.000000 0.033810 0.000000
# 6 0.000000 0.000000 0.000000 -0.008485 0.000000 0.071784
#
#
# Mechanical properties :
#
#
# Convention : Reuss Voigt Hill
#
# Bulk Modulus (GPa) = 16.11193 35.66817 25.89005
# Shear Modulus (GPa) = 20.70377 30.39438 25.54908
#
# Velocity S-wave (km/s) = 2.93627 3.55769 3.26181
# Velocity P-wave (km/s) = 4.26674 5.63290 4.99673
#
# Compressibility (1/GPa) = 0.06206580
#
# Stress axis : x y z
#
# Youngs Moduli (GPa) = 23.41725 53.91397 146.33444
#
# Poissons Ratio (x) = -0.12142 0.59783
# Poissons Ratio (y) = -0.05274 0.17217
# Poissons Ratio (z) = 0.09567 0.06343
#
# Static dielectric constant tensor:
#      x y z
#    x 2.661240 0.000000 -0.021070 
#    y 0.000000 1.860350 0.000000 
#    z -0.021070 0.000000 2.022850 
# 
# From -- ./inp_files/69012.got.cif
#   From: 2010.05.17/outbox.cif.g08.bks.cpg/sg11_35_cif.got.tgz:69012.got - 2010.06.03 12:22:45.
