data_PCOD9158250
_publ_section_title
;
Structure prediction by ZEFSAII (Michael W. Deem and Ramdas Pophale) SiO2 
 PCOD9158250
Probable space group: P 21/M
;
_chemical_formula_sum "Si O2"
_cell_formula_units_Z 24
_cell_length_a 10.448950
_cell_length_b 7.456545
_cell_length_c 21.068637
_cell_angle_alpha 90.000000
_cell_angle_beta 49.111969
_cell_angle_gamma 90.000000
_cell_volume 1240.974667
_symmetry_space_group_name_H-M "P 21/M"
_symmetry_group_IT_number 11
_symmetry_cell_setting 'monoclinic'
loop_
_space_group_symop_operation_xyz
x,y,z
-x,1/2+y,-z
-x,-y,-z
x,1/2-y,z
loop_
_atom_site_type_symbol
_atom_site_label
_atom_site_fract_x
_atom_site_fract_y
_atom_site_fract_z
Si Si1 0.283620 0.457300 0.904628
Si Si2 0.967452 0.530852 0.915223
Si Si3 0.191229 0.535293 0.457410
Si Si4 0.177846 0.536134 0.733083
Si Si5 0.300107 0.965133 0.559718
Si Si6 0.506206 0.966003 0.276300
O O1 0.326742 0.250000 0.902976
O O2 0.431646 0.536573 0.812511
O O3 0.121280 0.465908 0.910079
O O4 0.206775 0.531349 0.995277
O O5 0.969391 0.750000 0.916784
O O6 0.021148 0.472207 0.827324
O O7 0.214791 0.750000 0.452010
O O8 0.232528 0.465632 0.514465
O O9 0.329389 0.467498 0.361890
O O10 0.000000 0.500000 0.500000
O O11 0.157938 0.750000 0.734307
O O12 0.207403 0.463974 0.652941
O O13 0.347870 0.504424 0.719144
O O14 0.278105 0.750000 0.566796
O O15 0.500000 0.000000 0.500000
O O16 0.498664 0.750000 0.272790
#
# Coordination Sequence:
#
# PCOD9158250 Si02
#       6
#     4   4   4   4   4   4
#     4   8  13  21  35  54  80 111 137 165 205 250
#     4   8  13  21  33  55  84 109 134 165 204 251
#     4  10  21  34  46  63  88 116 150 187 220 259
#     4   9  16  25  41  64  88 112 139 173 213 258
#     4  10  19  31  47  67  89 115 147 182 220 263
#     4   9  16  27  42  61  85 113 144 177 213 254
#
# _framework density 19.339637
#
# number of rings (size 3 to 8) (size 9 to 14) (size 15 to 20)
#    0.000    3.000    1.667    0.000    0.000    1.333 
#    0.000    0.000    0.000    0.000    0.000    1.167 
#    0.000    0.000    0.000    0.000    0.000    0.000 
#
# Total GULP energy -133620.890282 kJ/mol
# GULP energy per Si atom -5567.537095 kJ/mol
# Density = 1.929562 g / cm^3
# Si number density = 19.339637 Si / 1000 Ang^3
#
#
#
# Elastic Constant Matrix: (Units=GPa)
#
#
# Indices 1 2 3 4 5 6 
#
# 1 66.7976 -4.3510 69.0222 0.0000 1.7057 0.0000
# 2 -4.3510 62.4029 7.3046 0.0000 3.6662 0.0000
# 3 69.0222 7.3046 265.9021 0.0000 19.1486 0.0000
# 4 0.0000 0.0000 0.0000 6.4329 0.0000 -3.6924
# 5 1.7057 3.6662 19.1486 0.0000 13.7093 0.0000
# 6 0.0000 0.0000 0.0000 -3.6924 0.0000 11.5915
#
#
#
# Elastic Compliance Matrix: (Units=1/GPa)
#
#
# Indices 1 2 3 4 5 6 
#
# 1 0.021035 0.001855 -0.005878 0.000000 0.005097 0.000000
# 2 0.001855 0.016450 -0.000667 0.000000 -0.003698 0.000000
# 3 -0.005878 -0.000667 0.005825 0.000000 -0.007227 0.000000
# 4 0.000000 0.000000 0.000000 0.190233 0.000000 0.060597
# 5 0.005097 -0.003698 -0.007227 0.000000 0.083392 0.000000
# 6 0.000000 0.000000 0.000000 0.060597 0.000000 0.105573
#
#
# Mechanical properties :
#
#
# Convention : Reuss Voigt Hill
#
# Bulk Modulus (GPa) = 29.47246 59.89490 44.68368
# Shear Modulus (GPa) = 11.28162 27.88852 19.58507
#
# Velocity S-wave (km/s) = 2.41787 3.80154 3.18573
# Velocity P-wave (km/s) = 4.80284 7.09269 6.05696
#
# Compressibility (1/GPa) = 0.03392998
#
# Stress axis : x y z
#
# Youngs Moduli (GPa) = 47.53883 60.79178 171.66075
#
# Poissons Ratio (x) = -0.11279 1.00909
# Poissons Ratio (y) = -0.08820 0.11453
# Poissons Ratio (z) = 0.27945 0.04056
#
# Static dielectric constant tensor:
#      x y z
#    x 1.603340 0.000000 0.032560 
#    y 0.000000 1.716450 0.000000 
#    z 0.032560 0.000000 1.780150 
# 
# From -- ./inp_files/20848.got.cif
#   From: 2010.05.17/outbox.cif.g08.bks.cpg/sg11_11_cif.got.tgz:20848.got - 2010.06.03 12:22:45.
