data_PCOD9158340
_publ_section_title
;
Structure prediction by ZEFSAII (Michael W. Deem and Ramdas Pophale) SiO2 
 PCOD9158340
Probable space group: P 21/M
;
_chemical_formula_sum "Si O2"
_cell_formula_units_Z 20
_cell_length_a 12.369412
_cell_length_b 8.828951
_cell_length_c 12.599536
_cell_angle_alpha 90.000000
_cell_angle_beta 117.133169
_cell_angle_gamma 90.000000
_cell_volume 1224.553607
_symmetry_space_group_name_H-M "P 21/M"
_symmetry_group_IT_number 11
_symmetry_cell_setting 'monoclinic'
loop_
_space_group_symop_operation_xyz
x,y,z
-x,1/2+y,-z
-x,-y,-z
x,1/2-y,z
loop_
_atom_site_type_symbol
_atom_site_label
_atom_site_fract_x
_atom_site_fract_y
_atom_site_fract_z
Si Si1 0.490851 0.567448 0.662403
Si Si2 0.171180 0.570449 0.991621
Si Si3 0.073224 0.931126 0.185358
Si Si4 0.433275 0.068603 0.071300
Si Si5 0.691289 0.067347 0.595076
O O1 0.500806 0.750000 0.663109
O O2 0.502136 0.520290 0.789367
O O3 0.368161 0.524519 0.544243
O O4 0.601687 0.499045 0.644318
O O5 0.187705 0.750000 0.987949
O O6 0.055176 0.514639 0.872814
O O7 0.136351 0.538767 0.099146
O O8 0.294469 0.486691 0.016531
O O9 0.053043 0.750000 0.182867
O O10 0.171203 0.979019 0.317507
O O11 0.436560 0.250000 0.067074
O O12 0.500000 0.000000 0.000000
O O13 0.687857 0.250000 0.602348
#
# Coordination Sequence:
#
# PCOD9158340 Si02
#       5
#     4   4   4   4   4
#     4   9  18  30  47  72  99 127 161 200 242 289
#     4  10  19  31  48  72 100 130 165 201 242 289
#     4   9  17  29  48  73 102 131 156 194 246 296
#     4  11  22  35  51  71  99 133 169 205 242 286
#     4   9  16  29  49  73 101 128 155 195 246 295
#
# _framework density 16.332483
#
# number of rings (size 3 to 8) (size 9 to 14) (size 15 to 20)
#    0.000    2.400    2.000    1.200    0.000    2.400 
#    0.000    0.000    0.000    1.200    0.000    0.000 
#    0.000    0.000    0.000    0.000    0.000    0.000 
#
# Total GULP energy -111490.049373 kJ/mol
# GULP energy per Si atom -5574.502469 kJ/mol
# Density = 1.629531 g / cm^3
# Si number density = 16.332483 Si / 1000 Ang^3
#
#
#
# Elastic Constant Matrix: (Units=GPa)
#
#
# Indices 1 2 3 4 5 6 
#
# 1 75.9145 36.3134 72.5404 0.0000 9.4335 0.0000
# 2 36.3134 26.6136 37.9500 0.0000 2.4983 0.0000
# 3 72.5404 37.9500 151.7696 0.0000 21.4422 0.0000
# 4 0.0000 0.0000 0.0000 16.9255 0.0000 1.2225
# 5 9.4335 2.4983 21.4422 0.0000 30.0101 0.0000
# 6 0.0000 0.0000 0.0000 1.2225 0.0000 28.0778
#
#
#
# Elastic Compliance Matrix: (Units=1/GPa)
#
#
# Indices 1 2 3 4 5 6 
#
# 1 0.045942 -0.049404 -0.009060 0.000000 -0.003855 0.000000
# 2 -0.049404 0.112580 -0.006014 0.000000 0.010455 0.000000
# 3 -0.009060 -0.006014 0.013292 0.000000 -0.006148 0.000000
# 4 0.000000 0.000000 0.000000 0.059269 0.000000 -0.002580
# 5 -0.003855 0.010455 -0.006148 0.000000 0.038057 0.000000
# 6 0.000000 0.000000 0.000000 -0.002580 0.000000 0.035728
#
#
# Mechanical properties :
#
#
# Convention : Reuss Voigt Hill
#
# Bulk Modulus (GPa) = 23.33407 60.87834 42.10621
# Shear Modulus (GPa) = 11.15801 22.16895 16.66348
#
# Velocity S-wave (km/s) = 2.61660 3.68822 3.19763
# Velocity P-wave (km/s) = 4.84218 7.44934 6.28249
#
# Compressibility (1/GPa) = 0.04285580
#
# Stress axis : x y z
#
# Youngs Moduli (GPa) = 21.76678 8.88260 75.23382
#
# Poissons Ratio (x) = 0.43884 0.68164
# Poissons Ratio (y) = 1.07537 0.45247
# Poissons Ratio (z) = 0.19721 0.05342
#
# Static dielectric constant tensor:
#      x y z
#    x 1.507980 0.000000 0.028970 
#    y 0.000000 1.547940 0.000000 
#    z 0.028970 0.000000 1.581440 
# 
# From -- ./inp_files/33405.got.cif
#   From: 2010.05.17/outbox.cif.g08.bks.cpg/sg11_17_cif.got.tgz:33405.got - 2010.06.03 12:22:45.
