data_PCOD9158286
_publ_section_title
;
Structure prediction by ZEFSAII (Michael W. Deem and Ramdas Pophale) SiO2 
 PCOD9158286
Probable space group: P 21/M
;
_chemical_formula_sum "Si O2"
_cell_formula_units_Z 32
_cell_length_a 16.157379
_cell_length_b 7.943613
_cell_length_c 22.229481
_cell_angle_alpha 90.000000
_cell_angle_beta 147.044135
_cell_angle_gamma 90.000000
_cell_volume 1552.070701
_symmetry_space_group_name_H-M "P 21/M"
_symmetry_group_IT_number 11
_symmetry_cell_setting 'monoclinic'
loop_
_space_group_symop_operation_xyz
x,y,z
-x,1/2+y,-z
-x,-y,-z
x,1/2-y,z
loop_
_atom_site_type_symbol
_atom_site_label
_atom_site_fract_x
_atom_site_fract_y
_atom_site_fract_z
Si Si1 0.399851 0.954375 0.590049
Si Si2 0.207956 0.952369 0.580057
Si Si3 0.805180 0.048937 0.642935
Si Si4 0.127562 0.546396 0.663237
Si Si5 0.982696 0.061751 0.056834
Si Si6 0.298033 0.553225 0.293528
Si Si7 0.869175 0.050160 0.109623
Si Si8 0.323785 0.546391 0.898117
O O1 0.404975 0.750000 0.592311
O O2 0.348116 0.011234 0.624527
O O3 0.269183 0.010829 0.463803
O O4 0.557322 0.017277 0.658937
O O5 0.216429 0.750000 0.588044
O O6 0.199793 0.014405 0.643778
O O7 0.049117 0.995063 0.449844
O O8 0.827808 0.250000 0.652478
O O9 0.688581 0.018494 0.627083
O O10 0.966847 0.971746 0.758519
O O11 0.131947 0.750000 0.666368
O O12 0.220238 0.487170 0.778389
O O13 0.923539 0.250000 0.015455
O O14 0.886053 0.977026 0.052154
O O15 0.154533 0.055076 0.185854
O O16 0.000000 0.000000 0.000000
O O17 0.256075 0.750000 0.261911
O O18 0.842560 0.250000 0.086992
O O19 0.745871 0.981939 0.081241
O O20 0.312627 0.750000 0.891686
O O21 0.500000 0.500000 0.000000
#
# Coordination Sequence:
#
# PCOD9158286 Si02
#       8
#     4   4   4   4   4   4   4   4
#     4  10  19  31  47  73 108 140 170 208 256 305
#     4   9  18  32  52  77 105 137 173 213 258 314
#     4   9  18  31  50  75 103 136 174 214 254 305
#     4   9  18  34  54  75 103 135 173 216 260 313
#     4  10  20  37  58  77 101 134 172 216 264 314
#     4  10  20  33  49  73 104 135 173 214 254 306
#     4   9  19  35  55  78 103 133 173 218 263 311
#     4  10  21  37  55  78 108 140 176 223 271 314
#
# _framework density 20.617618
#
# number of rings (size 3 to 8) (size 9 to 14) (size 15 to 20)
#    0.000    2.500    0.000    1.875    0.000    3.000 
#    2.250    0.000    0.000    0.000    0.000    0.000 
#    0.000    0.000    0.000    0.000    0.000    0.000 
#
# Total GULP energy -178397.341045 kJ/mol
# GULP energy per Si atom -5574.916908 kJ/mol
# Density = 2.057069 g / cm^3
# Si number density = 20.617618 Si / 1000 Ang^3
#
#
#
# Elastic Constant Matrix: (Units=GPa)
#
#
# Indices 1 2 3 4 5 6 
#
# 1 196.0261 14.5424 44.5926 0.0000 -3.0752 0.0000
# 2 14.5424 16.3018 -0.1826 0.0000 -7.9310 0.0000
# 3 44.5926 -0.1826 41.3096 0.0000 -15.3204 0.0000
# 4 0.0000 0.0000 0.0000 23.8658 0.0000 4.6718
# 5 -3.0752 -7.9310 -15.3204 0.0000 29.6938 0.0000
# 6 0.0000 0.0000 0.0000 4.6718 0.0000 18.7385
#
#
#
# Elastic Compliance Matrix: (Units=1/GPa)
#
#
# Indices 1 2 3 4 5 6 
#
# 1 0.008831 -0.012449 -0.012962 0.000000 -0.009098 0.000000
# 2 -0.012449 0.090883 0.027657 0.000000 0.037254 0.000000
# 3 -0.012962 0.027657 0.050162 0.000000 0.031925 0.000000
# 4 0.000000 0.000000 0.000000 0.044051 0.000000 -0.010983
# 5 -0.009098 0.037254 0.031925 0.000000 0.059157 0.000000
# 6 0.000000 0.000000 0.000000 -0.010983 0.000000 0.056104
#
#
# Mechanical properties :
#
#
# Convention : Reuss Voigt Hill
#
# Bulk Modulus (GPa) = 6.47811 41.28250 23.88031
# Shear Modulus (GPa) = 14.03899 27.43863 20.73881
#
# Velocity S-wave (km/s) = 2.61228 3.65202 3.17500
# Velocity P-wave (km/s) = 3.49965 6.15218 5.00484
#
# Compressibility (1/GPa) = 0.15436599
#
# Stress axis : x y z
#
# Youngs Moduli (GPa) = 113.24023 11.00322 19.93554
#
# Poissons Ratio (x) = 0.13698 0.25840
# Poissons Ratio (y) = 1.40975 -0.55135
# Poissons Ratio (z) = 1.46780 -0.30431
#
# Static dielectric constant tensor:
#      x y z
#    x 1.797740 0.000000 -0.043640 
#    y 0.000000 1.769050 0.000000 
#    z -0.043640 0.000000 1.708060 
# 
# From -- ./inp_files/65232.got.cif
#   From: 2010.05.17/outbox.cif.g08.bks.cpg/sg11_33_cif.got.tgz:65232.got - 2010.06.03 12:22:45.
