data_PCOD9158956
_publ_section_title
;
Structure prediction by ZEFSAII (Michael W. Deem and Ramdas Pophale) SiO2 
 PCOD9158956
Probable space group: P 21/M
;
_chemical_formula_sum "Si O2"
_cell_formula_units_Z 32
_cell_length_a 12.586387
_cell_length_b 8.682975
_cell_length_c 21.122343
_cell_angle_alpha 90.000000
_cell_angle_beta 52.506626
_cell_angle_gamma 90.000000
_cell_volume 1831.542121
_symmetry_space_group_name_H-M "P 21/M"
_symmetry_group_IT_number 11
_symmetry_cell_setting 'monoclinic'
loop_
_space_group_symop_operation_xyz
x,y,z
-x,1/2+y,-z
-x,-y,-z
x,1/2-y,z
loop_
_atom_site_type_symbol
_atom_site_label
_atom_site_fract_x
_atom_site_fract_y
_atom_site_fract_z
Si Si1 0.631924 0.935219 0.125682
Si Si2 0.650047 0.565027 0.266933
Si Si3 0.633930 0.935194 0.624453
Si Si4 0.940062 0.563316 0.204649
Si Si5 0.928638 0.064033 0.710854
Si Si6 0.916142 0.935111 0.971254
Si Si7 0.347153 0.066025 0.234927
Si Si8 0.915733 0.936375 0.471649
O O1 0.618668 0.750000 0.128605
O O2 0.660145 0.979179 0.188876
O O3 0.490950 0.009230 0.158233
O O4 0.760853 0.979788 0.038010
O O5 0.643729 0.750000 0.271689
O O6 0.510166 0.499553 0.342651
O O7 0.785048 0.514788 0.253006
O O8 0.627130 0.750000 0.626221
O O9 0.660002 0.983138 0.688228
O O10 0.761273 0.984256 0.536933
O O11 0.942642 0.750000 0.200550
O O12 0.004445 0.514668 0.247655
O O13 0.022560 0.498896 0.115536
O O14 0.925109 0.250000 0.711642
O O15 0.016882 0.013634 0.618394
O O16 0.778958 0.002777 0.755718
O O17 0.923750 0.750000 0.969610
O O18 0.000000 0.000000 0.000000
O O19 0.341163 0.250000 0.235197
O O20 0.919478 0.750000 0.472752
O O21 0.000000 0.000000 0.500000
#
# Coordination Sequence:
#
# PCOD9158956 Si02
#       8
#     4   4   4   4   4   4   4   4
#     4   9  18  33  53  78 106 136 174 217 262 316
#     4   9  17  32  52  74 104 139 174 213 260 314
#     4   9  18  31  49  77 108 134 170 223 269 308
#     4  10  21  38  55  78 110 144 182 220 263 320
#     4  10  21  36  56  77 107 148 181 215 268 327
#     4  11  21  35  57  84 110 139 178 224 267 314
#     4  10  19  32  52  79 109 138 174 222 270 314
#     4  10  19  33  53  79 106 138 178 222 267 313
#
# _framework density 17.471616000000001
#
# number of rings (size 3 to 8) (size 9 to 14) (size 15 to 20)
#    0.000    2.250    2.500    0.750    0.000    3.000 
#    0.000    1.250    0.000    0.000    0.000    0.000 
#    0.000    0.000    0.000    0.000    0.000    0.000 
#
# Total GULP energy -178524.126542 kJ/mol
# GULP energy per Si atom -5578.878954 kJ/mol
# Density = 1.743185 g / cm^3
# Si number density = 17.471616 Si / 1000 Ang^3
#
#
#
# Elastic Constant Matrix: (Units=GPa)
#
#
# Indices 1 2 3 4 5 6 
#
# 1 169.5576 32.6533 101.1247 0.0000 -21.2505 0.0000
# 2 32.6533 9.4989 27.8628 0.0000 -3.6503 0.0000
# 3 101.1247 27.8628 134.8202 0.0000 -19.2088 0.0000
# 4 0.0000 0.0000 0.0000 23.0023 0.0000 -5.9920
# 5 -21.2505 -3.6503 -19.2088 0.0000 34.4057 0.0000
# 6 0.0000 0.0000 0.0000 -5.9920 0.0000 23.7533
#
#
#
# Elastic Compliance Matrix: (Units=1/GPa)
#
#
# Indices 1 2 3 4 5 6 
#
# 1 0.018240 -0.057702 -0.001112 0.000000 0.004523 0.000000
# 2 -0.057702 0.450107 -0.052165 0.000000 -0.017009 0.000000
# 3 -0.001112 -0.052165 0.019714 0.000000 0.004785 0.000000
# 4 0.000000 0.000000 0.000000 0.046532 0.000000 0.011738
# 5 0.004523 -0.017009 0.004785 0.000000 0.032726 0.000000
# 6 0.000000 0.000000 0.000000 0.011738 0.000000 0.045061
#
#
# Mechanical properties :
#
#
# Convention : Reuss Voigt Hill
#
# Bulk Modulus (GPa) = 3.75793 70.79535 37.27664
# Shear Modulus (GPa) = 5.41691 26.38133 15.89912
#
# Velocity S-wave (km/s) = 1.76271 3.89003 3.01989
# Velocity P-wave (km/s) = 2.50966 7.79645 5.79150
#
# Compressibility (1/GPa) = 0.26610387
#
# Stress axis : x y z
#
# Youngs Moduli (GPa) = 54.82548 2.22169 50.72633
#
# Poissons Ratio (x) = 0.12820 0.05639
# Poissons Ratio (y) = 3.16351 2.64614
# Poissons Ratio (z) = 0.06095 0.11589
#
# Static dielectric constant tensor:
#      x y z
#    x 1.577080 0.000000 -0.011500 
#    y 0.000000 1.591170 0.000000 
#    z -0.011500 0.000000 1.590000 
# 
# From -- ./inp_files/42885.got.cif
#   From: 2010.05.17/outbox.cif.g08.bks.cpg/sg11_22_cif.got.tgz:42885.got - 2010.06.03 12:22:45.
