data_PCOD9158671
_publ_section_title
;
Structure prediction by ZEFSAII (Michael W. Deem and Ramdas Pophale) SiO2 
 PCOD9158671
Probable space group: P 21/M
;
_chemical_formula_sum "Si O2"
_cell_formula_units_Z 28
_cell_length_a 9.829027
_cell_length_b 8.485687
_cell_length_c 29.093236
_cell_angle_alpha 90.000000
_cell_angle_beta 40.606468
_cell_angle_gamma 90.000000
_cell_volume 1579.345323
_symmetry_space_group_name_H-M "P 21/M"
_symmetry_group_IT_number 11
_symmetry_cell_setting 'monoclinic'
loop_
_space_group_symop_operation_xyz
x,y,z
-x,1/2+y,-z
-x,-y,-z
x,1/2-y,z
loop_
_atom_site_type_symbol
_atom_site_label
_atom_site_fract_x
_atom_site_fract_y
_atom_site_fract_z
Si Si1 0.678069 0.066254 0.558096
Si Si2 0.640294 0.439032 0.006369
Si Si3 0.496467 0.558040 0.855942
Si Si4 0.129830 0.438355 0.401410
Si Si5 0.644264 0.433801 0.422389
Si Si6 0.884885 0.558027 0.698942
Si Si7 0.940124 0.060990 0.066154
O O1 0.632241 0.250000 0.562929
O O2 0.885782 0.027528 0.474953
O O3 0.738207 0.029916 0.594778
O O4 0.486138 0.964390 0.590012
O O5 0.636594 0.250000 0.006575
O O6 0.549785 0.492822 0.079651
O O7 0.500000 0.500000 0.000000
O O8 0.883825 0.493541 0.944807
O O9 0.498686 0.750000 0.856703
O O10 0.716048 0.501839 0.779133
O O11 0.305421 0.515693 0.870324
O O12 0.155418 0.250000 0.401663
O O13 0.182800 0.478521 0.335731
O O14 0.500000 0.500000 0.500000
O O15 0.667963 0.250000 0.426028
O O16 0.877452 0.500901 0.357775
O O17 0.889618 0.750000 0.701289
O O18 0.953579 0.250000 0.064375
O O19 0.000000 0.000000 0.000000
#
# Coordination Sequence:
#
# PCOD9158671 Si02
#       7
#     4   4   4   4   4   4   4
#     4  10  19  32  48  71  97 124 162 208 251 297
#     4  10  19  32  53  80 106 136 171 209 251 297
#     4   8  16  31  52  76 100 129 169 213 249 293
#     4   9  17  31  50  71  92 123 161 204 253 296
#     4  11  20  32  51  74  99 131 169 212 258 303
#     4   9  17  32  52  74  99 127 169 216 254 296
#     4   9  16  29  51  77 102 131 166 204 245 294
#
# _framework density 17.728864999999999
#
# number of rings (size 3 to 8) (size 9 to 14) (size 15 to 20)
#    0.000    2.571    1.429    2.571    0.000    0.571 
#    0.000    1.429    0.000   24.000    0.000    0.000 
#    0.000    0.000    0.000    0.000    0.000    0.000 
#
# Total GULP energy -155955.673091 kJ/mol
# GULP energy per Si atom -5569.845468 kJ/mol
# Density = 1.768851 g / cm^3
# Si number density = 17.728865 Si / 1000 Ang^3
#
#
#
# Elastic Constant Matrix: (Units=GPa)
#
#
# Indices 1 2 3 4 5 6 
#
# 1 110.1357 20.9424 54.0071 0.0000 -15.2905 0.0000
# 2 20.9424 23.5567 18.5062 0.0000 -5.9563 0.0000
# 3 54.0071 18.5062 107.8189 0.0000 -14.6546 0.0000
# 4 0.0000 0.0000 0.0000 14.7155 0.0000 -0.7541
# 5 -15.2905 -5.9563 -14.6546 0.0000 23.1072 0.0000
# 6 0.0000 0.0000 0.0000 -0.7541 0.0000 29.6483
#
#
#
# Elastic Compliance Matrix: (Units=1/GPa)
#
#
# Indices 1 2 3 4 5 6 
#
# 1 0.013395 -0.007013 -0.004976 0.000000 0.003900 0.000000
# 2 -0.007013 0.054127 -0.004938 0.000000 0.006180 0.000000
# 3 -0.004976 -0.004938 0.013126 0.000000 0.003759 0.000000
# 4 0.000000 0.000000 0.000000 0.068044 0.000000 0.001731
# 5 0.003900 0.006180 0.003759 0.000000 0.049834 0.000000
# 6 0.000000 0.000000 0.000000 0.001731 0.000000 0.033773
#
#
# Mechanical properties :
#
#
# Convention : Reuss Voigt Hill
#
# Bulk Modulus (GPa) = 21.36984 47.60253 34.48618
# Shear Modulus (GPa) = 17.74625 23.36458 20.55541
#
# Velocity S-wave (km/s) = 3.16726 3.63420 3.40874
# Velocity P-wave (km/s) = 5.04532 6.67222 5.91497
#
# Compressibility (1/GPa) = 0.04679492
#
# Stress axis : x y z
#
# Youngs Moduli (GPa) = 74.65700 18.47496 76.18738
#
# Poissons Ratio (x) = 0.12957 0.37908
# Poissons Ratio (y) = 0.52358 0.37618
# Poissons Ratio (z) = 0.37146 0.09122
#
# Static dielectric constant tensor:
#      x y z
#    x 1.621860 0.000000 -0.021610 
#    y 0.000000 1.628950 0.000000 
#    z -0.021610 0.000000 1.622850 
# 
# From -- ./inp_files/66009.got.cif
#   From: 2010.05.17/outbox.cif.g08.bks.cpg/sg11_34_cif.got.tgz:66009.got - 2010.06.03 12:22:45.
