data_PCOD9158705
_publ_section_title
;
Structure prediction by ZEFSAII (Michael W. Deem and Ramdas Pophale) SiO2 
 PCOD9158705
Probable space group: P 21/M
;
_chemical_formula_sum "Si O2"
_cell_formula_units_Z 32
_cell_length_a 15.737170
_cell_length_b 8.829824
_cell_length_c 26.710858
_cell_angle_alpha 90.000000
_cell_angle_beta 29.979350
_cell_angle_gamma 90.000000
_cell_volume 1854.664270
_symmetry_space_group_name_H-M "P 21/M"
_symmetry_group_IT_number 11
_symmetry_cell_setting 'monoclinic'
loop_
_space_group_symop_operation_xyz
x,y,z
-x,1/2+y,-z
-x,-y,-z
x,1/2-y,z
loop_
_atom_site_type_symbol
_atom_site_label
_atom_site_fract_x
_atom_site_fract_y
_atom_site_fract_z
Si Si1 0.602178 0.431348 0.737533
Si Si2 0.422282 0.070106 0.462883
Si Si3 0.871112 0.067900 0.856249
Si Si4 0.311001 0.932102 0.416431
Si Si5 0.945044 0.068160 0.622313
Si Si6 0.583315 0.068655 0.077198
Si Si7 0.233111 0.929899 0.651821
Si Si8 0.243690 0.068171 0.189173
O O1 0.588321 0.250000 0.746613
O O2 0.599427 0.478931 0.681181
O O3 0.787361 0.470680 0.666281
O O4 0.462547 0.499967 0.845783
O O5 0.394338 0.250000 0.473662
O O6 0.607997 0.043300 0.392134
O O7 0.401308 0.995262 0.419689
O O8 0.287994 0.000091 0.570585
O O9 0.873122 0.250000 0.852718
O O10 0.782349 0.003137 0.851710
O O11 0.757967 0.021094 0.961739
O O12 0.061418 0.004552 0.759223
O O13 0.304237 0.750000 0.421548
O O14 0.119945 0.997054 0.514473
O O15 0.959219 0.250000 0.618260
O O16 0.894561 0.999912 0.701945
O O17 0.583772 0.250000 0.081534
O O18 0.426934 0.029364 0.119674
O O19 0.209747 0.750000 0.658045
O O20 0.227576 0.250000 0.195125
#
# Coordination Sequence:
#
# PCOD9158705 Si02
#       8
#     4   4   4   4   4   4   4   4
#     4   9  20  35  51  72 100 135 172 210 249 290
#     4  10  21  37  56  78 103 131 163 201 248 300
#     4  11  21  33  51  76 103 132 168 207 250 298
#     4  11  21  33  51  76 103 132 168 207 250 298
#     4  10  19  32  49  72 103 137 171 206 246 292
#     4   9  20  35  51  72 100 135 172 210 249 290
#     4  10  21  37  56  78 103 131 163 201 248 300
#     4  10  19  32  49  72 103 137 171 206 246 292
#
# _framework density 17.253796000000001
#
# number of rings (size 3 to 8) (size 9 to 14) (size 15 to 20)
#    0.000    2.000    0.000    3.750    0.000    4.500 
#    0.000    0.000    0.000    0.750    0.000    0.000 
#    0.000    0.000    0.000    0.000    0.000    0.000 
#
# Total GULP energy -178721.135282 kJ/mol
# GULP energy per Si atom -5585.035478 kJ/mol
# Density = 1.721453 g / cm^3
# Si number density = 17.253796 Si / 1000 Ang^3
#
#
#
# Elastic Constant Matrix: (Units=GPa)
#
#
# Indices 1 2 3 4 5 6 
#
# 1 84.6214 45.9275 73.6554 0.0000 25.0684 0.0000
# 2 45.9275 61.7399 58.1886 0.0000 7.5905 0.0000
# 3 73.6554 58.1886 161.6868 0.0000 23.8855 0.0000
# 4 0.0000 0.0000 0.0000 28.8117 0.0000 3.4506
# 5 25.0684 7.5905 23.8855 0.0000 24.3730 0.0000
# 6 0.0000 0.0000 0.0000 3.4506 0.0000 23.6020
#
#
#
# Elastic Compliance Matrix: (Units=1/GPa)
#
#
# Indices 1 2 3 4 5 6 
#
# 1 0.031753 -0.015666 -0.005523 0.000000 -0.022368 0.000000
# 2 -0.015666 0.032269 -0.006282 0.000000 0.012219 0.000000
# 3 -0.005523 -0.006282 0.011498 0.000000 -0.003631 0.000000
# 4 0.000000 0.000000 0.000000 0.035327 0.000000 -0.005165
# 5 -0.022368 0.012219 -0.003631 0.000000 0.063788 0.000000
# 6 0.000000 0.000000 0.000000 -0.005165 0.000000 0.043124
#
#
# Mechanical properties :
#
#
# Convention : Reuss Voigt Hill
#
# Bulk Modulus (GPa) = 48.59252 73.73233 61.16243
# Shear Modulus (GPa) = 17.88533 24.04246 20.96390
#
# Velocity S-wave (km/s) = 3.22312 3.73696 3.48951
# Velocity P-wave (km/s) = 6.48659 7.83878 7.19453
#
# Compressibility (1/GPa) = 0.02057930
#
# Stress axis : x y z
#
# Youngs Moduli (GPa) = 31.49295 30.98996 86.97360
#
# Poissons Ratio (x) = 0.48548 0.48033
# Poissons Ratio (y) = 0.49336 0.54634
# Poissons Ratio (z) = 0.17393 0.19467
#
# Static dielectric constant tensor:
#      x y z
#    x 1.579240 0.000000 -0.001810 
#    y 0.000000 1.575720 0.000000 
#    z -0.001810 0.000000 1.576300 
# 
# From -- ./inp_files/56187.got.cif
#   From: 2010.05.17/outbox.cif.g08.bks.cpg/sg11_29_cif.got.tgz:56187.got - 2010.06.03 12:22:45.
