data_PCOD9158423
_publ_section_title
;
Structure prediction by ZEFSAII (Michael W. Deem and Ramdas Pophale) SiO2 
 PCOD9158423
Probable space group: P 21/M
;
_chemical_formula_sum "Si O2"
_cell_formula_units_Z 32
_cell_length_a 11.925059
_cell_length_b 8.975677
_cell_length_c 21.766153
_cell_angle_alpha 90.000000
_cell_angle_beta 50.692471
_cell_angle_gamma 90.000000
_cell_volume 1802.660762
_symmetry_space_group_name_H-M "P 21/M"
_symmetry_group_IT_number 11
_symmetry_cell_setting 'monoclinic'
loop_
_space_group_symop_operation_xyz
x,y,z
-x,1/2+y,-z
-x,-y,-z
x,1/2-y,z
loop_
_atom_site_type_symbol
_atom_site_label
_atom_site_fract_x
_atom_site_fract_y
_atom_site_fract_z
Si Si1 0.346996 0.572651 0.274904
Si Si2 0.335517 0.073593 0.792072
Si Si3 0.149408 0.925687 0.752441
Si Si4 0.819541 0.575881 0.917126
Si Si5 0.050275 0.077801 0.666977
Si Si6 0.049642 0.427730 0.419168
Si Si7 0.154962 0.572418 0.962725
Si Si8 0.280200 0.579308 0.165973
O O1 0.309136 0.750000 0.288133
O O2 0.492450 0.552314 0.262809
O O3 0.213404 0.480177 0.347533
O O4 0.371308 0.532760 0.194346
O O5 0.304932 0.250000 0.807943
O O6 0.262754 0.009418 0.756242
O O7 0.264165 0.987999 0.873769
O O8 0.179469 0.750000 0.739519
O O9 0.988258 0.942969 0.838062
O O10 0.142249 0.996245 0.687346
O O11 0.795012 0.750000 0.937883
O O12 0.722678 0.520515 0.893609
O O13 0.798924 0.481743 0.985764
O O14 0.092316 0.250000 0.644591
O O15 0.884824 0.076826 0.750423
O O16 0.044799 0.992188 0.604560
O O17 0.040178 0.250000 0.424639
O O18 0.000000 0.500000 0.500000
O O19 0.143165 0.750000 0.964380
O O20 0.000000 0.500000 0.000000
O O21 0.316119 0.750000 0.137266
#
# Coordination Sequence:
#
# PCOD9158423 Si02
#       8
#     4   4   4   4   4   4   4   4
#     4   9  20  38  57  80 110 143 180 218 264 324
#     4  11  22  36  55  77 107 145 181 223 274 325
#     4  10  19  31  50  77 108 141 182 226 266 317
#     4  10  19  31  49  74 102 133 176 228 275 319
#     4   9  17  31  52  79 110 140 177 222 265 312
#     4  11  21  35  59  88 116 144 176 217 264 315
#     4  12  23  35  51  73 103 138 182 231 277 325
#     4   8  15  30  51  73 100 134 173 219 266 314
#
# _framework density 17.751536000000002
#
# number of rings (size 3 to 8) (size 9 to 14) (size 15 to 20)
#    0.000    2.000    1.250    4.500    0.000    5.000 
#    0.000    0.625    0.000    0.750    0.000    0.000 
#    0.000    0.000    0.000    0.000    0.000    0.000 
#
# Total GULP energy -178639.213409 kJ/mol
# GULP energy per Si atom -5582.475419 kJ/mol
# Density = 1.771113 g / cm^3
# Si number density = 17.751536 Si / 1000 Ang^3
#
#
#
# Elastic Constant Matrix: (Units=GPa)
#
#
# Indices 1 2 3 4 5 6 
#
# 1 106.7068 75.4214 45.1524 0.0000 31.4679 0.0000
# 2 75.4214 151.6187 62.1482 0.0000 25.8745 0.0000
# 3 45.1524 62.1482 69.2929 0.0000 31.7982 0.0000
# 4 0.0000 0.0000 0.0000 26.7002 0.0000 8.7519
# 5 31.4679 25.8745 31.7982 0.0000 28.5743 0.0000
# 6 0.0000 0.0000 0.0000 8.7519 0.0000 28.0407
#
#
#
# Elastic Compliance Matrix: (Units=1/GPa)
#
#
# Indices 1 2 3 4 5 6 
#
# 1 0.018281 -0.007084 0.001504 0.000000 -0.015392 0.000000
# 2 -0.007084 0.013229 -0.010897 0.000000 0.007947 0.000000
# 3 0.001504 -0.010897 0.039762 0.000000 -0.036038 0.000000
# 4 0.000000 0.000000 0.000000 0.041721 0.000000 -0.013022
# 5 -0.015392 0.007947 -0.036038 0.000000 0.084854 0.000000
# 6 0.000000 0.000000 0.000000 -0.013022 0.000000 0.039727
#
#
# Mechanical properties :
#
#
# Convention : Reuss Voigt Hill
#
# Bulk Modulus (GPa) = 26.09588 77.00696 51.55142
# Shear Modulus (GPa) = 17.64923 26.32279 21.98601
#
# Velocity S-wave (km/s) = 3.15657 3.85495 3.52311
# Velocity P-wave (km/s) = 5.29319 7.95543 6.75672
#
# Compressibility (1/GPa) = 0.03832023
#
# Stress axis : x y z
#
# Youngs Moduli (GPa) = 54.70273 75.58947 25.14974
#
# Poissons Ratio (x) = 0.53544 -0.03783
# Poissons Ratio (y) = 0.38749 0.27405
# Poissons Ratio (z) = -0.08229 0.82367
#
# Static dielectric constant tensor:
#      x y z
#    x 1.619260 0.000000 0.000280 
#    y 0.000000 1.593680 0.000000 
#    z 0.000280 0.000000 1.587700 
# 
# From -- ./inp_files/64384.got.cif
#   From: 2010.05.17/outbox.cif.g08.bks.cpg/sg11_33_cif.got.tgz:64384.got - 2010.06.03 12:22:45.
