data_PCOD9158234
_publ_section_title
;
Structure prediction by ZEFSAII (Michael W. Deem and Ramdas Pophale) SiO2 
 PCOD9158234
Probable space group: P 21/M
;
_chemical_formula_sum "Si O2"
_cell_formula_units_Z 32
_cell_length_a 14.703620
_cell_length_b 7.439592
_cell_length_c 14.967556
_cell_angle_alpha 90.000000
_cell_angle_beta 73.038111
_cell_angle_gamma 90.000000
_cell_volume 1566.061488
_symmetry_space_group_name_H-M "P 21/M"
_symmetry_group_IT_number 11
_symmetry_cell_setting 'monoclinic'
loop_
_space_group_symop_operation_xyz
x,y,z
-x,1/2+y,-z
-x,-y,-z
x,1/2-y,z
loop_
_atom_site_type_symbol
_atom_site_label
_atom_site_fract_x
_atom_site_fract_y
_atom_site_fract_z
Si Si1 0.362706 0.529948 0.305354
Si Si2 0.230121 0.954028 0.193844
Si Si3 0.428219 0.467788 0.805089
Si Si4 0.608315 0.034067 0.500088
Si Si5 0.129731 0.962346 0.880171
Si Si6 0.090784 0.532099 0.087047
Si Si7 0.609946 0.536624 0.990325
Si Si8 0.718504 0.043636 0.301466
O O1 0.360109 0.750000 0.305096
O O2 0.273785 0.465787 0.271845
O O3 0.461659 0.477999 0.229533
O O4 0.370233 0.470840 0.405758
O O5 0.200769 0.750000 0.223945
O O6 0.146053 0.035871 0.158388
O O7 0.318971 0.949094 0.099721
O O8 0.425441 0.250000 0.802219
O O9 0.373964 0.540623 0.735255
O O10 0.377938 0.525131 0.910944
O O11 0.617394 0.250000 0.499084
O O12 0.682632 0.963360 0.405008
O O13 0.500000 0.000000 0.500000
O O14 0.151241 0.750000 0.879746
O O15 0.199596 0.038983 0.784650
O O16 0.135863 0.033633 0.980098
O O17 0.020073 0.984669 0.883593
O O18 0.097836 0.750000 0.084493
O O19 0.626056 0.750000 0.981405
O O20 0.500000 0.500000 0.000000
O O21 0.746947 0.250000 0.311759
#
# Coordination Sequence:
#
# PCOD9158234 Si02
#       8
#     4   4   4   4   4   4   4   4
#     4   9  17  31  48  67  96 131 162 196 240 289
#     4  10  19  34  52  70  97 131 166 204 244 291
#     4  10  19  31  46  67  97 132 164 195 239 289
#     4  10  19  32  50  71  97 129 168 204 244 291
#     4   9  18  33  50  72 101 125 154 202 251 293
#     4   9  18  32  53  75  95 125 162 199 243 296
#     4  11  21  31  44  66  97 132 166 197 235 286
#     4  10  20  32  50  75  98 127 164 206 251 290
#
# _framework density 20.433426000000001
#
# number of rings (size 3 to 8) (size 9 to 14) (size 15 to 20)
#    0.000    2.250    2.500    1.125    0.000    3.000 
#    0.000    3.125    0.000    0.750    0.000    0.000 
#    0.000    0.000    0.000    0.000    0.000    0.000 
#
# Total GULP energy -178613.934220 kJ/mol
# GULP energy per Si atom -5581.685444 kJ/mol
# Density = 2.038692 g / cm^3
# Si number density = 20.433426 Si / 1000 Ang^3
#
#
#
# Elastic Constant Matrix: (Units=GPa)
#
#
# Indices 1 2 3 4 5 6 
#
# 1 89.6196 -7.0355 53.3399 0.0000 14.9339 0.0000
# 2 -7.0355 71.1362 4.7827 0.0000 -1.7050 0.0000
# 3 53.3399 4.7827 148.7279 0.0000 15.9439 0.0000
# 4 0.0000 0.0000 0.0000 2.0206 0.0000 2.8738
# 5 14.9339 -1.7050 15.9439 0.0000 37.5322 0.0000
# 6 0.0000 0.0000 0.0000 2.8738 0.0000 16.9389
#
#
#
# Elastic Compliance Matrix: (Units=1/GPa)
#
#
# Indices 1 2 3 4 5 6 
#
# 1 0.014887 0.001719 -0.004995 0.000000 -0.003723 0.000000
# 2 0.001719 0.014314 -0.001124 0.000000 0.000444 0.000000
# 3 -0.004995 -0.001124 0.008742 0.000000 -0.001777 0.000000
# 4 0.000000 0.000000 0.000000 0.652311 0.000000 -0.110668
# 5 -0.003723 0.000444 -0.001777 0.000000 0.028900 0.000000
# 6 0.000000 0.000000 0.000000 -0.110668 0.000000 0.077811
#
#
# Mechanical properties :
#
#
# Convention : Reuss Voigt Hill
#
# Bulk Modulus (GPa) = 34.31573 45.73975 40.02774
# Shear Modulus (GPa) = 6.13136 28.52478 17.32807
#
# Velocity S-wave (km/s) = 1.73412 3.74034 2.91525
# Velocity P-wave (km/s) = 4.56508 6.40991 5.56448
#
# Compressibility (1/GPa) = 0.02914115
#
# Stress axis : x y z
#
# Youngs Moduli (GPa) = 67.17441 69.86272 114.39295
#
# Poissons Ratio (x) = -0.12009 0.57140
# Poissons Ratio (y) = -0.11547 0.12862
# Poissons Ratio (z) = 0.33554 0.07855
#
# Static dielectric constant tensor:
#      x y z
#    x 1.710990 0.000000 0.018490 
#    y 0.000000 1.837850 0.000000 
#    z 0.018490 0.000000 1.749800 
# 
# From -- ./inp_files/51183.got.cif
#   From: 2010.05.17/outbox.cif.g08.bks.cpg/sg11_26_cif.got.tgz:51183.got - 2010.06.03 12:22:45.
