data_PCOD9158890
_publ_section_title
;
Structure prediction by ZEFSAII (Michael W. Deem and Ramdas Pophale) SiO2 
 PCOD9158890
Probable space group: P 21/M
;
_chemical_formula_sum "Si O2"
_cell_formula_units_Z 32
_cell_length_a 17.241869
_cell_length_b 17.162017
_cell_length_c 10.517359
_cell_angle_alpha 90.000000
_cell_angle_beta 35.534906
_cell_angle_gamma 90.000000
_cell_volume 1808.773125
_symmetry_space_group_name_H-M "P 21/M"
_symmetry_group_IT_number 11
_symmetry_cell_setting 'monoclinic'
loop_
_space_group_symop_operation_xyz
x,y,z
-x,1/2+y,-z
-x,-y,-z
x,1/2-y,z
loop_
_atom_site_type_symbol
_atom_site_label
_atom_site_fract_x
_atom_site_fract_y
_atom_site_fract_z
Si Si1 0.093307 0.404514 0.390113
Si Si2 0.629085 0.159938 0.809693
Si Si3 0.617076 0.338468 0.132695
Si Si4 0.145870 0.955760 0.140209
Si Si5 0.077007 0.656734 0.621695
Si Si6 0.344059 0.157495 0.190773
Si Si7 0.310604 0.344176 0.528278
Si Si8 0.088586 0.443766 0.970042
O O1 0.148006 0.485310 0.257979
O O2 0.223192 0.358075 0.258327
O O3 0.995974 0.414276 0.641239
O O4 0.003721 0.367456 0.397660
O O5 0.633942 0.250000 0.757830
O O6 0.771539 0.124658 0.584634
O O7 0.622526 0.161517 0.971607
O O8 0.487946 0.123743 0.956173
O O9 0.646769 0.250000 0.135175
O O10 0.463357 0.356613 0.371504
O O11 0.730288 0.397489 0.026018
O O12 0.142339 0.004467 0.015727
O O13 0.079467 0.750000 0.622080
O O14 0.004225 0.620640 0.839216
O O15 0.365180 0.250000 0.172680
O O16 0.309000 0.132864 0.381125
O O17 0.284275 0.250000 0.573747
O O18 0.205272 0.397420 0.742145
O O19 0.000000 0.500000 0.000000
#
# Coordination Sequence:
#
# PCOD9158890 Si02
#       8
#     4   4   4   4   4   4   4   4
#     4  10  19  32  51  83 118 135 169 219 280 328
#     4   8  15  30  52  80 108 131 169 218 268 320
#     4   9  17  34  58  80 102 137 181 225 271 321
#     4  10  21  34  52  78 112 141 174 221 271 324
#     4  10  19  34  59  80 103 146 183 218 267 321
#     4   9  17  31  54  83 109 136 174 224 269 312
#     4   9  19  37  58  76 103 145 188 220 258 320
#     4  11  23  38  52  75 110 147 184 224 263 320
#
# _framework density 17.691548000000001
#
# number of rings (size 3 to 8) (size 9 to 14) (size 15 to 20)
#    0.000    2.500    1.250    3.000    0.000    1.000 
#    2.250    2.500    0.000    0.000    0.000    0.000 
#    0.000    0.000    0.000    0.000    0.000    0.000 
#
# Total GULP energy -178247.125974 kJ/mol
# GULP energy per Si atom -5570.222687 kJ/mol
# Density = 1.765128 g / cm^3
# Si number density = 17.691548 Si / 1000 Ang^3
#
#
#
# Elastic Constant Matrix: (Units=GPa)
#
#
# Indices 1 2 3 4 5 6 
#
# 1 48.7203 17.5777 50.0910 0.0000 -14.4120 0.0000
# 2 17.5777 53.7746 54.5577 0.0000 -7.0188 0.0000
# 3 50.0910 54.5577 161.0795 0.0000 -23.1053 0.0000
# 4 0.0000 0.0000 0.0000 24.2721 0.0000 -1.6959
# 5 -14.4120 -7.0188 -23.1053 0.0000 19.7982 0.0000
# 6 0.0000 0.0000 0.0000 -1.6959 0.0000 18.4777
#
#
#
# Elastic Compliance Matrix: (Units=1/GPa)
#
#
# Indices 1 2 3 4 5 6 
#
# 1 0.033391 -0.000915 -0.007967 0.000000 0.014684 0.000000
# 2 -0.000915 0.028389 -0.009588 0.000000 -0.001791 0.000000
# 3 -0.007967 -0.009588 0.012748 0.000000 0.005678 0.000000
# 4 0.000000 0.000000 0.000000 0.041465 0.000000 0.003806
# 5 0.014684 -0.001791 0.005678 0.000000 0.067190 0.000000
# 6 0.000000 0.000000 0.000000 0.003806 0.000000 0.054469
#
#
# Mechanical properties :
#
#
# Convention : Reuss Voigt Hill
#
# Bulk Modulus (GPa) = 26.60465 56.44747 41.52606
# Shear Modulus (GPa) = 17.41432 21.93280 19.67356
#
# Velocity S-wave (km/s) = 3.14081 3.52480 3.33833
# Velocity P-wave (km/s) = 5.31259 6.96717 6.19536
#
# Compressibility (1/GPa) = 0.03758741
#
# Stress axis : x y z
#
# Youngs Moduli (GPa) = 29.94851 35.22523 78.44614
#
# Poissons Ratio (x) = 0.03222 0.62502
# Poissons Ratio (y) = 0.02739 0.75212
# Poissons Ratio (z) = 0.23861 0.33773
#
# Static dielectric constant tensor:
#      x y z
#    x 1.589580 0.000000 -0.027570 
#    y 0.000000 1.624760 0.000000 
#    z -0.027570 0.000000 1.629010 
# 
# From -- ./inp_files/41834.got.cif
#   From: 2010.05.17/outbox.cif.g08.bks.cpg/sg11_21_cif.got.tgz:41834.got - 2010.06.03 12:22:45.
