data_PCOD9158758
_publ_section_title
;
Structure prediction by ZEFSAII (Michael W. Deem and Ramdas Pophale) SiO2 
 PCOD9158758
Probable space group: P 21/M
;
_chemical_formula_sum "Si O2"
_cell_formula_units_Z 30
_cell_length_a 12.196646
_cell_length_b 9.648406
_cell_length_c 11.594626
_cell_angle_alpha 90.000000
_cell_angle_beta 109.111010
_cell_angle_gamma 90.000000
_cell_volume 1289.235202
_symmetry_space_group_name_H-M "P 21/M"
_symmetry_group_IT_number 11
_symmetry_cell_setting 'monoclinic'
loop_
_space_group_symop_operation_xyz
x,y,z
-x,1/2+y,-z
-x,-y,-z
x,1/2-y,z
loop_
_atom_site_type_symbol
_atom_site_label
_atom_site_fract_x
_atom_site_fract_y
_atom_site_fract_z
Si Si1 0.323330 0.588513 0.795914
Si Si2 0.368341 0.408162 0.352031
Si Si3 0.791495 0.410512 0.017538
Si Si4 0.463749 0.911941 0.183249
Si Si5 0.957186 0.750000 0.473470
Si Si6 0.979961 0.487387 0.651744
Si Si7 0.722184 0.404763 0.488640
Si Si8 0.111592 0.090703 0.147548
O O1 0.358474 0.750000 0.828476
O O2 0.222545 0.557480 0.852359
O O3 0.431180 0.485685 0.846306
O O4 0.283549 0.579493 0.650097
O O5 0.409038 0.250000 0.373166
O O6 0.444933 0.500900 0.293763
O O7 0.350173 0.480528 0.468364
O O8 0.239345 0.406608 0.251842
O O9 0.823962 0.250000 0.014660
O O10 0.869166 0.504382 0.961923
O O11 0.658280 0.422532 0.925666
O O12 0.487327 0.750000 0.212795
O O13 0.982927 0.629063 0.580639
O O14 0.933765 0.873071 0.368559
O O15 0.855160 0.416898 0.574911
O O16 0.969500 0.522177 0.783179
O O17 0.681768 0.250000 0.505830
O O18 0.080371 0.250000 0.114651
#
# Coordination Sequence:
#
# PCOD9158758 Si02
#       8
#     4   4   4   4   2   4   4   4
#     4  10  21  35  49  70  98 138 177 210 255 295
#     4   9  18  31  50  72  97 135 170 207 257 300
#     4   9  19  33  51  72  97 133 177 218 252 287
#     4  10  19  32  50  73  99 128 173 226 261 292
#     4  10  20  32  56  84 112 126 156 194 248 306
#     4  10  19  34  53  85 109 131 158 195 246 303
#     4  10  20  34  51  71 105 138 166 202 246 305
#     4   9  17  30  50  75 105 130 161 205 249 290
#
# _framework density 23.269608000000002
#
# number of rings (size 3 to 8) (size 9 to 14) (size 15 to 20)
#    0.000    2.400    1.333    1.200    1.867    3.733 
#    0.000    0.000    0.000    0.000    0.000    5.600 
#    0.000    0.000    0.000    0.000    0.000    0.000 
#
# Total GULP energy -167357.123181 kJ/mol
# GULP energy per Si atom -5578.570773 kJ/mol
# Density = 2.321665 g / cm^3
# Si number density = 23.269608 Si / 1000 Ang^3
#
#
#
# Elastic Constant Matrix: (Units=GPa)
#
#
# Indices 1 2 3 4 5 6 
#
# 1 102.8205 58.0194 36.3346 0.0000 -9.5570 0.0000
# 2 58.0194 206.8209 82.8741 0.0000 -38.8109 0.0000
# 3 36.3346 82.8741 125.4985 0.0000 -39.0632 0.0000
# 4 0.0000 0.0000 0.0000 27.9993 0.0000 -21.4015
# 5 -9.5570 -38.8109 -39.0632 0.0000 47.3968 0.0000
# 6 0.0000 0.0000 0.0000 -21.4015 0.0000 -57.3027
#
#
#
# Elastic Compliance Matrix: (Units=1/GPa)
#
#
# Indices 1 2 3 4 5 6 
#
# 1 0.011897 -0.002801 -0.002101 0.000000 -0.001626 0.000000
# 2 -0.002801 0.007449 -0.003208 0.000000 0.002891 0.000000
# 3 -0.002101 -0.003208 0.013108 0.000000 0.007753 0.000000
# 4 0.000000 0.000000 0.000000 0.027784 0.000000 -0.010377
# 5 -0.001626 0.002891 0.007753 0.000000 0.029527 0.000000
# 6 0.000000 0.000000 0.000000 -0.010377 0.000000 -0.013576
#
#
# Mechanical properties :
#
#
# Convention : Reuss Voigt Hill
#
# Bulk Modulus (GPa) = 61.59902 87.73290 74.66596
# Shear Modulus (GPa) = 51.11342 20.81281 35.96312
#
# Velocity S-wave (km/s) = 4.69185 2.99393 3.93555
# Velocity P-wave (km/s) = 7.47533 7.05238 7.26694
#
# Compressibility (1/GPa) = 0.01623403
#
# Stress axis : x y z
#
# Youngs Moduli (GPa) = 84.05132 134.24989 76.28717
#
# Poissons Ratio (x) = 0.37601 0.16030
# Poissons Ratio (y) = 0.23541 0.24475
# Poissons Ratio (z) = 0.17661 0.43071
#
# Static dielectric constant tensor:
#      x y z
#    x 1.946080 0.000000 0.048370 
#    y 0.000000 1.803600 0.000000 
#    z 0.048370 0.000000 1.896660 
# 
# From -- ./inp_files/38327.got.cif
#   From: 2010.05.17/outbox.cif.g08.bks.cpg/sg11_20_cif.got.tgz:38327.got - 2010.06.03 12:22:45.
