data_PCOD9158917
_publ_section_title
;
Structure prediction by ZEFSAII (Michael W. Deem and Ramdas Pophale) SiO2 
 PCOD9158917
Probable space group: P 21/M
;
_chemical_formula_sum "Si O2"
_cell_formula_units_Z 28
_cell_length_a 19.560342
_cell_length_b 9.008425
_cell_length_c 14.722795
_cell_angle_alpha 90.000000
_cell_angle_beta 138.624025
_cell_angle_gamma 90.000000
_cell_volume 1714.806988
_symmetry_space_group_name_H-M "P 21/M"
_symmetry_group_IT_number 11
_symmetry_cell_setting 'monoclinic'
loop_
_space_group_symop_operation_xyz
x,y,z
-x,1/2+y,-z
-x,-y,-z
x,1/2-y,z
loop_
_atom_site_type_symbol
_atom_site_label
_atom_site_fract_x
_atom_site_fract_y
_atom_site_fract_z
Si Si1 0.314989 0.071588 0.027307
Si Si2 0.121157 0.072854 0.710215
Si Si3 0.622714 0.073985 0.523101
Si Si4 0.703892 0.927343 0.422658
Si Si5 0.882174 0.426850 0.486830
Si Si6 0.623173 0.573369 0.712266
Si Si7 0.498354 0.427901 0.898918
O O1 0.332490 0.250000 0.039244
O O2 0.318970 0.031369 0.137446
O O3 0.406618 0.990921 0.064897
O O4 0.206591 0.038262 0.870744
O O5 0.126064 0.250000 0.696300
O O6 0.003728 0.038663 0.622530
O O7 0.143692 0.986827 0.639596
O O8 0.638326 0.250000 0.532770
O O9 0.499092 0.044712 0.393021
O O10 0.678257 0.993338 0.495507
O O11 0.655373 0.013050 0.654094
O O12 0.711500 0.750000 0.435104
O O13 0.607931 0.964323 0.259926
O O14 0.807172 0.995686 0.483321
O O15 0.868783 0.250000 0.476925
O O16 0.634784 0.750000 0.708421
O O17 0.505616 0.250000 0.913794
O O18 0.500000 0.500000 0.000000
#
# Coordination Sequence:
#
# PCOD9158917 Si02
#       7
#     4   4   4   4   4   4   4
#     4  10  19  34  54  75 102 134 168 205 251 304
#     4   9  19  35  54  76 102 134 172 213 253 297
#     4  10  19  32  52  76 102 133 169 208 249 302
#     4  11  22  35  51  73 103 137 171 210 254 300
#     4  10  20  34  53  76 102 134 174 215 253 297
#     4   9  18  32  51  75 103 134 165 203 252 305
#     4  11  23  34  47  71 104 137 168 204 250 301
#
# _framework density 16.328368000000001
#
# number of rings (size 3 to 8) (size 9 to 14) (size 15 to 20)
#    0.000    2.000    1.429    2.571    0.000    7.429 
#    0.000    0.000    0.000    0.857    0.000    0.000 
#    0.000    0.000    0.000    0.000    0.000    0.000 
#
# Total GULP energy -156315.582972 kJ/mol
# GULP energy per Si atom -5582.699392 kJ/mol
# Density = 1.629120 g / cm^3
# Si number density = 16.328368 Si / 1000 Ang^3
#
#
#
# Elastic Constant Matrix: (Units=GPa)
#
#
# Indices 1 2 3 4 5 6 
#
# 1 143.8757 64.6851 58.3731 0.0000 -14.6589 0.0000
# 2 64.6851 46.4885 38.5964 0.0000 -4.3942 0.0000
# 3 58.3731 38.5964 71.5298 0.0000 -11.6966 0.0000
# 4 0.0000 0.0000 0.0000 21.5197 0.0000 -3.0844
# 5 -14.6589 -4.3942 -11.6966 0.0000 20.3013 0.0000
# 6 0.0000 0.0000 0.0000 -3.0844 0.0000 34.2397
#
#
#
# Elastic Compliance Matrix: (Units=1/GPa)
#
#
# Indices 1 2 3 4 5 6 
#
# 1 0.019936 -0.026402 -0.000666 0.000000 0.008297 0.000000
# 2 -0.026402 0.074239 -0.020978 0.000000 -0.015082 0.000000
# 3 -0.000666 -0.020978 0.027625 0.000000 0.010894 0.000000
# 4 0.000000 0.000000 0.000000 0.047077 0.000000 0.004241
# 5 0.008297 -0.015082 0.010894 0.000000 0.058261 0.000000
# 6 0.000000 0.000000 0.000000 0.004241 0.000000 0.029588
#
#
# Mechanical properties :
#
#
# Convention : Reuss Voigt Hill
#
# Bulk Modulus (GPa) = 38.90131 65.02258 51.96194
# Shear Modulus (GPa) = 13.83550 21.89475 17.86513
#
# Velocity S-wave (km/s) = 2.91405 3.66581 3.31133
# Velocity P-wave (km/s) = 5.93282 7.60433 6.81998
#
# Compressibility (1/GPa) = 0.02570608
#
# Stress axis : x y z
#
# Youngs Moduli (GPa) = 50.15960 13.47002 36.19903
#
# Poissons Ratio (x) = 0.35564 0.02412
# Poissons Ratio (y) = 1.32433 0.75940
# Poissons Ratio (z) = 0.03343 0.28258
#
# Static dielectric constant tensor:
#      x y z
#    x 1.515810 0.000000 0.000190 
#    y 0.000000 1.543750 0.000000 
#    z 0.000190 0.000000 1.543720 
# 
# From -- ./inp_files/44658.got.cif
#   From: 2010.05.17/outbox.cif.g08.bks.cpg/sg11_23_cif.got.tgz:44658.got - 2010.06.03 12:22:45.
