data_PCOD9158389
_publ_section_title
;
Structure prediction by ZEFSAII (Michael W. Deem and Ramdas Pophale) SiO2 
 PCOD9158389
Probable space group: P 21/M
;
_chemical_formula_sum "Si O2"
_cell_formula_units_Z 32
_cell_length_a 17.167273
_cell_length_b 8.824880
_cell_length_c 17.144646
_cell_angle_alpha 90.000000
_cell_angle_beta 50.707940
_cell_angle_gamma 90.000000
_cell_volume 2010.199636
_symmetry_space_group_name_H-M "P 21/M"
_symmetry_group_IT_number 11
_symmetry_cell_setting 'monoclinic'
loop_
_space_group_symop_operation_xyz
x,y,z
-x,1/2+y,-z
-x,-y,-z
x,1/2-y,z
loop_
_atom_site_type_symbol
_atom_site_label
_atom_site_fract_x
_atom_site_fract_y
_atom_site_fract_z
Si Si1 0.653110 0.069249 0.938125
Si Si2 0.986710 0.067319 0.095588
Si Si3 0.556891 0.932729 0.849378
Si Si4 0.661056 0.921660 0.186668
Si Si5 0.189078 0.428367 0.053240
Si Si6 0.777226 0.573697 0.276670
Si Si7 0.404153 0.930417 0.514150
Si Si8 0.547391 0.571843 0.679968
O O1 0.651979 0.250000 0.934808
O O2 0.629859 0.000794 0.868197
O O3 0.756188 0.013259 0.911149
O O4 0.557081 0.021131 0.053099
O O5 0.987688 0.250000 0.088690
O O6 0.080454 0.020673 0.091028
O O7 0.883292 0.009210 0.198635
O O8 0.000000 0.000000 0.000000
O O9 0.560269 0.750000 0.850686
O O10 0.580680 0.977668 0.745570
O O11 0.617987 0.750000 0.208289
O O12 0.723822 0.929549 0.226071
O O13 0.572364 0.042152 0.244105
O O14 0.736195 0.944864 0.067712
O O15 0.182757 0.250000 0.076257
O O16 0.791519 0.750000 0.289170
O O17 0.698621 0.493804 0.383974
O O18 0.409359 0.750000 0.518106
O O19 0.500000 0.000000 0.500000
O O20 0.410961 0.980751 0.419888
O O21 0.568347 0.750000 0.656746
#
# Coordination Sequence:
#
# PCOD9158389 Si02
#       8
#     4   4   4   4   4   4   4   4
#     4  10  19  31  49  75 102 134 173 213 257 306
#     4  11  22  36  53  76 105 141 180 219 262 310
#     4   9  19  33  48  72 104 137 170 209 259 311
#     4  10  19  31  49  72 103 140 175 214 256 303
#     4  10  20  34  50  72 104 141 176 211 258 307
#     4  11  22  38  54  75 104 138 179 222 264 305
#     4  12  24  37  53  76 104 139 178 217 261 309
#     4  11  21  34  52  76 104 138 178 216 257 308
#
# _framework density 15.918817000000001
#
# number of rings (size 3 to 8) (size 9 to 14) (size 15 to 20)
#    0.000    1.500    3.750    2.625    0.000    3.000 
#    0.000    0.000    0.000    0.000    0.000    0.875 
#    0.000    0.000    0.000    0.000    0.000    0.000 
#
# Total GULP energy -178623.272468 kJ/mol
# GULP energy per Si atom -5581.977265 kJ/mol
# Density = 1.588259 g / cm^3
# Si number density = 15.918817 Si / 1000 Ang^3
#
#
#
# Elastic Constant Matrix: (Units=GPa)
#
#
# Indices 1 2 3 4 5 6 
#
# 1 117.2320 46.8624 65.9647 0.0000 8.7566 0.0000
# 2 46.8624 66.5204 42.4614 0.0000 4.2167 0.0000
# 3 65.9647 42.4614 90.2027 0.0000 5.1038 0.0000
# 4 0.0000 0.0000 0.0000 22.7508 0.0000 2.9072
# 5 8.7566 4.2167 5.1038 0.0000 25.2018 0.0000
# 6 0.0000 0.0000 0.0000 2.9072 0.0000 22.8881
#
#
#
# Elastic Compliance Matrix: (Units=1/GPa)
#
#
# Indices 1 2 3 4 5 6 
#
# 1 0.015914 -0.005297 -0.008984 0.000000 -0.002824 0.000000
# 2 -0.005297 0.023315 -0.007066 0.000000 -0.000630 0.000000
# 3 -0.008984 -0.007066 0.020979 0.000000 0.000055 0.000000
# 4 0.000000 0.000000 0.000000 0.044680 0.000000 -0.005675
# 5 -0.002824 -0.000630 0.000055 0.000000 0.040755 0.000000
# 6 0.000000 0.000000 0.000000 -0.005675 0.000000 0.044412
#
#
# Mechanical properties :
#
#
# Convention : Reuss Voigt Hill
#
# Bulk Modulus (GPa) = 57.09863 64.94801 61.02332
# Shear Modulus (GPa) = 20.95676 22.07926 21.51801
#
# Velocity S-wave (km/s) = 3.63227 3.72827 3.68058
# Velocity P-wave (km/s) = 7.31694 7.70853 7.51529
#
# Compressibility (1/GPa) = 0.01751356
#
# Stress axis : x y z
#
# Youngs Moduli (GPa) = 62.83824 42.89123 47.66597
#
# Poissons Ratio (x) = 0.22720 0.42825
# Poissons Ratio (y) = 0.33286 0.33679
# Poissons Ratio (z) = 0.56457 0.30306
#
# Static dielectric constant tensor:
#      x y z
#    x 1.522390 0.000000 0.008610 
#    y 0.000000 1.376120 0.000000 
#    z 0.008610 0.000000 1.522880 
# 
# From -- ./inp_files/51672.got.cif
#   From: 2010.05.17/outbox.cif.g08.bks.cpg/sg11_26_cif.got.tgz:51672.got - 2010.06.03 12:22:45.
