data_PCOD9158419
_publ_section_title
;
Structure prediction by ZEFSAII (Michael W. Deem and Ramdas Pophale) SiO2 
 PCOD9158419
Probable space group: P 21/M
;
_chemical_formula_sum "Si O2"
_cell_formula_units_Z 24
_cell_length_a 11.409185
_cell_length_b 9.009915
_cell_length_c 20.179077
_cell_angle_alpha 90.000000
_cell_angle_beta 136.054275
_cell_angle_gamma 90.000000
_cell_volume 1439.532480
_symmetry_space_group_name_H-M "P 21/M"
_symmetry_group_IT_number 11
_symmetry_cell_setting 'monoclinic'
loop_
_space_group_symop_operation_xyz
x,y,z
-x,1/2+y,-z
-x,-y,-z
x,1/2-y,z
loop_
_atom_site_type_symbol
_atom_site_label
_atom_site_fract_x
_atom_site_fract_y
_atom_site_fract_z
Si Si1 0.373952 0.426782 0.037216
Si Si2 0.306034 0.926684 0.276242
Si Si3 0.178396 0.427009 0.090436
Si Si4 0.611454 0.572284 0.486996
Si Si5 0.751260 0.073402 0.145156
Si Si6 0.905530 0.072704 0.675711
O O1 0.349779 0.250000 0.015914
O O2 0.306249 0.462478 0.082356
O O3 0.572164 0.458774 0.107734
O O4 0.272024 0.514074 0.939211
O O5 0.290998 0.750000 0.258778
O O6 0.499873 0.958935 0.376344
O O7 0.188857 0.961469 0.292553
O O8 0.245888 0.012521 0.187452
O O9 0.159353 0.250000 0.085810
O O10 0.000000 0.500000 0.000000
O O11 0.500000 0.500000 0.500000
O O12 0.618042 0.750000 0.497944
O O13 0.794663 0.501861 0.572497
O O14 0.778195 0.250000 0.155981
O O15 0.907604 0.991996 0.242758
O O16 0.905396 0.250000 0.668125
#
# Coordination Sequence:
#
# PCOD9158419 Si02
#       6
#     4   4   4   4   4   4
#     4   9  20  36  49  68  99 129 159 199 244 284
#     4   9  19  33  48  70 101 130 156 194 240 282
#     4  11  22  34  50  71  98 130 161 195 235 284
#     4   9  17  30  48  71  99 129 160 198 242 285
#     4  10  19  32  52  73  94 125 163 201 241 287
#     4  10  19  31  49  74 102 128 158 200 244 285
#
# _framework density 16.672080000000001
#
# number of rings (size 3 to 8) (size 9 to 14) (size 15 to 20)
#    0.000    2.333    0.000    4.000    0.000   10.000 
#    0.000    0.000    0.000    1.000    0.000    0.000 
#    0.000    0.000    0.000    0.000    0.000    0.000 
#
# Total GULP energy -133858.170529 kJ/mol
# GULP energy per Si atom -5577.423772 kJ/mol
# Density = 1.663413 g / cm^3
# Si number density = 16.672080 Si / 1000 Ang^3
#
#
#
# Elastic Constant Matrix: (Units=GPa)
#
#
# Indices 1 2 3 4 5 6 
#
# 1 49.0610 34.0943 43.1292 0.0000 -4.1123 0.0000
# 2 34.0943 58.4896 69.8261 0.0000 1.9490 0.0000
# 3 43.1292 69.8261 155.4722 0.0000 9.1443 0.0000
# 4 0.0000 0.0000 0.0000 37.2399 0.0000 0.8905
# 5 -4.1123 1.9490 9.1443 0.0000 22.9195 0.0000
# 6 0.0000 0.0000 0.0000 0.8905 0.0000 22.8461
#
#
#
# Elastic Compliance Matrix: (Units=1/GPa)
#
#
# Indices 1 2 3 4 5 6 
#
# 1 0.036031 -0.018848 -0.002053 0.000000 0.008887 0.000000
# 2 -0.018848 0.047005 -0.015820 0.000000 -0.001067 0.000000
# 3 -0.002053 -0.015820 0.014387 0.000000 -0.004763 0.000000
# 4 0.000000 0.000000 0.000000 0.026878 0.000000 -0.001048
# 5 0.008887 -0.001067 -0.004763 0.000000 0.047216 0.000000
# 6 0.000000 0.000000 0.000000 -0.001048 0.000000 0.043812
#
#
# Mechanical properties :
#
#
# Convention : Reuss Voigt Hill
#
# Bulk Modulus (GPa) = 41.69936 61.90244 51.80090
# Shear Modulus (GPa) = 16.84840 24.33265 20.59052
#
# Velocity S-wave (km/s) = 3.18240 3.82447 3.51811
# Velocity P-wave (km/s) = 6.21043 7.53074 6.90223
#
# Compressibility (1/GPa) = 0.02398118
#
# Stress axis : x y z
#
# Youngs Moduli (GPa) = 27.75425 21.27412 69.50926
#
# Poissons Ratio (x) = 0.40098 0.14268
# Poissons Ratio (y) = 0.52312 1.09962
# Poissons Ratio (z) = 0.05697 0.33655
#
# Static dielectric constant tensor:
#      x y z
#    x 1.556710 0.000000 0.021060 
#    y 0.000000 1.552240 0.000000 
#    z 0.021060 0.000000 1.567520 
# 
# From -- ./inp_files/40334.got.cif
#   From: 2010.05.17/outbox.cif.g08.bks.cpg/sg11_21_cif.got.tgz:40334.got - 2010.06.03 12:22:45.
