data_PCOD9158025
_publ_section_title
;
Structure prediction by ZEFSAII (Michael W. Deem and Ramdas Pophale) SiO2 
 PCOD9158025
Probable space group: P 21/M
;
_chemical_formula_sum "Si O2"
_cell_formula_units_Z 32
_cell_length_a 24.672618
_cell_length_b 8.708317
_cell_length_c 18.260922
_cell_angle_alpha 90.000000
_cell_angle_beta 149.380303
_cell_angle_gamma 90.000000
_cell_volume 1998.377994
_symmetry_space_group_name_H-M "P 21/M"
_symmetry_group_IT_number 11
_symmetry_cell_setting 'monoclinic'
loop_
_space_group_symop_operation_xyz
x,y,z
-x,1/2+y,-z
-x,-y,-z
x,1/2-y,z
loop_
_atom_site_type_symbol
_atom_site_label
_atom_site_fract_x
_atom_site_fract_y
_atom_site_fract_z
Si Si1 0.360149 0.935166 0.947886
Si Si2 0.323889 0.433555 0.166171
Si Si3 0.383008 0.565914 0.381448
Si Si4 0.740784 0.935530 0.316105
Si Si5 0.979116 0.935617 0.556605
Si Si6 0.435566 0.934577 0.599816
Si Si7 0.592855 0.564821 0.275416
Si Si8 0.194936 0.564866 0.884370
O O1 0.358845 0.750000 0.940364
O O2 0.275578 0.979035 0.912429
O O3 0.324736 0.005063 0.829830
O O4 0.477832 0.983639 0.109645
O O5 0.324311 0.250000 0.170298
O O6 0.310887 0.499711 0.232848
O O7 0.441371 0.482818 0.272727
O O8 0.237409 0.492349 0.008324
O O9 0.500000 0.500000 0.500000
O O10 0.385152 0.750000 0.379093
O O11 0.366886 0.523348 0.447865
O O12 0.738989 0.750000 0.312644
O O13 0.683843 0.985880 0.324682
O O14 0.863206 0.985449 0.449823
O O15 0.979928 0.750000 0.553276
O O16 0.076623 0.981399 0.722389
O O17 0.000000 0.000000 0.500000
O O18 0.436006 0.750000 0.605705
O O19 0.396689 0.003714 0.630422
O O20 0.592820 0.750000 0.277910
O O21 0.198587 0.750000 0.895219
#
# Coordination Sequence:
#
# PCOD9158025 Si02
#       8
#     4   4   4   4   4   4   4   4
#     4  10  19  31  47  68  93 123 159 193 234 283
#     4  10  19  30  46  71  98 125 158 193 234 283
#     4   9  17  29  45  68  98 129 159 190 229 280
#     4  10  21  34  48  67  91 123 161 199 237 277
#     4  10  20  34  50  67  90 121 159 200 241 282
#     4   9  18  30  45  68  96 126 156 185 225 276
#     4  10  20  32  46  67  95 126 158 192 232 279
#     4  10  19  31  48  69  93 124 158 195 239 281
#
# _framework density 16.012986000000001
#
# number of rings (size 3 to 8) (size 9 to 14) (size 15 to 20)
#    0.000    2.250    2.500    1.875    0.000    4.500 
#    0.000    0.000    0.000    0.000    0.000    0.875 
#    0.000    0.000    0.000    0.000    0.000    0.000 
#
# Total GULP energy -178429.137866 kJ/mol
# GULP energy per Si atom -5575.910558 kJ/mol
# Density = 1.597654 g / cm^3
# Si number density = 16.012986 Si / 1000 Ang^3
#
#
#
# Elastic Constant Matrix: (Units=GPa)
#
#
# Indices 1 2 3 4 5 6 
#
# 1 138.4481 30.0079 91.5781 0.0000 -18.2326 0.0000
# 2 30.0079 14.7128 28.1296 0.0000 -8.0512 0.0000
# 3 91.5781 28.1296 103.9631 0.0000 -27.6206 0.0000
# 4 0.0000 0.0000 0.0000 19.3181 0.0000 -10.6521
# 5 -18.2326 -8.0512 -27.6206 0.0000 31.6768 0.0000
# 6 0.0000 0.0000 0.0000 -10.6521 0.0000 22.8887
#
#
#
# Elastic Compliance Matrix: (Units=1/GPa)
#
#
# Indices 1 2 3 4 5 6 
#
# 1 0.019165 -0.014531 -0.014318 0.000000 -0.005147 0.000000
# 2 -0.014531 0.152103 -0.026428 0.000000 0.007251 0.000000
# 3 -0.014318 -0.026428 0.033068 0.000000 0.013876 0.000000
# 4 0.000000 0.000000 0.000000 0.069634 0.000000 0.032407
# 5 -0.005147 0.007251 0.013876 0.000000 0.042548 0.000000
# 6 0.000000 0.000000 0.000000 0.032407 0.000000 0.058771
#
#
# Mechanical properties :
#
#
# Convention : Reuss Voigt Hill
#
# Bulk Modulus (GPa) = 10.66307 61.83947 36.25127
# Shear Modulus (GPa) = 9.66922 21.93728 15.80325
#
# Velocity S-wave (km/s) = 2.45997 3.70532 3.14491
# Velocity P-wave (km/s) = 3.83954 7.55037 5.98958
#
# Compressibility (1/GPa) = 0.09378166
#
# Stress axis : x y z
#
# Youngs Moduli (GPa) = 52.17734 6.57451 30.24056
#
# Poissons Ratio (x) = 0.09554 0.43298
# Poissons Ratio (y) = 0.75820 0.79921
# Poissons Ratio (z) = 0.74707 0.17375
#
# Static dielectric constant tensor:
#      x y z
#    x 1.529970 0.000000 -0.004540 
#    y 0.000000 1.540860 0.000000 
#    z -0.004540 0.000000 1.548220 
# 
# From -- ./inp_files/42777.got.cif
#   From: 2010.05.17/outbox.cif.g08.bks.cpg/sg11_22_cif.got.tgz:42777.got - 2010.06.03 12:22:45.
