data_PCOD9158306
_publ_section_title
;
Structure prediction by ZEFSAII (Michael W. Deem and Ramdas Pophale) SiO2 
 PCOD9158306
Probable space group: P 21/M
;
_chemical_formula_sum "Si O2"
_cell_formula_units_Z 28
_cell_length_a 14.727217
_cell_length_b 7.678358
_cell_length_c 12.220447
_cell_angle_alpha 90.000000
_cell_angle_beta 127.659104
_cell_angle_gamma 90.000000
_cell_volume 1093.993493
_symmetry_space_group_name_H-M "P 21/M"
_symmetry_group_IT_number 11
_symmetry_cell_setting 'monoclinic'
loop_
_space_group_symop_operation_xyz
x,y,z
-x,1/2+y,-z
-x,-y,-z
x,1/2-y,z
loop_
_atom_site_type_symbol
_atom_site_label
_atom_site_fract_x
_atom_site_fract_y
_atom_site_fract_z
Si Si1 0.353854 0.537117 0.486110
Si Si2 0.801637 0.554260 0.012928
Si Si3 0.803345 0.549723 0.420192
Si Si4 0.014986 0.044761 0.291715
Si Si5 0.419192 0.459825 0.839082
Si Si6 0.570514 0.549999 0.749646
Si Si7 0.159884 0.547909 0.185732
O O1 0.353147 0.750000 0.493726
O O2 0.274798 0.462278 0.526255
O O3 0.482833 0.467968 0.597376
O O4 0.286024 0.495169 0.324578
O O5 0.772271 0.750000 0.024815
O O6 0.683785 0.465489 0.886413
O O7 0.868905 0.553673 0.945750
O O8 0.882077 0.483104 0.167045
O O9 0.825677 0.750000 0.405925
O O10 0.922967 0.470744 0.553676
O O11 0.714350 0.479849 0.263733
O O12 0.035482 0.250000 0.308965
O O13 0.079813 0.974662 0.231900
O O14 0.417786 0.250000 0.821804
O O15 0.482984 0.552380 0.786909
O O16 0.500000 0.500000 0.000000
O O17 0.597133 0.750000 0.738782
O O18 0.159777 0.750000 0.156075
#
# Coordination Sequence:
#
# PCOD9158306 Si02
#       7
#     4   4   4   4   4   4   4
#     4   8  15  29  48  68  92 124 161 201 242 285
#     4  11  22  33  46  67  98 134 168 204 245 285
#     4   8  16  30  49  73  97 123 155 194 238 281
#     4  10  19  33  51  69  94 129 170 209 241 277
#     4  10  19  33  56  83 105 123 149 188 237 293
#     4   9  19  35  51  70  99 131 161 196 243 293
#     4  10  19  31  48  70  95 126 169 213 247 282
#
# _framework density 25.594304000000001
#
# number of rings (size 3 to 8) (size 9 to 14) (size 15 to 20)
#    0.000    2.571    0.000    2.143    0.000    3.429 
#    0.000    0.000    0.000    0.857    0.000    0.000 
#    0.000    0.000    0.000    0.000    0.000    0.000 
#
# Total GULP energy -156202.925987 kJ/mol
# GULP energy per Si atom -5578.675928 kJ/mol
# Density = 2.553605 g / cm^3
# Si number density = 25.594304 Si / 1000 Ang^3
#
#
#
# Elastic Constant Matrix: (Units=GPa)
#
#
# Indices 1 2 3 4 5 6 
#
# 1 46.2463 -1.1411 20.2659 0.0000 8.8702 0.0000
# 2 -1.1411 93.5001 7.1899 0.0000 5.8356 0.0000
# 3 20.2659 7.1899 258.6776 0.0000 32.9622 0.0000
# 4 0.0000 0.0000 0.0000 20.8677 0.0000 2.4084
# 5 8.8702 5.8356 32.9622 0.0000 31.0414 0.0000
# 6 0.0000 0.0000 0.0000 2.4084 0.0000 13.0549
#
#
#
# Elastic Compliance Matrix: (Units=1/GPa)
#
#
# Indices 1 2 3 4 5 6 
#
# 1 0.023203 0.000717 -0.001128 0.000000 -0.005567 0.000000
# 2 0.000717 0.010845 -0.000083 0.000000 -0.002156 0.000000
# 3 -0.001128 -0.000083 0.004526 0.000000 -0.004468 0.000000
# 4 0.000000 0.000000 0.000000 0.048963 0.000000 -0.009033
# 5 -0.005567 -0.002156 -0.004468 0.000000 0.038955 0.000000
# 6 0.000000 0.000000 0.000000 -0.009033 0.000000 0.078266
#
#
# Mechanical properties :
#
#
# Convention : Reuss Voigt Hill
#
# Bulk Modulus (GPa) = 26.60554 50.11705 38.36130
# Shear Modulus (GPa) = 22.90686 37.80009 30.35348
#
# Velocity S-wave (km/s) = 2.99490 3.84721 3.44749
# Velocity P-wave (km/s) = 4.73042 6.27364 5.55587
#
# Compressibility (1/GPa) = 0.03758615
#
# Stress axis : x y z
#
# Youngs Moduli (GPa) = 43.09730 92.20967 220.95324
#
# Poissons Ratio (x) = -0.06615 0.24932
# Poissons Ratio (y) = -0.03092 0.01833
# Poissons Ratio (z) = 0.04863 0.00765
#
# Static dielectric constant tensor:
#      x y z
#    x 2.090850 0.000000 0.061920 
#    y 0.000000 1.939500 0.000000 
#    z 0.061920 0.000000 2.189180 
# 
# From -- ./inp_files/42363.got.cif
#   From: 2010.05.17/outbox.cif.g08.bks.cpg/sg11_22_cif.got.tgz:42363.got - 2010.06.03 12:22:45.
