data_PCOD9158261
_publ_section_title
;
Structure prediction by ZEFSAII (Michael W. Deem and Ramdas Pophale) SiO2 
 PCOD9158261
Probable space group: P 21/M
;
_chemical_formula_sum "Si O2"
_cell_formula_units_Z 32
_cell_length_a 21.215179
_cell_length_b 8.598248
_cell_length_c 23.931553
_cell_angle_alpha 90.000000
_cell_angle_beta 156.230885
_cell_angle_gamma 90.000000
_cell_volume 1759.497551
_symmetry_space_group_name_H-M "P 21/M"
_symmetry_group_IT_number 11
_symmetry_cell_setting 'monoclinic'
loop_
_space_group_symop_operation_xyz
x,y,z
-x,1/2+y,-z
-x,-y,-z
x,1/2-y,z
loop_
_atom_site_type_symbol
_atom_site_label
_atom_site_fract_x
_atom_site_fract_y
_atom_site_fract_z
Si Si1 0.349890 0.563460 0.912025
Si Si2 0.492487 0.437289 0.255411
Si Si3 0.674351 0.062951 0.712767
Si Si4 0.160681 0.937316 0.655497
Si Si5 0.477877 0.937856 0.848269
Si Si6 0.159932 0.937664 0.263158
Si Si7 0.828051 0.937349 0.943325
Si Si8 0.641976 0.564367 0.482959
O O1 0.354985 0.750000 0.917375
O O2 0.202530 0.516560 0.753636
O O3 0.500000 0.500000 0.000000
O O4 0.379555 0.499543 0.998021
O O5 0.500818 0.250000 0.262909
O O6 0.513106 0.489481 0.208523
O O7 0.617955 0.501811 0.401157
O O8 0.322473 0.482611 0.141750
O O9 0.670601 0.250000 0.708358
O O10 0.720522 0.008124 0.688595
O O11 0.509264 0.006924 0.603767
O O12 0.803086 0.010605 0.862259
O O13 0.154566 0.750000 0.649087
O O14 0.311987 0.985739 0.741311
O O15 0.000000 0.000000 0.500000
O O16 0.483406 0.750000 0.854533
O O17 0.166051 0.750000 0.271002
O O18 0.988146 0.983273 0.102945
O O19 0.209414 0.005451 0.362524
O O20 0.828038 0.750000 0.937454
O O21 0.638888 0.750000 0.479357
#
# Coordination Sequence:
#
# PCOD9158261 Si02
#       8
#     4   4   4   4   4   4   4   4
#     4   9  17  30  49  74 101 127 158 193 229 271
#     4   9  18  35  54  69  91 125 162 198 235 279
#     4   9  18  31  47  68  94 123 155 194 241 291
#     4   9  18  31  48  74 104 129 154 188 231 275
#     4   9  18  33  53  74  95 125 164 197 230 278
#     4  10  19  31  47  69  96 123 153 194 245 293
#     4   9  18  31  49  71  92 119 157 198 240 286
#     4  10  20  32  47  69  95 125 162 198 235 283
#
# _framework density 18.187010999999998
#
# number of rings (size 3 to 8) (size 9 to 14) (size 15 to 20)
#    0.000    2.750    0.000    2.250    0.000    4.500 
#    0.000    1.250    0.000    6.000    0.000    0.000 
#    0.000    0.000    0.000    0.000    0.000    0.000 
#
# Total GULP energy -178363.335065 kJ/mol
# GULP energy per Si atom -5573.854221 kJ/mol
# Density = 1.814562 g / cm^3
# Si number density = 18.187011 Si / 1000 Ang^3
#
#
#
# Elastic Constant Matrix: (Units=GPa)
#
#
# Indices 1 2 3 4 5 6 
#
# 1 73.2464 12.7992 39.9132 0.0000 -36.1477 0.0000
# 2 12.7992 3.4060 14.4773 0.0000 -7.7854 0.0000
# 3 39.9132 14.4773 134.7622 0.0000 -37.7326 0.0000
# 4 0.0000 0.0000 0.0000 31.3134 0.0000 -7.3314
# 5 -36.1477 -7.7854 -37.7326 0.0000 32.0230 0.0000
# 6 0.0000 0.0000 0.0000 -7.3314 0.0000 17.9656
#
#
#
# Elastic Compliance Matrix: (Units=1/GPa)
#
#
# Indices 1 2 3 4 5 6 
#
# 1 0.055852 -0.193732 0.013036 0.000000 0.031307 0.000000
# 2 -0.193732 1.504109 -0.094091 0.000000 0.036123 0.000000
# 3 0.013036 -0.094091 0.016987 0.000000 0.011856 0.000000
# 4 0.000000 0.000000 0.000000 0.035309 0.000000 0.014409
# 5 0.031307 0.036123 0.011856 0.000000 0.089319 0.000000
# 6 0.000000 0.000000 0.000000 0.014409 0.000000 0.061542
#
#
# Mechanical properties :
#
#
# Convention : Reuss Voigt Hill
#
# Bulk Modulus (GPa) = 0.97336 38.42156 19.69746
# Shear Modulus (GPa) = 1.88313 25.87541 13.87927
#
# Velocity S-wave (km/s) = 1.01866 3.77602 2.76550
# Velocity P-wave (km/s) = 1.38561 6.33899 4.58817
#
# Compressibility (1/GPa) = 1.02737345
#
# Stress axis : x y z
#
# Youngs Moduli (GPa) = 17.90432 0.66485 58.86798
#
# Poissons Ratio (x) = 0.12880 -0.76741
# Poissons Ratio (y) = 3.46864 5.53897
# Poissons Ratio (z) = -0.23340 0.06256
#
# Static dielectric constant tensor:
#      x y z
#    x 1.660960 0.000000 0.000980 
#    y 0.000000 1.607750 0.000000 
#    z 0.000980 0.000000 1.635880 
# 
# From -- ./inp_files/27298.got.cif
#   From: 2010.05.17/outbox.cif.g08.bks.cpg/sg11_14_cif.got.tgz:27298.got - 2010.06.03 12:22:45.
