data_PCOD9158617
_publ_section_title
;
Structure prediction by ZEFSAII (Michael W. Deem and Ramdas Pophale) SiO2 
 PCOD9158617
Probable space group: P 21/M
;
_chemical_formula_sum "Si O2"
_cell_formula_units_Z 32
_cell_length_a 15.143856
_cell_length_b 9.040013
_cell_length_c 22.506724
_cell_angle_alpha 90.000000
_cell_angle_beta 34.857946
_cell_angle_gamma 90.000000
_cell_volume 1761.032158
_symmetry_space_group_name_H-M "P 21/M"
_symmetry_group_IT_number 11
_symmetry_cell_setting 'monoclinic'
loop_
_space_group_symop_operation_xyz
x,y,z
-x,1/2+y,-z
-x,-y,-z
x,1/2-y,z
loop_
_atom_site_type_symbol
_atom_site_label
_atom_site_fract_x
_atom_site_fract_y
_atom_site_fract_z
Si Si1 0.577052 0.915037 0.124744
Si Si2 0.771878 0.071161 0.495521
Si Si3 0.748421 0.428421 0.644239
Si Si4 0.157783 0.575601 0.971213
Si Si5 0.111156 0.072931 0.317080
Si Si6 0.393325 0.583912 0.103832
Si Si7 0.478415 0.069634 0.577971
Si Si8 0.803211 0.571961 0.177230
O O1 0.631756 0.750000 0.111384
O O2 0.432948 0.958656 0.245300
O O3 0.495286 0.906622 0.106815
O O4 0.716658 0.027280 0.050295
O O5 0.759465 0.250000 0.503860
O O6 0.774713 0.022582 0.562599
O O7 0.627646 0.022745 0.535342
O O8 0.945370 0.032477 0.380664
O O9 0.770322 0.250000 0.637572
O O10 0.851025 0.505209 0.638451
O O11 0.156246 0.750000 0.961606
O O12 0.215050 0.497443 0.878530
O O13 0.984571 0.533271 0.087913
O O14 0.118395 0.250000 0.318506
O O15 0.243098 0.009205 0.202419
O O16 0.352594 0.750000 0.107529
O O17 0.500000 0.500000 0.000000
O O18 0.477517 0.250000 0.572978
O O19 0.323522 0.028420 0.702361
O O20 0.500000 0.000000 0.500000
O O21 0.790660 0.750000 0.179382
#
# Coordination Sequence:
#
# PCOD9158617 Si02
#       8
#     4   4   4   4   4   4   4   4
#     4   9  18  32  51  76 106 140 173 208 260 318
#     4   9  18  33  55  79 105 142 179 217 267 322
#     4   9  17  32  54  79 109 144 179 212 259 319
#     4  10  19  31  53  85 111 134 174 222 270 323
#     4  10  19  32  52  81 113 139 171 216 265 318
#     4  10  21  38  56  74 101 140 179 215 258 310
#     4  10  21  40  59  75 103 144 189 230 273 322
#     4   9  19  36  56  76 107 143 173 219 278 326
#
# _framework density 18.171161000000001
#
# number of rings (size 3 to 8) (size 9 to 14) (size 15 to 20)
#    0.000    2.500    0.000    3.000    0.000    5.500 
#    2.250    2.500    0.000    0.000    0.000    0.000 
#    0.000    0.000    0.000    0.000    0.000    0.000 
#
# Total GULP energy -178177.890620 kJ/mol
# GULP energy per Si atom -5568.059082 kJ/mol
# Density = 1.812980 g / cm^3
# Si number density = 18.171161 Si / 1000 Ang^3
#
#
#
# Elastic Constant Matrix: (Units=GPa)
#
#
# Indices 1 2 3 4 5 6 
#
# 1 26.5839 23.4752 76.1807 0.0000 -12.2900 0.0000
# 2 23.4752 34.0315 45.6395 0.0000 -11.2181 0.0000
# 3 76.1807 45.6395 151.5901 0.0000 4.4398 0.0000
# 4 0.0000 0.0000 0.0000 19.0225 0.0000 1.6484
# 5 -12.2900 -11.2181 4.4398 0.0000 19.1984 0.0000
# 6 0.0000 0.0000 0.0000 1.6484 0.0000 29.1201
#
#
#
# Elastic Compliance Matrix: (Units=1/GPa)
#
#
# Indices 1 2 3 4 5 6 
#
# 1 -0.033867 -0.025409 0.025915 0.000000 -0.042521 0.000000
# 2 -0.025409 0.064100 -0.007199 0.000000 0.022854 0.000000
# 3 0.025915 -0.007199 -0.004654 0.000000 0.013459 0.000000
# 4 0.000000 0.000000 0.000000 0.052828 0.000000 -0.002990
# 5 -0.042521 0.022854 0.013459 0.000000 0.035110 0.000000
# 6 0.000000 0.000000 0.000000 -0.002990 0.000000 0.034510
#
#
# Mechanical properties :
#
#
# Convention : Reuss Voigt Hill
#
# Bulk Modulus (GPa) = 82.01177 55.86624 68.93901
# Shear Modulus (GPa) = 30.21567 17.92886 24.07227
#
# Velocity S-wave (km/s) = 4.08221 3.14453 3.64366
# Velocity P-wave (km/s) = 8.21281 6.63290 7.46477
#
# Compressibility (1/GPa) = 0.01219337
#
# Stress axis : x y z
#
# Youngs Moduli (GPa) = -29.52707 15.60065 -214.88770
#
# Poissons Ratio (x) = 0.39640 5.56884
# Poissons Ratio (y) = -0.75026 -1.54693
# Poissons Ratio (z) = 0.76520 0.11231
#
# Static dielectric constant tensor:
#      x y z
#    x 1.614360 0.000000 -0.041270 
#    y 0.000000 1.620900 0.000000 
#    z -0.041270 0.000000 1.566960 
# 
# From -- ./inp_files/69051.got.cif
#   From: 2010.05.17/outbox.cif.g08.bks.cpg/sg11_35_cif.got.tgz:69051.got - 2010.06.03 12:22:45.
