data_PCOD9158333
_publ_section_title
;
Structure prediction by ZEFSAII (Michael W. Deem and Ramdas Pophale) SiO2 
 PCOD9158333
Probable space group: P 21/M
;
_chemical_formula_sum "Si O2"
_cell_formula_units_Z 28
_cell_length_a 17.860314
_cell_length_b 8.669244
_cell_length_c 14.862429
_cell_angle_alpha 90.000000
_cell_angle_beta 49.434370
_cell_angle_gamma 90.000000
_cell_volume 1748.156281
_symmetry_space_group_name_H-M "P 21/M"
_symmetry_group_IT_number 11
_symmetry_cell_setting 'monoclinic'
loop_
_space_group_symop_operation_xyz
x,y,z
-x,1/2+y,-z
-x,-y,-z
x,1/2-y,z
loop_
_atom_site_type_symbol
_atom_site_label
_atom_site_fract_x
_atom_site_fract_y
_atom_site_fract_z
Si Si1 0.911052 0.065089 0.187695
Si Si2 0.766750 0.434756 0.943449
Si Si3 0.608729 0.065361 0.923055
Si Si4 0.862361 0.565430 0.035268
Si Si5 0.778571 0.435295 0.652165
Si Si6 0.924747 0.933539 0.682593
Si Si7 0.131838 0.433542 0.585860
O O1 0.904238 0.250000 0.192119
O O2 0.860740 0.995307 0.138323
O O3 0.867346 0.999845 0.314029
O O4 0.027817 0.024732 0.088117
O O5 0.781450 0.250000 0.923621
O O6 0.664906 0.474326 0.972375
O O7 0.850584 0.522500 0.821154
O O8 0.782207 0.487440 0.033291
O O9 0.603109 0.250000 0.923660
O O10 0.681983 0.016774 0.784607
O O11 0.500000 0.000000 0.000000
O O12 0.853008 0.750000 0.040342
O O13 0.783861 0.250000 0.647518
O O14 0.871342 0.500006 0.636236
O O15 0.786136 0.499632 0.545806
O O16 0.937071 0.750000 0.666228
O O17 0.027970 0.011455 0.624902
O O18 0.136294 0.250000 0.584399
#
# Coordination Sequence:
#
# PCOD9158333 Si02
#       7
#     4   4   4   4   4   4   4
#     4  10  20  32  47  68  99 136 172 209 246 284
#     4  10  19  32  50  73 101 133 167 205 249 295
#     4   9  20  36  55  77 100 127 160 204 253 298
#     4  10  19  31  48  71  98 133 173 208 247 288
#     4  10  21  36  50  69  97 129 165 203 246 297
#     4  11  20  31  46  68  97 132 169 204 242 288
#     4  12  22  32  47  69  98 134 170 205 243 288
#
# _framework density 16.016874000000001
#
# number of rings (size 3 to 8) (size 9 to 14) (size 15 to 20)
#    0.000    1.714    1.429    5.571    0.000    4.571 
#    0.000    0.000    0.000    0.000    0.000    1.000 
#    0.000    0.000    0.000    0.000    0.000    0.000 
#
# Total GULP energy -156308.833239 kJ/mol
# GULP energy per Si atom -5582.458330 kJ/mol
# Density = 1.598042 g / cm^3
# Si number density = 16.016874 Si / 1000 Ang^3
#
#
#
# Elastic Constant Matrix: (Units=GPa)
#
#
# Indices 1 2 3 4 5 6 
#
# 1 107.9369 31.4174 70.7654 0.0000 14.8085 0.0000
# 2 31.4174 63.5063 27.4719 0.0000 8.4344 0.0000
# 3 70.7654 27.4719 81.0054 0.0000 20.5829 0.0000
# 4 0.0000 0.0000 0.0000 25.7430 0.0000 4.3253
# 5 14.8085 8.4344 20.5829 0.0000 30.1750 0.0000
# 6 0.0000 0.0000 0.0000 4.3253 0.0000 28.4453
#
#
#
# Elastic Compliance Matrix: (Units=1/GPa)
#
#
# Indices 1 2 3 4 5 6 
#
# 1 0.022399 -0.003148 -0.019270 0.000000 0.003032 0.000000
# 2 -0.003148 0.018925 -0.003286 0.000000 -0.001503 0.000000
# 3 -0.019270 -0.003286 0.033456 0.000000 -0.012445 0.000000
# 4 0.000000 0.000000 0.000000 0.039864 0.000000 -0.006062
# 5 0.003032 -0.001503 -0.012445 0.000000 0.040561 0.000000
# 6 0.000000 0.000000 0.000000 -0.006062 0.000000 0.036077
#
#
# Mechanical properties :
#
#
# Convention : Reuss Voigt Hill
#
# Bulk Modulus (GPa) = 42.78799 56.86201 49.82500
# Shear Modulus (GPa) = 19.96160 25.05893 22.51027
#
# Velocity S-wave (km/s) = 3.53411 3.95971 3.75295
# Velocity P-wave (km/s) = 6.58980 7.51559 7.06787
#
# Compressibility (1/GPa) = 0.02337105
#
# Stress axis : x y z
#
# Youngs Moduli (GPa) = 44.64524 52.84026 29.89007
#
# Poissons Ratio (x) = 0.16632 0.57599
# Poissons Ratio (y) = 0.14053 0.09823
# Poissons Ratio (z) = 0.86033 0.17365
#
# Static dielectric constant tensor:
#      x y z
#    x 1.539450 0.000000 0.025970 
#    y 0.000000 1.531460 0.000000 
#    z 0.025970 0.000000 1.547870 
# 
# From -- ./inp_files/50996.got.cif
#   From: 2010.05.17/outbox.cif.g08.bks.cpg/sg11_26_cif.got.tgz:50996.got - 2010.06.03 12:22:45.
