data_PCOD9158052
_publ_section_title
;
Structure prediction by ZEFSAII (Michael W. Deem and Ramdas Pophale) SiO2 
 PCOD9158052
Probable space group: P 21/M
;
_chemical_formula_sum "Si O2"
_cell_formula_units_Z 28
_cell_length_a 16.991705
_cell_length_b 7.622901
_cell_length_c 18.533609
_cell_angle_alpha 90.000000
_cell_angle_beta 155.075926
_cell_angle_gamma 90.000000
_cell_volume 1011.647407
_symmetry_space_group_name_H-M "P 21/M"
_symmetry_group_IT_number 11
_symmetry_cell_setting 'monoclinic'
loop_
_space_group_symop_operation_xyz
x,y,z
-x,1/2+y,-z
-x,-y,-z
x,1/2-y,z
loop_
_atom_site_type_symbol
_atom_site_label
_atom_site_fract_x
_atom_site_fract_y
_atom_site_fract_z
Si Si1 0.198656 0.955202 0.711501
Si Si2 0.563848 0.959687 0.947634
Si Si3 0.124002 0.041796 0.464909
Si Si4 0.214869 0.038970 0.164383
Si Si5 0.509397 0.049024 0.308564
Si Si6 0.256115 0.464254 0.354290
Si Si7 0.100298 0.959995 0.862751
O O1 0.181006 0.750000 0.681980
O O2 0.994313 0.029446 0.565017
O O3 0.314476 0.968663 0.884131
O O4 0.353225 0.032808 0.784740
O O5 0.552882 0.750000 0.945907
O O6 0.685192 0.994139 0.976455
O O7 0.098477 0.250000 0.446474
O O8 0.011066 0.973970 0.301117
O O9 0.338603 0.013830 0.622763
O O10 0.234372 0.250000 0.177405
O O11 0.315405 0.964726 0.176276
O O12 0.306276 0.975841 0.315689
O O13 0.000000 0.000000 0.000000
O O14 0.475466 0.250000 0.262018
O O15 0.623069 0.036670 0.479525
O O16 0.264769 0.250000 0.364786
O O17 0.040022 0.518879 0.191101
O O18 0.094615 0.750000 0.858089
#
# Coordination Sequence:
#
# PCOD9158052 Si02
#       7
#     4   4   4   4   4   4   4
#     4   8  14  22  30  45  74 111 145 174 208 254
#     4   9  14  19  30  49  75 107 142 178 213 250
#     4   8  14  25  39  55  80 116 151 179 214 262
#     4  10  22  37  51  69  93 119 149 186 227 272
#     4  10  19  30  47  72  95 115 148 192 229 263
#     4   9  18  33  50  67  90 122 155 184 220 270
#     4   8  14  24  37  54  79 110 143 177 212 255
#
# _framework density 27.677627999999999
#
# number of rings (size 3 to 8) (size 9 to 14) (size 15 to 20)
#    0.000    3.143    0.000    3.000    0.000    7.429 
#    0.000    0.000    0.000    0.000    0.000    0.000 
#    0.000    1.143    0.000    2.571    0.000   11.714 
#
# Total GULP energy -156485.189286 kJ/mol
# GULP energy per Si atom -5588.756760 kJ/mol
# Density = 2.761463 g / cm^3
# Si number density = 27.677628 Si / 1000 Ang^3
#
#
#
# Elastic Constant Matrix: (Units=GPa)
#
#
# Indices 1 2 3 4 5 6 
#
# 1 225.5981 21.6833 36.8709 0.0000 62.6890 0.0000
# 2 21.6833 81.9144 -4.4116 0.0000 6.6077 0.0000
# 3 36.8709 -4.4116 176.2302 0.0000 54.7349 0.0000
# 4 0.0000 0.0000 0.0000 32.6160 0.0000 -2.4602
# 5 62.6890 6.6077 54.7349 0.0000 60.9365 0.0000
# 6 0.0000 0.0000 0.0000 -2.4602 0.0000 15.6882
#
#
#
# Elastic Compliance Matrix: (Units=1/GPa)
#
#
# Indices 1 2 3 4 5 6 
#
# 1 0.006413 -0.001062 0.000895 0.000000 -0.007286 0.000000
# 2 -0.001062 0.012620 0.000865 0.000000 -0.001053 0.000000
# 3 0.000895 0.000865 0.008077 0.000000 -0.008269 0.000000
# 4 0.000000 0.000000 0.000000 0.031027 0.000000 0.004866
# 5 -0.007286 -0.001053 -0.008269 0.000000 0.031448 0.000000
# 6 0.000000 0.000000 0.000000 0.004866 0.000000 0.064505
#
#
# Mechanical properties :
#
#
# Convention : Reuss Voigt Hill
#
# Bulk Modulus (GPa) = 35.07882 65.78089 50.42986
# Shear Modulus (GPa) = 30.82667 50.48812 40.65739
#
# Velocity S-wave (km/s) = 3.34095 4.27564 3.83686
# Velocity P-wave (km/s) = 5.25206 6.94213 6.15538
#
# Compressibility (1/GPa) = 0.02850723
#
# Stress axis : x y z
#
# Youngs Moduli (GPa) = 155.93025 79.23629 123.80436
#
# Poissons Ratio (x) = 0.08412 -0.11076
# Poissons Ratio (y) = 0.16555 -0.10712
# Poissons Ratio (z) = -0.13950 -0.06856
#
# Static dielectric constant tensor:
#      x y z
#    x 2.236800 0.000000 -0.023170 
#    y 0.000000 2.236940 0.000000 
#    z -0.023170 0.000000 2.335030 
# 
# From -- ./inp_files/71956.got.cif
#   From: 2010.05.17/outbox.cif.g08.bks.cpg/sg11_36_cif.got.tgz:71956.got - 2010.06.03 12:22:45.
