data_PCOD9158100
_publ_section_title
;
Structure prediction by ZEFSAII (Michael W. Deem and Ramdas Pophale) SiO2 
 PCOD9158100
Probable space group: P 21/M
;
_chemical_formula_sum "Si O2"
_cell_formula_units_Z 32
_cell_length_a 22.193284
_cell_length_b 9.116047
_cell_length_c 20.893182
_cell_angle_alpha 90.000000
_cell_angle_beta 153.911090
_cell_angle_gamma 90.000000
_cell_volume 1858.890095
_symmetry_space_group_name_H-M "P 21/M"
_symmetry_group_IT_number 11
_symmetry_cell_setting 'monoclinic'
loop_
_space_group_symop_operation_xyz
x,y,z
-x,1/2+y,-z
-x,-y,-z
x,1/2-y,z
loop_
_atom_site_type_symbol
_atom_site_label
_atom_site_fract_x
_atom_site_fract_y
_atom_site_fract_z
Si Si1 0.936500 0.575317 0.640924
Si Si2 0.135835 0.574348 0.159304
Si Si3 0.491371 0.924141 0.060273
Si Si4 0.334033 0.925227 0.662552
Si Si5 0.422279 0.424422 0.197672
Si Si6 0.753712 0.423405 0.079348
Si Si7 0.036689 0.075568 0.182864
Si Si8 0.730389 0.424851 0.840048
O O1 0.913588 0.750000 0.610313
O O2 0.816647 0.485052 0.493876
O O3 0.939254 0.546116 0.719778
O O4 0.088068 0.538750 0.760033
O O5 0.120051 0.750000 0.145317
O O6 0.139037 0.510589 0.233618
O O7 0.254101 0.539487 0.220493
O O8 0.000000 0.500000 0.000000
O O9 0.515779 0.750000 0.078694
O O10 0.597300 0.996903 0.210986
O O11 0.342264 0.945504 0.950755
O O12 0.500000 0.000000 0.000000
O O13 0.336319 0.750000 0.673303
O O14 0.430881 0.961254 0.693661
O O15 0.410535 0.250000 0.190300
O O16 0.386194 0.494651 0.231254
O O17 0.312645 0.487228 0.042109
O O18 0.748485 0.250000 0.056942
O O19 0.050993 0.250000 0.185122
O O20 0.879097 0.038032 0.013629
O O21 0.713223 0.250000 0.830125
#
# Coordination Sequence:
#
# PCOD9158100 Si02
#       8
#     4   4   4   4   4   4   4   4
#     4  10  19  34  54  77 105 137 173 212 257 309
#     4   9  17  27  40  63  96 131 168 212 260 309
#     4  10  20  37  62  85 108 140 171 206 250 297
#     4  10  22  37  52  78 111 138 171 212 253 303
#     4  10  19  30  48  74 102 132 170 217 261 302
#     4   9  18  34  55  78 105 136 171 209 252 302
#     4   9  17  29  46  69  99 131 166 212 261 309
#     4   9  16  28  45  67  97 131 169 216 261 308
#
# _framework density 17.214573000000001
#
# number of rings (size 3 to 8) (size 9 to 14) (size 15 to 20)
#    0.000    2.500    1.250    2.250    0.000    5.500 
#    0.000    0.625    0.000    0.750    0.000    0.000 
#    0.000    0.000    0.000    0.000    0.000    0.000 
#
# Total GULP energy -178414.244457 kJ/mol
# GULP energy per Si atom -5575.445139 kJ/mol
# Density = 1.717539 g / cm^3
# Si number density = 17.214573 Si / 1000 Ang^3
#
#
#
# Elastic Constant Matrix: (Units=GPa)
#
#
# Indices 1 2 3 4 5 6 
#
# 1 94.2713 48.1724 31.8686 0.0000 5.4506 0.0000
# 2 48.1724 50.6768 34.8546 0.0000 5.6446 0.0000
# 3 31.8686 34.8546 77.7986 0.0000 10.5278 0.0000
# 4 0.0000 0.0000 0.0000 22.3622 0.0000 -1.5969
# 5 5.4506 5.6446 10.5278 0.0000 13.6850 0.0000
# 6 0.0000 0.0000 0.0000 -1.5969 0.0000 31.7245
#
#
#
# Elastic Compliance Matrix: (Units=1/GPa)
#
#
# Indices 1 2 3 4 5 6 
#
# 1 0.020642 -0.019944 0.000535 0.000000 -0.000407 0.000000
# 2 -0.019944 0.047849 -0.013027 0.000000 -0.001770 0.000000
# 3 0.000535 -0.013027 0.019838 0.000000 -0.010101 0.000000
# 4 0.000000 0.000000 0.000000 0.044880 0.000000 0.002259
# 5 -0.000407 -0.001770 -0.010101 0.000000 0.081736 0.000000
# 6 0.000000 0.000000 0.000000 0.002259 0.000000 0.031635
#
#
# Mechanical properties :
#
#
# Convention : Reuss Voigt Hill
#
# Bulk Modulus (GPa) = 42.63541 50.28198 46.45870
# Shear Modulus (GPa) = 15.66069 20.74443 18.20256
#
# Velocity S-wave (km/s) = 3.01945 3.47515 3.25528
# Velocity P-wave (km/s) = 6.08087 6.73607 6.41683
#
# Compressibility (1/GPa) = 0.02345468
#
# Stress axis : x y z
#
# Youngs Moduli (GPa) = 48.44517 20.89921 50.40846
#
# Poissons Ratio (x) = 0.41682 -0.02695
# Poissons Ratio (y) = 0.96620 0.65669
# Poissons Ratio (z) = -0.02590 0.27226
#
# Static dielectric constant tensor:
#      x y z
#    x 1.604590 0.000000 0.017140 
#    y 0.000000 1.573390 0.000000 
#    z 0.017140 0.000000 1.561500 
# 
# From -- ./inp_files/70026.got.cif
#   From: 2010.05.17/outbox.cif.g08.bks.cpg/sg11_36_cif.got.tgz:70026.got - 2010.06.03 12:22:45.
