data_PCOD9158747
_publ_section_title
;
Structure prediction by ZEFSAII (Michael W. Deem and Ramdas Pophale) SiO2 
 PCOD9158747
Probable space group: P 21/M
;
_chemical_formula_sum "Si O2"
_cell_formula_units_Z 28
_cell_length_a 22.623381
_cell_length_b 8.285508
_cell_length_c 25.209787
_cell_angle_alpha 90.000000
_cell_angle_beta 17.793855
_cell_angle_gamma 90.000000
_cell_volume 1444.074151
_symmetry_space_group_name_H-M "P 21/M"
_symmetry_group_IT_number 11
_symmetry_cell_setting 'monoclinic'
loop_
_space_group_symop_operation_xyz
x,y,z
-x,1/2+y,-z
-x,-y,-z
x,1/2-y,z
loop_
_atom_site_type_symbol
_atom_site_label
_atom_site_fract_x
_atom_site_fract_y
_atom_site_fract_z
Si Si1 0.729089 0.052772 0.964788
Si Si2 0.351337 0.559338 0.083037
Si Si3 0.362738 0.942731 0.550011
Si Si4 0.199788 0.442684 0.800061
Si Si5 0.167081 0.053913 0.609172
Si Si6 0.356718 0.447236 0.337339
Si Si7 0.950304 0.940670 0.484022
O O1 0.734322 0.250000 0.957126
O O2 0.576919 0.006980 0.139513
O O3 0.648532 0.993606 0.976775
O O4 0.945053 0.000654 0.792713
O O5 0.385603 0.750000 0.049576
O O6 0.137246 0.532150 0.288101
O O7 0.500000 0.500000 0.000000
O O8 0.366968 0.750000 0.552926
O O9 0.589154 0.999861 0.357338
O O10 0.233432 0.011127 0.709282
O O11 0.266646 0.989391 0.576719
O O12 0.194776 0.250000 0.808457
O O13 0.000000 0.500000 0.000000
O O14 0.170526 0.250000 0.608041
O O15 0.274145 0.000518 0.464027
O O16 0.343935 0.250000 0.347687
O O17 0.229826 0.506288 0.395642
O O18 0.918361 0.750000 0.516785
O O19 0.000000 0.000000 0.500000
#
# Coordination Sequence:
#
# PCOD9158747 Si02
#       7
#     4   4   4   4   4   4   4
#     4   9  17  31  51  74 101 135 177 228 281 334
#     4  10  19  32  50  73 101 132 174 227 281 339
#     4  10  22  39  59  88 124 161 195 236 289 342
#     4  10  21  39  64  92 124 160 199 240 283 335
#     4  10  19  34  55  79 107 144 192 235 276 339
#     4   9  17  31  51  73 100 135 176 226 280 331
#     4  10  19  32  50  73 100 132 173 226 280 337
#
# _framework density 19.389586000000001
#
# number of rings (size 3 to 8) (size 9 to 14) (size 15 to 20)
#    0.000    2.286    1.429    1.714    0.000    4.571 
#    0.000    2.857    0.000    1.714    0.000    0.000 
#    0.000    0.000    0.000    0.000    0.000    0.000 
#
# Total GULP energy -156083.830133 kJ/mol
# GULP energy per Si atom -5574.422505 kJ/mol
# Density = 1.934545 g / cm^3
# Si number density = 19.389586 Si / 1000 Ang^3
#
#
#
# Elastic Constant Matrix: (Units=GPa)
#
#
# Indices 1 2 3 4 5 6 
#
# 1 183.7663 38.4181 56.3521 0.0000 -12.1391 0.0000
# 2 38.4181 45.9885 -24.9765 0.0000 -11.9028 0.0000
# 3 56.3521 -24.9765 264.3135 0.0000 38.0344 0.0000
# 4 0.0000 0.0000 0.0000 17.1904 0.0000 -0.7437
# 5 -12.1391 -11.9028 38.0344 0.0000 31.0578 0.0000
# 6 0.0000 0.0000 0.0000 -0.7437 0.0000 29.6115
#
#
#
# Elastic Compliance Matrix: (Units=1/GPa)
#
#
# Indices 1 2 3 4 5 6 
#
# 1 0.008198 -0.007445 -0.003037 0.000000 0.004071 0.000000
# 2 -0.007445 0.031192 0.003925 0.000000 0.004238 0.000000
# 3 -0.003037 0.003925 0.005774 0.000000 -0.006753 0.000000
# 4 0.000000 0.000000 0.000000 0.058235 0.000000 0.001463
# 5 0.004071 0.004238 -0.006753 0.000000 0.043684 0.000000
# 6 0.000000 0.000000 0.000000 0.001463 0.000000 0.033807
#
#
# Mechanical properties :
#
#
# Convention : Reuss Voigt Hill
#
# Bulk Modulus (GPa) = 31.20092 70.40621 50.80356
# Shear Modulus (GPa) = 24.42745 43.85690 34.14218
#
# Velocity S-wave (km/s) = 3.55325 4.76108 4.20080
# Velocity P-wave (km/s) = 5.74113 8.16174 7.05601
#
# Compressibility (1/GPa) = 0.03205034
#
# Stress axis : x y z
#
# Youngs Moduli (GPa) = 121.97640 32.05929 173.20207
#
# Poissons Ratio (x) = 0.23867 0.52604
# Poissons Ratio (y) = 0.90807 -0.67980
# Poissons Ratio (z) = 0.37046 -0.12583
#
# Static dielectric constant tensor:
#      x y z
#    x 1.673590 0.000000 -0.006730 
#    y 0.000000 1.690810 0.000000 
#    z -0.006730 0.000000 1.688040 
# 
# From -- ./inp_files/69763.got.cif
#   From: 2010.05.17/outbox.cif.g08.bks.cpg/sg11_35_cif.got.tgz:69763.got - 2010.06.03 12:22:45.
