data_PCOD9158775
_publ_section_title
;
Structure prediction by ZEFSAII (Michael W. Deem and Ramdas Pophale) SiO2 
 PCOD9158775
Probable space group: P 21/M
;
_chemical_formula_sum "Si O2"
_cell_formula_units_Z 32
_cell_length_a 26.765757
_cell_length_b 8.811471
_cell_length_c 15.062751
_cell_angle_alpha 90.000000
_cell_angle_beta 149.772160
_cell_angle_gamma 90.000000
_cell_volume 1788.462436
_symmetry_space_group_name_H-M "P 21/M"
_symmetry_group_IT_number 11
_symmetry_cell_setting 'monoclinic'
loop_
_space_group_symop_operation_xyz
x,y,z
-x,1/2+y,-z
-x,-y,-z
x,1/2-y,z
loop_
_atom_site_type_symbol
_atom_site_label
_atom_site_fract_x
_atom_site_fract_y
_atom_site_fract_z
Si Si1 0.244678 0.071088 0.747424
Si Si2 0.959800 0.426198 0.571069
Si Si3 0.831460 0.072376 0.536238
Si Si4 0.238538 0.934487 0.207574
Si Si5 0.533039 0.432441 0.456334
Si Si6 0.358945 0.568691 0.076627
Si Si7 0.109492 0.565909 0.177771
Si Si8 0.830874 0.067257 0.093919
O O1 0.252016 0.250000 0.768054
O O2 0.136163 0.012888 0.614681
O O3 0.242012 0.020909 0.640135
O O4 0.328089 0.987924 0.932212
O O5 0.955329 0.250000 0.538510
O O6 0.065898 0.496742 0.715583
O O7 0.934827 0.437107 0.638906
O O8 0.802898 0.250000 0.491576
O O9 0.845377 0.019899 0.657643
O O10 0.237129 0.750000 0.204879
O O11 0.353609 0.979881 0.387977
O O12 0.176569 0.984022 0.197903
O O13 0.191015 0.982159 0.040979
O O14 0.500000 0.500000 0.500000
O O15 0.529673 0.250000 0.455729
O O16 0.456817 0.492032 0.265842
O O17 0.369177 0.750000 0.094822
O O18 0.265295 0.526479 0.995769
O O19 0.104549 0.750000 0.170362
O O20 0.000000 0.500000 0.000000
O O21 0.840283 0.250000 0.110472
#
# Coordination Sequence:
#
# PCOD9158775 Si02
#       8
#     4   4   4   4   4   4   4   4
#     4  10  20  35  55  78 103 144 189 228 276 335
#     4   9  18  32  49  74 108 141 178 224 270 321
#     4   8  17  33  50  74 107 141 175 220 271 317
#     4   9  19  35  55  82 114 148 185 225 275 329
#     4  11  21  38  59  82 111 149 191 233 280 330
#     4  11  22  37  56  79 107 142 183 234 285 331
#     4  10  19  33  56  84 115 148 183 224 274 330
#     4  10  19  32  50  75 108 146 183 221 272 332
#
# _framework density 17.892464
#
# number of rings (size 3 to 8) (size 9 to 14) (size 15 to 20)
#    0.750    1.500    1.250    2.625    0.000    2.000 
#    0.000    1.250    0.000    0.750    0.000    0.000 
#    0.000    0.000    0.000    0.000    0.000    0.000 
#
# Total GULP energy -178407.873509 kJ/mol
# GULP energy per Si atom -5575.246047 kJ/mol
# Density = 1.785174 g / cm^3
# Si number density = 17.892464 Si / 1000 Ang^3
#
#
#
# Elastic Constant Matrix: (Units=GPa)
#
#
# Indices 1 2 3 4 5 6 
#
# 1 78.6097 13.1861 30.1865 0.0000 -8.4143 0.0000
# 2 13.1861 37.1408 20.2112 0.0000 0.1908 0.0000
# 3 30.1865 20.2112 108.5071 0.0000 -6.4775 0.0000
# 4 0.0000 0.0000 0.0000 29.8243 0.0000 0.4954
# 5 -8.4143 0.1908 -6.4775 0.0000 30.2912 0.0000
# 6 0.0000 0.0000 0.0000 0.4954 0.0000 12.4950
#
#
#
# Elastic Compliance Matrix: (Units=1/GPa)
#
#
# Indices 1 2 3 4 5 6 
#
# 1 0.014950 -0.003533 -0.003294 0.000000 0.003471 0.000000
# 2 -0.003533 0.030855 -0.004897 0.000000 -0.002223 0.000000
# 3 -0.003294 -0.004897 0.011134 0.000000 0.001497 0.000000
# 4 0.000000 0.000000 0.000000 0.033552 0.000000 -0.001330
# 5 0.003471 -0.002223 0.001497 0.000000 0.034311 0.000000
# 6 0.000000 0.000000 0.000000 -0.001330 0.000000 0.080084
#
#
# Mechanical properties :
#
#
# Convention : Reuss Voigt Hill
#
# Bulk Modulus (GPa) = 29.85868 39.04726 34.45297
# Shear Modulus (GPa) = 20.87698 25.23369 23.05533
#
# Velocity S-wave (km/s) = 3.41956 3.75947 3.59353
# Velocity P-wave (km/s) = 5.68465 6.38087 6.04279
#
# Compressibility (1/GPa) = 0.03349110
#
# Stress axis : x y z
#
# Youngs Moduli (GPa) = 66.88933 32.40941 89.81642
#
# Poissons Ratio (x) = 0.11451 0.29584
# Poissons Ratio (y) = 0.23633 0.43984
# Poissons Ratio (z) = 0.22032 0.15871
#
# Static dielectric constant tensor:
#      x y z
#    x 1.626160 0.000000 -0.023940 
#    y 0.000000 1.598670 0.000000 
#    z -0.023940 0.000000 1.596990 
# 
# From -- ./inp_files/56197.got.cif
#   From: 2010.05.17/outbox.cif.g08.bks.cpg/sg11_29_cif.got.tgz:56197.got - 2010.06.03 12:22:45.
