data_PCOD9158044
_publ_section_title
;
Structure prediction by ZEFSAII (Michael W. Deem and Ramdas Pophale) SiO2 
 PCOD9158044
Probable space group: P 21/M
;
_chemical_formula_sum "Si O2"
_cell_formula_units_Z 32
_cell_length_a 12.253865
_cell_length_b 8.134587
_cell_length_c 22.365655
_cell_angle_alpha 90.000000
_cell_angle_beta 50.123997
_cell_angle_gamma 90.000000
_cell_volume 1710.925545
_symmetry_space_group_name_H-M "P 21/M"
_symmetry_group_IT_number 11
_symmetry_cell_setting 'monoclinic'
loop_
_space_group_symop_operation_xyz
x,y,z
-x,1/2+y,-z
-x,-y,-z
x,1/2-y,z
loop_
_atom_site_type_symbol
_atom_site_label
_atom_site_fract_x
_atom_site_fract_y
_atom_site_fract_z
Si Si1 0.152300 0.944157 0.220884
Si Si2 0.618116 0.942904 0.769142
Si Si3 0.491230 0.444145 0.315191
Si Si4 0.688149 0.945323 0.080089
Si Si5 0.338017 0.448397 0.043785
Si Si6 0.865414 0.548136 0.266378
Si Si7 0.205534 0.058446 0.834926
Si Si8 0.551522 0.946076 0.417199
O O1 0.143962 0.750000 0.233453
O O2 0.994558 0.007704 0.262343
O O3 0.240511 0.016676 0.244690
O O4 0.241891 0.979473 0.129681
O O5 0.589029 0.750000 0.786149
O O6 0.621601 0.980788 0.697224
O O7 0.478636 0.030173 0.845456
O O8 0.525216 0.250000 0.300001
O O9 0.632408 0.543839 0.246521
O O10 0.457644 0.487792 0.394982
O O11 0.714212 0.750000 0.069683
O O12 0.781869 0.014795 0.102564
O O13 0.708955 0.008506 0.005662
O O14 0.330642 0.250000 0.047738
O O15 0.500000 0.500000 0.000000
O O16 0.866539 0.750000 0.264097
O O17 0.880996 0.490163 0.191584
O O18 0.712913 0.496718 0.346111
O O19 0.166717 0.250000 0.854677
O O20 0.551068 0.750000 0.414632
O O21 0.500000 0.000000 0.500000
#
# Coordination Sequence:
#
# PCOD9158044 Si02
#       8
#     4   4   4   4   4   4   4   4
#     4  11  21  33  49  69  97 136 173 205 246 299
#     4  10  19  30  47  71  99 129 166 212 253 288
#     4   9  17  29  47  75 104 128 159 202 247 290
#     4   9  17  29  48  69  91 123 166 213 258 302
#     4  11  21  32  46  69  98 130 169 216 260 298
#     4   8  17  33  52  73  99 131 165 198 242 299
#     4   8  14  29  50  69  91 124 165 208 250 295
#     4  10  19  34  57  83 107 131 160 198 243 292
#
# _framework density 18.703327999999999
#
# number of rings (size 3 to 8) (size 9 to 14) (size 15 to 20)
#    0.000    2.500    1.250    2.625    0.000    2.000 
#    0.000    6.875    0.000    0.750    0.000    0.000 
#    0.000    0.000    0.000    0.000    0.000    0.000 
#
# Total GULP energy -178300.004843 kJ/mol
# GULP energy per Si atom -5571.875151 kJ/mol
# Density = 1.866076 g / cm^3
# Si number density = 18.703328 Si / 1000 Ang^3
#
#
#
# Elastic Constant Matrix: (Units=GPa)
#
#
# Indices 1 2 3 4 5 6 
#
# 1 110.1508 -4.0225 41.1613 0.0000 29.3973 0.0000
# 2 -4.0225 17.7277 -2.1667 0.0000 4.7349 0.0000
# 3 41.1613 -2.1667 59.2327 0.0000 26.3623 0.0000
# 4 0.0000 0.0000 0.0000 15.3101 0.0000 11.1919
# 5 29.3973 4.7349 26.3623 0.0000 32.0780 0.0000
# 6 0.0000 0.0000 0.0000 11.1919 0.0000 13.0308
#
#
#
# Elastic Compliance Matrix: (Units=1/GPa)
#
#
# Indices 1 2 3 4 5 6 
#
# 1 0.013597 0.004760 -0.005386 0.000000 -0.008737 0.000000
# 2 0.004760 0.063965 0.008160 0.000000 -0.020511 0.000000
# 3 -0.005386 0.008160 0.030372 0.000000 -0.021229 0.000000
# 4 0.000000 0.000000 0.000000 0.175514 0.000000 -0.150746
# 5 -0.008737 -0.020511 -0.021229 0.000000 0.059655 0.000000
# 6 0.000000 0.000000 0.000000 -0.150746 0.000000 0.206214
#
#
# Mechanical properties :
#
#
# Convention : Reuss Voigt Hill
#
# Bulk Modulus (GPa) = 8.12986 28.56169 18.34578
# Shear Modulus (GPa) = 8.69190 22.22638 15.45914
#
# Velocity S-wave (km/s) = 2.15809 3.45101 2.87809
# Velocity P-wave (km/s) = 3.25053 5.58420 4.56888
#
# Compressibility (1/GPa) = 0.12300329
#
# Stress axis : x y z
#
# Youngs Moduli (GPa) = 73.54781 15.63361 32.92500
#
# Poissons Ratio (x) = -0.07442 0.17733
# Poissons Ratio (y) = -0.35012 -0.26868
# Poissons Ratio (z) = 0.39611 -0.12757
#
# Static dielectric constant tensor:
#      x y z
#    x 1.698060 0.000000 0.035830 
#    y 0.000000 1.672110 0.000000 
#    z 0.035830 0.000000 1.633550 
# 
# From -- ./inp_files/64362.got.cif
#   From: 2010.05.17/outbox.cif.g08.bks.cpg/sg11_33_cif.got.tgz:64362.got - 2010.06.03 12:22:45.
