data_PCOD9158601
_publ_section_title
;
Structure prediction by ZEFSAII (Michael W. Deem and Ramdas Pophale) SiO2 
 PCOD9158601
Probable space group: P 21/M
;
_chemical_formula_sum "Si O2"
_cell_formula_units_Z 24
_cell_length_a 10.200847
_cell_length_b 9.819849
_cell_length_c 11.108201
_cell_angle_alpha 90.000000
_cell_angle_beta 83.221830
_cell_angle_gamma 90.000000
_cell_volume 1104.939845
_symmetry_space_group_name_H-M "P 21/M"
_symmetry_group_IT_number 11
_symmetry_cell_setting 'monoclinic'
loop_
_space_group_symop_operation_xyz
x,y,z
-x,1/2+y,-z
-x,-y,-z
x,1/2-y,z
loop_
_atom_site_type_symbol
_atom_site_label
_atom_site_fract_x
_atom_site_fract_y
_atom_site_fract_z
Si Si1 0.539993 0.589780 0.880552
Si Si2 0.127440 0.904952 0.846368
Si Si3 0.162464 0.102671 0.382821
Si Si4 0.182544 0.098071 0.048305
Si Si5 0.045931 0.401616 0.663048
Si Si6 0.525819 0.593053 0.613683
O O1 0.506308 0.750000 0.900476
O O2 0.701246 0.583651 0.866622
O O3 0.484886 0.547848 0.754495
O O4 0.500000 0.500000 0.000000
O O5 0.169268 0.750000 0.825001
O O6 0.969798 0.906947 0.893768
O O7 0.139305 0.998441 0.728043
O O8 0.197691 0.979428 0.949123
O O9 0.127432 0.250000 0.328347
O O10 0.097116 0.106352 0.522151
O O11 0.316298 0.096785 0.389729
O O12 0.096443 0.973529 0.327105
O O13 0.201418 0.250000 0.992757
O O14 0.040052 0.250000 0.716354
O O15 0.500000 0.500000 0.500000
O O16 0.479789 0.750000 0.599975
#
# Coordination Sequence:
#
# PCOD9158601 Si02
#       6
#     4   4   4   4   4   4
#     4  10  22  40  61  84 113 150 193 241 290 339
#     4  10  19  32  53  80 111 145 180 223 276 334
#     4   9  19  36  55  76 107 146 185 226 276 332
#     4   9  19  36  55  76 106 145 186 227 274 330
#     4  10  19  31  52  82 112 142 179 224 275 334
#     4  10  22  41  62  84 113 151 194 239 287 340
#
# _framework density 21.720638999999998
#
# number of rings (size 3 to 8) (size 9 to 14) (size 15 to 20)
#    0.000    2.333    0.000    2.000    0.000    7.333 
#    0.000    6.667    0.000    0.000    0.000    0.000 
#    0.000    0.000    0.000    0.000    0.000    0.000 
#
# Total GULP energy -133912.989393 kJ/mol
# GULP energy per Si atom -5579.707891 kJ/mol
# Density = 2.167120 g / cm^3
# Si number density = 21.720639 Si / 1000 Ang^3
#
#
#
# Elastic Constant Matrix: (Units=GPa)
#
#
# Indices 1 2 3 4 5 6 
#
# 1 42.0245 15.5949 19.3625 0.0000 7.3322 0.0000
# 2 15.5949 157.0559 87.9929 0.0000 22.8605 0.0000
# 3 19.3625 87.9929 130.2552 0.0000 26.0189 0.0000
# 4 0.0000 0.0000 0.0000 44.3231 0.0000 7.0986
# 5 7.3322 22.8605 26.0189 0.0000 38.4614 0.0000
# 6 0.0000 0.0000 0.0000 7.0986 0.0000 27.1736
#
#
#
# Elastic Compliance Matrix: (Units=1/GPa)
#
#
# Indices 1 2 3 4 5 6 
#
# 1 0.025809 -0.000524 -0.002962 0.000000 -0.002605 0.000000
# 2 -0.000524 0.010344 -0.006593 0.000000 -0.001588 0.000000
# 3 -0.002962 -0.006593 0.013500 0.000000 -0.004649 0.000000
# 4 0.000000 0.000000 0.000000 0.023547 0.000000 -0.006151
# 5 -0.002605 -0.001588 -0.004649 0.000000 0.030586 0.000000
# 6 0.000000 0.000000 0.000000 -0.006151 0.000000 0.038407
#
#
# Mechanical properties :
#
#
# Convention : Reuss Voigt Hill
#
# Bulk Modulus (GPa) = 33.90339 63.91513 48.90926
# Shear Modulus (GPa) = 29.03885 35.75065 32.39475
#
# Velocity S-wave (km/s) = 3.66036 4.06141 3.86609
# Velocity P-wave (km/s) = 5.78853 7.17518 6.51883
#
# Compressibility (1/GPa) = 0.02949558
#
# Stress axis : x y z
#
# Youngs Moduli (GPa) = 38.74560 96.67431 74.07448
#
# Poissons Ratio (x) = 0.05065 0.21943
# Poissons Ratio (y) = 0.02030 0.48835
# Poissons Ratio (z) = 0.11478 0.63734
#
# Static dielectric constant tensor:
#      x y z
#    x 1.825130 0.000000 -0.044860 
#    y 0.000000 1.895450 0.000000 
#    z -0.044860 0.000000 1.865200 
# 
# From -- ./inp_files/33825.got.cif
#   From: 2010.05.17/outbox.cif.g08.bks.cpg/sg11_17_cif.got.tgz:33825.got - 2010.06.03 12:22:45.
