data_PCOD9158503
_publ_section_title
;
Structure prediction by ZEFSAII (Michael W. Deem and Ramdas Pophale) SiO2 
 PCOD9158503
Probable space group: P 21/M
;
_chemical_formula_sum "Si O2"
_cell_formula_units_Z 20
_cell_length_a 7.873846
_cell_length_b 7.584257
_cell_length_c 16.199932
_cell_angle_alpha 90.000000
_cell_angle_beta 132.004028
_cell_angle_gamma 90.000000
_cell_volume 718.884491
_symmetry_space_group_name_H-M "P 21/M"
_symmetry_group_IT_number 11
_symmetry_cell_setting 'monoclinic'
loop_
_space_group_symop_operation_xyz
x,y,z
-x,1/2+y,-z
-x,-y,-z
x,1/2-y,z
loop_
_atom_site_type_symbol
_atom_site_label
_atom_site_fract_x
_atom_site_fract_y
_atom_site_fract_z
Si Si1 0.239754 0.037555 0.935946
Si Si2 0.672902 0.955388 0.859030
Si Si3 0.819114 0.960513 0.333371
Si Si4 0.797090 0.453302 0.715582
Si Si5 0.689762 0.960763 0.475635
O O1 0.213127 0.250000 0.927388
O O2 0.048879 0.967106 0.811042
O O3 0.207815 0.973911 0.019641
O O4 0.500000 0.000000 0.000000
O O5 0.726160 0.750000 0.864790
O O6 0.399382 0.969508 0.786052
O O7 0.721481 0.050950 0.788851
O O8 0.802578 0.750000 0.326932
O O9 0.770185 0.027255 0.410981
O O10 0.082063 0.003843 0.396589
O O11 0.815808 0.250000 0.693985
O O12 0.568731 0.535131 0.599020
O O13 0.666744 0.750000 0.463696
#
# Coordination Sequence:
#
# PCOD9158503 Si02
#       5
#     4   4   4   4   4
#     4  10  22  37  52  72  99 131 166 204 247 294
#     4  10  19  31  50  76 102 129 164 203 242 288
#     4   9  16  26  43  69 100 130 159 195 241 289
#     4   9  18  33  52  75 101 129 163 202 245 291
#     4   8  14  25  43  68  98 127 155 194 242 288
#
# _framework density 27.820882999999998
#
# number of rings (size 3 to 8) (size 9 to 14) (size 15 to 20)
#    0.000    2.800    0.000    3.000    0.000    7.200 
#    0.000    0.000    0.000    1.200    0.000    0.000 
#    0.000    0.000    0.000    0.000    0.000    0.000 
#
# Total GULP energy -111884.666458 kJ/mol
# GULP energy per Si atom -5594.233323 kJ/mol
# Density = 2.775756 g / cm^3
# Si number density = 27.820883 Si / 1000 Ang^3
#
#
#
# Elastic Constant Matrix: (Units=GPa)
#
#
# Indices 1 2 3 4 5 6 
#
# 1 106.8418 0.3557 41.2894 0.0000 48.6712 0.0000
# 2 0.3557 94.8391 4.3989 0.0000 10.3510 0.0000
# 3 41.2894 4.3989 254.1342 0.0000 17.7779 0.0000
# 4 0.0000 0.0000 0.0000 24.5669 0.0000 9.2548
# 5 48.6712 10.3510 17.7779 0.0000 67.2544 0.0000
# 6 0.0000 0.0000 0.0000 9.2548 0.0000 29.1756
#
#
#
# Elastic Compliance Matrix: (Units=1/GPa)
#
#
# Indices 1 2 3 4 5 6 
#
# 1 0.014748 0.001159 -0.001688 0.000000 -0.010405 0.000000
# 2 0.001159 0.010817 -0.000204 0.000000 -0.002449 0.000000
# 3 -0.001688 -0.000204 0.004203 0.000000 0.000142 0.000000
# 4 0.000000 0.000000 0.000000 0.046230 0.000000 -0.014664
# 5 -0.010405 -0.002449 0.000142 0.000000 0.022738 0.000000
# 6 0.000000 0.000000 0.000000 -0.014664 0.000000 0.038927
#
#
# Mechanical properties :
#
#
# Convention : Reuss Voigt Hill
#
# Bulk Modulus (GPa) = 35.33561 60.87814 48.10688
# Shear Modulus (GPa) = 33.65560 51.51743 42.58652
#
# Velocity S-wave (km/s) = 3.48188 4.30787 3.91671
# Velocity P-wave (km/s) = 5.37525 6.83179 6.14682
#
# Compressibility (1/GPa) = 0.02830006
#
# Stress axis : x y z
#
# Youngs Moduli (GPa) = 67.80457 92.45036 237.93584
#
# Poissons Ratio (x) = -0.10712 0.40171
# Poissons Ratio (y) = -0.07856 0.04857
# Poissons Ratio (z) = 0.11448 0.01887
#
# Static dielectric constant tensor:
#      x y z
#    x 2.312350 0.000000 -0.024930 
#    y 0.000000 1.812190 0.000000 
#    z -0.024930 0.000000 2.229280 
# 
# From -- ./inp_files/20181.got.cif
#   From: 2010.05.17/outbox.cif.g08.bks.cpg/sg11_11_cif.got.tgz:20181.got - 2010.06.03 12:22:45.
