data_PCOD9158790
_publ_section_title
;
Structure prediction by ZEFSAII (Michael W. Deem and Ramdas Pophale) SiO2 
 PCOD9158790
Probable space group: P 21/M
;
_chemical_formula_sum "Si O2"
_cell_formula_units_Z 28
_cell_length_a 17.410754
_cell_length_b 10.433262
_cell_length_c 13.588900
_cell_angle_alpha 90.000000
_cell_angle_beta 33.495320
_cell_angle_gamma 90.000000
_cell_volume 1362.253376
_symmetry_space_group_name_H-M "P 21/M"
_symmetry_group_IT_number 11
_symmetry_cell_setting 'monoclinic'
loop_
_space_group_symop_operation_xyz
x,y,z
-x,1/2+y,-z
-x,-y,-z
x,1/2-y,z
loop_
_atom_site_type_symbol
_atom_site_label
_atom_site_fract_x
_atom_site_fract_y
_atom_site_fract_z
Si Si1 0.939118 0.525036 0.719005
Si Si2 0.236959 0.599102 0.628689
Si Si3 0.688438 0.105274 0.238340
Si Si4 0.989576 0.891005 0.165890
Si Si5 0.413221 0.903692 0.244037
Si Si6 0.660435 0.603877 0.107350
Si Si7 0.199114 0.602891 0.321839
O O1 0.859607 0.470990 0.708967
O O2 0.990345 0.415077 0.738840
O O3 0.074205 0.599004 0.535931
O O4 0.822652 0.601287 0.904459
O O5 0.197247 0.750000 0.669912
O O6 0.329830 0.579308 0.626752
O O7 0.105692 0.505172 0.771399
O O8 0.320880 0.570115 0.439612
O O9 0.638696 0.250000 0.267786
O O10 0.636681 0.996433 0.220067
O O11 0.856348 0.106072 0.044174
O O12 0.928854 0.750000 0.211959
O O13 0.412912 0.750000 0.230508
O O14 0.568129 0.939044 0.111917
O O15 0.334027 0.955346 0.232738
O O16 0.619512 0.750000 0.176659
O O17 0.225161 0.750000 0.265479
#
# Coordination Sequence:
#
# PCOD9158790 Si02
#       7
#     4   4   4   4   4   4   4
#     4  10  20  33  55  81 108 141 181 224 268 324
#     4  10  19  34  55  78 108 148 186 221 266 324
#     4   9  20  35  53  79 111 144 181 225 274 321
#     4  10  19  32  50  79 114 142 175 229 278 315
#     4   9  19  35  55  79 110 144 183 224 268 317
#     4  10  21  37  57  81 110 143 183 226 267 322
#     4  10  19  34  56  80 106 143 182 220 272 325
#
# _framework density 20.554181
#
# number of rings (size 3 to 8) (size 9 to 14) (size 15 to 20)
#    0.000    2.286    1.429    1.286    0.000    4.571 
#    0.000    0.714    0.000    0.000    0.000    0.000 
#    0.000    0.000    0.000    0.000    0.000    0.000 
#
# Total GULP energy -156171.785082 kJ/mol
# GULP energy per Si atom -5577.563753 kJ/mol
# Density = 2.050740 g / cm^3
# Si number density = 20.554181 Si / 1000 Ang^3
#
#
#
# Elastic Constant Matrix: (Units=GPa)
#
#
# Indices 1 2 3 4 5 6 
#
# 1 101.7310 38.3467 6.3022 0.0000 2.8416 0.0000
# 2 38.3467 71.3370 11.7867 0.0000 -2.0605 0.0000
# 3 6.3022 11.7867 33.3049 0.0000 -2.7670 0.0000
# 4 0.0000 0.0000 0.0000 2.8733 0.0000 -5.0245
# 5 2.8416 -2.0605 -2.7670 0.0000 30.7764 0.0000
# 6 0.0000 0.0000 0.0000 -5.0245 0.0000 23.8230
#
#
#
# Elastic Compliance Matrix: (Units=1/GPa)
#
#
# Indices 1 2 3 4 5 6 
#
# 1 0.012406 -0.006697 -0.000111 0.000000 -0.001604 0.000000
# 2 -0.006697 0.018512 -0.005169 0.000000 0.001393 0.000000
# 3 -0.000111 -0.005169 0.032088 0.000000 0.002549 0.000000
# 4 0.000000 0.000000 0.000000 0.551385 0.000000 0.116293
# 5 -0.001604 0.001393 0.002549 0.000000 0.032963 0.000000
# 6 0.000000 0.000000 0.000000 0.116293 0.000000 0.066504
#
#
# Mechanical properties :
#
#
# Convention : Reuss Voigt Hill
#
# Bulk Modulus (GPa) = 25.60603 35.47158 30.53880
# Shear Modulus (GPa) = 6.65933 21.49037 14.07485
#
# Velocity S-wave (km/s) = 1.80192 3.23700 2.61965
# Velocity P-wave (km/s) = 4.10050 5.59160 4.90306
#
# Compressibility (1/GPa) = 0.03905330
#
# Stress axis : x y z
#
# Youngs Moduli (GPa) = 80.60773 54.01919 31.16478
#
# Poissons Ratio (x) = 0.36175 0.00345
# Poissons Ratio (y) = 0.53980 0.16108
# Poissons Ratio (z) = 0.00893 0.27920
#
# Static dielectric constant tensor:
#      x y z
#    x 1.753650 0.000000 -0.001230 
#    y 0.000000 1.704890 0.000000 
#    z -0.001230 0.000000 1.758420 
# 
# From -- ./inp_files/53238.got.cif
#   From: 2010.05.17/outbox.cif.g08.bks.cpg/sg11_27_cif.got.tgz:53238.got - 2010.06.03 12:22:45.
