data_PCOD9158826
_publ_section_title
;
Structure prediction by ZEFSAII (Michael W. Deem and Ramdas Pophale) SiO2 
 PCOD9158826
Probable space group: P 21/M
;
_chemical_formula_sum "Si O2"
_cell_formula_units_Z 32
_cell_length_a 26.026095
_cell_length_b 7.522574
_cell_length_c 21.159204
_cell_angle_alpha 90.000000
_cell_angle_beta 22.713506
_cell_angle_gamma 90.000000
_cell_volume 1599.561840
_symmetry_space_group_name_H-M "P 21/M"
_symmetry_group_IT_number 11
_symmetry_cell_setting 'monoclinic'
loop_
_space_group_symop_operation_xyz
x,y,z
-x,1/2+y,-z
-x,-y,-z
x,1/2-y,z
loop_
_atom_site_type_symbol
_atom_site_label
_atom_site_fract_x
_atom_site_fract_y
_atom_site_fract_z
Si Si1 0.332733 0.534899 0.530195
Si Si2 0.655155 0.962792 0.838463
Si Si3 0.605135 0.961219 0.030143
Si Si4 0.825742 0.460601 0.030729
Si Si5 0.346710 0.963389 0.656967
Si Si6 0.116442 0.459864 0.670150
Si Si7 0.379324 0.034856 0.847512
Si Si8 0.295386 0.465507 0.353230
O O1 0.335231 0.750000 0.528097
O O2 0.316692 0.471409 0.620361
O O3 0.215607 0.479499 0.616524
O O4 0.475387 0.474742 0.341204
O O5 0.673852 0.750000 0.819528
O O6 0.674796 0.033274 0.887327
O O7 0.728049 0.028093 0.692378
O O8 0.500000 0.000000 0.000000
O O9 0.629797 0.750000 0.002799
O O10 0.645168 0.031188 0.053409
O O11 0.445746 0.985367 0.203054
O O12 0.842051 0.250000 0.023805
O O13 0.971752 0.535374 0.850681
O O14 0.749357 0.533840 0.178938
O O15 0.730981 0.482409 0.077859
O O16 0.332916 0.750000 0.671231
O O17 0.500000 0.000000 0.500000
O O18 0.098323 0.250000 0.678390
O O19 0.191386 0.532547 0.523119
O O20 0.382960 0.250000 0.845178
O O21 0.292093 0.250000 0.356500
#
# Coordination Sequence:
#
# PCOD9158826 Si02
#       8
#     4   4   4   4   4   4   4   4
#     4  10  20  34  53  76  99 126 162 203 245 289
#     4   8  14  24  40  65  94 124 155 192 237 280
#     4   9  16  27  45  70  98 123 156 201 242 281
#     4  10  22  37  52  72  99 131 165 201 242 290
#     4  10  20  35  54  74  98 126 161 203 245 288
#     4  10  21  35  50  73 103 132 164 199 239 291
#     4  10  19  32  51  75 100 127 163 204 244 288
#     4   9  16  27  45  68  96 128 160 193 235 285
#
# _framework density 20.005478
#
# number of rings (size 3 to 8) (size 9 to 14) (size 15 to 20)
#    0.000    2.500    2.500    0.000    0.000    2.500 
#    0.000    0.000    0.000    0.750    0.000    0.000 
#    0.000    0.000    0.000    0.000    0.000    0.000 
#
# Total GULP energy -178465.984780 kJ/mol
# GULP energy per Si atom -5577.062024 kJ/mol
# Density = 1.995994 g / cm^3
# Si number density = 20.005478 Si / 1000 Ang^3
#
#
#
# Elastic Constant Matrix: (Units=GPa)
#
#
# Indices 1 2 3 4 5 6 
#
# 1 137.2573 -4.4502 101.1922 0.0000 43.7617 0.0000
# 2 -4.4502 50.3451 -4.7295 0.0000 6.2050 0.0000
# 3 101.1922 -4.7295 136.8795 0.0000 23.7477 0.0000
# 4 0.0000 0.0000 0.0000 8.7938 0.0000 -5.5275
# 5 43.7617 6.2050 23.7477 0.0000 43.5336 0.0000
# 6 0.0000 0.0000 0.0000 -5.5275 0.0000 14.6227
#
#
#
# Elastic Compliance Matrix: (Units=1/GPa)
#
#
# Indices 1 2 3 4 5 6 
#
# 1 0.022534 0.002590 -0.013890 0.000000 -0.015444 0.000000
# 2 0.002590 0.020735 -0.000259 0.000000 -0.005418 0.000000
# 3 -0.013890 -0.000259 0.016719 0.000000 0.004879 0.000000
# 4 0.000000 0.000000 0.000000 0.149156 0.000000 0.056383
# 5 -0.015444 -0.005418 0.004879 0.000000 0.036606 0.000000
# 6 0.000000 0.000000 0.000000 0.056383 0.000000 0.089700
#
#
# Mechanical properties :
#
#
# Convention : Reuss Voigt Hill
#
# Bulk Modulus (GPa) = 27.12075 56.50076 41.81075
# Shear Modulus (GPa) = 13.48228 28.88800 21.18514
#
# Velocity S-wave (km/s) = 2.59883 3.80413 3.25771
# Velocity P-wave (km/s) = 4.75303 6.89921 5.92412
#
# Compressibility (1/GPa) = 0.03687214
#
# Stress axis : x y z
#
# Youngs Moduli (GPa) = 44.37778 48.22667 59.81343
#
# Poissons Ratio (x) = -0.12493 0.83080
# Poissons Ratio (y) = -0.11496 0.01547
# Poissons Ratio (z) = 0.61640 0.01247
#
# Static dielectric constant tensor:
#      x y z
#    x 1.703930 0.000000 0.063280 
#    y 0.000000 -0.169900 0.000000 
#    z 0.063280 0.000000 1.706040 
# 
# From -- ./inp_files/27500.got.cif
#   From: 2010.05.17/outbox.cif.g08.bks.cpg/sg11_14_cif.got.tgz:27500.got - 2010.06.03 12:22:45.
