data_PCOD9158421
_publ_section_title
;
Structure prediction by ZEFSAII (Michael W. Deem and Ramdas Pophale) SiO2 
 PCOD9158421
Probable space group: P 21/M
;
_chemical_formula_sum "Si O2"
_cell_formula_units_Z 32
_cell_length_a 27.595068
_cell_length_b 9.030356
_cell_length_c 15.767795
_cell_angle_alpha 90.000000
_cell_angle_beta 151.299969
_cell_angle_gamma 90.000000
_cell_volume 1886.909803
_symmetry_space_group_name_H-M "P 21/M"
_symmetry_group_IT_number 11
_symmetry_cell_setting 'monoclinic'
loop_
_space_group_symop_operation_xyz
x,y,z
-x,1/2+y,-z
-x,-y,-z
x,1/2-y,z
loop_
_atom_site_type_symbol
_atom_site_label
_atom_site_fract_x
_atom_site_fract_y
_atom_site_fract_z
Si Si1 0.854137 0.427664 0.934804
Si Si2 0.738235 0.073892 0.312945
Si Si3 0.595642 0.572461 0.963848
Si Si4 0.079130 0.426639 0.317802
Si Si5 0.190712 0.426481 0.312427
Si Si6 0.373773 0.572597 0.683922
Si Si7 0.345927 0.425636 0.306946
Si Si8 0.533049 0.573600 0.679370
O O1 0.847862 0.250000 0.920912
O O2 0.848381 0.493725 0.831368
O O3 0.759195 0.493331 0.838951
O O4 0.961877 0.467832 0.141022
O O5 0.743616 0.250000 0.314335
O O6 0.666340 0.037272 0.283549
O O7 0.847052 0.008645 0.504173
O O8 0.687232 0.004856 0.152128
O O9 0.608018 0.750000 0.988264
O O10 0.489935 0.533392 0.847518
O O11 0.580949 0.532200 0.842823
O O12 0.088753 0.250000 0.345139
O O13 0.120329 0.458322 0.285960
O O14 0.194307 0.250000 0.305179
O O15 0.300541 0.488689 0.506482
O O16 0.363197 0.750000 0.654515
O O17 0.334153 0.250000 0.300603
O O18 0.430057 0.488002 0.500712
O O19 0.391460 0.453133 0.283179
O O20 0.510745 0.750000 0.647565
#
# Coordination Sequence:
#
# PCOD9158421 Si02
#       8
#     4   4   4   4   4   4   4   4
#     4  11  21  33  51  73  99 133 169 203 245 299
#     4  10  20  32  48  72 101 131 165 206 246 285
#     4  10  19  32  51  71  96 132 168 200 239 292
#     4   9  20  36  51  69  97 134 171 205 245 293
#     4  10  19  31  49  74 102 131 165 206 247 289
#     4   9  18  31  47  71 103 136 165 196 240 293
#     4  10  20  34  53  78 105 130 161 204 249 294
#     4   9  19  35  54  77 104 133 163 199 248 299
#
# _framework density 16.958945
#
# number of rings (size 3 to 8) (size 9 to 14) (size 15 to 20)
#    0.000    2.250    0.000    3.000    0.000    4.500 
#    0.000    0.000    0.000    0.750    0.000    0.000 
#    0.000    0.000    0.000    0.000    0.000    0.000 
#
# Total GULP energy -178653.368225 kJ/mol
# GULP energy per Si atom -5582.917757 kJ/mol
# Density = 1.692035 g / cm^3
# Si number density = 16.958945 Si / 1000 Ang^3
#
#
#
# Elastic Constant Matrix: (Units=GPa)
#
#
# Indices 1 2 3 4 5 6 
#
# 1 57.7134 38.4384 69.6962 0.0000 -0.2727 0.0000
# 2 38.4384 45.6269 65.3764 0.0000 1.8778 0.0000
# 3 69.6962 65.3764 167.0284 0.0000 -0.9498 0.0000
# 4 0.0000 0.0000 0.0000 29.1094 0.0000 0.9675
# 5 -0.2727 1.8778 -0.9498 0.0000 26.0369 0.0000
# 6 0.0000 0.0000 0.0000 0.9675 0.0000 21.0797
#
#
#
# Elastic Compliance Matrix: (Units=1/GPa)
#
#
# Indices 1 2 3 4 5 6 
#
# 1 0.044707 -0.025116 -0.008813 0.000000 0.001958 0.000000
# 2 -0.025116 0.064504 -0.014798 0.000000 -0.005455 0.000000
# 3 -0.008813 -0.014798 0.015465 0.000000 0.001539 0.000000
# 4 0.000000 0.000000 0.000000 0.034406 0.000000 -0.001579
# 5 0.001958 -0.005455 0.001539 0.000000 0.038877 0.000000
# 6 0.000000 0.000000 0.000000 -0.001579 0.000000 0.047511
#
#
# Mechanical properties :
#
#
# Convention : Reuss Voigt Hill
#
# Bulk Modulus (GPa) = 36.73568 68.59897 52.66733
# Shear Modulus (GPa) = 14.20452 21.70238 17.95345
#
# Velocity S-wave (km/s) = 2.89724 3.58117 3.25721
# Velocity P-wave (km/s) = 5.73590 7.59194 6.72823
#
# Compressibility (1/GPa) = 0.02722149
#
# Stress axis : x y z
#
# Youngs Moduli (GPa) = 22.36765 15.50287 64.66032
#
# Poissons Ratio (x) = 0.38937 0.56987
# Poissons Ratio (y) = 0.56179 0.95686
# Poissons Ratio (z) = 0.19713 0.22941
#
# Static dielectric constant tensor:
#      x y z
#    x 1.574010 0.000000 0.002840 
#    y 0.000000 1.560440 0.000000 
#    z 0.002840 0.000000 1.548930 
# 
# From -- ./inp_files/51783.got.cif
#   From: 2010.05.17/outbox.cif.g08.bks.cpg/sg11_26_cif.got.tgz:51783.got - 2010.06.03 12:22:45.
