data_PCOD9158807
_publ_section_title
;
Structure prediction by ZEFSAII (Michael W. Deem and Ramdas Pophale) SiO2 
 PCOD9158807
Probable space group: P 21/M
;
_chemical_formula_sum "Si O2"
_cell_formula_units_Z 30
_cell_length_a 9.637408
_cell_length_b 7.940157
_cell_length_c 23.612222
_cell_angle_alpha 90.000000
_cell_angle_beta 137.526610
_cell_angle_gamma 90.000000
_cell_volume 1220.082840
_symmetry_space_group_name_H-M "P 21/M"
_symmetry_group_IT_number 11
_symmetry_cell_setting 'monoclinic'
loop_
_space_group_symop_operation_xyz
x,y,z
-x,1/2+y,-z
-x,-y,-z
x,1/2-y,z
loop_
_atom_site_type_symbol
_atom_site_label
_atom_site_fract_x
_atom_site_fract_y
_atom_site_fract_z
Si Si1 0.711887 0.546784 0.032916
Si Si2 0.098318 0.943880 0.720928
Si Si3 0.918437 0.054289 0.776384
Si Si4 0.453939 0.049882 0.262416
Si Si5 0.082224 0.440732 0.593019
Si Si6 0.405595 0.250000 0.429328
Si Si7 0.437919 0.453285 0.128869
Si Si8 0.348935 0.429932 0.528038
O O1 0.724329 0.750000 0.034531
O O2 0.906014 0.488474 0.127755
O O3 0.500000 0.500000 0.000000
O O4 0.699718 0.483076 0.964382
O O5 0.111580 0.750000 0.704850
O O6 0.322954 0.987898 0.813608
O O7 0.065222 0.057536 0.656939
O O8 0.938283 0.954182 0.723769
O O9 0.959591 0.250000 0.775392
O O10 0.704767 0.034260 0.743326
O O11 0.422463 0.250000 0.254110
O O12 0.408424 0.987357 0.184298
O O13 0.690610 0.012834 0.347901
O O14 0.065096 0.250000 0.569507
O O15 0.878471 0.542551 0.515140
O O16 0.327835 0.391992 0.453986
O O17 0.521756 0.400568 0.428182
O O18 0.416245 0.250000 0.123970
O O19 0.438831 0.250000 0.575952
#
# Coordination Sequence:
#
# PCOD9158807 Si02
#       8
#     4   4   4   4   4   2   4   4
#     4  10  19  32  51  73  93 121 162 212 264 324
#     4  10  19  33  52  71  96 134 171 212 256 314
#     4  11  22  34  49  72 101 127 166 220 268 309
#     4  10  21  36  51  69  97 138 173 212 257 318
#     4  11  20  32  52  78 108 138 174 213 261 308
#     4   8  16  26  46  76 112 144 172 214 254 294
#     4   8  16  32  51  70  93 119 164 208 260 318
#     4   9  15  28  46  74 112 145 174 211 257 305
#
# _framework density 24.588495000000002
#
# number of rings (size 3 to 8) (size 9 to 14) (size 15 to 20)
#    0.400    1.867    2.000    3.200    0.000    1.067 
#    0.000    0.667    0.000    0.000    0.000    0.000 
#    0.000    6.400    0.000    0.400    0.000    0.400 
#
# Total GULP energy -167342.955389 kJ/mol
# GULP energy per Si atom -5578.098513 kJ/mol
# Density = 2.453253 g / cm^3
# Si number density = 24.588495 Si / 1000 Ang^3
#
#
#
# Elastic Constant Matrix: (Units=GPa)
#
#
# Indices 1 2 3 4 5 6 
#
# 1 125.6003 12.3939 34.1071 0.0000 1.9179 0.0000
# 2 12.3939 101.4501 16.0611 0.0000 -1.4259 0.0000
# 3 34.1071 16.0611 121.3815 0.0000 -22.5530 0.0000
# 4 0.0000 0.0000 0.0000 14.1422 0.0000 0.3040
# 5 1.9179 -1.4259 -22.5530 0.0000 39.8368 0.0000
# 6 0.0000 0.0000 0.0000 0.3040 0.0000 36.7400
#
#
#
# Elastic Compliance Matrix: (Units=1/GPa)
#
#
# Indices 1 2 3 4 5 6 
#
# 1 0.008808 -0.000667 -0.002760 0.000000 -0.002011 0.000000
# 2 -0.000667 0.010125 -0.001206 0.000000 -0.000288 0.000000
# 3 -0.002760 -0.001206 0.010271 0.000000 0.005904 0.000000
# 4 0.000000 0.000000 0.000000 0.070723 0.000000 -0.000585
# 5 -0.002011 -0.000288 0.005904 0.000000 0.028532 0.000000
# 6 0.000000 0.000000 0.000000 -0.000585 0.000000 0.027223
#
#
# Mechanical properties :
#
#
# Convention : Reuss Voigt Hill
#
# Bulk Modulus (GPa) = 50.15720 52.61734 51.38727
# Shear Modulus (GPa) = 29.13856 37.20179 33.17018
#
# Velocity S-wave (km/s) = 3.44619 3.89392 3.67687
# Velocity P-wave (km/s) = 6.02311 6.45464 6.24261
#
# Compressibility (1/GPa) = 0.01993732
#
# Stress axis : x y z
#
# Youngs Moduli (GPa) = 113.53501 98.76122 97.36461
#
# Poissons Ratio (x) = 0.06590 0.26875
# Poissons Ratio (y) = 0.07576 0.11740
# Poissons Ratio (z) = 0.31338 0.11909
#
# Static dielectric constant tensor:
#      x y z
#    x 1.959850 0.000000 -0.030330 
#    y 0.000000 1.916830 0.000000 
#    z -0.030330 0.000000 2.022570 
# 
# From -- ./inp_files/63263.got.cif
#   From: 2010.05.17/outbox.cif.g08.bks.cpg/sg11_32_cif.got.tgz:63263.got - 2010.06.03 12:22:45.
