data_PCOD9158278
_publ_section_title
;
Structure prediction by ZEFSAII (Michael W. Deem and Ramdas Pophale) SiO2 
 PCOD9158278
Probable space group: P 21/M
;
_chemical_formula_sum "Si O2"
_cell_formula_units_Z 32
_cell_length_a 31.401322
_cell_length_b 8.791873
_cell_length_c 21.810436
_cell_angle_alpha 90.000000
_cell_angle_beta 160.387715
_cell_angle_gamma 90.000000
_cell_volume 2021.086649
_symmetry_space_group_name_H-M "P 21/M"
_symmetry_group_IT_number 11
_symmetry_cell_setting 'monoclinic'
loop_
_space_group_symop_operation_xyz
x,y,z
-x,1/2+y,-z
-x,-y,-z
x,1/2-y,z
loop_
_atom_site_type_symbol
_atom_site_label
_atom_site_fract_x
_atom_site_fract_y
_atom_site_fract_z
Si Si1 0.958003 0.932262 0.795891
Si Si2 0.194134 0.066784 0.782622
Si Si3 0.715666 0.932465 0.551959
Si Si4 0.583419 0.066567 0.167792
Si Si5 0.514924 0.566617 0.831694
Si Si6 0.120667 0.567672 0.438402
Si Si7 0.109685 0.067442 0.105152
Si Si8 0.026964 0.068474 0.437997
O O1 0.964240 0.750000 0.804409
O O2 0.829715 0.977077 0.659686
O O3 0.945159 0.996358 0.710473
O O4 0.077346 0.998715 0.995312
O O5 0.186945 0.250000 0.780108
O O6 0.133880 0.030771 0.634277
O O7 0.340403 0.018888 0.983837
O O8 0.104612 0.989108 0.711378
O O9 0.705101 0.750000 0.534323
O O10 0.762513 0.972060 0.684218
O O11 0.586130 0.006130 0.354069
O O12 0.576596 0.250000 0.156165
O O13 0.530139 0.016754 0.161653
O O14 0.730643 0.022125 0.361191
O O15 0.500000 0.000000 0.000000
O O16 0.512099 0.750000 0.827284
O O17 0.114222 0.750000 0.426059
O O18 0.059507 0.509832 0.418239
O O19 0.099464 0.250000 0.089325
O O20 0.000000 0.000000 0.000000
O O21 0.024875 0.250000 0.427644
#
# Coordination Sequence:
#
# PCOD9158278 Si02
#       8
#     4   4   4   4   4   4   4   4
#     4  10  19  31  47  70  99 132 167 203 245 290
#     4   9  19  35  53  72  96 126 165 211 254 293
#     4   9  18  30  45  69  99 130 163 200 240 287
#     4  10  21  33  46  68  97 132 165 197 241 293
#     4  10  19  32  49  70  98 130 164 201 243 292
#     4  11  21  33  50  72 100 132 166 203 247 297
#     4   9  17  29  45  67  96 130 167 202 242 289
#     4  10  20  35  54  72  95 126 166 214 255 293
#
# _framework density 15.833068000000001
#
# number of rings (size 3 to 8) (size 9 to 14) (size 15 to 20)
#    0.000    2.250    1.250    3.000    0.000    6.000 
#    0.000    0.000    0.000    0.000    0.000    0.875 
#    0.000    0.000    0.000    0.000    0.000    0.000 
#
# Total GULP energy -178476.677695 kJ/mol
# GULP energy per Si atom -5577.396178 kJ/mol
# Density = 1.579703 g / cm^3
# Si number density = 15.833068 Si / 1000 Ang^3
#
#
#
# Elastic Constant Matrix: (Units=GPa)
#
#
# Indices 1 2 3 4 5 6 
#
# 1 100.0024 40.2819 83.4031 0.0000 -13.7610 0.0000
# 2 40.2819 36.6747 42.0746 0.0000 -7.3250 0.0000
# 3 83.4031 42.0746 141.8281 0.0000 -19.0469 0.0000
# 4 0.0000 0.0000 0.0000 27.3654 0.0000 -7.5676
# 5 -13.7610 -7.3250 -19.0469 0.0000 23.9670 0.0000
# 6 0.0000 0.0000 0.0000 -7.5676 0.0000 19.1532
#
#
#
# Elastic Compliance Matrix: (Units=1/GPa)
#
#
# Indices 1 2 3 4 5 6 
#
# 1 0.024467 -0.015598 -0.009532 0.000000 0.001706 0.000000
# 2 -0.015598 0.051503 -0.005816 0.000000 0.002163 0.000000
# 3 -0.009532 -0.005816 0.015010 0.000000 0.004678 0.000000
# 4 0.000000 0.000000 0.000000 0.041025 0.000000 0.016209
# 5 0.001706 0.002163 0.004678 0.000000 0.047082 0.000000
# 6 0.000000 0.000000 0.000000 0.016209 0.000000 0.058615
#
#
# Mechanical properties :
#
#
# Convention : Reuss Voigt Hill
#
# Bulk Modulus (GPa) = 34.37757 67.78050 51.07903
# Shear Modulus (GPa) = 16.16614 21.61349 18.88981
#
# Velocity S-wave (km/s) = 3.19883 3.69871 3.45782
# Velocity P-wave (km/s) = 5.95004 7.81940 6.94788
#
# Compressibility (1/GPa) = 0.02908874
#
# Stress axis : x y z
#
# Youngs Moduli (GPa) = 40.87156 19.41645 66.62413
#
# Poissons Ratio (x) = 0.30285 0.63504
# Poissons Ratio (y) = 0.63749 0.38749
# Poissons Ratio (z) = 0.38957 0.11293
#
# Static dielectric constant tensor:
#      x y z
#    x 1.523350 0.000000 -0.014230 
#    y 0.000000 1.531130 0.000000 
#    z -0.014230 0.000000 1.528730 
# 
# From -- ./inp_files/40719.got.cif
#   From: 2010.05.17/outbox.cif.g08.bks.cpg/sg11_21_cif.got.tgz:40719.got - 2010.06.03 12:22:45.
