data_PCOD9158411
_publ_section_title
;
Structure prediction by ZEFSAII (Michael W. Deem and Ramdas Pophale) SiO2 
 PCOD9158411
Probable space group: P 21/M
;
_chemical_formula_sum "Si O2"
_cell_formula_units_Z 32
_cell_length_a 12.757288
_cell_length_b 8.827594
_cell_length_c 24.231779
_cell_angle_alpha 90.000000
_cell_angle_beta 133.702904
_cell_angle_gamma 90.000000
_cell_volume 1972.802166
_symmetry_space_group_name_H-M "P 21/M"
_symmetry_group_IT_number 11
_symmetry_cell_setting 'monoclinic'
loop_
_space_group_symop_operation_xyz
x,y,z
-x,1/2+y,-z
-x,-y,-z
x,1/2-y,z
loop_
_atom_site_type_symbol
_atom_site_label
_atom_site_fract_x
_atom_site_fract_y
_atom_site_fract_z
Si Si1 0.846463 0.069114 0.161915
Si Si2 0.045355 0.069451 0.404915
Si Si3 0.435657 0.069701 0.420172
Si Si4 0.337350 0.069731 0.579783
Si Si5 0.393490 0.568548 0.007521
Si Si6 0.399615 0.568959 0.834874
Si Si7 0.122439 0.569745 0.313925
Si Si8 0.737525 0.568404 0.322995
O O1 0.872971 0.250000 0.173934
O O2 0.731681 0.034193 0.169593
O O3 0.765450 0.034215 0.074767
O O4 0.993162 0.980381 0.226513
O O5 0.028006 0.250000 0.390991
O O6 0.181323 0.042514 0.494558
O O7 0.080117 0.994569 0.358769
O O8 0.897873 0.000853 0.375065
O O9 0.428745 0.250000 0.423297
O O10 0.500000 0.000000 0.500000
O O11 0.541992 0.021284 0.409648
O O12 0.275624 0.002981 0.353592
O O13 0.367166 0.250000 0.585236
O O14 0.326072 0.031034 0.640060
O O15 0.409032 0.750000 0.014475
O O16 0.453025 0.497848 0.085481
O O17 0.500000 0.500000 0.000000
O O18 0.409232 0.750000 0.834758
O O19 0.357597 0.497333 0.761420
O O20 0.134975 0.750000 0.320956
O O21 0.746862 0.750000 0.321771
#
# Coordination Sequence:
#
# PCOD9158411 Si02
#       8
#     4   4   4   4   4   4   4   4
#     4   9  18  32  49  73 106 140 173 215 262 310
#     4  11  21  35  54  75 107 143 177 220 265 314
#     4  12  24  39  59  78 102 136 177 224 271 317
#     4  10  23  40  56  76 104 139 180 225 267 313
#     4   9  17  29  47  71 103 138 173 212 258 313
#     4  10  19  31  49  73 106 143 176 213 259 312
#     4  12  23  34  54  80 106 140 179 219 265 315
#     4  11  22  35  53  78 108 142 181 220 261 314
#
# _framework density 16.220580999999999
#
# number of rings (size 3 to 8) (size 9 to 14) (size 15 to 20)
#    0.000    1.500    2.500    4.875    0.000    4.000 
#    0.000    0.000    0.000    0.000    0.000    0.875 
#    0.000    0.000    0.000    0.000    0.000    0.000 
#
# Total GULP energy -178699.133163 kJ/mol
# GULP energy per Si atom -5584.347911 kJ/mol
# Density = 1.618366 g / cm^3
# Si number density = 16.220581 Si / 1000 Ang^3
#
#
#
# Elastic Constant Matrix: (Units=GPa)
#
#
# Indices 1 2 3 4 5 6 
#
# 1 91.4183 63.4062 72.4271 0.0000 -1.7321 0.0000
# 2 63.4062 102.4323 81.8819 0.0000 5.4934 0.0000
# 3 72.4271 81.8819 135.3709 0.0000 16.0338 0.0000
# 4 0.0000 0.0000 0.0000 29.6093 0.0000 3.0852
# 5 -1.7321 5.4934 16.0338 0.0000 10.9002 0.0000
# 6 0.0000 0.0000 0.0000 3.0852 0.0000 24.5362
#
#
#
# Elastic Compliance Matrix: (Units=1/GPa)
#
#
# Indices 1 2 3 4 5 6 
#
# 1 0.027346 -0.007934 -0.013103 0.000000 0.027618 0.000000
# 2 -0.007934 0.021933 -0.009159 0.000000 0.001158 0.000000
# 3 -0.013103 -0.009159 0.023780 0.000000 -0.032446 0.000000
# 4 0.000000 0.000000 0.000000 0.034221 0.000000 -0.004303
# 5 0.027618 0.001158 -0.032446 0.000000 0.143273 0.000000
# 6 0.000000 0.000000 0.000000 -0.004303 0.000000 0.041297
#
#
# Mechanical properties :
#
#
# Convention : Reuss Voigt Hill
#
# Bulk Modulus (GPa) = 78.94041 84.96130 81.95086
# Shear Modulus (GPa) = 14.02661 20.44291 17.23476
#
# Velocity S-wave (km/s) = 2.94384 3.55393 3.26317
# Velocity P-wave (km/s) = 7.76707 8.32664 8.05172
#
# Compressibility (1/GPa) = 0.01266778
#
# Stress axis : x y z
#
# Youngs Moduli (GPa) = 36.56856 45.59300 42.05179
#
# Poissons Ratio (x) = 0.36176 0.55099
# Poissons Ratio (y) = 0.29015 0.38514
# Poissons Ratio (z) = 0.47914 0.41757
#
# Static dielectric constant tensor:
#      x y z
#    x 1.508740 0.000000 0.009410 
#    y 0.000000 1.538330 0.000000 
#    z 0.009410 0.000000 1.549070 
# 
# From -- ./inp_files/64448.got.cif
#   From: 2010.05.17/outbox.cif.g08.bks.cpg/sg11_33_cif.got.tgz:64448.got - 2010.06.03 12:22:45.
