data_PCOD9158402
_publ_section_title
;
Structure prediction by ZEFSAII (Michael W. Deem and Ramdas Pophale) SiO2 
 PCOD9158402
Probable space group: P 21/M
;
_chemical_formula_sum "Si O2"
_cell_formula_units_Z 32
_cell_length_a 20.302914
_cell_length_b 7.570424
_cell_length_c 11.022377
_cell_angle_alpha 90.000000
_cell_angle_beta 58.805633
_cell_angle_gamma 90.000000
_cell_volume 1449.208244
_symmetry_space_group_name_H-M "P 21/M"
_symmetry_group_IT_number 11
_symmetry_cell_setting 'monoclinic'
loop_
_space_group_symop_operation_xyz
x,y,z
-x,1/2+y,-z
-x,-y,-z
x,1/2-y,z
loop_
_atom_site_type_symbol
_atom_site_label
_atom_site_fract_x
_atom_site_fract_y
_atom_site_fract_z
Si Si1 0.755533 0.460143 0.946395
Si Si2 0.668844 0.034302 0.787476
Si Si3 0.518774 0.046743 0.812489
Si Si4 0.089436 0.456765 0.558181
Si Si5 0.765082 0.953995 0.455336
Si Si6 0.080064 0.042806 0.293429
Si Si7 0.614592 0.966506 0.481032
Si Si8 0.388559 0.040747 0.782092
O O1 0.755218 0.250000 0.941343
O O2 0.711314 0.527087 0.867996
O O3 0.843751 0.517520 0.857677
O O4 0.701528 0.516549 0.107936
O O5 0.669004 0.250000 0.783127
O O6 0.580538 0.973054 0.849755
O O7 0.718933 0.966292 0.626755
O O8 0.506743 0.250000 0.858831
O O9 0.438063 0.963052 0.847069
O O10 0.564859 0.038231 0.639855
O O11 0.109988 0.250000 0.528005
O O12 0.151671 0.533685 0.592212
O O13 0.095102 0.531838 0.415417
O O14 0.000197 0.468506 0.678978
O O15 0.776109 0.750000 0.408656
O O16 0.702823 0.026425 0.420233
O O17 0.065942 0.250000 0.321138
O O18 0.611743 0.750000 0.489730
O O19 0.589416 0.026724 0.371770
O O20 0.404024 0.250000 0.766765
#
# Coordination Sequence:
#
# PCOD9158402 Si02
#       8
#     4   4   4   4   4   4   4   4
#     4  11  22  34  49  69  99 134 168 204 241 289
#     4   9  18  31  47  70  99 129 162 201 246 289
#     4   9  18  33  52  73  98 127 161 207 253 291
#     4   9  17  29  48  75 103 128 156 192 239 291
#     4   9  16  29  50  75 101 127 158 197 243 290
#     4  10  19  31  49  73 101 131 160 194 239 292
#     4   9  18  32  52  76  99 126 163 207 246 285
#     4  10  21  35  50  70  98 133 169 203 245 291
#
# _framework density 22.081021
#
# number of rings (size 3 to 8) (size 9 to 14) (size 15 to 20)
#    0.000    2.500    1.250    1.125    0.000    3.000 
#    0.000    0.000    0.000    0.750    0.000    0.000 
#    0.000    0.000    0.000    0.000    0.000    0.000 
#
# Total GULP energy -178551.788514 kJ/mol
# GULP energy per Si atom -5579.743391 kJ/mol
# Density = 2.203076 g / cm^3
# Si number density = 22.081021 Si / 1000 Ang^3
#
#
#
# Elastic Constant Matrix: (Units=GPa)
#
#
# Indices 1 2 3 4 5 6 
#
# 1 101.5967 2.4696 19.5256 0.0000 -29.2041 0.0000
# 2 2.4696 64.0467 -9.3178 0.0000 3.5397 0.0000
# 3 19.5256 -9.3178 58.4551 0.0000 -14.1976 0.0000
# 4 0.0000 0.0000 0.0000 18.8362 0.0000 -5.3253
# 5 -29.2041 3.5397 -14.1976 0.0000 40.3811 0.0000
# 6 0.0000 0.0000 0.0000 -5.3253 0.0000 7.3036
#
#
#
# Elastic Compliance Matrix: (Units=1/GPa)
#
#
# Indices 1 2 3 4 5 6 
#
# 1 0.012786 -0.001315 -0.002412 0.000000 0.008514 0.000000
# 2 -0.001315 0.016131 0.002663 0.000000 -0.001428 0.000000
# 3 -0.002412 0.002663 0.019524 0.000000 0.004886 0.000000
# 4 0.000000 0.000000 0.000000 0.066875 0.000000 0.048761
# 5 0.008514 -0.001428 0.004886 0.000000 0.032765 0.000000
# 6 0.000000 0.000000 0.000000 0.048761 0.000000 0.172471
#
#
# Mechanical properties :
#
#
# Convention : Reuss Voigt Hill
#
# Bulk Modulus (GPa) = 21.59189 27.71704 24.65447
# Shear Modulus (GPa) = 14.78782 27.39892 21.09337
#
# Velocity S-wave (km/s) = 2.59068 3.52637 3.09410
# Velocity P-wave (km/s) = 4.32996 5.40001 4.89431
#
# Compressibility (1/GPa) = 0.04631369
#
# Stress axis : x y z
#
# Youngs Moduli (GPa) = 78.21209 61.99353 51.21815
#
# Poissons Ratio (x) = 0.08149 0.12356
# Poissons Ratio (y) = 0.10281 -0.13642
# Poissons Ratio (z) = 0.18869 -0.16512
#
# Static dielectric constant tensor:
#      x y z
#    x 1.889690 0.000000 -0.019560 
#    y 0.000000 1.794420 0.000000 
#    z -0.019560 0.000000 1.789080 
# 
# From -- ./inp_files/42823.got.cif
#   From: 2010.05.17/outbox.cif.g08.bks.cpg/sg11_22_cif.got.tgz:42823.got - 2010.06.03 12:22:45.
