data_PCOD9158165
_publ_section_title
;
Structure prediction by ZEFSAII (Michael W. Deem and Ramdas Pophale) SiO2 
 PCOD9158165
Probable space group: P 21/M
;
_chemical_formula_sum "Si O2"
_cell_formula_units_Z 28
_cell_length_a 23.595286
_cell_length_b 7.860172
_cell_length_c 27.236547
_cell_angle_alpha 90.000000
_cell_angle_beta 15.645614
_cell_angle_gamma 90.000000
_cell_volume 1362.286921
_symmetry_space_group_name_H-M "P 21/M"
_symmetry_group_IT_number 11
_symmetry_cell_setting 'monoclinic'
loop_
_space_group_symop_operation_xyz
x,y,z
-x,1/2+y,-z
-x,-y,-z
x,1/2-y,z
loop_
_atom_site_type_symbol
_atom_site_label
_atom_site_fract_x
_atom_site_fract_y
_atom_site_fract_z
Si Si1 0.788362 0.541381 0.517852
Si Si2 0.792715 0.948648 0.204403
Si Si3 0.580860 0.448649 0.853114
Si Si4 0.058916 0.456548 0.715282
Si Si5 0.316388 0.952342 0.596882
Si Si6 0.814531 0.042846 0.749840
Si Si7 0.413215 0.949162 0.890057
O O1 0.788388 0.750000 0.518242
O O2 0.565595 0.476751 0.722158
O O3 0.839926 0.485776 0.420153
O O4 0.968080 0.491073 0.406759
O O5 0.776736 0.750000 0.207976
O O6 0.556842 0.021849 0.389944
O O7 0.800027 0.977125 0.257293
O O8 0.000000 0.000000 0.000000
O O9 0.613043 0.250000 0.816014
O O10 0.767208 0.511580 0.733425
O O11 0.532737 0.538092 0.842235
O O12 0.372022 0.472686 0.060438
O O13 0.056900 0.250000 0.715831
O O14 0.184839 0.510925 0.658020
O O15 0.819533 0.521753 0.914423
O O16 0.330470 0.750000 0.592703
O O17 0.800304 0.250000 0.762770
O O18 0.387092 0.750000 0.900916
#
# Coordination Sequence:
#
# PCOD9158165 Si02
#       7
#     4   4   4   4   4   4   4
#     4   9  18  34  55  76 100 138 186 229 270 328
#     4  10  21  39  64  93 124 157 192 232 276 326
#     4  10  19  30  50  77 103 133 174 227 285 338
#     4  10  20  36  56  79 110 148 191 230 269 326
#     4  10  22  39  60  89 123 156 190 232 283 331
#     4   9  17  33  53  73 100 135 177 226 280 340
#     4  10  20  35  55  76 103 142 184 226 276 332
#
# _framework density 20.553673
#
# number of rings (size 3 to 8) (size 9 to 14) (size 15 to 20)
#    0.000    2.286    1.429    1.286    0.000    4.571 
#    0.000    2.857    0.000    0.000    0.000    0.000 
#    0.000    0.000    0.000    0.000    0.000    0.000 
#
# Total GULP energy -156168.680732 kJ/mol
# GULP energy per Si atom -5577.452883 kJ/mol
# Density = 2.050689 g / cm^3
# Si number density = 20.553673 Si / 1000 Ang^3
#
#
#
# Elastic Constant Matrix: (Units=GPa)
#
#
# Indices 1 2 3 4 5 6 
#
# 1 138.6442 -12.8571 98.1033 0.0000 -6.4471 0.0000
# 2 -12.8571 21.4829 7.3087 0.0000 0.1723 0.0000
# 3 98.1033 7.3087 105.7342 0.0000 67.9799 0.0000
# 4 0.0000 0.0000 0.0000 7.5810 0.0000 4.5983
# 5 -6.4471 0.1723 67.9799 0.0000 -13.2180 0.0000
# 6 0.0000 0.0000 0.0000 4.5983 0.0000 21.5077
#
#
#
# Elastic Compliance Matrix: (Units=1/GPa)
#
#
# Indices 1 2 3 4 5 6 
#
# 1 0.008117 0.005368 -0.001254 0.000000 -0.010340 0.000000
# 2 0.005368 0.050415 -0.001673 0.000000 -0.010564 0.000000
# 3 -0.001254 -0.001673 0.002405 0.000000 0.012959 0.000000
# 4 0.000000 0.000000 0.000000 0.151564 0.000000 -0.032404
# 5 -0.010340 -0.010564 0.012959 0.000000 -0.004099 0.000000
# 6 0.000000 0.000000 0.000000 -0.032404 0.000000 0.053423
#
#
# Mechanical properties :
#
#
# Convention : Reuss Voigt Hill
#
# Bulk Modulus (GPa) = 15.19342 50.10792 32.65067
# Shear Modulus (GPa) = 17.92866 14.72790 16.32828
#
# Velocity S-wave (km/s) = 2.95665 2.67976 2.82161
# Velocity P-wave (km/s) = 4.36621 5.83154 5.15125
#
# Compressibility (1/GPa) = 0.06581795
#
# Stress axis : x y z
#
# Youngs Moduli (GPa) = 123.19533 19.83545 415.78247
#
# Poissons Ratio (x) = -0.10647 0.52153
# Poissons Ratio (y) = -0.66126 0.69554
# Poissons Ratio (z) = 0.15453 0.03318
#
# Static dielectric constant tensor:
#      x y z
#    x 1.707180 0.000000 -0.006880 
#    y 0.000000 1.738990 0.000000 
#    z -0.006880 0.000000 1.761080 
# 
# From -- ./inp_files/69774.got.cif
#   From: 2010.05.17/outbox.cif.g08.bks.cpg/sg11_35_cif.got.tgz:69774.got - 2010.06.03 12:22:45.
