data_PCOD9158464
_publ_section_title
;
Structure prediction by ZEFSAII (Michael W. Deem and Ramdas Pophale) SiO2 
 PCOD9158464
Probable space group: P 21/M
;
_chemical_formula_sum "Si O2"
_cell_formula_units_Z 32
_cell_length_a 32.186919
_cell_length_b 8.674401
_cell_length_c 14.633446
_cell_angle_alpha 90.000000
_cell_angle_beta 27.082916
_cell_angle_gamma 90.000000
_cell_volume 1860.131124
_symmetry_space_group_name_H-M "P 21/M"
_symmetry_group_IT_number 11
_symmetry_cell_setting 'monoclinic'
loop_
_space_group_symop_operation_xyz
x,y,z
-x,1/2+y,-z
-x,-y,-z
x,1/2-y,z
loop_
_atom_site_type_symbol
_atom_site_label
_atom_site_fract_x
_atom_site_fract_y
_atom_site_fract_z
Si Si1 0.158069 0.434918 0.876179
Si Si2 0.695218 0.563343 0.272094
Si Si3 0.448596 0.435617 0.287979
Si Si4 0.303091 0.933775 0.448095
Si Si5 0.400752 0.064489 0.721201
Si Si6 0.784077 0.064673 0.573135
Si Si7 0.639039 0.063589 0.001451
Si Si8 0.980125 0.566994 0.139722
O O1 0.150163 0.250000 0.891224
O O2 0.060596 0.508324 0.047887
O O3 0.210034 0.485940 0.866985
O O4 0.226458 0.484841 0.660814
O O5 0.696732 0.750000 0.267905
O O6 0.614709 0.520737 0.500808
O O7 0.668722 0.512214 0.222819
O O8 0.444506 0.250000 0.286322
O O9 0.400565 0.510462 0.294569
O O10 0.551278 0.480152 0.111684
O O11 0.295519 0.750000 0.475116
O O12 0.280021 0.970150 0.388688
O O13 0.404819 0.250000 0.712886
O O14 0.500000 0.000000 0.500000
O O15 0.372233 0.005850 0.876357
O O16 0.796308 0.250000 0.550854
O O17 0.881661 0.988596 0.366382
O O18 0.730515 0.017642 0.769154
O O19 0.637116 0.250000 0.012532
O O20 0.982609 0.750000 0.128749
O O21 0.000000 0.500000 0.000000
#
# Coordination Sequence:
#
# PCOD9158464 Si02
#       8
#     4   4   4   4   4   4   4   4
#     4  10  19  34  56  80 107 141 177 220 274 325
#     4   8  16  31  52  78 108 138 173 216 272 324
#     4   9  17  32  51  72 106 148 183 217 267 321
#     4  10  19  31  49  77 109 142 185 226 262 315
#     4  11  20  34  56  83 110 142 183 227 271 322
#     4  10  22  38  55  76 109 148 184 224 274 326
#     4  10  21  38  55  76 109 150 187 224 273 326
#     4  12  23  36  57  83 110 140 180 227 271 321
#
# _framework density 17.20309
#
# number of rings (size 3 to 8) (size 9 to 14) (size 15 to 20)
#    0.000    2.000    2.500    3.000    0.000    2.000 
#    0.000    1.875    0.000    0.750    0.000    0.000 
#    0.000    0.000    0.000    0.000    0.000    0.000 
#
# Total GULP energy -178579.041187 kJ/mol
# GULP energy per Si atom -5580.595037 kJ/mol
# Density = 1.716393 g / cm^3
# Si number density = 17.203090 Si / 1000 Ang^3
#
#
#
# Elastic Constant Matrix: (Units=GPa)
#
#
# Indices 1 2 3 4 5 6 
#
# 1 138.3837 44.7468 78.6301 0.0000 -6.9068 0.0000
# 2 44.7468 50.7225 44.1972 0.0000 -0.4759 0.0000
# 3 78.6301 44.1972 117.8222 0.0000 -3.3269 0.0000
# 4 0.0000 0.0000 0.0000 20.6988 0.0000 -2.2443
# 5 -6.9068 -0.4759 -3.3269 0.0000 22.0338 0.0000
# 6 0.0000 0.0000 0.0000 -2.2443 0.0000 28.9995
#
#
#
# Elastic Compliance Matrix: (Units=1/GPa)
#
#
# Indices 1 2 3 4 5 6 
#
# 1 0.012830 -0.005798 -0.006304 0.000000 0.002945 0.000000
# 2 -0.005798 0.031931 -0.008176 0.000000 -0.002362 0.000000
# 3 -0.006304 -0.008176 0.015768 0.000000 0.000228 0.000000
# 4 0.000000 0.000000 0.000000 0.048721 0.000000 0.003771
# 5 0.002945 -0.002362 0.000228 0.000000 0.046291 0.000000
# 6 0.000000 0.000000 0.000000 0.003771 0.000000 0.034775
#
#
# Mechanical properties :
#
#
# Convention : Reuss Voigt Hill
#
# Bulk Modulus (GPa) = 50.06459 71.34185 60.70322
# Shear Modulus (GPa) = 21.04994 23.63669 22.34332
#
# Velocity S-wave (km/s) = 3.50181 3.71074 3.60779
# Velocity P-wave (km/s) = 6.74652 7.74079 7.26070
#
# Compressibility (1/GPa) = 0.01997420
#
# Stress axis : x y z
#
# Youngs Moduli (GPa) = 77.94169 31.31707 63.41972
#
# Poissons Ratio (x) = 0.18156 0.39982
# Poissons Ratio (y) = 0.45188 0.51850
# Poissons Ratio (z) = 0.49138 0.25604
#
# Static dielectric constant tensor:
#      x y z
#    x 1.600270 0.000000 -0.005210 
#    y 0.000000 1.583640 0.000000 
#    z -0.005210 0.000000 1.561690 
# 
# From -- ./inp_files/45120.got.cif
#   From: 2010.05.17/outbox.cif.g08.bks.cpg/sg11_23_cif.got.tgz:45120.got - 2010.06.03 12:22:45.
