data_PCOD9158536
_publ_section_title
;
Structure prediction by ZEFSAII (Michael W. Deem and Ramdas Pophale) SiO2 
 PCOD9158536
Probable space group: P 21/M
;
_chemical_formula_sum "Si O2"
_cell_formula_units_Z 28
_cell_length_a 10.539489
_cell_length_b 8.658527
_cell_length_c 20.310919
_cell_angle_alpha 90.000000
_cell_angle_beta 58.859299
_cell_angle_gamma 90.000000
_cell_volume 1586.412565
_symmetry_space_group_name_H-M "P 21/M"
_symmetry_group_IT_number 11
_symmetry_cell_setting 'monoclinic'
loop_
_space_group_symop_operation_xyz
x,y,z
-x,1/2+y,-z
-x,-y,-z
x,1/2-y,z
loop_
_atom_site_type_symbol
_atom_site_label
_atom_site_fract_x
_atom_site_fract_y
_atom_site_fract_z
Si Si1 0.916211 0.936254 0.585535
Si Si2 0.815449 0.064233 0.833314
Si Si3 0.573005 0.563424 0.679790
Si Si4 0.072247 0.936296 0.678689
Si Si5 0.514963 0.434727 0.836006
Si Si6 0.360193 0.935137 0.996812
Si Si7 0.585273 0.436898 0.413343
O O1 0.919772 0.750000 0.582845
O O2 0.745063 0.984880 0.631473
O O3 0.997218 0.987748 0.630407
O O4 0.000000 0.000000 0.500000
O O5 0.821451 0.250000 0.827886
O O6 0.673930 0.014639 0.825803
O O7 0.777401 0.022001 0.919170
O O8 0.966331 0.995812 0.764868
O O9 0.567258 0.750000 0.685244
O O10 0.505202 0.495679 0.764670
O O11 0.493598 0.515760 0.633564
O O12 0.070892 0.750000 0.680602
O O13 0.242932 0.986797 0.634597
O O14 0.513314 0.250000 0.837813
O O15 0.384297 0.497215 0.918014
O O16 0.368173 0.750000 0.991882
O O17 0.500000 0.000000 0.000000
O O18 0.500000 0.500000 0.500000
O O19 0.581796 0.250000 0.417552
#
# Coordination Sequence:
#
# PCOD9158536 Si02
#       7
#     4   4   4   4   4   4   4
#     4  10  20  32  49  73  98 129 166 208 260 308
#     4   9  18  31  49  77 107 136 171 209 255 306
#     4  10  20  35  53  74 103 138 173 212 263 314
#     4  10  20  34  52  75 103 134 172 214 257 307
#     4  10  19  31  50  79 108 137 175 215 261 310
#     4   9  17  29  47  75 110 142 173 211 257 310
#     4  10  22  38  55  76 103 137 177 217 261 314
#
# _framework density 17.649885000000001
#
# number of rings (size 3 to 8) (size 9 to 14) (size 15 to 20)
#    0.000    2.286    1.429    2.571    0.000    5.143 
#    0.000    0.000    0.000    0.857    0.000    0.000 
#    0.000    0.000    0.000    0.000    0.000    0.000 
#
# Total GULP energy -156167.038024 kJ/mol
# GULP energy per Si atom -5577.394215 kJ/mol
# Density = 1.760971 g / cm^3
# Si number density = 17.649885 Si / 1000 Ang^3
#
#
#
# Elastic Constant Matrix: (Units=GPa)
#
#
# Indices 1 2 3 4 5 6 
#
# 1 119.9226 26.3111 86.5129 0.0000 1.8531 0.0000
# 2 26.3111 16.1040 38.8268 0.0000 2.2523 0.0000
# 3 86.5129 38.8268 215.4523 0.0000 5.8440 0.0000
# 4 0.0000 0.0000 0.0000 38.5552 0.0000 0.8004
# 5 1.8531 2.2523 5.8440 0.0000 25.8626 0.0000
# 6 0.0000 0.0000 0.0000 0.8004 0.0000 7.5797
#
#
#
# Elastic Compliance Matrix: (Units=1/GPa)
#
#
# Indices 1 2 3 4 5 6 
#
# 1 0.013808 -0.016390 -0.002619 0.000000 0.001030 0.000000
# 2 -0.016390 0.129939 -0.016662 0.000000 -0.006377 0.000000
# 3 -0.002619 -0.016662 0.008705 0.000000 -0.000328 0.000000
# 4 0.000000 0.000000 0.000000 0.025994 0.000000 -0.002745
# 5 0.001030 -0.006377 -0.000328 0.000000 0.039222 0.000000
# 6 0.000000 0.000000 0.000000 -0.002745 0.000000 0.132222
#
#
# Mechanical properties :
#
#
# Convention : Reuss Voigt Hill
#
# Bulk Modulus (GPa) = 12.32895 72.75339 42.54117
# Shear Modulus (GPa) = 11.15405 27.72137 19.43771
#
# Velocity S-wave (km/s) = 2.51661 3.96741 3.32217
# Velocity P-wave (km/s) = 3.93000 7.89284 6.23466
#
# Compressibility (1/GPa) = 0.08110991
#
# Stress axis : x y z
#
# Youngs Moduli (GPa) = 72.42193 7.69589 114.88268
#
# Poissons Ratio (x) = 0.12614 0.30085
# Poissons Ratio (y) = 1.18700 1.91420
# Poissons Ratio (z) = 0.18965 0.12823
#
# Static dielectric constant tensor:
#      x y z
#    x 1.589030 0.000000 -0.002520 
#    y 0.000000 1.597550 0.000000 
#    z -0.002520 0.000000 1.601420 
# 
# From -- ./inp_files/42356.got.cif
#   From: 2010.05.17/outbox.cif.g08.bks.cpg/sg11_22_cif.got.tgz:42356.got - 2010.06.03 12:22:45.
