data_PCOD9158847
_publ_section_title
;
Structure prediction by ZEFSAII (Michael W. Deem and Ramdas Pophale) SiO2 
 PCOD9158847
Probable space group: P 21/M
;
_chemical_formula_sum "Si O2"
_cell_formula_units_Z 32
_cell_length_a 16.716742
_cell_length_b 7.708830
_cell_length_c 11.871721
_cell_angle_alpha 90.000000
_cell_angle_beta 91.594209
_cell_angle_gamma 90.000000
_cell_volume 1529.275236
_symmetry_space_group_name_H-M "P 21/M"
_symmetry_group_IT_number 11
_symmetry_cell_setting 'monoclinic'
loop_
_space_group_symop_operation_xyz
x,y,z
-x,1/2+y,-z
-x,-y,-z
x,1/2-y,z
loop_
_atom_site_type_symbol
_atom_site_label
_atom_site_fract_x
_atom_site_fract_y
_atom_site_fract_z
Si Si1 0.960242 0.547169 0.819213
Si Si2 0.406436 0.541308 0.988373
Si Si3 0.259421 0.541862 0.568702
Si Si4 0.727500 0.462075 0.177781
Si Si5 0.584672 0.041803 0.555795
Si Si6 0.827163 0.543559 0.656939
Si Si7 0.663937 0.458207 0.780461
Si Si8 0.883548 0.461275 0.050660
O O1 0.974142 0.750000 0.795465
O O2 0.908625 0.471090 0.714892
O O3 0.046260 0.477167 0.861588
O O4 0.905236 0.530585 0.928523
O O5 0.400673 0.750000 0.987605
O O6 0.357870 0.481046 0.876013
O O7 0.500000 0.500000 0.000000
O O8 0.359660 0.475124 0.097672
O O9 0.264568 0.750000 0.576027
O O10 0.252218 0.476531 0.695635
O O11 0.342521 0.475967 0.518283
O O12 0.192459 0.505336 0.472191
O O13 0.727691 0.250000 0.180896
O O14 0.797696 0.512138 0.094586
O O15 0.591718 0.250000 0.559752
O O16 0.601384 0.978196 0.683066
O O17 0.500000 0.000000 0.500000
O O18 0.831973 0.750000 0.661434
O O19 0.751576 0.493736 0.732879
O O20 0.657969 0.250000 0.787047
O O21 0.886629 0.250000 0.043904
#
# Coordination Sequence:
#
# PCOD9158847 Si02
#       8
#     4   4   4   4   4   4   4   4
#     4   9  18  31  50  79 111 131 160 211 257 295
#     4  10  21  35  52  75 101 130 165 207 252 301
#     4   9  19  35  51  70  97 133 173 211 246 295
#     4   9  18  34  55  74  98 134 174 207 244 298
#     4   9  18  30  47  68  92 122 159 206 250 287
#     4  10  19  32  51  76 103 132 165 208 257 298
#     4   9  19  35  51  71  99 129 167 207 244 297
#     4   9  17  32  55  79 101 136 173 202 244 301
#
# _framework density 20.924944
#
# number of rings (size 3 to 8) (size 9 to 14) (size 15 to 20)
#    0.000    2.750    0.000    1.875    1.750    4.500 
#    0.000    2.500    0.000    0.000    0.000    0.000 
#    0.000    0.000    0.000    0.000    0.000    0.000 
#
# Total GULP energy -178469.757819 kJ/mol
# GULP energy per Si atom -5577.179932 kJ/mol
# Density = 2.087732 g / cm^3
# Si number density = 20.924944 Si / 1000 Ang^3
#
#
#
# Elastic Constant Matrix: (Units=GPa)
#
#
# Indices 1 2 3 4 5 6 
#
# 1 86.2114 -5.8245 39.3731 0.0000 34.4109 0.0000
# 2 -5.8245 26.9754 -1.9220 0.0000 -0.0274 0.0000
# 3 39.3731 -1.9220 80.0613 0.0000 23.4761 0.0000
# 4 0.0000 0.0000 0.0000 12.4465 0.0000 3.2129
# 5 34.4109 -0.0274 23.4761 0.0000 34.2353 0.0000
# 6 0.0000 0.0000 0.0000 3.2129 0.0000 14.5682
#
#
#
# Elastic Compliance Matrix: (Units=1/GPa)
#
#
# Indices 1 2 3 4 5 6 
#
# 1 0.021423 0.004240 -0.005158 0.000000 -0.017993 0.000000
# 2 0.004240 0.037988 0.000085 0.000000 -0.004289 0.000000
# 3 -0.005158 0.000085 0.016909 0.000000 -0.006410 0.000000
# 4 0.000000 0.000000 0.000000 0.085194 0.000000 -0.018789
# 5 -0.017993 -0.004289 -0.006410 0.000000 0.051687 0.000000
# 6 0.000000 0.000000 0.000000 -0.018789 0.000000 0.072787
#
#
# Mechanical properties :
#
#
# Convention : Reuss Voigt Hill
#
# Bulk Modulus (GPa) = 13.39531 28.50015 20.94773
# Shear Modulus (GPa) = 15.99802 23.02476 19.51139
#
# Velocity S-wave (km/s) = 2.76804 3.32075 3.05691
# Velocity P-wave (km/s) = 4.07818 5.32475 4.74260
#
# Compressibility (1/GPa) = 0.07465300
#
# Stress axis : x y z
#
# Youngs Moduli (GPa) = 46.67822 26.32417 59.14102
#
# Poissons Ratio (x) = -0.11161 0.30504
# Poissons Ratio (y) = -0.19791 -0.00500
# Poissons Ratio (z) = 0.24076 -0.00223
#
# Static dielectric constant tensor:
#      x y z
#    x 1.740120 0.000000 0.037520 
#    y 0.000000 1.787290 0.000000 
#    z 0.037520 0.000000 1.777330 
# 
# From -- ./inp_files/38069.got.cif
#   From: 2010.05.17/outbox.cif.g08.bks.cpg/sg11_20_cif.got.tgz:38069.got - 2010.06.03 12:22:45.
