data_PCOD9158046
_publ_section_title
;
Structure prediction by ZEFSAII (Michael W. Deem and Ramdas Pophale) SiO2 
 PCOD9158046
Probable space group: P 21/M
;
_chemical_formula_sum "Si O2"
_cell_formula_units_Z 32
_cell_length_a 17.093541
_cell_length_b 8.333106
_cell_length_c 24.685060
_cell_angle_alpha 90.000000
_cell_angle_beta 151.032774
_cell_angle_gamma 90.000000
_cell_volume 1702.926453
_symmetry_space_group_name_H-M "P 21/M"
_symmetry_group_IT_number 11
_symmetry_cell_setting 'monoclinic'
loop_
_space_group_symop_operation_xyz
x,y,z
-x,1/2+y,-z
-x,-y,-z
x,1/2-y,z
loop_
_atom_site_type_symbol
_atom_site_label
_atom_site_fract_x
_atom_site_fract_y
_atom_site_fract_z
Si Si1 0.476968 0.944949 0.705476
Si Si2 0.969220 0.558465 0.108830
Si Si3 0.250714 0.441100 0.215428
Si Si4 0.973330 0.058848 0.229867
Si Si5 0.487707 0.434744 0.551968
Si Si6 0.777217 0.434613 0.533426
Si Si7 0.594407 0.943661 0.890342
Si Si8 0.396457 0.558851 0.987654
O O1 0.466688 0.750000 0.698385
O O2 0.645057 0.982144 0.775249
O O3 0.316654 0.003194 0.576390
O O4 0.493766 0.999018 0.777303
O O5 0.974753 0.750000 0.106696
O O6 0.032529 0.511866 0.207774
O O7 0.065686 0.482121 0.116776
O O8 0.781472 0.506028 0.995514
O O9 0.271227 0.250000 0.236026
O O10 0.341385 0.544915 0.315810
O O11 0.973716 0.250000 0.223336
O O12 0.789579 0.999754 0.127255
O O13 0.077539 0.016999 0.346120
O O14 0.500000 0.500000 0.500000
O O15 0.432295 0.250000 0.520723
O O16 0.367972 0.550202 0.511633
O O17 0.821129 0.250000 0.549953
O O18 0.592797 0.750000 0.890082
O O19 0.537271 0.004020 0.913941
O O20 0.391867 0.750000 0.983598
O O21 0.500000 0.500000 0.000000
#
# Coordination Sequence:
#
# PCOD9158046 Si02
#       8
#     4   4   4   4   4   4   4   4
#     4   8  17  33  51  71  98 137 178 212 251 296
#     4  10  19  30  47  72 100 133 174 217 261 304
#     4  10  19  31  45  64  95 134 176 218 257 297
#     4  10  20  34  52  76 105 134 166 206 254 302
#     4  11  20  30  43  61  89 126 171 219 263 302
#     4  10  19  32  50  72  99 132 170 208 249 299
#     4   9  18  35  56  76 102 135 169 206 251 305
#     4  10  21  37  59  86 110 131 158 198 249 303
#
# _framework density 18.791180000000001
#
# number of rings (size 3 to 8) (size 9 to 14) (size 15 to 20)
#    0.000    2.250    0.000    4.500    0.000    2.500 
#    0.000    3.750    0.000    0.750    0.000    0.000 
#    0.000    0.000    0.000    0.000    0.000    0.000 
#
# Total GULP energy -178315.164107 kJ/mol
# GULP energy per Si atom -5572.348878 kJ/mol
# Density = 1.874841 g / cm^3
# Si number density = 18.791180 Si / 1000 Ang^3
#
#
#
# Elastic Constant Matrix: (Units=GPa)
#
#
# Indices 1 2 3 4 5 6 
#
# 1 95.1019 11.0133 39.5337 0.0000 -22.1616 0.0000
# 2 11.0133 36.2867 4.1078 0.0000 -3.2489 0.0000
# 3 39.5337 4.1078 65.2215 0.0000 -24.9039 0.0000
# 4 0.0000 0.0000 0.0000 20.3867 0.0000 3.9760
# 5 -22.1616 -3.2489 -24.9039 0.0000 30.5455 0.0000
# 6 0.0000 0.0000 0.0000 3.9760 0.0000 21.8700
#
#
#
# Elastic Compliance Matrix: (Units=1/GPa)
#
#
# Indices 1 2 3 4 5 6 
#
# 1 0.014925 -0.003309 -0.007025 0.000000 0.004749 0.000000
# 2 -0.003309 0.028594 0.000653 0.000000 0.001172 0.000000
# 3 -0.007025 0.000653 0.025599 0.000000 0.015844 0.000000
# 4 0.000000 0.000000 0.000000 0.050855 0.000000 -0.009246
# 5 0.004749 0.001172 0.015844 0.000000 0.049226 0.000000
# 6 0.000000 0.000000 0.000000 -0.009246 0.000000 0.047406
#
#
# Mechanical properties :
#
#
# Convention : Reuss Voigt Hill
#
# Bulk Modulus (GPa) = 20.09854 33.99107 27.04481
# Shear Modulus (GPa) = 19.79781 24.02411 21.91096
#
# Velocity S-wave (km/s) = 3.24939 3.57946 3.41841
# Velocity P-wave (km/s) = 4.97966 5.93393 5.47761
#
# Compressibility (1/GPa) = 0.04975485
#
# Stress axis : x y z
#
# Youngs Moduli (GPa) = 67.00037 34.97261 39.06377
#
# Poissons Ratio (x) = 0.11574 0.27443
# Poissons Ratio (y) = 0.22174 -0.02550
# Poissons Ratio (z) = 0.47068 -0.02283
#
# Static dielectric constant tensor:
#      x y z
#    x 1.635750 0.000000 -0.018330 
#    y 0.000000 1.640970 0.000000 
#    z -0.018330 0.000000 1.745090 
# 
# From -- ./inp_files/43755.got.cif
#   From: 2010.05.17/outbox.cif.g08.bks.cpg/sg11_22_cif.got.tgz:43755.got - 2010.06.03 12:22:45.
