data_PCOD9158173
_publ_section_title
;
Structure prediction by ZEFSAII (Michael W. Deem and Ramdas Pophale) SiO2 
 PCOD9158173
Probable space group: P 21/M
;
_chemical_formula_sum "Si O2"
_cell_formula_units_Z 28
_cell_length_a 17.613628
_cell_length_b 7.520746
_cell_length_c 12.640436
_cell_angle_alpha 90.000000
_cell_angle_beta 43.519539
_cell_angle_gamma 90.000000
_cell_volume 1153.028425
_symmetry_space_group_name_H-M "P 21/M"
_symmetry_group_IT_number 11
_symmetry_cell_setting 'monoclinic'
loop_
_space_group_symop_operation_xyz
x,y,z
-x,1/2+y,-z
-x,-y,-z
x,1/2-y,z
loop_
_atom_site_type_symbol
_atom_site_label
_atom_site_fract_x
_atom_site_fract_y
_atom_site_fract_z
Si Si1 0.410609 0.032477 0.392529
Si Si2 0.828821 0.968339 0.317535
Si Si3 0.005119 0.550392 0.288611
Si Si4 0.780168 0.039584 0.831678
Si Si5 0.876976 0.544191 0.042791
Si Si6 0.653816 0.034363 0.169603
Si Si7 0.612370 0.960037 0.824040
O O1 0.411880 0.250000 0.392886
O O2 0.297460 0.974965 0.560275
O O3 0.529164 0.974325 0.315330
O O4 0.399773 0.970813 0.282041
O O5 0.831966 0.750000 0.315445
O O6 0.891222 0.024351 0.147618
O O7 0.890613 0.029823 0.362067
O O8 0.979606 0.750000 0.352311
O O9 0.096024 0.465655 0.274678
O O10 0.071100 0.556650 0.109315
O O11 0.793177 0.250000 0.835623
O O12 0.718693 0.016426 0.783581
O O13 0.697653 0.977229 0.008436
O O14 0.908632 0.750000 0.002051
O O15 0.745259 0.534989 0.156647
O O16 0.655077 0.250000 0.170567
O O17 0.621178 0.750000 0.805334
O O18 0.500000 0.000000 0.000000
#
# Coordination Sequence:
#
# PCOD9158173 Si02
#       7
#     4   4   4   4   4   4   4
#     4   9  18  33  51  72 100 134 170 202 242 303
#     4   9  18  33  52  73  99 134 172 207 243 292
#     4   9  18  34  55  74  97 134 172 203 243 298
#     4   9  17  31  50  75 101 127 165 205 246 291
#     4  10  19  30  50  79 103 126 166 215 252 284
#     4   9  17  32  51  72 101 136 168 200 246 303
#     4  11  20  32  53  77 100 128 164 204 248 295
#
# _framework density 24.283878000000001
#
# number of rings (size 3 to 8) (size 9 to 14) (size 15 to 20)
#    0.000    2.571    1.429    2.143    0.000    2.857 
#    0.000    1.429    0.000    6.857    0.000    0.000 
#    0.000    0.000    0.000    0.000    0.000    0.000 
#
# Total GULP energy -156340.337982 kJ/mol
# GULP energy per Si atom -5583.583499 kJ/mol
# Density = 2.422861 g / cm^3
# Si number density = 24.283878 Si / 1000 Ang^3
#
#
#
# Elastic Constant Matrix: (Units=GPa)
#
#
# Indices 1 2 3 4 5 6 
#
# 1 91.1298 4.6224 -13.3323 0.0000 -27.2223 0.0000
# 2 4.6224 74.4664 -0.4879 0.0000 -6.3678 0.0000
# 3 -13.3323 -0.4879 45.7376 0.0000 -13.5883 0.0000
# 4 0.0000 0.0000 0.0000 6.6637 0.0000 -3.7442
# 5 -27.2223 -6.3678 -13.5883 0.0000 43.4351 0.0000
# 6 0.0000 0.0000 0.0000 -3.7442 0.0000 21.2154
#
#
#
# Elastic Compliance Matrix: (Units=1/GPa)
#
#
# Indices 1 2 3 4 5 6 
#
# 1 0.015986 0.000147 0.008427 0.000000 0.012677 0.000000
# 2 0.000147 0.013628 0.000892 0.000000 0.002369 0.000000
# 3 0.008427 0.000892 0.028596 0.000000 0.014358 0.000000
# 4 0.000000 0.000000 0.000000 0.166587 0.000000 0.029400
# 5 0.012677 0.002369 0.014358 0.000000 0.035807 0.000000
# 6 0.000000 0.000000 0.000000 0.029400 0.000000 0.052324
#
#
# Mechanical properties :
#
#
# Convention : Reuss Voigt Hill
#
# Bulk Modulus (GPa) = 12.96302 21.43758 17.20030
# Shear Modulus (GPa) = 15.63921 28.96497 22.30209
#
# Velocity S-wave (km/s) = 2.54050 3.45739 3.03378
# Velocity P-wave (km/s) = 3.73567 4.97847 4.40116
#
# Compressibility (1/GPa) = 0.07714252
#
# Stress axis : x y z
#
# Youngs Moduli (GPa) = 62.55620 73.37737 34.97026
#
# Poissons Ratio (x) = -0.01078 -0.29471
# Poissons Ratio (y) = -0.00919 -0.03120
# Poissons Ratio (z) = -0.52719 -0.06546
#
# Static dielectric constant tensor:
#      x y z
#    x 1.965470 0.000000 -0.045020 
#    y 0.000000 1.909030 0.000000 
#    z -0.045020 0.000000 1.936350 
# 
# From -- ./inp_files/53209.got.cif
#   From: 2010.05.17/outbox.cif.g08.bks.cpg/sg11_27_cif.got.tgz:53209.got - 2010.06.03 12:22:45.
