data_PCOD9158558
_publ_section_title
;
Structure prediction by ZEFSAII (Michael W. Deem and Ramdas Pophale) SiO2 
 PCOD9158558
Probable space group: P 21/M
;
_chemical_formula_sum "Si O2"
_cell_formula_units_Z 24
_cell_length_a 15.442795
_cell_length_b 13.589234
_cell_length_c 6.264902
_cell_angle_alpha 90.000000
_cell_angle_beta 80.763886
_cell_angle_gamma 90.000000
_cell_volume 1297.680706
_symmetry_space_group_name_H-M "P 21/M"
_symmetry_group_IT_number 11
_symmetry_cell_setting 'monoclinic'
loop_
_space_group_symop_operation_xyz
x,y,z
-x,1/2+y,-z
-x,-y,-z
x,1/2-y,z
loop_
_atom_site_type_symbol
_atom_site_label
_atom_site_fract_x
_atom_site_fract_y
_atom_site_fract_z
Si Si1 0.930928 0.980541 0.838913
Si Si2 0.482380 0.635705 0.688046
Si Si3 0.668366 0.138631 0.927481
Si Si4 0.210106 0.532919 0.801025
Si Si5 0.360212 0.000192 0.442264
Si Si6 0.930760 0.366708 0.461212
O O1 0.923340 0.075581 0.688106
O O2 0.840957 0.967853 0.003767
O O3 0.974166 0.895554 0.677178
O O4 0.000000 0.000000 0.000000
O O5 0.484726 0.750000 0.629050
O O6 0.578590 0.589041 0.657115
O O7 0.425341 0.575095 0.539259
O O8 0.428383 0.627137 0.930439
O O9 0.679294 0.250000 0.845414
O O10 0.679417 0.059774 0.738571
O O11 0.736610 0.115414 0.088643
O O12 0.281847 0.474571 0.634548
O O13 0.141707 0.585989 0.668888
O O14 0.920019 0.250000 0.485299
#
# Coordination Sequence:
#
# PCOD9158558 Si02
#       6
#     4   4   4   4   4   4
#     4   9  20  36  53  78 108 135 167 209 256 311
#     4   9  19  34  50  72 101 136 178 216 256 308
#     4  10  19  31  51  77 104 134 171 215 260 307
#     4  10  20  33  52  79 109 134 166 214 264 310
#     4  10  19  32  52  75 103 138 172 215 264 308
#     4  10  20  36  58  79 103 137 173 212 260 312
#
# _framework density 18.494536
#
# number of rings (size 3 to 8) (size 9 to 14) (size 15 to 20)
#    0.000    2.333    0.000    2.500    0.000    6.667 
#    0.000    0.833    0.000   11.000    0.000    0.000 
#    0.000    0.000    0.000    0.000    0.000    0.000 
#
# Total GULP energy -133818.567472 kJ/mol
# GULP energy per Si atom -5575.773645 kJ/mol
# Density = 1.845244 g / cm^3
# Si number density = 18.494536 Si / 1000 Ang^3
#
#
#
# Elastic Constant Matrix: (Units=GPa)
#
#
# Indices 1 2 3 4 5 6 
#
# 1 88.1263 20.1123 42.8040 0.0000 -24.6002 0.0000
# 2 20.1123 19.5068 14.6009 0.0000 -10.6778 0.0000
# 3 42.8040 14.6009 92.3145 0.0000 -9.7964 0.0000
# 4 0.0000 0.0000 0.0000 11.0802 0.0000 0.7333
# 5 -24.6002 -10.6778 -9.7964 0.0000 34.4040 0.0000
# 6 0.0000 0.0000 0.0000 0.7333 0.0000 12.9886
#
#
#
# Elastic Compliance Matrix: (Units=1/GPa)
#
#
# Indices 1 2 3 4 5 6 
#
# 1 0.019222 -0.010271 -0.006360 0.000000 0.008746 0.000000
# 2 -0.010271 0.073515 -0.005386 0.000000 0.013939 0.000000
# 3 -0.006360 -0.005386 0.014409 0.000000 -0.002117 0.000000
# 4 0.000000 0.000000 0.000000 0.090589 0.000000 -0.005115
# 5 0.008746 0.013939 -0.002117 0.000000 0.039043 0.000000
# 6 0.000000 0.000000 0.000000 -0.005115 0.000000 0.077279
#
#
# Mechanical properties :
#
#
# Convention : Reuss Voigt Hill
#
# Bulk Modulus (GPa) = 15.84479 39.44243 27.64361
# Shear Modulus (GPa) = 13.18812 19.85659 16.52235
#
# Velocity S-wave (km/s) = 2.67326 3.28021 2.99216
# Velocity P-wave (km/s) = 4.25609 5.97655 5.18813
#
# Compressibility (1/GPa) = 0.06311222
#
# Stress axis : x y z
#
# Youngs Moduli (GPa) = 52.02411 13.60264 69.40172
#
# Poissons Ratio (x) = 0.13971 0.44141
# Poissons Ratio (y) = 0.53432 0.37380
# Poissons Ratio (z) = 0.33088 0.07326
#
# Static dielectric constant tensor:
#      x y z
#    x 1.672620 0.000000 -0.032080 
#    y 0.000000 1.587110 0.000000 
#    z -0.032080 0.000000 1.664470 
# 
# From -- ./inp_files/6295.got.cif
#   From: 2010.05.17/outbox.cif.g08.bks.cpg/sg11_4_cif.got.tgz:6295.got - 2010.06.03 12:22:45.
