data_PCOD9158470
_publ_section_title
;
Structure prediction by ZEFSAII (Michael W. Deem and Ramdas Pophale) SiO2 
 PCOD9158470
Probable space group: P 21/M
;
_chemical_formula_sum "Si O2"
_cell_formula_units_Z 32
_cell_length_a 22.109690
_cell_length_b 7.617663
_cell_length_c 17.294818
_cell_angle_alpha 90.000000
_cell_angle_beta 152.998567
_cell_angle_gamma 90.000000
_cell_volume 1322.478095
_symmetry_space_group_name_H-M "P 21/M"
_symmetry_group_IT_number 11
_symmetry_cell_setting 'monoclinic'
loop_
_space_group_symop_operation_xyz
x,y,z
-x,1/2+y,-z
-x,-y,-z
x,1/2-y,z
loop_
_atom_site_type_symbol
_atom_site_label
_atom_site_fract_x
_atom_site_fract_y
_atom_site_fract_z
Si Si1 0.091719 0.536773 0.223548
Si Si2 0.236832 0.964624 0.539069
Si Si3 0.658122 0.041374 0.177758
Si Si4 0.778866 0.533273 0.041154
Si Si5 0.646531 0.548494 0.572900
Si Si6 0.510056 0.450888 0.267944
Si Si7 0.877448 0.545947 0.306541
Si Si8 0.202730 0.464680 0.113968
O O1 0.102220 0.750000 0.231205
O O2 0.118286 0.488873 0.344456
O O3 0.210329 0.459870 0.307713
O O4 0.945931 0.483034 0.029799
O O5 0.233079 0.750000 0.537335
O O6 0.260823 0.025515 0.653970
O O7 0.368971 0.026432 0.643217
O O8 0.667117 0.250000 0.190102
O O9 0.739191 0.983425 0.194594
O O10 0.500000 0.000000 0.000000
O O11 0.780753 0.750000 0.039275
O O12 0.878349 0.469636 0.220901
O O13 0.634374 0.472031 0.905764
O O14 0.789885 0.476496 0.965775
O O15 0.603406 0.750000 0.529355
O O16 0.548187 0.453708 0.401985
O O17 0.680523 0.474395 0.696040
O O18 0.501180 0.250000 0.231789
O O19 0.889977 0.750000 0.307636
O O20 0.000000 0.500000 0.500000
O O21 0.207591 0.250000 0.121868
#
# Coordination Sequence:
#
# PCOD9158470 Si02
#       8
#     4   4   4   4   4   4   4   4
#     4   9  17  32  54  75 100 138 185 227 263 321
#     4   8  16  30  53  79 102 137 186 229 268 326
#     4  11  22  38  62  91 121 155 199 251 301 355
#     4   9  19  36  59  80 104 145 194 230 266 333
#     4  10  19  31  49  79 113 140 172 225 286 327
#     4   9  17  34  57  79 104 141 188 227 261 322
#     4  11  24  42  64  89 120 157 198 249 307 364
#     4   9  18  31  52  79 105 139 186 228 265 324
#
# _framework density 24.196997
#
# number of rings (size 3 to 8) (size 9 to 14) (size 15 to 20)
#    0.000    2.500    0.000    3.000    1.750    2.500 
#    0.000    9.375    0.000    4.500    0.000    0.000 
#    0.000    0.000    0.000    0.000    0.000    0.000 
#
# Total GULP energy -178669.909737 kJ/mol
# GULP energy per Si atom -5583.434679 kJ/mol
# Density = 2.414192 g / cm^3
# Si number density = 24.196997 Si / 1000 Ang^3
#
#
#
# Elastic Constant Matrix: (Units=GPa)
#
#
# Indices 1 2 3 4 5 6 
#
# 1 67.5887 -14.4562 25.1462 0.0000 -35.8155 0.0000
# 2 -14.4562 47.8665 -5.5467 0.0000 -1.4612 0.0000
# 3 25.1462 -5.5467 89.8312 0.0000 -28.5856 0.0000
# 4 0.0000 0.0000 0.0000 17.6902 0.0000 0.7234
# 5 -35.8155 -1.4612 -28.5856 0.0000 44.4705 0.0000
# 6 0.0000 0.0000 0.0000 0.7234 0.0000 15.8862
#
#
#
# Elastic Compliance Matrix: (Units=1/GPa)
#
#
# Indices 1 2 3 4 5 6 
#
# 1 0.029733 0.009720 -0.000002 0.000000 0.024264 0.000000
# 2 0.009720 0.024351 0.001921 0.000000 0.009864 0.000000
# 3 -0.000002 0.001921 0.014169 0.000000 0.009170 0.000000
# 4 0.000000 0.000000 0.000000 0.056634 0.000000 -0.002579
# 5 0.024264 0.009864 0.009170 0.000000 0.048247 0.000000
# 6 0.000000 0.000000 0.000000 -0.002579 0.000000 0.063065
#
#
# Mechanical properties :
#
#
# Convention : Reuss Voigt Hill
#
# Bulk Modulus (GPa) = 10.92509 23.95256 17.43882
# Shear Modulus (GPa) = 20.53982 28.95227 24.74605
#
# Velocity S-wave (km/s) = 2.91668 3.46283 3.20142
# Velocity P-wave (km/s) = 3.98341 5.09006 4.57036
#
# Compressibility (1/GPa) = 0.09153243
#
# Stress axis : x y z
#
# Youngs Moduli (GPa) = 33.63293 41.06649 70.57665
#
# Poissons Ratio (x) = -0.39917 0.00011
# Poissons Ratio (y) = -0.32692 -0.13560
# Poissons Ratio (z) = 0.00005 -0.07890
#
# Static dielectric constant tensor:
#      x y z
#    x 1.970090 0.000000 -0.043010 
#    y 0.000000 1.906170 0.000000 
#    z -0.043010 0.000000 1.946090 
# 
# From -- ./inp_files/61814.got.cif
#   From: 2010.05.17/outbox.cif.g08.bks.cpg/sg11_31_cif.got.tgz:61814.got - 2010.06.03 12:22:45.
