data_PCOD9158673
_publ_section_title
;
Structure prediction by ZEFSAII (Michael W. Deem and Ramdas Pophale) SiO2 
 PCOD9158673
Probable space group: P 21/M
;
_chemical_formula_sum "Si O2"
_cell_formula_units_Z 32
_cell_length_a 18.580063
_cell_length_b 11.107174
_cell_length_c 25.188046
_cell_angle_alpha 90.000000
_cell_angle_beta 20.431248
_cell_angle_gamma 90.000000
_cell_volume 1814.571759
_symmetry_space_group_name_H-M "P 21/M"
_symmetry_group_IT_number 11
_symmetry_cell_setting 'monoclinic'
loop_
_space_group_symop_operation_xyz
x,y,z
-x,1/2+y,-z
-x,-y,-z
x,1/2-y,z
loop_
_atom_site_type_symbol
_atom_site_label
_atom_site_fract_x
_atom_site_fract_y
_atom_site_fract_z
Si Si1 0.917624 0.506546 0.997577
Si Si2 0.887011 0.106258 0.401661
Si Si3 0.040213 0.617568 0.136264
Si Si4 0.688657 0.012121 0.431433
Si Si5 0.369351 0.391239 0.065154
Si Si6 0.682684 0.612171 0.023067
Si Si7 0.516350 0.109028 0.730086
Si Si8 0.296348 0.622390 0.688939
O O1 0.955487 0.396155 0.930682
O O2 0.063443 0.605464 0.868803
O O3 0.677864 0.539563 0.160582
O O4 0.000000 0.500000 0.000000
O O5 0.872563 0.250000 0.404685
O O6 0.801436 0.047818 0.407037
O O7 0.733791 0.070185 0.555248
O O8 0.127871 0.081965 0.243593
O O9 0.118618 0.750000 0.097064
O O10 0.812812 0.597192 0.317417
O O11 0.165970 0.500956 0.070811
O O12 0.697113 0.111029 0.379153
O O13 0.451134 0.977852 0.604163
O O14 0.412558 0.250000 0.051444
O O15 0.500000 0.500000 0.000000
O O16 0.392850 0.395118 0.984969
O O17 0.770799 0.750000 0.968265
O O18 0.510316 0.599247 0.187986
O O19 0.489642 0.250000 0.735407
O O20 0.374759 0.750000 0.653389
#
# Coordination Sequence:
#
# PCOD9158673 Si02
#       8
#     4   4   4   4   4   4   4   4
#     4  10  20  33  47  68 104 148 191 234 280 326
#     4  10  19  34  57  82 109 143 188 231 274 332
#     4  10  20  32  51  78 107 143 191 238 284 332
#     4  10  19  32  48  72 106 141 183 232 282 325
#     4  10  21  38  61  89 116 143 180 227 280 339
#     4   9  18  36  59  82 111 145 183 222 271 338
#     4   9  18  32  54  80 103 140 191 234 270 321
#     4  10  20  31  46  69 100 140 186 232 277 321
#
# _framework density 17.635014999999999
#
# number of rings (size 3 to 8) (size 9 to 14) (size 15 to 20)
#    0.000    2.250    1.250    1.875    0.000    4.500 
#    0.000    3.750    0.000    3.750    0.000    0.000 
#    0.000    0.000    0.000    0.000    0.000    0.000 
#
# Total GULP energy -178145.792186 kJ/mol
# GULP energy per Si atom -5567.056006 kJ/mol
# Density = 1.759488 g / cm^3
# Si number density = 17.635015 Si / 1000 Ang^3
#
#
#
# Elastic Constant Matrix: (Units=GPa)
#
#
# Indices 1 2 3 4 5 6 
#
# 1 75.7484 42.9912 46.2275 0.0000 0.5611 0.0000
# 2 42.9912 93.9922 36.1317 0.0000 -9.6740 0.0000
# 3 46.2275 36.1317 111.8425 0.0000 2.4922 0.0000
# 4 0.0000 0.0000 0.0000 9.3446 0.0000 -6.4152
# 5 0.5611 -9.6740 2.4922 0.0000 20.0440 0.0000
# 6 0.0000 0.0000 0.0000 -6.4152 0.0000 16.4548
#
#
#
# Elastic Compliance Matrix: (Units=1/GPa)
#
#
# Indices 1 2 3 4 5 6 
#
# 1 0.021476 -0.007775 -0.006286 0.000000 -0.003572 0.000000
# 2 -0.007775 0.015831 -0.002082 0.000000 0.008117 0.000000
# 3 -0.006286 -0.002082 0.012264 0.000000 -0.002354 0.000000
# 4 0.000000 0.000000 0.000000 0.146122 0.000000 0.056968
# 5 -0.003572 0.008117 -0.002354 0.000000 0.054200 0.000000
# 6 0.000000 0.000000 0.000000 0.056968 0.000000 0.082983
#
#
# Mechanical properties :
#
#
# Convention : Reuss Voigt Hill
#
# Bulk Modulus (GPa) = 57.84450 59.14265 58.49358
# Shear Modulus (GPa) = 13.47989 19.58421 16.53205
#
# Velocity S-wave (km/s) = 2.76775 3.33608 3.06511
# Velocity P-wave (km/s) = 6.56399 6.96054 6.76517
#
# Compressibility (1/GPa) = 0.01728773
#
# Stress axis : x y z
#
# Youngs Moduli (GPa) = 46.56271 63.16778 81.53878
#
# Poissons Ratio (x) = 0.49110 0.51252
# Poissons Ratio (y) = 0.36200 0.16974
# Poissons Ratio (z) = 0.29267 0.13150
#
# Static dielectric constant tensor:
#      x y z
#    x 1.600520 0.000000 0.017690 
#    y 0.000000 1.655450 0.000000 
#    z 0.017690 0.000000 1.628040 
# 
# From -- ./inp_files/69623.got.cif
#   From: 2010.05.17/outbox.cif.g08.bks.cpg/sg11_35_cif.got.tgz:69623.got - 2010.06.03 12:22:45.
