data_PCOD9158126
_publ_section_title
;
Structure prediction by ZEFSAII (Michael W. Deem and Ramdas Pophale) SiO2 
 PCOD9158126
Probable space group: P 21/M
;
_chemical_formula_sum "Si O2"
_cell_formula_units_Z 32
_cell_length_a 5.863705
_cell_length_b 25.178189
_cell_length_c 8.959925
_cell_angle_alpha 90.000000
_cell_angle_beta 111.310054
_cell_angle_gamma 90.000000
_cell_volume 1232.376088
_symmetry_space_group_name_H-M "P 21/M"
_symmetry_group_IT_number 11
_symmetry_cell_setting 'monoclinic'
loop_
_space_group_symop_operation_xyz
x,y,z
-x,1/2+y,-z
-x,-y,-z
x,1/2-y,z
loop_
_atom_site_type_symbol
_atom_site_label
_atom_site_fract_x
_atom_site_fract_y
_atom_site_fract_z
Si Si1 0.163130 0.046128 0.341629
Si Si2 0.911404 0.556183 0.341329
Si Si3 0.520104 0.528571 0.809185
Si Si4 0.837540 0.675382 0.244004
Si Si5 0.511281 0.684499 0.588135
Si Si6 0.034503 0.690030 0.626112
Si Si7 0.687459 0.332468 0.789352
Si Si8 0.239339 0.933323 0.993041
O O1 0.992263 0.067589 0.169594
O O2 0.090891 0.068737 0.483284
O O3 0.428560 0.054677 0.336921
O O4 0.136047 0.981860 0.353164
O O5 0.695338 0.513998 0.262492
O O6 0.862991 0.611151 0.249813
O O7 0.457219 0.569105 0.923651
O O8 0.731603 0.490752 0.924256
O O9 0.932566 0.692150 0.431203
O O10 0.548858 0.689875 0.175045
O O11 0.042978 0.693041 0.172821
O O12 0.503453 0.750000 0.577211
O O13 0.799517 0.669292 0.664670
O O14 0.414933 0.663228 0.404635
O O15 0.310451 0.668129 0.665507
O O16 0.071292 0.750000 0.691055
O O17 0.739317 0.387994 0.881840
#
# Coordination Sequence:
#
# PCOD9158126 Si02
#       8
#     4   4   4   4   4   4   4   4
#     4  10  21  33  47  64  92 126 162 203 244 279
#     4  10  20  33  47  67  89 125 165 199 240 288
#     4  10  19  33  48  64  89 122 161 203 239 284
#     4  10  19  31  48  73  95 127 157 195 237 284
#     4   8  14  25  41  65  94 123 147 183 234 283
#     4   8  14  25  42  65  95 120 147 185 234 281
#     4  10  19  30  49  71  99 123 158 197 237 285
#     4  10  20  30  46  70  89 123 160 198 241 280
#
# _framework density 25.966100000000001
#
# number of rings (size 3 to 8) (size 9 to 14) (size 15 to 20)
#    0.000    2.500    1.250    1.500    1.750    0.000 
#    0.000    0.000    0.000    0.000    0.000    0.875 
#    0.000    1.000    0.000    0.500    0.000    0.000 
#
# Total GULP energy -178577.032697 kJ/mol
# GULP energy per Si atom -5580.532272 kJ/mol
# Density = 2.590700 g / cm^3
# Si number density = 25.966100 Si / 1000 Ang^3
#
#
#
# Elastic Constant Matrix: (Units=GPa)
#
#
# Indices 1 2 3 4 5 6 
#
# 1 215.7765 32.7380 46.1377 0.0000 -44.4304 0.0000
# 2 32.7380 111.8799 30.3836 0.0000 -4.5743 0.0000
# 3 46.1377 30.3836 62.2658 0.0000 -11.5620 0.0000
# 4 0.0000 0.0000 0.0000 -12.3285 0.0000 0.3281
# 5 -44.4304 -4.5743 -11.5620 0.0000 40.6174 0.0000
# 6 0.0000 0.0000 0.0000 0.3281 0.0000 10.6861
#
#
#
# Elastic Compliance Matrix: (Units=1/GPa)
#
#
# Indices 1 2 3 4 5 6 
#
# 1 0.006809 -0.000787 -0.003479 0.000000 0.006370 0.000000
# 2 -0.000787 0.010398 -0.004680 0.000000 -0.001023 0.000000
# 3 -0.003479 -0.004680 0.021240 0.000000 0.001714 0.000000
# 4 0.000000 0.000000 0.000000 -0.081047 0.000000 0.002488
# 5 0.006370 -0.001023 0.001714 0.000000 0.031960 0.000000
# 6 0.000000 0.000000 0.000000 0.002488 0.000000 0.093503
#
#
# Mechanical properties :
#
#
# Convention : Reuss Voigt Hill
#
# Bulk Modulus (GPa) = 48.65114 67.60453 58.12784
# Shear Modulus (GPa) = 46.46546 26.50587 36.48567
#
# Velocity S-wave (km/s) = 4.23480 3.19844 3.75257
# Velocity P-wave (km/s) = 6.53364 6.30335 6.41953
#
# Compressibility (1/GPa) = 0.02055450
#
# Stress axis : x y z
#
# Youngs Moduli (GPa) = 146.85938 96.17447 47.08159
#
# Poissons Ratio (x) = 0.07573 0.16377
# Poissons Ratio (y) = 0.11564 0.22035
# Poissons Ratio (z) = 0.51085 0.45011
#
# Static dielectric constant tensor:
#      x y z
#    x 2.244970 0.000000 -0.029770 
#    y 0.000000 1.983190 0.000000 
#    z -0.029770 0.000000 1.974780 
# 
# From -- ./inp_files/10852.got.cif
#   From: 2010.05.17/outbox.cif.g08.bks.cpg/sg11_6_cif.got.tgz:10852.got - 2010.06.03 12:22:45.
