data_PCOD9158074
_publ_section_title
;
Structure prediction by ZEFSAII (Michael W. Deem and Ramdas Pophale) SiO2 
 PCOD9158074
Probable space group: P 21/M
;
_chemical_formula_sum "Si O2"
_cell_formula_units_Z 32
_cell_length_a 14.166477
_cell_length_b 7.547285
_cell_length_c 21.442861
_cell_angle_alpha 90.000000
_cell_angle_beta 145.852734
_cell_angle_gamma 90.000000
_cell_volume 1286.907511
_symmetry_space_group_name_H-M "P 21/M"
_symmetry_group_IT_number 11
_symmetry_cell_setting 'monoclinic'
loop_
_space_group_symop_operation_xyz
x,y,z
-x,1/2+y,-z
-x,-y,-z
x,1/2-y,z
loop_
_atom_site_type_symbol
_atom_site_label
_atom_site_fract_x
_atom_site_fract_y
_atom_site_fract_z
Si Si1 0.636453 0.960353 0.475946
Si Si2 0.264676 0.532184 0.279288
Si Si3 0.583783 0.036311 0.301046
Si Si4 0.660775 0.948447 0.046162
Si Si5 0.904621 0.959035 0.085026
Si Si6 0.006721 0.966898 0.694443
Si Si7 0.787273 0.450800 0.889611
Si Si8 0.874656 0.460677 0.375758
O O1 0.635827 0.750000 0.486631
O O2 0.453710 0.028368 0.400108
O O3 0.813463 0.028223 0.600256
O O4 0.640372 0.985606 0.402550
O O5 0.268675 0.750000 0.282988
O O6 0.239213 0.471118 0.193612
O O7 0.085156 0.472042 0.209161
O O8 0.577291 0.250000 0.296330
O O9 0.701116 0.972001 0.309114
O O10 0.402435 0.958878 0.190516
O O11 0.614187 0.750000 0.001951
O O12 0.737324 0.038221 0.025537
O O13 0.833879 0.960737 0.180481
O O14 0.500000 0.000000 0.000000
O O15 0.906183 0.750000 0.099594
O O16 0.894539 0.972671 0.004729
O O17 0.009691 0.750000 0.700152
O O18 0.051650 0.025412 0.648534
O O19 0.842593 0.250000 0.912276
O O20 0.857717 0.250000 0.358709
O O21 0.000000 0.500000 0.500000
#
# Coordination Sequence:
#
# PCOD9158074 Si02
#       8
#     4   4   4   4   4   4   4   4
#     4   9  17  33  57  84 114 147 180 220 274 336
#     4   8  16  33  58  88 119 149 181 222 279 343
#     4  10  19  30  47  78 117 152 185 223 273 333
#     4  11  26  45  63  82 108 148 197 245 287 330
#     4  10  21  39  60  81 111 150 192 239 287 334
#     4  10  21  38  59  82 114 151 188 231 281 335
#     4  10  20  33  55  86 117 149 187 227 278 342
#     4  10  20  32  51  80 113 148 185 226 275 336
#
# _framework density 24.86581
#
# number of rings (size 3 to 8) (size 9 to 14) (size 15 to 20)
#    0.000    2.250    1.250    2.250    1.750    2.500 
#    0.000    3.125    0.000    0.000    0.000    0.000 
#    0.000    0.000    0.000    0.000    0.000    0.000 
#
# Total GULP energy -178449.282081 kJ/mol
# GULP energy per Si atom -5576.540065 kJ/mol
# Density = 2.480921 g / cm^3
# Si number density = 24.865810 Si / 1000 Ang^3
#
#
#
# Elastic Constant Matrix: (Units=GPa)
#
#
# Indices 1 2 3 4 5 6 
#
# 1 66.7324 8.9349 48.4242 0.0000 28.0297 0.0000
# 2 8.9349 54.4980 1.8497 0.0000 14.1907 0.0000
# 3 48.4242 1.8497 132.4322 0.0000 25.2152 0.0000
# 4 0.0000 0.0000 0.0000 23.9701 0.0000 0.0157
# 5 28.0297 14.1907 25.2152 0.0000 64.4357 0.0000
# 6 0.0000 0.0000 0.0000 0.0157 0.0000 7.2695
#
#
#
# Elastic Compliance Matrix: (Units=1/GPa)
#
#
# Indices 1 2 3 4 5 6 
#
# 1 0.023366 -0.001775 -0.007194 0.000000 -0.006958 0.000000
# 2 -0.001775 0.019643 0.001136 0.000000 -0.003998 0.000000
# 3 -0.007194 0.001136 0.010392 0.000000 -0.001187 0.000000
# 4 0.000000 0.000000 0.000000 0.041719 0.000000 -0.000090
# 5 -0.006958 -0.003998 -0.001187 0.000000 0.019891 0.000000
# 6 0.000000 0.000000 0.000000 -0.000090 0.000000 0.137561
#
#
# Mechanical properties :
#
#
# Convention : Reuss Voigt Hill
#
# Bulk Modulus (GPa) = 26.50106 41.34226 33.92166
# Shear Modulus (GPa) = 17.80527 32.09865 24.95196
#
# Velocity S-wave (km/s) = 2.67882 3.59677 3.17119
# Velocity P-wave (km/s) = 4.49988 5.82334 5.20385
#
# Compressibility (1/GPa) = 0.03773434
#
# Stress axis : x y z
#
# Youngs Moduli (GPa) = 42.79734 50.90910 96.22971
#
# Poissons Ratio (x) = 0.09036 0.69230
# Poissons Ratio (y) = 0.07596 -0.10931
# Poissons Ratio (z) = 0.30789 -0.05783
#
# Static dielectric constant tensor:
#      x y z
#    x 1.979050 0.000000 -0.082720 
#    y 0.000000 1.905430 0.000000 
#    z -0.082720 0.000000 1.826950 
# 
# From -- ./inp_files/69091.got.cif
#   From: 2010.05.17/outbox.cif.g08.bks.cpg/sg11_35_cif.got.tgz:69091.got - 2010.06.03 12:22:45.
