data_PCOD9158794
_publ_section_title
;
Structure prediction by ZEFSAII (Michael W. Deem and Ramdas Pophale) SiO2 
 PCOD9158794
Probable space group: P 21/M
;
_chemical_formula_sum "Si O2"
_cell_formula_units_Z 28
_cell_length_a 11.959021
_cell_length_b 7.621289
_cell_length_c 19.338405
_cell_angle_alpha 90.000000
_cell_angle_beta 55.131278
_cell_angle_gamma 90.000000
_cell_volume 1446.119852
_symmetry_space_group_name_H-M "P 21/M"
_symmetry_group_IT_number 11
_symmetry_cell_setting 'monoclinic'
loop_
_space_group_symop_operation_xyz
x,y,z
-x,1/2+y,-z
-x,-y,-z
x,1/2-y,z
loop_
_atom_site_type_symbol
_atom_site_label
_atom_site_fract_x
_atom_site_fract_y
_atom_site_fract_z
Si Si1 0.389657 0.458235 0.479313
Si Si2 0.097931 0.544941 0.181908
Si Si3 0.394007 0.034715 0.858710
Si Si4 0.817414 0.966101 0.339220
Si Si5 0.893642 0.958641 0.977244
Si Si6 0.598813 0.039052 0.900777
Si Si7 0.605021 0.954898 0.297808
O O1 0.500000 0.500000 0.500000
O O2 0.381666 0.250000 0.473169
O O3 0.249219 0.520315 0.564106
O O4 0.457098 0.531875 0.386217
O O5 0.104760 0.750000 0.198025
O O6 0.248460 0.468956 0.141817
O O7 0.969419 0.472097 0.269322
O O8 0.067449 0.533750 0.110938
O O9 0.394693 0.250000 0.857802
O O10 0.255724 0.979272 0.946216
O O11 0.523056 0.977305 0.858264
O O12 0.393109 0.971575 0.780015
O O13 0.815016 0.750000 0.339455
O O14 0.716842 0.026203 0.312498
O O15 0.887254 0.750000 0.971124
O O16 0.000000 0.000000 0.000000
O O17 0.607796 0.250000 0.894011
O O18 0.500000 0.000000 0.000000
O O19 0.638948 0.750000 0.278937
#
# Coordination Sequence:
#
# PCOD9158794 Si02
#       7
#     4   4   4   4   4   4   4
#     4   9  16  28  46  68  95 123 153 190 235 287
#     4  10  19  32  51  72  94 125 165 201 235 284
#     4   9  18  32  49  68  95 130 160 194 241 287
#     4   8  15  28  46  68  94 124 154 188 236 289
#     4  11  21  33  48  68  99 129 157 194 241 291
#     4  10  19  33  52  71  93 125 168 206 238 282
#     4   9  16  29  48  67  92 125 159 193 233 286
#
# _framework density 19.362157
#
# number of rings (size 3 to 8) (size 9 to 14) (size 15 to 20)
#    0.000    2.571    1.429    2.571    0.000    2.286 
#    0.000    8.571    0.000    0.857    0.000    0.000 
#    0.000    0.000    0.000    0.000    0.000    0.571 
#
# Total GULP energy -156128.283024 kJ/mol
# GULP energy per Si atom -5576.010108 kJ/mol
# Density = 1.931809 g / cm^3
# Si number density = 19.362157 Si / 1000 Ang^3
#
#
#
# Elastic Constant Matrix: (Units=GPa)
#
#
# Indices 1 2 3 4 5 6 
#
# 1 70.0127 0.0431 16.0144 0.0000 -28.8385 0.0000
# 2 0.0431 38.3942 -5.9337 0.0000 -0.8947 0.0000
# 3 16.0144 -5.9337 101.7877 0.0000 -32.3636 0.0000
# 4 0.0000 0.0000 0.0000 19.0010 0.0000 0.8029
# 5 -28.8385 -0.8947 -32.3636 0.0000 28.9713 0.0000
# 6 0.0000 0.0000 0.0000 0.8029 0.0000 7.5712
#
#
#
# Elastic Compliance Matrix: (Units=1/GPa)
#
#
# Indices 1 2 3 4 5 6 
#
# 1 0.026930 0.001831 0.006841 0.000000 0.034505 0.000000
# 2 0.001831 0.026696 0.003272 0.000000 0.006302 0.000000
# 3 0.006841 0.003272 0.017270 0.000000 0.026203 0.000000
# 4 0.000000 0.000000 0.000000 0.052866 0.000000 -0.005606
# 5 0.034505 0.006302 0.026203 0.000000 0.098329 0.000000
# 6 0.000000 0.000000 0.000000 -0.005606 0.000000 0.132675
#
#
# Mechanical properties :
#
#
# Convention : Reuss Voigt Hill
#
# Bulk Modulus (GPa) = 10.55037 25.60468 18.07752
# Shear Modulus (GPa) = 13.79415 24.44676 19.12045
#
# Velocity S-wave (km/s) = 2.67203 3.55717 3.14589
# Velocity P-wave (km/s) = 3.87046 5.48854 4.74892
#
# Compressibility (1/GPa) = 0.09478343
#
# Stress axis : x y z
#
# Youngs Moduli (GPa) = 37.13340 37.45872 57.90380
#
# Poissons Ratio (x) = -0.06859 -0.39610
# Poissons Ratio (y) = -0.06799 -0.18946
# Poissons Ratio (z) = -0.25402 -0.12256
#
# Static dielectric constant tensor:
#      x y z
#    x 1.660700 0.000000 -0.026340 
#    y 0.000000 1.736920 0.000000 
#    z -0.026340 0.000000 1.691080 
# 
# From -- ./inp_files/42318.got.cif
#   From: 2010.05.17/outbox.cif.g08.bks.cpg/sg11_22_cif.got.tgz:42318.got - 2010.06.03 12:22:45.
