data_PCOD9158789
_publ_section_title
;
Structure prediction by ZEFSAII (Michael W. Deem and Ramdas Pophale) SiO2 
 PCOD9158789
Probable space group: P 21/M
;
_chemical_formula_sum "Si O2"
_cell_formula_units_Z 28
_cell_length_a 23.457389
_cell_length_b 8.456120
_cell_length_c 19.419362
_cell_angle_alpha 90.000000
_cell_angle_beta 157.519516
_cell_angle_gamma 90.000000
_cell_volume 1472.882567
_symmetry_space_group_name_H-M "P 21/M"
_symmetry_group_IT_number 11
_symmetry_cell_setting 'monoclinic'
loop_
_space_group_symop_operation_xyz
x,y,z
-x,1/2+y,-z
-x,-y,-z
x,1/2-y,z
loop_
_atom_site_type_symbol
_atom_site_label
_atom_site_fract_x
_atom_site_fract_y
_atom_site_fract_z
Si Si1 0.165993 0.440389 0.167976
Si Si2 0.755464 0.559973 0.598165
Si Si3 0.193236 0.057088 0.902123
Si Si4 0.376734 0.437540 0.809302
Si Si5 0.476249 0.939211 0.772083
Si Si6 0.049640 0.939360 0.480967
Si Si7 0.088295 0.442042 0.935351
O O1 0.166693 0.250000 0.169814
O O2 0.262769 0.491632 0.341890
O O3 0.188005 0.489448 0.113206
O O4 0.000000 0.500000 0.000000
O O5 0.745455 0.750000 0.583208
O O6 0.635281 0.484860 0.413621
O O7 0.921648 0.508304 0.760310
O O8 0.193001 0.250000 0.902239
O O9 0.154418 0.005931 0.936264
O O10 0.066764 0.004884 0.707314
O O11 0.356636 0.006830 0.060004
O O12 0.370201 0.250000 0.807253
O O13 0.421414 0.486980 0.782187
O O14 0.215398 0.505932 0.648024
O O15 0.500000 0.500000 0.000000
O O16 0.477475 0.750000 0.781574
O O17 0.045932 0.750000 0.477405
O O18 0.000000 0.000000 0.500000
O O19 0.077893 0.250000 0.923334
#
# Coordination Sequence:
#
# PCOD9158789 Si02
#       7
#     4   4   4   4   4   4   4
#     4   8  15  27  48  75 105 137 177 226 278 332
#     4  10  19  32  50  79 112 143 180 228 280 335
#     4   9  20  36  56  79 106 140 185 232 276 326
#     4  12  25  42  63  89 117 148 185 230 281 338
#     4  11  22  38  57  80 110 148 189 230 274 330
#     4  11  22  39  62  89 118 151 188 232 282 335
#     4   9  16  32  56  79 102 139 185 232 282 334
#
# _framework density 19.010342000000001
#
# number of rings (size 3 to 8) (size 9 to 14) (size 15 to 20)
#    0.000    2.000    0.000    4.286    0.000    2.857 
#    0.000    5.000    0.000    0.000    0.000    0.000 
#    0.000    0.000    0.000    0.000    0.000    0.000 
#
# Total GULP energy -156295.764693 kJ/mol
# GULP energy per Si atom -5581.991596 kJ/mol
# Density = 1.896707 g / cm^3
# Si number density = 19.010342 Si / 1000 Ang^3
#
#
#
# Elastic Constant Matrix: (Units=GPa)
#
#
# Indices 1 2 3 4 5 6 
#
# 1 188.8701 23.7552 90.9225 0.0000 -15.5842 0.0000
# 2 23.7552 42.5423 15.9982 0.0000 -1.4303 0.0000
# 3 90.9225 15.9982 130.8778 0.0000 -10.1191 0.0000
# 4 0.0000 0.0000 0.0000 22.1176 0.0000 -0.5212
# 5 -15.5842 -1.4303 -10.1191 0.0000 36.4526 0.0000
# 6 0.0000 0.0000 0.0000 -0.5212 0.0000 25.1902
#
#
#
# Elastic Compliance Matrix: (Units=1/GPa)
#
#
# Indices 1 2 3 4 5 6 
#
# 1 0.008351 -0.002592 -0.005331 0.000000 0.001989 0.000000
# 2 -0.002592 0.025443 -0.001347 0.000000 -0.000484 0.000000
# 3 -0.005331 -0.001347 0.011577 0.000000 0.000882 0.000000
# 4 0.000000 0.000000 0.000000 0.045235 0.000000 0.000936
# 5 0.001989 -0.000484 0.000882 0.000000 0.028509 0.000000
# 6 0.000000 0.000000 0.000000 0.000936 0.000000 0.039717
#
#
# Mechanical properties :
#
#
# Convention : Reuss Voigt Hill
#
# Bulk Modulus (GPa) = 37.26873 69.29354 53.28114
# Shear Modulus (GPa) = 26.83607 32.19303 29.51455
#
# Velocity S-wave (km/s) = 3.76128 4.11962 3.94452
# Velocity P-wave (km/s) = 6.20564 7.69142 6.98813
#
# Compressibility (1/GPa) = 0.02683215
#
# Stress axis : x y z
#
# Youngs Moduli (GPa) = 119.74527 39.30283 86.37733
#
# Poissons Ratio (x) = 0.10185 0.46048
# Poissons Ratio (y) = 0.31032 0.11637
# Poissons Ratio (z) = 0.63837 0.05295
#
# Static dielectric constant tensor:
#      x y z
#    x 1.665800 0.000000 -0.027480 
#    y 0.000000 1.656600 0.000000 
#    z -0.027480 0.000000 1.631720 
# 
# From -- ./inp_files/66737.got.cif
#   From: 2010.05.17/outbox.cif.g08.bks.cpg/sg11_34_cif.got.tgz:66737.got - 2010.06.03 12:22:45.
