data_PCOD9158080
_publ_section_title
;
Structure prediction by ZEFSAII (Michael W. Deem and Ramdas Pophale) SiO2 
 PCOD9158080
Probable space group: P 21/M
;
_chemical_formula_sum "Si O2"
_cell_formula_units_Z 32
_cell_length_a 17.419343
_cell_length_b 7.864039
_cell_length_c 24.057364
_cell_angle_alpha 90.000000
_cell_angle_beta 148.394475
_cell_angle_gamma 90.000000
_cell_volume 1727.082724
_symmetry_space_group_name_H-M "P 21/M"
_symmetry_group_IT_number 11
_symmetry_cell_setting 'monoclinic'
loop_
_space_group_symop_operation_xyz
x,y,z
-x,1/2+y,-z
-x,-y,-z
x,1/2-y,z
loop_
_atom_site_type_symbol
_atom_site_label
_atom_site_fract_x
_atom_site_fract_y
_atom_site_fract_z
Si Si1 0.035065 0.547960 0.885165
Si Si2 0.814213 0.544596 0.321967
Si Si3 0.892245 0.041940 0.559507
Si Si4 0.649168 0.452020 0.330898
Si Si5 0.857177 0.954304 0.875894
Si Si6 0.321396 0.455506 0.132433
Si Si7 0.949586 0.545520 0.232744
Si Si8 0.662411 0.545977 0.116921
O O1 0.028389 0.750000 0.884104
O O2 0.020698 0.498723 0.812344
O O3 0.903239 0.480001 0.843421
O O4 0.192231 0.499890 0.009338
O O5 0.814409 0.750000 0.324755
O O6 0.752975 0.478691 0.341901
O O7 0.706520 0.488185 0.205772
O O8 0.975826 0.491990 0.401117
O O9 0.890867 0.250000 0.559055
O O10 0.739109 0.981433 0.439646
O O11 0.938360 0.986452 0.649911
O O12 0.633148 0.250000 0.329054
O O13 0.484838 0.519637 0.220120
O O14 0.841322 0.750000 0.862581
O O15 0.726330 0.015671 0.834995
O O16 0.000000 0.000000 0.000000
O O17 0.323589 0.250000 0.134243
O O18 0.948465 0.750000 0.235336
O O19 0.788414 0.483695 0.152571
O O20 0.672518 0.750000 0.123725
O O21 0.500000 0.500000 0.000000
#
# Coordination Sequence:
#
# PCOD9158080 Si02
#       8
#     4   4   4   4   4   4   4   4
#     4  10  19  30  48  72  95 120 154 190 227 277
#     4   9  18  32  47  65  91 123 154 189 234 271
#     4   8  16  33  51  66  89 122 160 194 225 266
#     4  10  19  30  49  73  92 117 156 196 227 270
#     4   8  15  29  46  65  92 123 149 181 226 275
#     4   9  18  31  47  70  98 123 149 184 232 281
#     4   9  18  33  50  66  89 123 158 190 227 270
#     4   9  19  32  45  62  89 124 154 184 226 271
#
# _framework density 18.528354
#
# number of rings (size 3 to 8) (size 9 to 14) (size 15 to 20)
#    0.000    3.000    0.000    2.250    1.750    2.000 
#    0.000    2.500    0.000    0.750    0.000    0.000 
#    0.000    0.000    0.000    0.000    0.000    0.625 
#
# Total GULP energy -178193.297915 kJ/mol
# GULP energy per Si atom -5568.540560 kJ/mol
# Density = 1.848618 g / cm^3
# Si number density = 18.528354 Si / 1000 Ang^3
#
#
#
# Elastic Constant Matrix: (Units=GPa)
#
#
# Indices 1 2 3 4 5 6 
#
# 1 108.5280 2.6823 48.8019 0.0000 -28.8093 0.0000
# 2 2.6823 17.9236 5.4334 0.0000 1.0844 0.0000
# 3 48.8019 5.4334 72.6470 0.0000 -10.0328 0.0000
# 4 0.0000 0.0000 0.0000 7.7223 0.0000 0.3008
# 5 -28.8093 1.0844 -10.0328 0.0000 19.7735 0.0000
# 6 0.0000 0.0000 0.0000 0.3008 0.0000 17.0663
#
#
#
# Elastic Compliance Matrix: (Units=1/GPa)
#
#
# Indices 1 2 3 4 5 6 
#
# 1 0.020338 -0.001448 -0.010163 0.000000 0.024555 0.000000
# 2 -0.001448 0.057793 -0.004386 0.000000 -0.007505 0.000000
# 3 -0.010163 -0.004386 0.020334 0.000000 -0.004250 0.000000
# 4 0.000000 0.000000 0.000000 0.129585 0.000000 -0.002284
# 5 0.024555 -0.007505 -0.004250 0.000000 0.084604 0.000000
# 6 0.000000 0.000000 0.000000 -0.002284 0.000000 0.058635
#
#
# Mechanical properties :
#
#
# Convention : Reuss Voigt Hill
#
# Bulk Modulus (GPa) = 15.04444 34.77041 24.90743
# Shear Modulus (GPa) = 11.75253 18.39114 15.07184
#
# Velocity S-wave (km/s) = 2.52126 3.15396 2.85519
# Velocity P-wave (km/s) = 4.07591 5.66305 4.93372
#
# Compressibility (1/GPa) = 0.06646973
#
# Stress axis : x y z
#
# Youngs Moduli (GPa) = 49.16825 17.30319 49.17967
#
# Poissons Ratio (x) = 0.02506 0.49982
# Poissons Ratio (y) = 0.07122 0.21570
# Poissons Ratio (z) = 0.49971 0.07589
#
# Static dielectric constant tensor:
#      x y z
#    x 1.680400 0.000000 0.000460 
#    y 0.000000 1.685490 0.000000 
#    z 0.000460 0.000000 1.640240 
# 
# From -- ./inp_files/43783.got.cif
#   From: 2010.05.17/outbox.cif.g08.bks.cpg/sg11_22_cif.got.tgz:43783.got - 2010.06.03 12:22:45.
