data_PCOD9158193
_publ_section_title
;
Structure prediction by ZEFSAII (Michael W. Deem and Ramdas Pophale) SiO2 
 PCOD9158193
Probable space group: P 21/M
;
_chemical_formula_sum "Si O2"
_cell_formula_units_Z 32
_cell_length_a 20.607100
_cell_length_b 9.038404
_cell_length_c 25.586540
_cell_angle_alpha 90.000000
_cell_angle_beta 23.324039
_cell_angle_gamma 90.000000
_cell_volume 1886.859179
_symmetry_space_group_name_H-M "P 21/M"
_symmetry_group_IT_number 11
_symmetry_cell_setting 'monoclinic'
loop_
_space_group_symop_operation_xyz
x,y,z
-x,1/2+y,-z
-x,-y,-z
x,1/2-y,z
loop_
_atom_site_type_symbol
_atom_site_label
_atom_site_fract_x
_atom_site_fract_y
_atom_site_fract_z
Si Si1 0.327383 0.571713 0.641212
Si Si2 0.820851 0.427003 0.136490
Si Si3 0.007051 0.926835 0.816261
Si Si4 0.827960 0.072087 0.640729
Si Si5 0.500778 0.572279 0.172783
Si Si6 0.208754 0.926713 0.107888
Si Si7 0.708413 0.925811 0.117020
Si Si8 0.678229 0.072115 0.862806
O O1 0.500000 0.500000 0.500000
O O2 0.340764 0.750000 0.629488
O O3 0.264455 0.531675 0.745754
O O4 0.184127 0.527891 0.706583
O O5 0.838752 0.250000 0.122185
O O6 0.718224 0.483682 0.162833
O O7 0.000000 0.500000 0.000000
O O8 0.005696 0.750000 0.808835
O O9 0.942957 0.006698 0.811930
O O10 0.872230 0.955692 0.961460
O O11 0.844497 0.250000 0.628154
O O12 0.683161 0.032672 0.707154
O O13 0.764378 0.026938 0.745247
O O14 0.000000 0.000000 0.500000
O O15 0.520719 0.750000 0.151180
O O16 0.558457 0.538299 0.189017
O O17 0.628773 0.493343 0.039557
O O18 0.210050 0.750000 0.101618
O O19 0.217700 0.964975 0.162446
O O20 0.706358 0.750000 0.129855
O O21 0.657798 0.250000 0.876450
O O22 0.500000 0.000000 0.000000
#
# Coordination Sequence:
#
# PCOD9158193 Si02
#       8
#     4   4   4   4   4   4   4   4
#     4  10  22  39  56  78 108 143 182 220 265 320
#     4  11  21  35  55  81 110 139 177 223 267 315
#     4   9  18  35  54  75 109 145 174 214 266 319
#     4  10  21  37  55  77 107 146 182 219 268 320
#     4   9  18  34  54  75 107 145 177 215 267 319
#     4  10  19  30  51  84 110 132 174 226 267 312
#     4   9  17  32  54  80 107 136 175 224 266 311
#     4  10  20  34  54  80 109 138 177 225 268 314
#
# _framework density 16.959399999999999
#
# number of rings (size 3 to 8) (size 9 to 14) (size 15 to 20)
#    0.000    2.250    2.500    1.500    0.000    5.000 
#    0.000    1.250    0.000    6.000    0.000    0.000 
#    0.000    0.000    0.000    0.000    0.000    0.000 
#
# Total GULP energy -178516.250578 kJ/mol
# GULP energy per Si atom -5578.632831 kJ/mol
# Density = 1.692080 g / cm^3
# Si number density = 16.959400 Si / 1000 Ang^3
#
#
#
# Elastic Constant Matrix: (Units=GPa)
#
#
# Indices 1 2 3 4 5 6 
#
# 1 165.3745 52.4487 92.0919 0.0000 -19.5374 0.0000
# 2 52.4487 27.5996 41.0848 0.0000 -4.3602 0.0000
# 3 92.0919 41.0848 132.3776 0.0000 -14.4456 0.0000
# 4 0.0000 0.0000 0.0000 30.2774 0.0000 -2.6430
# 5 -19.5374 -4.3602 -14.4456 0.0000 27.6170 0.0000
# 6 0.0000 0.0000 0.0000 -2.6430 0.0000 29.7451
#
#
#
# Elastic Compliance Matrix: (Units=1/GPa)
#
#
# Indices 1 2 3 4 5 6 
#
# 1 0.016851 -0.027138 -0.002616 0.000000 0.006268 0.000000
# 2 -0.027138 0.111055 -0.016724 0.000000 -0.010413 0.000000
# 3 -0.002616 -0.016724 0.014927 0.000000 0.003316 0.000000
# 4 0.000000 0.000000 0.000000 0.033286 0.000000 0.002958
# 5 0.006268 -0.010413 0.003316 0.000000 0.040735 0.000000
# 6 0.000000 0.000000 0.000000 0.002958 0.000000 0.033882
#
#
# Mechanical properties :
#
#
# Convention : Reuss Voigt Hill
#
# Bulk Modulus (GPa) = 20.04984 77.40029 48.72507
# Shear Modulus (GPa) = 13.87660 26.84298 20.35979
#
# Velocity S-wave (km/s) = 2.86357 3.98273 3.46858
# Velocity P-wave (km/s) = 4.77297 8.17846 6.69584
#
# Compressibility (1/GPa) = 0.04987570
#
# Stress axis : x y z
#
# Youngs Moduli (GPa) = 59.34230 9.00452 66.99424
#
# Poissons Ratio (x) = 0.24437 0.17528
# Poissons Ratio (y) = 1.61046 1.12041
# Poissons Ratio (z) = 0.15526 0.15059
#
# Static dielectric constant tensor:
#      x y z
#    x 1.592540 0.000000 -0.013760 
#    y 0.000000 1.565820 0.000000 
#    z -0.013760 0.000000 1.537950 
# 
# From -- ./inp_files/71991.got.cif
#   From: 2010.05.17/outbox.cif.g08.bks.cpg/sg11_36_cif.got.tgz:71991.got - 2010.06.03 12:22:45.
