data_PCOD9158544
_publ_section_title
;
Structure prediction by ZEFSAII (Michael W. Deem and Ramdas Pophale) SiO2 
 PCOD9158544
Probable space group: P 21/M
;
_chemical_formula_sum "Si O2"
_cell_formula_units_Z 32
_cell_length_a 28.068923
_cell_length_b 8.734678
_cell_length_c 15.858082
_cell_angle_alpha 90.000000
_cell_angle_beta 28.384588
_cell_angle_gamma 90.000000
_cell_volume 1848.294344
_symmetry_space_group_name_H-M "P 21/M"
_symmetry_group_IT_number 11
_symmetry_cell_setting 'monoclinic'
loop_
_space_group_symop_operation_xyz
x,y,z
-x,1/2+y,-z
-x,-y,-z
x,1/2-y,z
loop_
_atom_site_type_symbol
_atom_site_label
_atom_site_fract_x
_atom_site_fract_y
_atom_site_fract_z
Si Si1 0.885617 0.433477 0.789137
Si Si2 0.148099 0.434385 0.811814
Si Si3 0.224986 0.432273 0.201099
Si Si4 0.040919 0.067404 0.803522
Si Si5 0.417928 0.935014 0.819206
Si Si6 0.316201 0.932406 0.800554
Si Si7 0.639906 0.565965 0.449166
Si Si8 0.088125 0.931986 0.549656
O O1 0.897049 0.250000 0.766059
O O2 0.844436 0.496038 0.764698
O O3 0.988481 0.509504 0.656906
O O4 0.797903 0.467157 0.993750
O O5 0.141771 0.250000 0.832306
O O6 0.110712 0.469213 0.775558
O O7 0.261071 0.485095 0.655166
O O8 0.069775 0.511440 0.997669
O O9 0.218955 0.250000 0.206447
O O10 0.181949 0.493112 0.355915
O O11 0.337038 0.488516 0.006084
O O12 0.039875 0.250000 0.792479
O O13 0.077611 0.986438 0.662067
O O14 0.410062 0.750000 0.839816
O O15 0.383867 0.972409 0.776323
O O16 0.532501 0.985400 0.651811
O O17 0.323696 0.750000 0.776099
O O18 0.347935 0.015427 0.666441
O O19 0.638106 0.750000 0.454347
O O20 0.094063 0.750000 0.535234
#
# Coordination Sequence:
#
# PCOD9158544 Si02
#       8
#     4   4   4   4   4   4   4   4
#     4  10  20  35  52  75 107 139 171 208 251 298
#     4   9  19  35  54  78 106 135 168 208 257 308
#     4  11  22  36  53  74 101 135 173 212 253 297
#     4  10  20  35  54  77 106 136 167 208 256 306
#     4   9  19  35  50  69 101 138 173 211 255 297
#     4   9  18  30  46  71 104 137 167 203 246 296
#     4  10  19  31  51  75 100 133 172 212 253 301
#     4  12  23  35  53  76 102 134 172 211 253 304
#
# _framework density 17.31326
#
# number of rings (size 3 to 8) (size 9 to 14) (size 15 to 20)
#    0.000    2.000    0.000    5.250    0.000    6.000 
#    0.000    0.000    0.000    0.750    0.000    0.000 
#    0.000    0.000    0.000    0.000    0.000    0.000 
#
# Total GULP energy -178727.069094 kJ/mol
# GULP energy per Si atom -5585.220909 kJ/mol
# Density = 1.727385 g / cm^3
# Si number density = 17.313260 Si / 1000 Ang^3
#
#
#
# Elastic Constant Matrix: (Units=GPa)
#
#
# Indices 1 2 3 4 5 6 
#
# 1 58.5462 25.5838 72.7401 0.0000 -6.4250 0.0000
# 2 25.5838 50.2580 43.8754 0.0000 2.2081 0.0000
# 3 72.7401 43.8754 138.5465 0.0000 -5.5618 0.0000
# 4 0.0000 0.0000 0.0000 29.5936 0.0000 3.8397
# 5 -6.4250 2.2081 -5.5618 0.0000 29.0097 0.0000
# 6 0.0000 0.0000 0.0000 3.8397 0.0000 22.4811
#
#
#
# Elastic Compliance Matrix: (Units=1/GPa)
#
#
# Indices 1 2 3 4 5 6 
#
# 1 0.050832 -0.004302 -0.025053 0.000000 0.006783 0.000000
# 2 -0.004302 0.028285 -0.006876 0.000000 -0.004424 0.000000
# 3 -0.025053 -0.006876 0.022520 0.000000 -0.000708 0.000000
# 4 0.000000 0.000000 0.000000 0.034557 0.000000 -0.005902
# 5 0.006783 -0.004424 -0.000708 0.000000 0.036174 0.000000
# 6 0.000000 0.000000 0.000000 -0.005902 0.000000 0.045490
#
#
# Mechanical properties :
#
#
# Convention : Reuss Voigt Hill
#
# Bulk Modulus (GPa) = 34.27740 59.08326 46.68033
# Shear Modulus (GPa) = 16.66411 23.22697 19.94554
#
# Velocity S-wave (km/s) = 3.10579 3.66672 3.39785
# Velocity P-wave (km/s) = 5.71862 7.21987 6.51265
#
# Compressibility (1/GPa) = 0.02917374
#
# Stress axis : x y z
#
# Youngs Moduli (GPa) = 19.67266 35.35489 44.40428
#
# Poissons Ratio (x) = 0.15211 1.11247
# Poissons Ratio (y) = 0.08464 0.30532
# Poissons Ratio (z) = 0.49286 0.24310
#
# Static dielectric constant tensor:
#      x y z
#    x 1.576490 0.000000 -0.015220 
#    y 0.000000 1.573390 0.000000 
#    z -0.015220 0.000000 1.588360 
# 
# From -- ./inp_files/51698.got.cif
#   From: 2010.05.17/outbox.cif.g08.bks.cpg/sg11_26_cif.got.tgz:51698.got - 2010.06.03 12:22:45.
