data_PCOD9158888
_publ_section_title
;
Structure prediction by ZEFSAII (Michael W. Deem and Ramdas Pophale) SiO2 
 PCOD9158888
Probable space group: P 21/M
;
_chemical_formula_sum "Si O2"
_cell_formula_units_Z 28
_cell_length_a 13.330920
_cell_length_b 8.197000
_cell_length_c 13.478014
_cell_angle_alpha 90.000000
_cell_angle_beta 112.018531
_cell_angle_gamma 90.000000
_cell_volume 1365.369018
_symmetry_space_group_name_H-M "P 21/M"
_symmetry_group_IT_number 11
_symmetry_cell_setting 'monoclinic'
loop_
_space_group_symop_operation_xyz
x,y,z
-x,1/2+y,-z
-x,-y,-z
x,1/2-y,z
loop_
_atom_site_type_symbol
_atom_site_label
_atom_site_fract_x
_atom_site_fract_y
_atom_site_fract_z
Si Si1 0.892678 0.052740 0.403293
Si Si2 0.129410 0.945301 0.198434
Si Si3 0.105020 0.947316 0.822916
Si Si4 0.336022 0.062544 0.373227
Si Si5 0.465063 0.939402 0.236904
Si Si6 0.331789 0.558541 0.587135
Si Si7 0.740501 0.051348 0.950558
O O1 0.889479 0.250000 0.400446
O O2 0.892831 0.994676 0.289559
O O3 0.784014 0.996531 0.418250
O O4 0.000000 0.000000 0.500000
O O5 0.136588 0.750000 0.209946
O O6 0.178999 0.993731 0.110060
O O7 0.209192 0.024740 0.309042
O O8 0.007098 0.999618 0.168440
O O9 0.107321 0.750000 0.822887
O O10 0.205793 0.003687 0.927363
O O11 0.359635 0.250000 0.357891
O O12 0.399176 0.954804 0.316293
O O13 0.364815 0.026784 0.496994
O O14 0.487872 0.750000 0.225869
O O15 0.379859 0.004365 0.123810
O O16 0.576843 0.030940 0.296284
O O17 0.322923 0.750000 0.561986
O O18 0.736043 0.250000 0.949256
#
# Coordination Sequence:
#
# PCOD9158888 Si02
#       7
#     4   4   4   4   4   4   4
#     4  10  23  39  57  78 105 138 177 220 264 310
#     4  10  19  32  51  81 114 143 172 215 269 321
#     4  10  19  35  56  78 103 141 184 222 263 313
#     4  11  21  34  54  81 109 142 178 218 264 318
#     4  10  20  36  56  81 109 140 174 216 265 318
#     4  11  22  37  54  77 108 143 178 220 266 314
#     4   8  17  33  54  78 108 139 174 217 264 314
#
# _framework density 20.507276000000001
#
# number of rings (size 3 to 8) (size 9 to 14) (size 15 to 20)
#    0.000    2.000    0.000    5.143    0.000    4.000 
#    0.000    4.286    0.000    0.000    0.000    0.000 
#    0.000    0.000    0.000    0.000    0.000    0.000 
#
# Total GULP energy -156415.497276 kJ/mol
# GULP energy per Si atom -5586.267760 kJ/mol
# Density = 2.046060 g / cm^3
# Si number density = 20.507276 Si / 1000 Ang^3
#
#
#
# Elastic Constant Matrix: (Units=GPa)
#
#
# Indices 1 2 3 4 5 6 
#
# 1 59.4112 -8.3477 34.3714 0.0000 23.0683 0.0000
# 2 -8.3477 23.6945 -0.8444 0.0000 -4.7785 0.0000
# 3 34.3714 -0.8444 148.2221 0.0000 18.3616 0.0000
# 4 0.0000 0.0000 0.0000 22.6394 0.0000 8.2812
# 5 23.0683 -4.7785 18.3616 0.0000 30.0049 0.0000
# 6 0.0000 0.0000 0.0000 8.2812 0.0000 17.8640
#
#
#
# Elastic Compliance Matrix: (Units=1/GPa)
#
#
# Indices 1 2 3 4 5 6 
#
# 1 0.026598 0.005785 -0.004021 0.000000 -0.017067 0.000000
# 2 0.005785 0.044923 -0.001537 0.000000 0.003647 0.000000
# 3 -0.004021 -0.001537 0.007918 0.000000 -0.001999 0.000000
# 4 0.000000 0.000000 0.000000 0.053190 0.000000 -0.024657
# 5 -0.017067 0.003647 -0.001999 0.000000 0.048254 0.000000
# 6 0.000000 0.000000 0.000000 -0.024657 0.000000 0.067409
#
#
# Mechanical properties :
#
#
# Convention : Reuss Voigt Hill
#
# Bulk Modulus (GPa) = 12.51679 31.29849 21.90764
# Shear Modulus (GPa) = 18.21711 27.84488 23.03099
#
# Velocity S-wave (km/s) = 2.98371 3.68884 3.35485
# Velocity P-wave (km/s) = 4.24109 5.78262 5.07077
#
# Compressibility (1/GPa) = 0.07989268
#
# Stress axis : x y z
#
# Youngs Moduli (GPa) = 37.59750 22.26038 126.29688
#
# Poissons Ratio (x) = -0.12878 0.50778
# Poissons Ratio (y) = -0.21751 0.19418
# Poissons Ratio (z) = 0.15116 0.03422
#
# Static dielectric constant tensor:
#      x y z
#    x 1.712230 0.000000 0.017600 
#    y 0.000000 1.709000 0.000000 
#    z 0.017600 0.000000 1.746170 
# 
# From -- ./inp_files/49068.got.cif
#   From: 2010.05.17/outbox.cif.g08.bks.cpg/sg11_25_cif.got.tgz:49068.got - 2010.06.03 12:22:45.
