data_PCOD9158105
_publ_section_title
;
Structure prediction by ZEFSAII (Michael W. Deem and Ramdas Pophale) SiO2 
 PCOD9158105
Probable space group: P 21/M
;
_chemical_formula_sum "Si O2"
_cell_formula_units_Z 32
_cell_length_a 16.538326
_cell_length_b 8.580960
_cell_length_c 25.129783
_cell_angle_alpha 90.000000
_cell_angle_beta 152.880402
_cell_angle_gamma 90.000000
_cell_volume 1625.689237
_symmetry_space_group_name_H-M "P 21/M"
_symmetry_group_IT_number 11
_symmetry_cell_setting 'monoclinic'
loop_
_space_group_symop_operation_xyz
x,y,z
-x,1/2+y,-z
-x,-y,-z
x,1/2-y,z
loop_
_atom_site_type_symbol
_atom_site_label
_atom_site_fract_x
_atom_site_fract_y
_atom_site_fract_z
Si Si1 0.415585 0.063656 0.396147
Si Si2 0.312613 0.068263 0.819386
Si Si3 0.663518 0.061641 0.969373
Si Si4 0.054314 0.062893 0.233604
Si Si5 0.961126 0.436243 0.660842
Si Si6 0.614639 0.565686 0.409827
Si Si7 0.153407 0.573559 0.624136
Si Si8 0.520959 0.925309 0.777670
O O1 0.439994 0.250000 0.407786
O O2 0.205999 0.029031 0.279327
O O3 0.500000 0.000000 0.500000
O O4 0.506877 0.988140 0.398705
O O5 0.338479 0.250000 0.847438
O O6 0.507229 0.002270 0.918149
O O7 0.164796 0.002396 0.773310
O O8 0.205752 0.042407 0.702023
O O9 0.653619 0.250000 0.964317
O O10 0.627741 0.007383 0.888008
O O11 0.858259 0.012474 0.101554
O O12 0.053300 0.250000 0.240953
O O13 0.100817 0.985037 0.316927
O O14 0.966529 0.250000 0.659075
O O15 0.814587 0.497684 0.533368
O O16 0.630869 0.750000 0.418082
O O17 0.508549 0.509167 0.295658
O O18 0.112872 0.750000 0.619757
O O19 0.324650 0.584370 0.687346
O O20 0.000000 0.500000 0.500000
O O21 0.589309 0.750000 0.809272
#
# Coordination Sequence:
#
# PCOD9158105 Si02
#       8
#     4   4   4   4   4   4   4   4
#     4  11  22  39  62  89 118 149 186 233 290 349
#     4   9  19  34  52  77 111 151 191 231 278 330
#     4   9  19  39  61  82 114 155 196 235 277 336
#     4  10  22  39  61  86 114 150 191 235 287 345
#     4  11  22  35  55  85 119 153 192 239 288 340
#     4  12  24  38  59  87 117 151 191 238 293 346
#     4  10  19  30  48  74 106 145 188 233 282 334
#     4  10  21  37  56  82 114 149 190 237 286 338
#
# _framework density 19.683959000000002
#
# number of rings (size 3 to 8) (size 9 to 14) (size 15 to 20)
#    0.000    1.750    1.250    3.375    0.000    7.000 
#    0.000    0.625    0.000    0.000    0.000    0.000 
#    0.000    0.000    0.000    0.000    0.000    0.000 
#
# Total GULP energy -178536.009988 kJ/mol
# GULP energy per Si atom -5579.250312 kJ/mol
# Density = 1.963916 g / cm^3
# Si number density = 19.683959 Si / 1000 Ang^3
#
#
#
# Elastic Constant Matrix: (Units=GPa)
#
#
# Indices 1 2 3 4 5 6 
#
# 1 81.8677 14.8229 12.6582 0.0000 7.9619 0.0000
# 2 14.8229 40.7742 10.5381 0.0000 6.6336 0.0000
# 3 12.6582 10.5381 67.1146 0.0000 19.2087 0.0000
# 4 0.0000 0.0000 0.0000 18.9872 0.0000 -5.6956
# 5 7.9619 6.6336 19.2087 0.0000 24.8599 0.0000
# 6 0.0000 0.0000 0.0000 -5.6956 0.0000 9.8915
#
#
#
# Elastic Compliance Matrix: (Units=1/GPa)
#
#
# Indices 1 2 3 4 5 6 
#
# 1 0.013379 -0.004185 -0.001232 0.000000 -0.002216 0.000000
# 2 -0.004185 0.027321 -0.002308 0.000000 -0.004167 0.000000
# 3 -0.001232 -0.002308 0.019523 0.000000 -0.014075 0.000000
# 4 0.000000 0.000000 0.000000 0.063663 0.000000 0.036658
# 5 -0.002216 -0.004167 -0.014075 0.000000 0.052922 0.000000
# 6 0.000000 0.000000 0.000000 0.036658 0.000000 0.122204
#
#
# Mechanical properties :
#
#
# Convention : Reuss Voigt Hill
#
# Bulk Modulus (GPa) = 22.33479 29.53276 25.93377
# Shear Modulus (GPa) = 15.17977 20.86356 18.02167
#
# Velocity S-wave (km/s) = 2.78002 3.25918 3.02909
# Velocity P-wave (km/s) = 4.65575 5.40362 5.04356
#
# Compressibility (1/GPa) = 0.04477320
#
# Stress axis : x y z
#
# Youngs Moduli (GPa) = 74.74674 36.60197 51.22198
#
# Poissons Ratio (x) = 0.15317 0.06310
# Poissons Ratio (y) = 0.31279 0.11822
# Poissons Ratio (z) = 0.09208 0.08448
#
# Static dielectric constant tensor:
#      x y z
#    x 1.686110 0.000000 0.081530 
#    y 0.000000 1.697100 0.000000 
#    z 0.081530 0.000000 1.583880 
# 
# From -- ./inp_files/69158.got.cif
#   From: 2010.05.17/outbox.cif.g08.bks.cpg/sg11_35_cif.got.tgz:69158.got - 2010.06.03 12:22:45.
