data_PCOD9158034
_publ_section_title
;
Structure prediction by ZEFSAII (Michael W. Deem and Ramdas Pophale) SiO2 
 PCOD9158034
Probable space group: P 21/M
;
_chemical_formula_sum "Si O2"
_cell_formula_units_Z 32
_cell_length_a 12.917281
_cell_length_b 7.586401
_cell_length_c 24.288973
_cell_angle_alpha 90.000000
_cell_angle_beta 137.389482
_cell_angle_gamma 90.000000
_cell_volume 1611.431447
_symmetry_space_group_name_H-M "P 21/M"
_symmetry_group_IT_number 11
_symmetry_cell_setting 'monoclinic'
loop_
_space_group_symop_operation_xyz
x,y,z
-x,1/2+y,-z
-x,-y,-z
x,1/2-y,z
loop_
_atom_site_type_symbol
_atom_site_label
_atom_site_fract_x
_atom_site_fract_y
_atom_site_fract_z
Si Si1 0.532551 0.966103 0.774013
Si Si2 0.175689 0.466055 0.307407
Si Si3 0.537825 0.956905 0.652660
Si Si4 0.654313 0.047246 0.990595
Si Si5 0.642643 0.048473 0.190977
Si Si6 0.168457 0.533258 0.834269
Si Si7 0.649318 0.541352 0.521585
Si Si8 0.833006 0.959314 0.957106
O O1 0.525597 0.750000 0.772294
O O2 0.512098 0.028499 0.703675
O O3 0.409787 0.030008 0.771258
O O4 0.699875 0.015713 0.862585
O O5 0.180547 0.250000 0.309230
O O6 0.311862 0.528367 0.320345
O O7 0.214978 0.522364 0.385525
O O8 0.006221 0.519577 0.224094
O O9 0.568983 0.750000 0.672008
O O10 0.393435 0.972197 0.555261
O O11 0.607402 0.250000 0.980008
O O12 0.511709 0.951698 0.906585
O O13 0.791254 0.041209 0.999631
O O14 0.717782 0.975409 0.072759
O O15 0.688761 0.250000 0.219937
O O16 0.770829 0.971162 0.201215
O O17 0.172597 0.750000 0.836363
O O18 0.500000 0.500000 0.500000
O O19 0.665000 0.750000 0.522050
O O20 0.819080 0.750000 0.958407
O O21 0.000000 0.000000 0.000000
#
# Coordination Sequence:
#
# PCOD9158034 Si02
#       8
#     4   4   4   4   4   4   4   4
#     4   8  16  29  47  67  87 120 157 190 226 273
#     4   8  15  26  43  67  90 114 149 187 228 276
#     4   9  16  28  48  68  89 118 153 188 225 280
#     4  10  19  30  47  69  92 123 161 197 238 282
#     4   9  17  32  49  66  91 121 162 204 235 271
#     4   9  17  28  47  70  90 120 161 201 233 277
#     4   9  16  28  46  67  93 120 147 183 228 280
#     4  10  20  33  48  67  96 129 159 194 236 280
#
# _framework density 19.858122000000002
#
# number of rings (size 3 to 8) (size 9 to 14) (size 15 to 20)
#    0.000    3.000    0.000    3.000    1.750    0.000 
#    0.000    3.750    0.000    6.750    0.000    0.000 
#    0.000    0.000    0.000    0.000    0.000    0.500 
#
# Total GULP energy -178333.477917 kJ/mol
# GULP energy per Si atom -5572.921185 kJ/mol
# Density = 1.981292 g / cm^3
# Si number density = 19.858122 Si / 1000 Ang^3
#
#
#
# Elastic Constant Matrix: (Units=GPa)
#
#
# Indices 1 2 3 4 5 6 
#
# 1 82.0708 2.2863 35.8987 0.0000 -30.0574 0.0000
# 2 2.2863 45.4378 0.0122 0.0000 -2.8156 0.0000
# 3 35.8987 0.0122 70.0767 0.0000 -35.4150 0.0000
# 4 0.0000 0.0000 0.0000 14.6698 0.0000 -2.1057
# 5 -30.0574 -2.8156 -35.4150 0.0000 33.6159 0.0000
# 6 0.0000 0.0000 0.0000 -2.1057 0.0000 7.3373
#
#
#
# Elastic Compliance Matrix: (Units=1/GPa)
#
#
# Indices 1 2 3 4 5 6 
#
# 1 0.018299 -0.000061 -0.002369 0.000000 0.013861 0.000000
# 2 -0.000061 0.022254 0.002014 0.000000 0.003931 0.000000
# 3 -0.002369 0.002014 0.031007 0.000000 0.030716 0.000000
# 4 0.000000 0.000000 0.000000 0.071096 0.000000 0.020404
# 5 0.013861 0.003931 0.030716 0.000000 0.074831 0.000000
# 6 0.000000 0.000000 0.000000 0.020404 0.000000 0.142145
#
#
# Mechanical properties :
#
#
# Convention : Reuss Voigt Hill
#
# Bulk Modulus (GPa) = 14.13885 30.44222 22.29054
# Shear Modulus (GPa) = 13.01948 21.75048 17.38498
#
# Velocity S-wave (km/s) = 2.56330 3.31311 2.96203
# Velocity P-wave (km/s) = 3.98698 5.47711 4.79034
#
# Compressibility (1/GPa) = 0.07072710
#
# Stress axis : x y z
#
# Youngs Moduli (GPa) = 54.64801 44.93526 32.25104
#
# Poissons Ratio (x) = 0.00275 0.07641
# Poissons Ratio (y) = 0.00335 -0.06496
# Poissons Ratio (z) = 0.12948 -0.09051
#
# Static dielectric constant tensor:
#      x y z
#    x 1.709900 0.000000 -0.021350 
#    y 0.000000 1.758200 0.000000 
#    z -0.021350 0.000000 1.693960 
# 
# From -- ./inp_files/54282.got.cif
#   From: 2010.05.17/outbox.cif.g08.bks.cpg/sg11_28_cif.got.tgz:54282.got - 2010.06.03 12:22:45.
