data_PCOD9158031
_publ_section_title
;
Structure prediction by ZEFSAII (Michael W. Deem and Ramdas Pophale) SiO2 
 PCOD9158031
Probable space group: P 21/M
;
_chemical_formula_sum "Si O2"
_cell_formula_units_Z 32
_cell_length_a 27.689399
_cell_length_b 7.484400
_cell_length_c 21.579109
_cell_angle_alpha 90.000000
_cell_angle_beta 160.068145
_cell_angle_gamma 90.000000
_cell_volume 1524.522809
_symmetry_space_group_name_H-M "P 21/M"
_symmetry_group_IT_number 11
_symmetry_cell_setting 'monoclinic'
loop_
_space_group_symop_operation_xyz
x,y,z
-x,1/2+y,-z
-x,-y,-z
x,1/2-y,z
loop_
_atom_site_type_symbol
_atom_site_label
_atom_site_fract_x
_atom_site_fract_y
_atom_site_fract_z
Si Si1 0.337296 0.531502 0.132857
Si Si2 0.017232 0.536060 0.754789
Si Si3 0.843756 0.536094 0.786109
Si Si4 0.975655 0.462895 0.562674
Si Si5 0.472810 0.968588 0.166177
Si Si6 0.559235 0.536184 0.503569
Si Si7 0.761603 0.455790 0.204261
Si Si8 0.789878 0.531118 0.580268
O O1 0.336271 0.750000 0.132076
O O2 0.390985 0.477538 0.129956
O O3 0.448549 0.470623 0.318552
O O4 0.178197 0.469366 0.953884
O O5 0.023177 0.750000 0.768747
O O6 0.964420 0.498735 0.621593
O O7 0.911792 0.469852 0.680492
O O8 0.831127 0.750000 0.767988
O O9 0.717016 0.469427 0.677683
O O10 0.817867 0.471726 0.684548
O O11 0.000000 0.500000 0.000000
O O12 0.984688 0.250000 0.563756
O O13 0.843840 0.533102 0.362763
O O14 0.119965 0.540157 0.707483
O O15 0.471095 0.750000 0.162548
O O16 0.635366 0.023704 0.369306
O O17 0.381789 0.033101 0.997638
O O18 0.500000 0.500000 0.500000
O O19 0.563650 0.750000 0.502595
O O20 0.730419 0.250000 0.182188
O O21 0.789838 0.750000 0.580853
#
# Coordination Sequence:
#
# PCOD9158031 Si02
#       8
#     4   4   4   4   4   4   4   4
#     4   9  16  29  52  75  97 128 171 215 249 288
#     4  10  19  32  52  77 101 131 171 212 253 298
#     4  10  21  37  55  78 107 139 175 215 261 315
#     4  10  19  30  46  75 108 134 164 208 257 304
#     4   9  14  28  53  76  95 123 169 217 248 282
#     4  10  21  36  55  81 109 136 171 219 266 311
#     4   9  17  30  52  75  99 134 172 207 252 304
#     4   9  18  32  53  78 100 128 174 219 248 291
#
# _framework density 20.990174
#
# number of rings (size 3 to 8) (size 9 to 14) (size 15 to 20)
#    0.000    2.500    2.500    0.375    1.750    1.000 
#    0.000    1.875    0.000    1.500    0.000    0.000 
#    0.000    0.000    0.000    0.000    0.000    0.000 
#
# Total GULP energy -178637.452215 kJ/mol
# GULP energy per Si atom -5582.420382 kJ/mol
# Density = 2.094240 g / cm^3
# Si number density = 20.990174 Si / 1000 Ang^3
#
#
#
# Elastic Constant Matrix: (Units=GPa)
#
#
# Indices 1 2 3 4 5 6 
#
# 1 117.9237 -1.2376 85.3691 0.0000 15.4723 0.0000
# 2 -1.2376 60.1949 5.7470 0.0000 2.8626 0.0000
# 3 85.3691 5.7470 201.5467 0.0000 7.6763 0.0000
# 4 0.0000 0.0000 0.0000 10.4839 0.0000 -6.0674
# 5 15.4723 2.8626 7.6763 0.0000 33.7899 0.0000
# 6 0.0000 0.0000 0.0000 -6.0674 0.0000 11.1788
#
#
#
# Elastic Compliance Matrix: (Units=1/GPa)
#
#
# Indices 1 2 3 4 5 6 
#
# 1 0.012996 0.001007 -0.005350 0.000000 -0.004821 0.000000
# 2 0.001007 0.016794 -0.000841 0.000000 -0.001693 0.000000
# 3 -0.005350 -0.000841 0.007218 0.000000 0.000881 0.000000
# 4 0.000000 0.000000 0.000000 0.139067 0.000000 0.075479
# 5 -0.004821 -0.001693 0.000881 0.000000 0.031745 0.000000
# 6 0.000000 0.000000 0.000000 0.075479 0.000000 0.130422
#
#
# Mechanical properties :
#
#
# Convention : Reuss Voigt Hill
#
# Bulk Modulus (GPa) = 37.53605 62.15805 49.84705
# Shear Modulus (GPa) = 13.98640 30.40964 22.19802
#
# Velocity S-wave (km/s) = 2.58414 3.81038 3.25552
# Velocity P-wave (km/s) = 5.17930 7.00256 6.15878
#
# Compressibility (1/GPa) = 0.02664106
#
# Stress axis : x y z
#
# Youngs Moduli (GPa) = 76.94610 59.54428 138.54069
#
# Poissons Ratio (x) = -0.05997 0.74118
# Poissons Ratio (y) = -0.07750 0.11652
# Poissons Ratio (z) = 0.41165 0.05008
#
# Static dielectric constant tensor:
#      x y z
#    x 1.746910 0.000000 0.011620 
#    y 0.000000 1.812480 0.000000 
#    z 0.011620 0.000000 1.763600 
# 
# From -- ./inp_files/67286.got.cif
#   From: 2010.05.17/outbox.cif.g08.bks.cpg/sg11_34_cif.got.tgz:67286.got - 2010.06.03 12:22:45.
