data_PCOD9158516
_publ_section_title
;
Structure prediction by ZEFSAII (Michael W. Deem and Ramdas Pophale) SiO2 
 PCOD9158516
Probable space group: P 21/M
;
_chemical_formula_sum "Si O2"
_cell_formula_units_Z 28
_cell_length_a 14.571738
_cell_length_b 8.579919
_cell_length_c 19.865133
_cell_angle_alpha 90.000000
_cell_angle_beta 33.972726
_cell_angle_gamma 90.000000
_cell_volume 1387.845169
_symmetry_space_group_name_H-M "P 21/M"
_symmetry_group_IT_number 11
_symmetry_cell_setting 'monoclinic'
loop_
_space_group_symop_operation_xyz
x,y,z
-x,1/2+y,-z
-x,-y,-z
x,1/2-y,z
loop_
_atom_site_type_symbol
_atom_site_label
_atom_site_fract_x
_atom_site_fract_y
_atom_site_fract_z
Si Si1 0.094376 0.060831 0.783205
Si Si2 0.376904 0.436688 0.518689
Si Si3 0.288975 0.935875 0.435869
Si Si4 0.728470 0.063949 0.041530
Si Si5 0.607486 0.062427 0.778293
Si Si6 0.817271 0.937172 0.126210
Si Si7 0.956755 0.062810 0.600708
O O1 0.087908 0.250000 0.787900
O O2 0.196311 0.014465 0.656090
O O3 0.200461 0.015487 0.785043
O O4 0.905955 0.007026 0.905767
O O5 0.500000 0.500000 0.500000
O O6 0.386366 0.250000 0.510993
O O7 0.396686 0.502597 0.431926
O O8 0.291336 0.750000 0.434710
O O9 0.348417 0.987206 0.325470
O O10 0.101710 0.995475 0.557899
O O11 0.732238 0.250000 0.040252
O O12 0.569789 0.006624 0.097793
O O13 0.713741 0.004354 0.127630
O O14 0.596237 0.250000 0.785452
O O15 0.765749 0.018329 0.727097
O O16 0.809756 0.750000 0.127137
O O17 0.000000 0.000000 0.000000
O O18 0.966291 0.250000 0.595402
O O19 0.000000 0.000000 0.500000
#
# Coordination Sequence:
#
# PCOD9158516 Si02
#       7
#     4   4   4   4   4   4   4
#     4   8  18  35  51  68  99 138 172 214 265 309
#     4  11  23  39  56  76 104 142 183 222 262 311
#     4  10  21  37  55  78 109 143 178 219 268 314
#     4  10  19  31  50  77 103 134 173 213 262 316
#     4   9  19  33  52  80 112 139 165 211 270 317
#     4   9  16  29  47  68  95 131 168 208 259 307
#     4   9  17  32  54  80 109 141 174 213 267 320
#
# _framework density 20.175160000000002
#
# number of rings (size 3 to 8) (size 9 to 14) (size 15 to 20)
#    0.000    2.571    0.000    3.857    2.000    3.429 
#    0.000    7.857    0.000    0.857    0.000    0.000 
#    0.000    0.000    0.000    0.000    0.000    0.000 
#
# Total GULP energy -156079.098862 kJ/mol
# GULP energy per Si atom -5574.253531 kJ/mol
# Density = 2.012924 g / cm^3
# Si number density = 20.175160 Si / 1000 Ang^3
#
#
#
# Elastic Constant Matrix: (Units=GPa)
#
#
# Indices 1 2 3 4 5 6 
#
# 1 67.5078 12.0150 15.8995 0.0000 -23.2088 0.0000
# 2 12.0150 35.7480 7.4449 0.0000 -6.0571 0.0000
# 3 15.8995 7.4449 68.9988 0.0000 -20.8382 0.0000
# 4 0.0000 0.0000 0.0000 19.3053 0.0000 -8.9444
# 5 -23.2088 -6.0571 -20.8382 0.0000 38.5480 0.0000
# 6 0.0000 0.0000 0.0000 -8.9444 0.0000 29.6583
#
#
#
# Elastic Compliance Matrix: (Units=1/GPa)
#
#
# Indices 1 2 3 4 5 6 
#
# 1 0.019446 -0.004581 -0.000799 0.000000 0.010556 0.000000
# 2 -0.004581 0.030069 -0.001906 0.000000 0.000936 0.000000
# 3 -0.000799 -0.001906 0.017505 0.000000 0.008682 0.000000
# 4 0.000000 0.000000 0.000000 0.060213 0.000000 0.018159
# 5 0.010556 0.000936 0.008682 0.000000 0.037138 0.000000
# 6 0.000000 0.000000 0.000000 0.018159 0.000000 0.039194
#
#
# Mechanical properties :
#
#
# Convention : Reuss Voigt Hill
#
# Bulk Modulus (GPa) = 19.06628 26.99704 23.03166
# Shear Modulus (GPa) = 21.22082 26.62865 23.92473
#
# Velocity S-wave (km/s) = 3.24671 3.63695 3.44735
# Velocity P-wave (km/s) = 4.85033 5.57197 5.22363
#
# Compressibility (1/GPa) = 0.05244861
#
# Stress axis : x y z
#
# Youngs Moduli (GPa) = 51.42536 33.25701 57.12699
#
# Poissons Ratio (x) = 0.15234 0.04562
# Poissons Ratio (y) = 0.23557 0.10889
# Poissons Ratio (z) = 0.04106 0.06339
#
# Static dielectric constant tensor:
#      x y z
#    x 1.728400 0.000000 -0.022290 
#    y 0.000000 1.676400 0.000000 
#    z -0.022290 0.000000 1.763380 
# 
# From -- ./inp_files/65359.got.cif
#   From: 2010.05.17/outbox.cif.g08.bks.cpg/sg11_33_cif.got.tgz:65359.got - 2010.06.03 12:22:45.
