data_PCOD9158428
_publ_section_title
;
Structure prediction by ZEFSAII (Michael W. Deem and Ramdas Pophale) SiO2 
 PCOD9158428
Probable space group: P 21/M
;
_chemical_formula_sum "Si O2"
_cell_formula_units_Z 32
_cell_length_a 15.847896
_cell_length_b 8.872699
_cell_length_c 26.538178
_cell_angle_alpha 90.000000
_cell_angle_beta 29.940429
_cell_angle_gamma 90.000000
_cell_volume 1862.453495
_symmetry_space_group_name_H-M "P 21/M"
_symmetry_group_IT_number 11
_symmetry_cell_setting 'monoclinic'
loop_
_space_group_symop_operation_xyz
x,y,z
-x,1/2+y,-z
-x,-y,-z
x,1/2-y,z
loop_
_atom_site_type_symbol
_atom_site_label
_atom_site_fract_x
_atom_site_fract_y
_atom_site_fract_z
Si Si1 0.753409 0.570750 0.682141
Si Si2 0.565494 0.069395 0.870796
Si Si3 0.949473 0.069625 0.947138
Si Si4 0.371177 0.930543 0.355376
Si Si5 0.918456 0.430336 0.420700
Si Si6 0.108369 0.929611 0.231662
Si Si7 0.739858 0.069609 0.153942
Si Si8 0.821907 0.569830 0.909656
O O1 0.740511 0.750000 0.681223
O O2 0.613488 0.515505 0.794622
O O3 0.726424 0.486403 0.643869
O O4 0.932639 0.536346 0.615904
O O5 0.574111 0.250000 0.857572
O O6 0.710411 0.030675 0.836394
O O7 0.378165 0.031157 0.985951
O O8 0.962660 0.250000 0.936954
O O9 0.903099 0.000221 0.917567
O O10 0.805398 0.033282 0.063435
O O11 0.122178 0.001669 0.880049
O O12 0.385442 0.750000 0.346592
O O13 0.258394 0.972442 0.462224
O O14 0.555299 0.004037 0.259202
O O15 0.921651 0.250000 0.410672
O O16 0.968764 0.512867 0.343399
O O17 0.100368 0.750000 0.230923
O O18 0.098629 0.005846 0.182482
O O19 0.739429 0.250000 0.159299
O O20 0.837143 0.750000 0.903090
#
# Coordination Sequence:
#
# PCOD9158428 Si02
#       8
#     4   4   4   4   4   4   4   4
#     4  10  19  31  49  74 105 139 175 215 255 299
#     4   9  19  33  49  73 105 140 175 211 254 304
#     4  10  21  37  56  79 107 136 167 206 253 306
#     4  11  21  33  52  76 104 138 174 212 255 306
#     4   9  20  36  51  71 102 140 178 215 256 300
#     4  10  20  34  52  74 102 137 177 219 258 298
#     4  10  21  37  57  81 107 134 166 207 255 306
#     4  11  21  33  52  76 104 138 174 212 255 306
#
# _framework density 17.181636000000001
#
# number of rings (size 3 to 8) (size 9 to 14) (size 15 to 20)
#    0.000    2.000    0.000    3.750    0.000    6.500 
#    0.000    0.000    0.000    0.750    0.000    0.000 
#    0.000    0.000    0.000    0.000    0.000    0.000 
#
# Total GULP energy -178737.362094 kJ/mol
# GULP energy per Si atom -5585.542565 kJ/mol
# Density = 1.714253 g / cm^3
# Si number density = 17.181636 Si / 1000 Ang^3
#
#
#
# Elastic Constant Matrix: (Units=GPa)
#
#
# Indices 1 2 3 4 5 6 
#
# 1 102.9101 50.3346 70.6086 0.0000 25.5717 0.0000
# 2 50.3346 56.2259 58.5981 0.0000 10.9960 0.0000
# 3 70.6086 58.5981 134.5175 0.0000 14.0470 0.0000
# 4 0.0000 0.0000 0.0000 28.2597 0.0000 1.9345
# 5 25.5717 10.9960 14.0470 0.0000 21.7534 0.0000
# 6 0.0000 0.0000 0.0000 1.9345 0.0000 29.7177
#
#
#
# Elastic Compliance Matrix: (Units=1/GPa)
#
#
# Indices 1 2 3 4 5 6 
#
# 1 0.023983 -0.012347 -0.005273 0.000000 -0.018546 0.000000
# 2 -0.012347 0.040224 -0.011188 0.000000 0.001406 0.000000
# 3 -0.005273 -0.011188 0.014838 0.000000 0.002273 0.000000
# 4 0.000000 0.000000 0.000000 0.035545 0.000000 -0.002314
# 5 -0.018546 0.001406 0.002273 0.000000 0.065593 0.000000
# 6 0.000000 0.000000 0.000000 -0.002314 0.000000 0.033801
#
#
# Mechanical properties :
#
#
# Convention : Reuss Voigt Hill
#
# Bulk Modulus (GPa) = 46.66782 72.52621 59.59702
# Shear Modulus (GPa) = 17.93768 23.55362 20.74565
#
# Velocity S-wave (km/s) = 3.23461 3.70653 3.47858
# Velocity P-wave (km/s) = 6.41644 7.78594 7.13413
#
# Compressibility (1/GPa) = 0.02142804
#
# Stress axis : x y z
#
# Youngs Moduli (GPa) = 41.69620 24.86091 67.39282
#
# Poissons Ratio (x) = 0.30696 0.35539
# Poissons Ratio (y) = 0.51483 0.75399
# Poissons Ratio (z) = 0.21988 0.27814
#
# Static dielectric constant tensor:
#      x y z
#    x 1.556140 0.000000 -0.003070 
#    y 0.000000 1.569220 0.000000 
#    z -0.003070 0.000000 1.574140 
# 
# From -- ./inp_files/51651.got.cif
#   From: 2010.05.17/outbox.cif.g08.bks.cpg/sg11_26_cif.got.tgz:51651.got - 2010.06.03 12:22:45.
