data_PCOD9158980
_publ_section_title
;
Structure prediction by ZEFSAII (Michael W. Deem and Ramdas Pophale) SiO2 
 PCOD9158980
Probable space group: P 21/M
;
_chemical_formula_sum "Si O2"
_cell_formula_units_Z 32
_cell_length_a 12.449743
_cell_length_b 8.667184
_cell_length_c 21.912429
_cell_angle_alpha 90.000000
_cell_angle_beta 128.152435
_cell_angle_gamma 90.000000
_cell_volume 1859.327376
_symmetry_space_group_name_H-M "P 21/M"
_symmetry_group_IT_number 11
_symmetry_cell_setting 'monoclinic'
loop_
_space_group_symop_operation_xyz
x,y,z
-x,1/2+y,-z
-x,-y,-z
x,1/2-y,z
loop_
_atom_site_type_symbol
_atom_site_label
_atom_site_fract_x
_atom_site_fract_y
_atom_site_fract_z
Si Si1 0.979418 0.065299 0.395839
Si Si2 0.518260 0.066531 0.288911
Si Si3 0.573124 0.936511 0.174025
Si Si4 0.129553 0.434978 0.767068
Si Si5 0.953576 0.435485 0.131973
Si Si6 0.226191 0.935288 0.167356
Si Si7 0.272521 0.936931 0.043696
Si Si8 0.781658 0.565761 0.431182
O O1 0.963485 0.250000 0.388070
O O2 0.126946 0.030040 0.477335
O O3 0.953242 0.994497 0.320655
O O4 0.868641 0.997559 0.404318
O O5 0.509839 0.250000 0.286410
O O6 0.567517 0.008861 0.239380
O O7 0.368733 0.994366 0.245186
O O8 0.632670 0.008219 0.375949
O O9 0.572532 0.750000 0.180962
O O10 0.711719 0.980210 0.188535
O O11 0.431130 0.982423 0.091702
O O12 0.122905 0.250000 0.767211
O O13 0.074512 0.505139 0.810132
O O14 0.955120 0.250000 0.132128
O O15 0.095891 0.496941 0.155536
O O16 0.831753 0.491205 0.044300
O O17 0.223462 0.750000 0.168252
O O18 0.227558 0.983968 0.096240
O O19 0.269551 0.750000 0.041726
O O20 0.770529 0.750000 0.421382
#
# Coordination Sequence:
#
# PCOD9158980 Si02
#       8
#     4   4   4   4   4   4   4   4
#     4  10  20  33  52  79 110 142 179 219 259 309
#     4  11  20  31  53  83 111 138 176 221 267 315
#     4   9  18  34  53  75 106 143 180 218 268 320
#     4  11  22  35  53  75 109 150 184 217 264 323
#     4  11  22  36  54  77 106 140 184 228 269 317
#     4  10  20  37  58  78 105 138 179 225 274 321
#     4   8  17  34  56  79 104 136 174 227 277 316
#     4  10  19  32  52  80 112 143 173 213 266 317
#
# _framework density 17.210525000000001
#
# number of rings (size 3 to 8) (size 9 to 14) (size 15 to 20)
#    0.000    2.000    1.250    4.125    0.000    2.500 
#    0.000    5.625    0.000    0.750    0.000    0.000 
#    0.000    0.000    0.000    0.000    0.000    0.000 
#
# Total GULP energy -178623.029969 kJ/mol
# GULP energy per Si atom -5581.969687 kJ/mol
# Density = 1.717135 g / cm^3
# Si number density = 17.210525 Si / 1000 Ang^3
#
#
#
# Elastic Constant Matrix: (Units=GPa)
#
#
# Indices 1 2 3 4 5 6 
#
# 1 65.9896 29.8174 93.2992 0.0000 -10.5987 0.0000
# 2 29.8174 58.2544 51.2396 0.0000 1.1221 0.0000
# 3 93.2992 51.2396 155.8018 0.0000 16.7816 0.0000
# 4 0.0000 0.0000 0.0000 19.9468 0.0000 3.0066
# 5 -10.5987 1.1221 16.7816 0.0000 11.9361 0.0000
# 6 0.0000 0.0000 0.0000 3.0066 0.0000 22.6710
#
#
#
# Elastic Compliance Matrix: (Units=1/GPa)
#
#
# Indices 1 2 3 4 5 6 
#
# 1 -0.029052 -0.007231 0.026493 0.000000 -0.062365 0.000000
# 2 -0.007231 0.023520 -0.002917 0.000000 -0.004531 0.000000
# 3 0.026493 -0.002917 -0.013023 0.000000 0.042108 0.000000
# 4 0.000000 0.000000 0.000000 0.051156 0.000000 -0.006784
# 5 -0.062365 -0.004531 0.042108 0.000000 -0.030373 0.000000
# 6 0.000000 0.000000 0.000000 -0.006784 0.000000 0.045009
#
#
# Mechanical properties :
#
#
# Convention : Reuss Voigt Hill
#
# Bulk Modulus (GPa) = 70.74582 69.86203 70.30393
# Shear Modulus (GPa) = 259.61394 17.95674 138.78534
#
# Velocity S-wave (km/s) = 12.29526 3.23361 8.98971
# Velocity P-wave (km/s) = 15.58076 7.39070 12.19390
#
# Compressibility (1/GPa) = 0.01413511
#
# Stress axis : x y z
#
# Youngs Moduli (GPa) = -34.42073 42.51627 -76.78957
#
# Poissons Ratio (x) = 0.30745 2.03439
# Poissons Ratio (y) = -0.24890 -0.22399
# Poissons Ratio (z) = 0.91191 0.12402
#
# Static dielectric constant tensor:
#      x y z
#    x 1.551920 0.000000 0.024860 
#    y 0.000000 1.575690 0.000000 
#    z 0.024860 0.000000 1.595310 
# 
# From -- ./inp_files/42908.got.cif
#   From: 2010.05.17/outbox.cif.g08.bks.cpg/sg11_22_cif.got.tgz:42908.got - 2010.06.03 12:22:45.
