data_PCOD9158986
_publ_section_title
;
Structure prediction by ZEFSAII (Michael W. Deem and Ramdas Pophale) SiO2 
 PCOD9158986
Probable space group: P 21/M
;
_chemical_formula_sum "Si O2"
_cell_formula_units_Z 28
_cell_length_a 15.137755
_cell_length_b 8.985082
_cell_length_c 12.623478
_cell_angle_alpha 90.000000
_cell_angle_beta 59.448536
_cell_angle_gamma 90.000000
_cell_volume 1478.607539
_symmetry_space_group_name_H-M "P 21/M"
_symmetry_group_IT_number 11
_symmetry_cell_setting 'monoclinic'
loop_
_space_group_symop_operation_xyz
x,y,z
-x,1/2+y,-z
-x,-y,-z
x,1/2-y,z
loop_
_atom_site_type_symbol
_atom_site_label
_atom_site_fract_x
_atom_site_fract_y
_atom_site_fract_z
Si Si1 0.179512 0.068709 0.657003
Si Si2 0.990675 0.071002 0.389163
Si Si3 0.584052 0.415326 0.231277
Si Si4 0.413391 0.074128 0.479865
Si Si5 0.812046 0.571168 0.874940
Si Si6 0.209774 0.427238 0.870345
Si Si7 0.396787 0.916925 0.031569
O O1 0.173081 0.250000 0.654090
O O2 0.297193 0.021901 0.561205
O O3 0.155984 0.022658 0.793863
O O4 0.104558 0.995536 0.618142
O O5 0.982800 0.250000 0.402580
O O6 0.090553 0.035405 0.256508
O O7 0.000000 0.000000 0.500000
O O8 0.608199 0.250000 0.260982
O O9 0.467070 0.448608 0.333219
O O10 0.670438 0.529379 0.216594
O O11 0.595835 0.407944 0.099575
O O12 0.410192 0.250000 0.505078
O O13 0.500000 0.000000 0.500000
O O14 0.800570 0.750000 0.885817
O O15 0.709513 0.502937 0.886062
O O16 0.822828 0.518405 0.992100
O O17 0.200368 0.250000 0.878021
O O18 0.393532 0.750000 0.078239
O O19 0.500000 0.000000 0.000000
#
# Coordination Sequence:
#
# PCOD9158986 Si02
#       7
#     4   4   4   4   4   4   4
#     4  10  21  36  57  87 120 155 193 235 287 348
#     4  11  25  44  63  83 111 151 199 249 297 349
#     4   9  18  31  49  76 113 149 182 225 276 329
#     4  10  19  32  52  81 116 152 185 223 275 333
#     4   9  20  39  61  83 112 150 190 241 297 344
#     4   9  17  33  57  85 115 145 182 226 282 346
#     4  10  20  34  54  83 115 150 192 236 284 339
#
# _framework density 18.936734999999999
#
# number of rings (size 3 to 8) (size 9 to 14) (size 15 to 20)
#    0.000    2.286    1.429    0.857    0.000    4.571 
#    0.000    2.857    0.000    0.000    0.000    0.000 
#    0.000    0.000    0.000    0.000    0.000    0.000 
#
# Total GULP energy -155967.782805 kJ/mol
# GULP energy per Si atom -5570.277957 kJ/mol
# Density = 1.889363 g / cm^3
# Si number density = 18.936735 Si / 1000 Ang^3
#
#
#
# Elastic Constant Matrix: (Units=GPa)
#
#
# Indices 1 2 3 4 5 6 
#
# 1 149.3441 45.0335 70.9537 0.0000 -3.0729 0.0000
# 2 45.0335 26.3094 38.6935 0.0000 -1.5981 0.0000
# 3 70.9537 38.6935 116.1355 0.0000 -12.6786 0.0000
# 4 0.0000 0.0000 0.0000 22.2753 0.0000 -1.2285
# 5 -3.0729 -1.5981 -12.6786 0.0000 28.6901 0.0000
# 6 0.0000 0.0000 0.0000 -1.2285 0.0000 34.2224
#
#
#
# Elastic Compliance Matrix: (Units=1/GPa)
#
#
# Indices 1 2 3 4 5 6 
#
# 1 0.013913 -0.022134 -0.001153 0.000000 -0.000252 0.000000
# 2 -0.022134 0.111170 -0.024270 0.000000 -0.006904 0.000000
# 3 -0.001153 -0.024270 0.018114 0.000000 0.006530 0.000000
# 4 0.000000 0.000000 0.000000 0.044982 0.000000 0.001615
# 5 -0.000252 -0.006904 0.006530 0.000000 0.037329 0.000000
# 6 0.000000 0.000000 0.000000 0.001615 0.000000 0.029279
#
#
# Mechanical properties :
#
#
# Convention : Reuss Voigt Hill
#
# Bulk Modulus (GPa) = 20.79730 66.79448 43.79589
# Shear Modulus (GPa) = 13.66383 26.17813 19.92098
#
# Velocity S-wave (km/s) = 2.68909 3.72210 3.24694
# Velocity P-wave (km/s) = 4.54400 7.33628 6.10201
#
# Compressibility (1/GPa) = 0.04808317
#
# Stress axis : x y z
#
# Youngs Moduli (GPa) = 71.87530 8.99519 55.20494
#
# Poissons Ratio (x) = 0.19910 0.06367
# Poissons Ratio (y) = 1.59088 1.33983
# Poissons Ratio (z) = 0.08290 0.21831
#
# Static dielectric constant tensor:
#      x y z
#    x 1.643590 0.000000 0.014170 
#    y 0.000000 1.689480 0.000000 
#    z 0.014170 0.000000 1.723680 
# 
# From -- ./inp_files/37946.got.cif
#   From: 2010.05.17/outbox.cif.g08.bks.cpg/sg11_19_cif.got.tgz:37946.got - 2010.06.03 12:22:45.
