data_PCOD9158897
_publ_section_title
;
Structure prediction by ZEFSAII (Michael W. Deem and Ramdas Pophale) SiO2 
 PCOD9158897
Probable space group: P 21/M
;
_chemical_formula_sum "Si O2"
_cell_formula_units_Z 28
_cell_length_a 9.390593
_cell_length_b 10.161571
_cell_length_c 19.863139
_cell_angle_alpha 90.000000
_cell_angle_beta 135.171363
_cell_angle_gamma 90.000000
_cell_volume 1336.238425
_symmetry_space_group_name_H-M "P 21/M"
_symmetry_group_IT_number 11
_symmetry_cell_setting 'monoclinic'
loop_
_space_group_symop_operation_xyz
x,y,z
-x,1/2+y,-z
-x,-y,-z
x,1/2-y,z
loop_
_atom_site_type_symbol
_atom_site_label
_atom_site_fract_x
_atom_site_fract_y
_atom_site_fract_z
Si Si1 0.229172 0.398007 0.928936
Si Si2 0.569050 0.592989 0.871707
Si Si3 0.793573 0.400295 0.347850
Si Si4 0.994518 0.898411 0.775819
Si Si5 0.192536 0.522364 0.170268
Si Si6 0.230871 0.098121 0.428346
Si Si7 0.589096 0.903317 0.380870
O O1 0.276637 0.250000 0.921818
O O2 0.174605 0.501242 0.852504
O O3 0.014499 0.396293 0.897965
O O4 0.389510 0.446869 0.037632
O O5 0.608065 0.750000 0.882803
O O6 0.349365 0.573443 0.764868
O O7 0.722049 0.518564 0.872850
O O8 0.749745 0.250000 0.355456
O O9 0.730802 0.504156 0.383118
O O10 0.024780 0.406811 0.403356
O O11 0.059351 0.750000 0.779538
O O12 0.870375 0.898422 0.804150
O O13 0.847906 0.955483 0.669063
O O14 0.371288 0.589561 0.272696
O O15 0.285731 0.250000 0.431599
O O16 0.397398 0.047745 0.536895
O O17 0.653777 0.750000 0.402208
#
# Coordination Sequence:
#
# PCOD9158897 Si02
#       7
#     4   4   4   4   4   4   4
#     4   9  18  31  47  70 100 128 157 195 246 287
#     4   9  16  29  49  74  96 125 159 197 243 287
#     4   9  18  33  53  74  98 124 161 202 241 285
#     4   9  19  33  50  69  97 131 168 198 230 286
#     4   9  18  29  49  70 100 122 158 193 241 281
#     4   9  18  34  52  71  96 131 164 199 240 283
#     4  10  19  32  52  74  99 126 159 199 246 289
#
# _framework density 20.954343999999999
#
# number of rings (size 3 to 8) (size 9 to 14) (size 15 to 20)
#    0.857    2.000    0.000    1.714    0.000    1.143 
#    0.000    5.000    0.000    0.000    0.000    0.000 
#    0.000    0.000    0.000    0.000    0.000    0.000 
#
# Total GULP energy -155884.798302 kJ/mol
# GULP energy per Si atom -5567.314225 kJ/mol
# Density = 2.090665 g / cm^3
# Si number density = 20.954344 Si / 1000 Ang^3
#
#
#
# Elastic Constant Matrix: (Units=GPa)
#
#
# Indices 1 2 3 4 5 6 
#
# 1 35.4551 10.8555 13.4513 0.0000 3.4235 0.0000
# 2 10.8555 65.0451 40.3176 0.0000 -13.3449 0.0000
# 3 13.4513 40.3176 143.8994 0.0000 -15.3882 0.0000
# 4 0.0000 0.0000 0.0000 31.9155 0.0000 -5.4134
# 5 3.4235 -13.3449 -15.3882 0.0000 34.7806 0.0000
# 6 0.0000 0.0000 0.0000 -5.4134 0.0000 8.6092
#
#
#
# Elastic Compliance Matrix: (Units=1/GPa)
#
#
# Indices 1 2 3 4 5 6 
#
# 1 0.031148 -0.005109 -0.002118 0.000000 -0.005963 0.000000
# 2 -0.005109 0.020336 -0.004547 0.000000 0.006294 0.000000
# 3 -0.002118 -0.004547 0.008667 0.000000 0.002298 0.000000
# 4 0.000000 0.000000 0.000000 0.035073 0.000000 0.022054
# 5 -0.005963 0.006294 0.002298 0.000000 0.032770 0.000000
# 6 0.000000 0.000000 0.000000 0.022054 0.000000 0.130022
#
#
# Mechanical properties :
#
#
# Convention : Reuss Voigt Hill
#
# Bulk Modulus (GPa) = 27.31985 41.51648 34.41816
# Shear Modulus (GPa) = 17.02030 27.04608 22.03319
#
# Velocity S-wave (km/s) = 2.85310 3.59655 3.24618
# Velocity P-wave (km/s) = 4.89078 6.09120 5.52370
#
# Compressibility (1/GPa) = 0.03660342
#
# Stress axis : x y z
#
# Youngs Moduli (GPa) = 32.10452 49.17286 115.37903
#
# Poissons Ratio (x) = 0.25123 0.24436
# Poissons Ratio (y) = 0.16402 0.52465
# Poissons Ratio (z) = 0.06799 0.22360
#
# Static dielectric constant tensor:
#      x y z
#    x 1.765880 0.000000 0.009630 
#    y 0.000000 1.737720 0.000000 
#    z 0.009630 0.000000 1.787580 
# 
# From -- ./inp_files/64546.got.cif
#   From: 2010.05.17/outbox.cif.g08.bks.cpg/sg11_33_cif.got.tgz:64546.got - 2010.06.03 12:22:45.
