data_PCOD9158792
_publ_section_title
;
Structure prediction by ZEFSAII (Michael W. Deem and Ramdas Pophale) SiO2 
 PCOD9158792
Probable space group: P 21/M
;
_chemical_formula_sum "Si O2"
_cell_formula_units_Z 30
_cell_length_a 21.040579
_cell_length_b 7.327363
_cell_length_c 8.979627
_cell_angle_alpha 90.000000
_cell_angle_beta 59.966240
_cell_angle_gamma 90.000000
_cell_volume 1198.523297
_symmetry_space_group_name_H-M "P 21/M"
_symmetry_group_IT_number 11
_symmetry_cell_setting 'monoclinic'
loop_
_space_group_symop_operation_xyz
x,y,z
-x,1/2+y,-z
-x,-y,-z
x,1/2-y,z
loop_
_atom_site_type_symbol
_atom_site_label
_atom_site_fract_x
_atom_site_fract_y
_atom_site_fract_z
Si Si1 0.540999 0.466627 0.296067
Si Si2 0.593686 0.531331 0.740502
Si Si3 0.080517 0.466920 0.333593
Si Si4 0.162832 0.044546 0.505498
Si Si5 0.707548 0.954792 0.070710
Si Si6 0.007699 0.533721 0.819318
Si Si7 0.728365 0.969448 0.374243
Si Si8 0.669456 0.250000 0.879716
O O1 0.500000 0.500000 0.500000
O O2 0.556061 0.250000 0.258753
O O3 0.487090 0.518896 0.224333
O O4 0.619772 0.557471 0.203645
O O5 0.595845 0.750000 0.769329
O O6 0.647669 0.497951 0.535295
O O7 0.625105 0.409689 0.835408
O O8 0.093023 0.250000 0.317750
O O9 0.141499 0.543499 0.372802
O O10 0.000000 0.500000 0.500000
O O11 0.064596 0.530387 0.185638
O O12 0.191387 0.250000 0.445976
O O13 0.217457 0.957525 0.560625
O O14 0.083091 0.053994 0.675954
O O15 0.736323 0.750000 0.008364
O O16 0.738513 0.028998 0.192330
O O17 0.710875 0.090523 0.930092
O O18 0.015108 0.750000 0.782316
O O19 0.000000 0.500000 0.000000
O O20 0.738764 0.750000 0.354563
#
# Coordination Sequence:
#
# PCOD9158792 Si02
#       8
#     4   4   4   4   4   4   4   2
#     4  11  21  37  63  93 119 153 208 263 312 362
#     4  10  23  42  62  90 124 157 207 261 309 369
#     4   8  15  28  50  77 107 137 179 229 275 330
#     4   9  17  34  60  86 106 144 196 241 295 346
#     4  11  23  42  63  90 125 159 206 257 311 375
#     4  10  19  32  50  82 121 154 186 232 289 344
#     4   9  19  39  66  87 112 156 208 259 301 355
#     4  12  26  42  60  90 124 168 196 240 326 382
#
# _framework density 25.030802999999999
#
# number of rings (size 3 to 8) (size 9 to 14) (size 15 to 20)
#    0.000    2.133    2.000    1.200    1.867    1.600 
#    2.400    1.333    0.000    4.800    0.000    0.000 
#    0.000    0.000    0.000    0.000    0.000    0.000 
#
# Total GULP energy -167199.566952 kJ/mol
# GULP energy per Si atom -5573.318898 kJ/mol
# Density = 2.497383 g / cm^3
# Si number density = 25.030803 Si / 1000 Ang^3
#
#
#
# Elastic Constant Matrix: (Units=GPa)
#
#
# Indices 1 2 3 4 5 6 
#
# 1 140.6450 19.2069 71.6254 0.0000 47.3581 0.0000
# 2 19.2069 133.0812 12.8038 0.0000 14.2247 0.0000
# 3 71.6254 12.8038 82.5660 0.0000 36.6939 0.0000
# 4 0.0000 0.0000 0.0000 3.7679 0.0000 -15.9282
# 5 47.3581 14.2247 36.6939 0.0000 61.9568 0.0000
# 6 0.0000 0.0000 0.0000 -15.9282 0.0000 -28.8780
#
#
#
# Elastic Compliance Matrix: (Units=1/GPa)
#
#
# Indices 1 2 3 4 5 6 
#
# 1 0.013695 -0.000550 -0.009770 0.000000 -0.004555 0.000000
# 2 -0.000550 0.007744 -0.000164 0.000000 -0.001261 0.000000
# 3 -0.009770 -0.000164 0.023449 0.000000 -0.006382 0.000000
# 4 0.000000 0.000000 0.000000 0.079660 0.000000 -0.043938
# 5 -0.004555 -0.001261 -0.006382 0.000000 0.023691 0.000000
# 6 0.000000 0.000000 0.000000 -0.043938 0.000000 -0.010394
#
#
# Mechanical properties :
#
#
# Convention : Reuss Voigt Hill
#
# Bulk Modulus (GPa) = 41.80596 62.61826 52.21211
# Shear Modulus (GPa) = 29.97859 24.21308 27.09584
#
# Velocity S-wave (km/s) = 3.46449 3.11357 3.29371
# Velocity P-wave (km/s) = 5.72203 6.16413 5.94719
#
# Compressibility (1/GPa) = 0.02392003
#
# Stress axis : x y z
#
# Youngs Moduli (GPa) = 73.02100 129.13125 42.64602
#
# Poissons Ratio (x) = 0.07097 0.41667
# Poissons Ratio (y) = 0.04013 0.00698
# Poissons Ratio (z) = 0.71345 0.02115
#
# Static dielectric constant tensor:
#      x y z
#    x 1.987550 0.000000 0.027170 
#    y 0.000000 2.140970 0.000000 
#    z 0.027170 0.000000 1.982650 
# 
# From -- ./inp_files/25805.got.cif
#   From: 2010.05.17/outbox.cif.g08.bks.cpg/sg11_13_cif.got.tgz:25805.got - 2010.06.03 12:22:45.
