data_PCOD9158088
_publ_section_title
;
Structure prediction by ZEFSAII (Michael W. Deem and Ramdas Pophale) SiO2 
 PCOD9158088
Probable space group: P 21/M
;
_chemical_formula_sum "Si O2"
_cell_formula_units_Z 28
_cell_length_a 16.891612
_cell_length_b 8.204822
_cell_length_c 14.746829
_cell_angle_alpha 90.000000
_cell_angle_beta 41.037030
_cell_angle_gamma 90.000000
_cell_volume 1341.851635
_symmetry_space_group_name_H-M "P 21/M"
_symmetry_group_IT_number 11
_symmetry_cell_setting 'monoclinic'
loop_
_space_group_symop_operation_xyz
x,y,z
-x,1/2+y,-z
-x,-y,-z
x,1/2-y,z
loop_
_atom_site_type_symbol
_atom_site_label
_atom_site_fract_x
_atom_site_fract_y
_atom_site_fract_z
Si Si1 0.776675 0.556763 0.835955
Si Si2 0.519854 0.446272 0.585237
Si Si3 0.427245 0.449179 0.848054
Si Si4 0.130348 0.553512 0.925222
Si Si5 0.606045 0.056199 0.840279
Si Si6 0.783702 0.446803 0.337307
Si Si7 0.959872 0.055871 0.809971
O O1 0.770173 0.750000 0.844248
O O2 0.729642 0.504881 0.777836
O O3 0.905682 0.503770 0.762226
O O4 0.679437 0.490435 0.994332
O O5 0.500000 0.500000 0.500000
O O6 0.514340 0.250000 0.591255
O O7 0.430925 0.507435 0.741191
O O8 0.657303 0.495939 0.489652
O O9 0.420263 0.250000 0.853570
O O10 0.553690 0.494290 0.787987
O O11 0.138903 0.750000 0.921489
O O12 0.215403 0.496480 0.769542
O O13 0.125230 0.491373 0.033010
O O14 0.000000 0.500000 0.000000
O O15 0.610760 0.250000 0.836422
O O16 0.500000 0.000000 0.000000
O O17 0.788965 0.250000 0.331602
O O18 0.903932 0.505560 0.283653
O O19 0.954437 0.250000 0.816005
#
# Coordination Sequence:
#
# PCOD9158088 Si02
#       7
#     4   4   4   4   4   4   4
#     4  10  19  31  50  77 106 132 164 206 255 308
#     4  10  21  36  53  74 101 136 173 207 242 289
#     4   8  17  33  51  73 102 135 166 201 251 299
#     4   8  15  27  42  63  89 121 159 197 238 283
#     4   9  16  30  51  74 102 132 165 206 254 304
#     4   9  18  33  50  67  96 133 170 206 245 293
#     4  10  19  30  48  73 101 129 164 208 256 301
#
# _framework density 20.866688
#
# number of rings (size 3 to 8) (size 9 to 14) (size 15 to 20)
#    0.000    2.857    0.000    2.143    2.000    1.143 
#    0.000    3.571    0.000    0.857    0.000    0.000 
#    0.000    0.000    0.000    0.000    0.000    0.000 
#
# Total GULP energy -155967.097588 kJ/mol
# GULP energy per Si atom -5570.253485 kJ/mol
# Density = 2.081919 g / cm^3
# Si number density = 20.866688 Si / 1000 Ang^3
#
#
#
# Elastic Constant Matrix: (Units=GPa)
#
#
# Indices 1 2 3 4 5 6 
#
# 1 119.0630 3.6416 -3.6987 0.0000 0.9217 0.0000
# 2 3.6416 16.1462 1.6025 0.0000 -1.7744 0.0000
# 3 -3.6987 1.6025 35.0847 0.0000 0.9271 0.0000
# 4 0.0000 0.0000 0.0000 9.5906 0.0000 0.3271
# 5 0.9217 -1.7744 0.9271 0.0000 21.0247 0.0000
# 6 0.0000 0.0000 0.0000 0.3271 0.0000 27.4341
#
#
#
# Elastic Compliance Matrix: (Units=1/GPa)
#
#
# Indices 1 2 3 4 5 6 
#
# 1 0.008498 -0.002082 0.001007 0.000000 -0.000593 0.000000
# 2 -0.002082 0.063340 -0.003260 0.000000 0.005581 0.000000
# 3 0.001007 -0.003260 0.028799 0.000000 -0.001589 0.000000
# 4 0.000000 0.000000 0.000000 0.104312 0.000000 -0.001244
# 5 -0.000593 0.005581 -0.001589 0.000000 0.048130 0.000000
# 6 0.000000 0.000000 0.000000 -0.001244 0.000000 0.036466
#
#
# Mechanical properties :
#
#
# Convention : Reuss Voigt Hill
#
# Bulk Modulus (GPa) = 10.87335 19.26498 15.06916
# Shear Modulus (GPa) = 15.20348 22.85977 19.03163
#
# Velocity S-wave (km/s) = 2.70219 3.31345 3.02331
# Velocity P-wave (km/s) = 3.86755 4.88785 4.40732
#
# Compressibility (1/GPa) = 0.09196799
#
# Stress axis : x y z
#
# Youngs Moduli (GPa) = 117.66850 15.78772 34.72286
#
# Poissons Ratio (x) = 0.03287 -0.03495
# Poissons Ratio (y) = 0.24496 0.11320
# Poissons Ratio (z) = -0.11845 0.05147
#
# Static dielectric constant tensor:
#      x y z
#    x 1.789950 0.000000 0.015030 
#    y 0.000000 1.718090 0.000000 
#    z 0.015030 0.000000 1.780460 
# 
# From -- ./inp_files/42728.got.cif
#   From: 2010.05.17/outbox.cif.g08.bks.cpg/sg11_22_cif.got.tgz:42728.got - 2010.06.03 12:22:45.
