data_PCOD9158634
_publ_section_title
;
Structure prediction by ZEFSAII (Michael W. Deem and Ramdas Pophale) SiO2 
 PCOD9158634
Probable space group: P 21/M
;
_chemical_formula_sum "Si O2"
_cell_formula_units_Z 28
_cell_length_a 11.564713
_cell_length_b 18.831394
_cell_length_c 11.747161
_cell_angle_alpha 90.000000
_cell_angle_beta 153.726849
_cell_angle_gamma 90.000000
_cell_volume 1132.430988
_symmetry_space_group_name_H-M "P 21/M"
_symmetry_group_IT_number 11
_symmetry_cell_setting 'monoclinic'
loop_
_space_group_symop_operation_xyz
x,y,z
-x,1/2+y,-z
-x,-y,-z
x,1/2-y,z
loop_
_atom_site_type_symbol
_atom_site_label
_atom_site_fract_x
_atom_site_fract_y
_atom_site_fract_z
Si Si1 0.220562 0.073862 0.242166
Si Si2 0.169909 0.831817 0.985446
Si Si3 0.989529 0.541371 0.175457
Si Si4 0.646673 0.330055 0.539862
Si Si5 0.754207 0.834395 0.415480
Si Si6 0.087189 0.097538 0.666193
Si Si7 0.454792 0.827675 0.806222
O O1 0.451742 0.130056 0.451887
O O2 0.954818 0.117690 0.030121
O O3 0.210293 0.013869 0.329654
O O4 0.211353 0.039236 0.107859
O O5 0.147929 0.750000 0.001109
O O6 0.980261 0.840688 0.709001
O O7 0.466590 0.845641 0.212627
O O8 0.111938 0.619689 0.275195
O O9 0.898114 0.534619 0.225643
O O10 0.712828 0.250000 0.630301
O O11 0.498806 0.326345 0.287662
O O12 0.761137 0.750000 0.382060
O O13 0.802432 0.895114 0.363382
O O14 0.783017 0.118251 0.384191
O O15 0.279285 0.154330 0.896341
O O16 0.358758 0.750000 0.757744
#
# Coordination Sequence:
#
# PCOD9158634 Si02
#       7
#     4   4   4   4   4   4   4
#     4  11  22  43  62  88 131 176 210 264 313 395
#     4  10  23  41  63  93 124 171 220 261 318 381
#     4  10  24  40  63  94 127 170 216 258 330 385
#     4  10  21  36  60  94 127 162 207 262 321 384
#     4  10  21  39  62  89 126 165 214 272 323 374
#     4  11  20  38  59  91 123 163 209 263 320 379
#     4  10  19  31  54  89 124 154 194 252 321 379
#
# _framework density 24.725567000000002
#
# number of rings (size 3 to 8) (size 9 to 14) (size 15 to 20)
#    0.000    1.714    1.429    3.000    2.000    3.429 
#    0.000    1.429    0.000    0.000    0.000    0.000 
#    0.000    0.000    0.000    0.000    0.000    0.000 
#
# Total GULP energy -156416.483726 kJ/mol
# GULP energy per Si atom -5586.302990 kJ/mol
# Density = 2.466929 g / cm^3
# Si number density = 24.725567 Si / 1000 Ang^3
#
#
#
# Elastic Constant Matrix: (Units=GPa)
#
#
# Indices 1 2 3 4 5 6 
#
# 1 85.1736 13.0792 45.1804 0.0000 -4.0576 0.0000
# 2 13.0792 62.2115 17.1641 0.0000 8.4988 0.0000
# 3 45.1804 17.1641 83.0815 0.0000 7.9140 0.0000
# 4 0.0000 0.0000 0.0000 -2.2098 0.0000 5.4350
# 5 -4.0576 8.4988 7.9140 0.0000 40.8374 0.0000
# 6 0.0000 0.0000 0.0000 5.4350 0.0000 33.4794
#
#
#
# Elastic Compliance Matrix: (Units=1/GPa)
#
#
# Indices 1 2 3 4 5 6 
#
# 1 0.017125 -0.001542 -0.009360 0.000000 0.003836 0.000000
# 2 -0.001542 0.017533 -0.002467 0.000000 -0.003324 0.000000
# 3 -0.009360 -0.002467 0.018008 0.000000 -0.003906 0.000000
# 4 0.000000 0.000000 0.000000 -0.323405 0.000000 0.052501
# 5 0.003836 -0.003324 -0.003906 0.000000 0.026317 0.000000
# 6 0.000000 0.000000 0.000000 0.052501 0.000000 0.021346
#
#
# Mechanical properties :
#
#
# Convention : Reuss Voigt Hill
#
# Bulk Modulus (GPa) = 38.56715 42.36823 40.46769
# Shear Modulus (GPa) = -26.63905 24.75760 -0.94073
#
# Velocity S-wave (km/s) = -3.28592 3.16776 -0.61749
# Velocity P-wave (km/s) = 1.11156 5.52740 3.98671
#
# Compressibility (1/GPa) = 0.02592880
#
# Stress axis : x y z
#
# Youngs Moduli (GPa) = 58.39374 57.03480 55.53090
#
# Poissons Ratio (x) = 0.08795 0.51975
# Poissons Ratio (y) = 0.09005 0.13699
# Poissons Ratio (z) = 0.54654 0.14070
#
# Static dielectric constant tensor:
#      x y z
#    x 2.009650 0.000000 -0.059400 
#    y 0.000000 2.011100 0.000000 
#    z -0.059400 0.000000 1.961260 
# 
# From -- ./inp_files/36418.got.cif
#   From: 2010.05.17/outbox.cif.g08.bks.cpg/sg11_19_cif.got.tgz:36418.got - 2010.06.03 12:22:45.
