data_PCOD9158701
_publ_section_title
;
Structure prediction by ZEFSAII (Michael W. Deem and Ramdas Pophale) SiO2 
 PCOD9158701
Probable space group: P 21/M
;
_chemical_formula_sum "Si O2"
_cell_formula_units_Z 28
_cell_length_a 18.609954
_cell_length_b 8.807678
_cell_length_c 19.281300
_cell_angle_alpha 90.000000
_cell_angle_beta 156.798369
_cell_angle_gamma 90.000000
_cell_volume 1245.099531
_symmetry_space_group_name_H-M "P 21/M"
_symmetry_group_IT_number 11
_symmetry_cell_setting 'monoclinic'
loop_
_space_group_symop_operation_xyz
x,y,z
-x,1/2+y,-z
-x,-y,-z
x,1/2-y,z
loop_
_atom_site_type_symbol
_atom_site_label
_atom_site_fract_x
_atom_site_fract_y
_atom_site_fract_z
Si Si1 0.038044 0.573787 0.366162
Si Si2 0.194838 0.581068 0.095984
Si Si3 0.399907 0.068137 0.166699
Si Si4 0.760744 0.578698 0.727225
Si Si5 0.165023 0.934103 0.692789
Si Si6 0.736378 0.932859 0.550530
Si Si7 0.406281 0.926510 0.789627
O O1 0.995087 0.750000 0.316018
O O2 0.093901 0.493439 0.344349
O O3 0.222947 0.568090 0.578307
O O4 0.879202 0.496566 0.270423
O O5 0.263930 0.750000 0.142863
O O6 0.224792 0.479943 0.054711
O O7 0.288013 0.515566 0.247916
O O8 0.980785 0.590084 0.921689
O O9 0.417503 0.250000 0.181706
O O10 0.435775 0.010819 0.120167
O O11 0.560592 0.994635 0.354754
O O12 0.686236 0.750000 0.666988
O O13 0.722086 0.513076 0.617131
O O14 0.160160 0.750000 0.688215
O O15 0.342575 0.989647 0.807215
O O16 0.000000 0.000000 0.500000
O O17 0.744636 0.750000 0.558998
O O18 0.449708 0.750000 0.840504
#
# Coordination Sequence:
#
# PCOD9158701 Si02
#       7
#     4   4   4   4   4   4   4
#     4   9  16  26  39  61  93 125 156 192 236 285
#     4  10  20  35  54  74  95 123 160 198 238 288
#     4  10  19  32  49  72 102 130 157 195 241 286
#     4   9  20  37  54  72  95 123 159 201 241 285
#     4   9  14  22  37  58  86 122 160 195 234 279
#     4  10  19  32  50  72  97 126 160 199 243 286
#     4   7  13  24  38  58  87 121 154 188 227 272
#
# _framework density 22.488163
#
# number of rings (size 3 to 8) (size 9 to 14) (size 15 to 20)
#    0.000    2.857    0.000    3.857    0.000    2.286 
#    0.000    2.143    0.000    0.000    0.000    1.000 
#    0.000    0.000    0.000    0.000    0.000    0.000 
#
# Total GULP energy -156167.790146 kJ/mol
# GULP energy per Si atom -5577.421077 kJ/mol
# Density = 2.243698 g / cm^3
# Si number density = 22.488163 Si / 1000 Ang^3
#
#
#
# Elastic Constant Matrix: (Units=GPa)
#
#
# Indices 1 2 3 4 5 6 
#
# 1 80.7019 23.9552 62.5283 0.0000 35.7530 0.0000
# 2 23.9552 66.0992 14.9828 0.0000 11.4932 0.0000
# 3 62.5283 14.9828 25.8392 0.0000 -23.8211 0.0000
# 4 0.0000 0.0000 0.0000 6.0585 0.0000 6.5807
# 5 35.7530 11.4932 -23.8211 0.0000 22.0498 0.0000
# 6 0.0000 0.0000 0.0000 6.5807 0.0000 30.6767
#
#
#
# Elastic Compliance Matrix: (Units=1/GPa)
#
#
# Indices 1 2 3 4 5 6 
#
# 1 0.001236 -0.004599 0.009850 0.000000 0.011035 0.000000
# 2 -0.004599 0.016980 0.000141 0.000000 -0.001241 0.000000
# 3 0.009850 0.000141 -0.002221 0.000000 -0.018444 0.000000
# 4 0.000000 0.000000 0.000000 0.215201 0.000000 -0.046165
# 5 0.011035 -0.001241 -0.018444 0.000000 0.008179 0.000000
# 6 0.000000 0.000000 0.000000 -0.046165 0.000000 0.042501
#
#
# Mechanical properties :
#
#
# Convention : Reuss Voigt Hill
#
# Bulk Modulus (GPa) = 37.34519 41.73034 39.53777
# Shear Modulus (GPa) = 17.85593 16.50195 17.17894
#
# Velocity S-wave (km/s) = 2.82088 2.71182 2.76689
# Velocity P-wave (km/s) = 5.22039 5.32937 5.27516
#
# Compressibility (1/GPa) = 0.02677721
#
# Stress axis : x y z
#
# Youngs Moduli (GPa) = 809.30865 58.89448 -450.29083
#
# Poissons Ratio (x) = 0.27088 4.43546
# Poissons Ratio (y) = 3.72230 0.06330
# Poissons Ratio (z) = -7.97186 -0.00828
#
# Static dielectric constant tensor:
#      x y z
#    x 1.886370 0.000000 0.042720 
#    y 0.000000 1.773110 0.000000 
#    z 0.042720 0.000000 1.901210 
# 
# From -- ./inp_files/61302.got.cif
#   From: 2010.05.17/outbox.cif.g08.bks.cpg/sg11_31_cif.got.tgz:61302.got - 2010.06.03 12:22:45.
