data_PCOD9158198
_publ_section_title
;
Structure prediction by ZEFSAII (Michael W. Deem and Ramdas Pophale) SiO2 
 PCOD9158198
Probable space group: P 21/M
;
_chemical_formula_sum "Si O2"
_cell_formula_units_Z 24
_cell_length_a 15.378524
_cell_length_b 7.465268
_cell_length_c 14.176325
_cell_angle_alpha 90.000000
_cell_angle_beta 139.500635
_cell_angle_gamma 90.000000
_cell_volume 1056.969607
_symmetry_space_group_name_H-M "P 21/M"
_symmetry_group_IT_number 11
_symmetry_cell_setting 'monoclinic'
loop_
_space_group_symop_operation_xyz
x,y,z
-x,1/2+y,-z
-x,-y,-z
x,1/2-y,z
loop_
_atom_site_type_symbol
_atom_site_label
_atom_site_fract_x
_atom_site_fract_y
_atom_site_fract_z
Si Si1 0.527873 0.546409 0.383959
Si Si2 0.228119 0.534444 0.137556
Si Si3 0.293594 0.966552 0.863623
Si Si4 0.196945 0.037319 0.319512
Si Si5 0.072840 0.969358 0.821647
Si Si6 0.436422 0.960186 0.798275
O O1 0.514572 0.750000 0.408865
O O2 0.380553 0.463503 0.269163
O O3 0.655066 0.461062 0.540474
O O4 0.564165 0.550320 0.303343
O O5 0.234505 0.750000 0.134877
O O6 0.158744 0.488984 0.178983
O O7 0.153913 0.472846 0.982158
O O8 0.292952 0.750000 0.859857
O O9 0.156528 0.026743 0.799287
O O10 0.331655 0.029166 0.790174
O O11 0.417623 0.017727 0.033516
O O12 0.206588 0.250000 0.344635
O O13 0.079295 0.969160 0.289945
O O14 0.071885 0.750000 0.820487
O O15 0.412542 0.750000 0.763054
#
# Coordination Sequence:
#
# PCOD9158198 Si02
#       6
#     4   4   4   4   4   4
#     4  10  20  35  52  72 103 138 167 201 251 301
#     4  10  19  33  53  72  97 137 171 204 252 295
#     4   9  17  33  54  75 103 133 162 202 253 303
#     4  10  21  34  51  75 101 133 171 208 245 294
#     4   9  17  33  54  74 100 134 167 199 249 306
#     4  10  19  30  52  81 101 126 168 212 247 287
#
# _framework density 22.706426
#
# number of rings (size 3 to 8) (size 9 to 14) (size 15 to 20)
#    0.000    2.333    1.667    1.500    0.000    2.000 
#    0.000    1.667    0.000    0.000    0.000    0.000 
#    0.000    0.000    0.000    0.000    0.000    0.000 
#
# Total GULP energy -134058.545800 kJ/mol
# GULP energy per Si atom -5585.772742 kJ/mol
# Density = 2.265474 g / cm^3
# Si number density = 22.706426 Si / 1000 Ang^3
#
#
#
# Elastic Constant Matrix: (Units=GPa)
#
#
# Indices 1 2 3 4 5 6 
#
# 1 108.6257 1.3688 2.7140 0.0000 2.4981 0.0000
# 2 1.3688 73.2071 2.4874 0.0000 8.4387 0.0000
# 3 2.7140 2.4874 34.5694 0.0000 9.7081 0.0000
# 4 0.0000 0.0000 0.0000 -0.5120 0.0000 -9.9616
# 5 2.4981 8.4387 9.7081 0.0000 36.5377 0.0000
# 6 0.0000 0.0000 0.0000 -9.9616 0.0000 15.2391
#
#
#
# Elastic Compliance Matrix: (Units=1/GPa)
#
#
# Indices 1 2 3 4 5 6 
#
# 1 0.009232 -0.000101 -0.000591 0.000000 -0.000451 0.000000
# 2 -0.000101 0.014035 -0.000101 0.000000 -0.003208 0.000000
# 3 -0.000591 -0.000101 0.031298 0.000000 -0.008252 0.000000
# 4 0.000000 0.000000 0.000000 -0.142373 0.000000 -0.093067
# 5 -0.000451 -0.003208 -0.008252 0.000000 0.030333 0.000000
# 6 0.000000 0.000000 0.000000 -0.093067 0.000000 0.004784
#
#
# Mechanical properties :
#
#
# Convention : Reuss Voigt Hill
#
# Bulk Modulus (GPa) = 18.87490 25.50473 22.18981
# Shear Modulus (GPa) = -149.50058 24.24176 -62.62941
#
# Velocity S-wave (km/s) = -8.12303 3.27099 -5.25758
# Velocity P-wave (km/s) = 8.92454 5.05199 5.20216
#
# Compressibility (1/GPa) = 0.05298042
#
# Stress axis : x y z
#
# Youngs Moduli (GPa) = 108.31507 71.25070 31.95050
#
# Poissons Ratio (x) = 0.00716 0.01888
# Poissons Ratio (y) = 0.01089 0.00323
# Poissons Ratio (z) = 0.06401 0.00721
#
# Static dielectric constant tensor:
#      x y z
#    x 1.850760 0.000000 0.035390 
#    y 0.000000 1.852660 0.000000 
#    z 0.035390 0.000000 1.823290 
# 
# From -- ./inp_files/25746.got.cif
#   From: 2010.05.17/outbox.cif.g08.bks.cpg/sg11_13_cif.got.tgz:25746.got - 2010.06.03 12:22:45.
