data_PCOD9158324
_publ_section_title
;
Structure prediction by ZEFSAII (Michael W. Deem and Ramdas Pophale) SiO2 
 PCOD9158324
Probable space group: P 21/M
;
_chemical_formula_sum "Si O2"
_cell_formula_units_Z 32
_cell_length_a 27.039438
_cell_length_b 8.810457
_cell_length_c 14.834356
_cell_angle_alpha 90.000000
_cell_angle_beta 34.827770
_cell_angle_gamma 90.000000
_cell_volume 2018.299879
_symmetry_space_group_name_H-M "P 21/M"
_symmetry_group_IT_number 11
_symmetry_cell_setting 'monoclinic'
loop_
_space_group_symop_operation_xyz
x,y,z
-x,1/2+y,-z
-x,-y,-z
x,1/2-y,z
loop_
_atom_site_type_symbol
_atom_site_label
_atom_site_fract_x
_atom_site_fract_y
_atom_site_fract_z
Si Si1 0.900693 0.068284 0.057281
Si Si2 0.445974 0.926287 0.845782
Si Si3 0.263116 0.928225 0.426049
Si Si4 0.279537 0.568660 0.750816
Si Si5 0.577541 0.067420 0.323329
Si Si6 0.586177 0.569986 0.917730
Si Si7 0.902804 0.568909 0.252354
Si Si8 0.347252 0.423486 0.469304
O O1 0.900580 0.250000 0.074781
O O2 0.996805 0.027188 0.880229
O O3 0.822498 0.035135 0.105853
O O4 0.885027 0.986224 0.176291
O O5 0.417534 0.750000 0.896432
O O6 0.424356 0.983879 0.777673
O O7 0.550042 0.927421 0.696994
O O8 0.411723 0.020937 0.981126
O O9 0.262267 0.750000 0.410513
O O10 0.328154 0.009248 0.259929
O O11 0.166247 0.993468 0.577887
O O12 0.303318 0.965468 0.463922
O O13 0.290062 0.750000 0.719192
O O14 0.331421 0.533239 0.764091
O O15 0.324628 0.477111 0.602975
O O16 0.565505 0.250000 0.339611
O O17 0.500000 0.000000 0.500000
O O18 0.580804 0.750000 0.916084
O O19 0.500000 0.500000 0.000000
O O20 0.894360 0.750000 0.269149
O O21 0.317506 0.250000 0.498131
#
# Coordination Sequence:
#
# PCOD9158324 Si02
#       8
#     4   4   4   4   4   4   4   4
#     4   9  18  31  47  71 102 134 168 206 250 300
#     4  10  21  36  50  70 103 137 171 211 248 288
#     4  12  23  35  51  72 100 134 171 207 249 301
#     4  10  19  31  49  73 101 136 174 207 246 295
#     4  10  20  33  50  72 101 135 172 208 245 290
#     4  12  24  37  54  75  99 131 169 208 251 299
#     4  10  19  31  48  71 101 133 167 207 252 300
#     4  11  20  30  48  72 102 135 170 208 246 290
#
# _framework density 15.854929
#
# number of rings (size 3 to 8) (size 9 to 14) (size 15 to 20)
#    0.000    1.500    3.750    3.000    0.000    1.500 
#    0.000    0.000    0.000    0.000    0.000    0.875 
#    0.000    0.000    0.000    0.000    0.000    0.000 
#
# Total GULP energy -178592.424447 kJ/mol
# GULP energy per Si atom -5581.013264 kJ/mol
# Density = 1.581884 g / cm^3
# Si number density = 15.854929 Si / 1000 Ang^3
#
#
#
# Elastic Constant Matrix: (Units=GPa)
#
#
# Indices 1 2 3 4 5 6 
#
# 1 75.5990 30.9645 49.1780 0.0000 -1.4902 0.0000
# 2 30.9645 74.8143 54.9557 0.0000 -0.3664 0.0000
# 3 49.1780 54.9557 124.8263 0.0000 -2.4692 0.0000
# 4 0.0000 0.0000 0.0000 25.4284 0.0000 3.3833
# 5 -1.4902 -0.3664 -2.4692 0.0000 26.3106 0.0000
# 6 0.0000 0.0000 0.0000 3.3833 0.0000 14.1161
#
#
#
# Elastic Compliance Matrix: (Units=1/GPa)
#
#
# Indices 1 2 3 4 5 6 
#
# 1 0.018350 -0.003383 -0.005731 0.000000 0.000454 0.000000
# 2 -0.003383 0.020386 -0.007655 0.000000 -0.000626 0.000000
# 3 -0.005731 -0.007655 0.013656 0.000000 0.000850 0.000000
# 4 0.000000 0.000000 0.000000 0.040621 0.000000 -0.009736
# 5 0.000454 -0.000626 0.000850 0.000000 0.038104 0.000000
# 6 0.000000 0.000000 0.000000 -0.009736 0.000000 0.073175
#
#
# Mechanical properties :
#
#
# Convention : Reuss Voigt Hill
#
# Bulk Modulus (GPa) = 53.03641 60.60400 56.82021
# Shear Modulus (GPa) = 20.48203 22.51378 21.49791
#
# Velocity S-wave (km/s) = 3.59812 3.77236 3.68627
# Velocity P-wave (km/s) = 7.12640 7.56844 7.35075
#
# Compressibility (1/GPa) = 0.01885497
#
# Stress axis : x y z
#
# Youngs Moduli (GPa) = 54.49455 49.05214 73.22754
#
# Poissons Ratio (x) = 0.16593 0.41969
# Poissons Ratio (y) = 0.18434 0.56055
# Poissons Ratio (z) = 0.31232 0.37549
#
# Static dielectric constant tensor:
#      x y z
#    x 1.534810 0.000000 -0.019930 
#    y 0.000000 1.529920 0.000000 
#    z -0.019930 0.000000 1.526450 
# 
# From -- ./inp_files/56460.got.cif
#   From: 2010.05.17/outbox.cif.g08.bks.cpg/sg11_29_cif.got.tgz:56460.got - 2010.06.03 12:22:45.
