data_PCOD9158328
_publ_section_title
;
Structure prediction by ZEFSAII (Michael W. Deem and Ramdas Pophale) SiO2 
 PCOD9158328
Probable space group: P 21/M
;
_chemical_formula_sum "Si O2"
_cell_formula_units_Z 28
_cell_length_a 20.156539
_cell_length_b 8.501358
_cell_length_c 25.515619
_cell_angle_alpha 90.000000
_cell_angle_beta 158.677589
_cell_angle_gamma 90.000000
_cell_volume 1589.838170
_symmetry_space_group_name_H-M "P 21/M"
_symmetry_group_IT_number 11
_symmetry_cell_setting 'monoclinic'
loop_
_space_group_symop_operation_xyz
x,y,z
-x,1/2+y,-z
-x,-y,-z
x,1/2-y,z
loop_
_atom_site_type_symbol
_atom_site_label
_atom_site_fract_x
_atom_site_fract_y
_atom_site_fract_z
Si Si1 0.719712 0.060476 0.319143
Si Si2 0.799123 0.561567 0.867580
Si Si3 0.317008 0.440528 0.020315
Si Si4 0.079833 0.562617 0.937419
Si Si5 0.335763 0.059938 0.342081
Si Si6 0.668110 0.560740 0.089029
Si Si7 0.087734 0.060448 0.640787
O O1 0.720421 0.250000 0.318745
O O2 0.518975 0.011418 0.188390
O O3 0.886205 0.004538 0.477578
O O4 0.772541 0.004192 0.299824
O O5 0.798999 0.750000 0.868020
O O6 0.665685 0.512615 0.721224
O O7 0.788233 0.502809 0.919289
O O8 0.000000 0.500000 0.000000
O O9 0.303066 0.250000 0.011559
O O10 0.161941 0.510821 0.942592
O O11 0.316292 0.492698 0.959158
O O12 0.078207 0.750000 0.941249
O O13 0.867899 0.509982 0.788296
O O14 0.342508 0.250000 0.348613
O O15 0.500000 0.000000 0.500000
O O16 0.651933 0.750000 0.075553
O O17 0.846018 0.516021 0.253190
O O18 0.500000 0.500000 0.000000
O O19 0.090891 0.250000 0.639205
#
# Coordination Sequence:
#
# PCOD9158328 Si02
#       7
#     4   4   4   4   4   4   4
#     4   9  17  30  47  68  94 123 158 204 254 305
#     4   9  17  32  54  80 107 136 172 209 247 298
#     4  10  20  33  49  70 100 137 173 214 266 316
#     4  10  21  36  53  77 107 140 178 218 260 310
#     4   9  19  34  55  83 110 137 171 209 252 303
#     4  10  19  31  48  71  97 129 171 215 260 310
#     4   9  17  29  47  69  92 120 160 209 256 303
#
# _framework density 17.611854999999998
#
# number of rings (size 3 to 8) (size 9 to 14) (size 15 to 20)
#    0.000    2.571    1.429    1.714    0.000    4.571 
#    0.000    1.429    0.000    3.429    0.000    0.000 
#    0.000    0.000    0.000    0.000    0.000    0.000 
#
# Total GULP energy -155890.787811 kJ/mol
# GULP energy per Si atom -5567.528136 kJ/mol
# Density = 1.757177 g / cm^3
# Si number density = 17.611855 Si / 1000 Ang^3
#
#
#
# Elastic Constant Matrix: (Units=GPa)
#
#
# Indices 1 2 3 4 5 6 
#
# 1 116.7437 20.2048 61.8008 0.0000 -14.1289 0.0000
# 2 20.2048 16.3671 22.6170 0.0000 -5.0726 0.0000
# 3 61.8008 22.6170 111.2082 0.0000 -17.8724 0.0000
# 4 0.0000 0.0000 0.0000 21.5591 0.0000 -0.3753
# 5 -14.1289 -5.0726 -17.8724 0.0000 27.1180 0.0000
# 6 0.0000 0.0000 0.0000 -0.3753 0.0000 28.1316
#
#
#
# Elastic Compliance Matrix: (Units=1/GPa)
#
#
# Indices 1 2 3 4 5 6 
#
# 1 0.012987 -0.008212 -0.005264 0.000000 0.001761 0.000000
# 2 -0.008212 0.090794 -0.013265 0.000000 0.003963 0.000000
# 3 -0.005264 -0.013265 0.015407 0.000000 0.004931 0.000000
# 4 0.000000 0.000000 0.000000 0.046395 0.000000 0.000619
# 5 0.001761 0.003963 0.004931 0.000000 0.041784 0.000000
# 6 0.000000 0.000000 0.000000 0.000619 0.000000 0.035556
#
#
# Mechanical properties :
#
#
# Convention : Reuss Voigt Hill
#
# Bulk Modulus (GPa) = 15.21915 50.39603 32.80759
# Shear Modulus (GPa) = 15.70813 24.67484 20.19149
#
# Velocity S-wave (km/s) = 2.98972 3.74710 3.38963
# Velocity P-wave (km/s) = 4.53631 6.88462 5.82993
#
# Compressibility (1/GPa) = 0.06570671
#
# Stress axis : x y z
#
# Youngs Moduli (GPa) = 77.00191 11.01394 64.90348
#
# Poissons Ratio (x) = 0.09045 0.34164
# Poissons Ratio (y) = 0.63235 0.86093
# Poissons Ratio (z) = 0.40532 0.14610
#
# Static dielectric constant tensor:
#      x y z
#    x 1.602350 0.000000 -0.033000 
#    y 0.000000 1.591670 0.000000 
#    z -0.033000 0.000000 1.632170 
# 
# From -- ./inp_files/71950.got.cif
#   From: 2010.05.17/outbox.cif.g08.bks.cpg/sg11_36_cif.got.tgz:71950.got - 2010.06.03 12:22:45.
