data_PCOD9158717
_publ_section_title
;
Structure prediction by ZEFSAII (Michael W. Deem and Ramdas Pophale) SiO2 
 PCOD9158717
Probable space group: P 21/M
;
_chemical_formula_sum "Si O2"
_cell_formula_units_Z 28
_cell_length_a 29.038616
_cell_length_b 8.666491
_cell_length_c 9.893571
_cell_angle_alpha 90.000000
_cell_angle_beta 141.166322
_cell_angle_gamma 90.000000
_cell_volume 1561.286548
_symmetry_space_group_name_H-M "P 21/M"
_symmetry_group_IT_number 11
_symmetry_cell_setting 'monoclinic'
loop_
_space_group_symop_operation_xyz
x,y,z
-x,1/2+y,-z
-x,-y,-z
x,1/2-y,z
loop_
_atom_site_type_symbol
_atom_site_label
_atom_site_fract_x
_atom_site_fract_y
_atom_site_fract_z
Si Si1 0.400436 0.566082 0.869326
Si Si2 0.193497 0.064903 0.167003
Si Si3 0.198493 0.065645 0.768407
Si Si4 0.442382 0.066754 0.673519
Si Si5 0.755850 0.935384 0.421319
Si Si6 0.919134 0.433899 0.293945
Si Si7 0.310902 0.933007 0.226037
O O1 0.400790 0.750000 0.846496
O O2 0.471113 0.528938 0.123584
O O3 0.412646 0.482818 0.753466
O O4 0.323710 0.513616 0.755271
O O5 0.198115 0.250000 0.162021
O O6 0.202208 0.025440 0.344175
O O7 0.260313 0.989187 0.236000
O O8 0.119921 0.004168 0.928120
O O9 0.190085 0.250000 0.762580
O O10 0.202026 0.023109 0.619294
O O11 0.133727 0.984626 0.703561
O O12 0.274319 0.014751 0.013582
O O13 0.433302 0.250000 0.637525
O O14 0.393310 0.982332 0.450132
O O15 0.745298 0.750000 0.396234
O O16 0.920685 0.250000 0.287728
O O17 0.000000 0.500000 0.500000
O O18 0.304781 0.750000 0.198073
#
# Coordination Sequence:
#
# PCOD9158717 Si02
#       7
#     4   4   4   4   4   4   4
#     4  10  20  31  50  77 107 142 184 233 281 325
#     4  10  19  34  57  84 111 144 180 223 268 323
#     4  10  21  38  58  82 112 148 181 221 272 328
#     4  10  19  32  49  74 106 143 186 234 281 325
#     4  10  21  36  56  81 113 148 183 221 275 331
#     4  11  22  39  62  88 113 143 179 221 265 320
#     4  11  20  32  52  80 106 142 189 234 275 324
#
# _framework density 17.933926
#
# number of rings (size 3 to 8) (size 9 to 14) (size 15 to 20)
#    0.000    1.714    1.429    6.000    0.000    3.429 
#    0.000    1.429    0.000    0.000    0.000    0.000 
#    0.000    0.000    0.000    0.000    0.000    0.000 
#
# Total GULP energy -156367.078840 kJ/mol
# GULP energy per Si atom -5584.538530 kJ/mol
# Density = 1.789311 g / cm^3
# Si number density = 17.933926 Si / 1000 Ang^3
#
#
#
# Elastic Constant Matrix: (Units=GPa)
#
#
# Indices 1 2 3 4 5 6 
#
# 1 57.0208 15.0884 44.2681 0.0000 -4.1856 0.0000
# 2 15.0884 51.7763 19.3321 0.0000 1.8704 0.0000
# 3 44.2681 19.3321 107.8622 0.0000 6.8076 0.0000
# 4 0.0000 0.0000 0.0000 23.5037 0.0000 11.1529
# 5 -4.1856 1.8704 6.8076 0.0000 33.1126 0.0000
# 6 0.0000 0.0000 0.0000 11.1529 0.0000 17.6720
#
#
#
# Elastic Compliance Matrix: (Units=1/GPa)
#
#
# Indices 1 2 3 4 5 6 
#
# 1 0.027578 -0.004164 -0.010949 0.000000 0.005972 0.000000
# 2 -0.004164 0.021333 -0.002032 0.000000 -0.001314 0.000000
# 3 -0.010949 -0.002032 0.014396 0.000000 -0.004229 0.000000
# 4 0.000000 0.000000 0.000000 0.060735 0.000000 -0.038330
# 5 0.005972 -0.001314 -0.004229 0.000000 0.031898 0.000000
# 6 0.000000 0.000000 0.000000 -0.038330 0.000000 0.080777
#
#
# Mechanical properties :
#
#
# Convention : Reuss Voigt Hill
#
# Bulk Modulus (GPa) = 34.46203 41.55961 38.01082
# Shear Modulus (GPa) = 17.81390 24.05571 20.93481
#
# Velocity S-wave (km/s) = 3.15510 3.66642 3.42033
# Velocity P-wave (km/s) = 5.70357 6.41464 6.06952
#
# Compressibility (1/GPa) = 0.02901744
#
# Stress axis : x y z
#
# Youngs Moduli (GPa) = 36.26078 46.87482 69.46519
#
# Poissons Ratio (x) = 0.19520 0.76057
# Poissons Ratio (y) = 0.15100 0.14112
# Poissons Ratio (z) = 0.39702 0.09523
#
# Static dielectric constant tensor:
#      x y z
#    x 1.591730 0.000000 -0.003950 
#    y 0.000000 1.600050 0.000000 
#    z -0.003950 0.000000 1.624610 
# 
# From -- ./inp_files/29075.got.cif
#   From: 2010.05.17/outbox.cif.g08.bks.cpg/sg11_15_cif.got.tgz:29075.got - 2010.06.03 12:22:45.
