data_PCOD9158474
_publ_section_title
;
Structure prediction by ZEFSAII (Michael W. Deem and Ramdas Pophale) SiO2 
 PCOD9158474
Probable space group: P 21/M
;
_chemical_formula_sum "Si O2"
_cell_formula_units_Z 32
_cell_length_a 12.019717
_cell_length_b 13.619684
_cell_length_c 8.219848
_cell_angle_alpha 90.000000
_cell_angle_beta 92.684629
_cell_angle_gamma 90.000000
_cell_volume 1344.151281
_symmetry_space_group_name_H-M "P 21/M"
_symmetry_group_IT_number 11
_symmetry_cell_setting 'monoclinic'
loop_
_space_group_symop_operation_xyz
x,y,z
-x,1/2+y,-z
-x,-y,-z
x,1/2-y,z
loop_
_atom_site_type_symbol
_atom_site_label
_atom_site_fract_x
_atom_site_fract_y
_atom_site_fract_z
Si Si1 0.764610 0.084426 0.538680
Si Si2 0.006527 0.141838 0.534818
Si Si3 0.172951 0.141613 0.012090
Si Si4 0.558107 0.422177 0.683659
Si Si5 0.608235 0.642805 0.753201
Si Si6 0.609097 0.140220 0.049756
Si Si7 0.073931 0.008932 0.241050
Si Si8 0.309093 0.452668 0.742168
O O1 0.872189 0.145022 0.490806
O O2 0.640204 0.125273 0.554662
O O3 0.755264 0.992850 0.417601
O O4 0.809341 0.046442 0.715918
O O5 0.050502 0.250000 0.565084
O O6 0.057899 0.091625 0.379580
O O7 0.011482 0.073733 0.697143
O O8 0.123246 0.250000 0.002373
O O9 0.270597 0.140509 0.156665
O O10 0.084511 0.062409 0.070836
O O11 0.238287 0.116668 0.852513
O O12 0.578966 0.540079 0.663992
O O13 0.602472 0.386448 0.860986
O O14 0.426183 0.407587 0.690277
O O15 0.596813 0.750000 0.667460
O O16 0.517135 0.642501 0.891603
O O17 0.656702 0.250000 0.078473
O O18 0.666456 0.051783 0.150972
#
# Coordination Sequence:
#
# PCOD9158474 Si02
#       8
#     4   4   4   4   4   4   4   4
#     4  10  21  35  54  83 118 150 181 235 291 345
#     4   9  19  38  64  87 111 145 191 242 291 347
#     4  11  19  34  58  82 110 147 194 238 282 336
#     4  11  18  35  52  78 111 157 196 226 273 325
#     4   9  15  27  49  71  96 134 183 229 261 306
#     4  10  19  31  50  73 104 148 197 231 264 322
#     4   9  19  38  62  87 107 145 194 240 291 340
#     4  11  21  35  52  81 122 154 185 233 288 343
#
# _framework density 23.806844000000002
#
# number of rings (size 3 to 8) (size 9 to 14) (size 15 to 20)
#    0.750    1.250    3.750    1.500    0.000    1.000 
#    0.000    2.500    0.000    3.000    0.000    0.000 
#    0.000    0.000    0.000    0.000    0.000    0.000 
#
# Total GULP energy -178441.269019 kJ/mol
# GULP energy per Si atom -5576.289657 kJ/mol
# Density = 2.375266 g / cm^3
# Si number density = 23.806844 Si / 1000 Ang^3
#
#
#
# Elastic Constant Matrix: (Units=GPa)
#
#
# Indices 1 2 3 4 5 6 
#
# 1 92.5442 18.7082 19.3798 0.0000 -16.4897 0.0000
# 2 18.7082 83.4329 -7.2722 0.0000 -11.6975 0.0000
# 3 19.3798 -7.2722 52.2032 0.0000 -24.0352 0.0000
# 4 0.0000 0.0000 0.0000 1.0093 0.0000 2.1722
# 5 -16.4897 -11.6975 -24.0352 0.0000 28.4206 0.0000
# 6 0.0000 0.0000 0.0000 2.1722 0.0000 17.3950
#
#
#
# Elastic Compliance Matrix: (Units=1/GPa)
#
#
# Indices 1 2 3 4 5 6 
#
# 1 0.012679 -0.002713 -0.003623 0.000000 0.003176 0.000000
# 2 -0.002713 0.014995 0.008537 0.000000 0.011817 0.000000
# 3 -0.003623 0.008537 0.036585 0.000000 0.032352 0.000000
# 4 0.000000 0.000000 0.000000 1.354984 0.000000 -0.169200
# 5 0.003176 0.011817 0.032352 0.000000 0.069252 0.000000
# 6 0.000000 0.000000 0.000000 -0.169200 0.000000 0.078616
#
#
# Mechanical properties :
#
#
# Convention : Reuss Voigt Hill
#
# Bulk Modulus (GPa) = 14.56437 32.20132 23.38285
# Shear Modulus (GPa) = 3.15339 22.52261 12.83800
#
# Velocity S-wave (km/s) = 1.15215 3.07914 2.32471
# Velocity P-wave (km/s) = 2.81086 5.11829 4.12903
#
# Compressibility (1/GPa) = 0.06866069
#
# Stress axis : x y z
#
# Youngs Moduli (GPa) = 78.87272 66.68892 27.33338
#
# Poissons Ratio (x) = 0.18096 0.09902
# Poissons Ratio (y) = 0.21402 -0.23334
# Poissons Ratio (z) = 0.28573 -0.56932
#
# Static dielectric constant tensor:
#      x y z
#    x 1.902880 0.000000 0.023920 
#    y 0.000000 1.958990 0.000000 
#    z 0.023920 0.000000 1.879390 
# 
# From -- ./inp_files/21852.got.cif
#   From: 2010.05.17/outbox.cif.g08.bks.cpg/sg11_11_cif.got.tgz:21852.got - 2010.06.03 12:22:45.
