data_PCOD9158269
_publ_section_title
;
Structure prediction by ZEFSAII (Michael W. Deem and Ramdas Pophale) SiO2 
 PCOD9158269
Probable space group: P 21/M
;
_chemical_formula_sum "Si O2"
_cell_formula_units_Z 32
_cell_length_a 24.570450
_cell_length_b 8.653846
_cell_length_c 18.191044
_cell_angle_alpha 90.000000
_cell_angle_beta 149.160046
_cell_angle_gamma 90.000000
_cell_volume 1982.868176
_symmetry_space_group_name_H-M "P 21/M"
_symmetry_group_IT_number 11
_symmetry_cell_setting 'monoclinic'
loop_
_space_group_symop_operation_xyz
x,y,z
-x,1/2+y,-z
-x,-y,-z
x,1/2-y,z
loop_
_atom_site_type_symbol
_atom_site_label
_atom_site_fract_x
_atom_site_fract_y
_atom_site_fract_z
Si Si1 0.364142 0.064471 0.957159
Si Si2 0.320218 0.435905 0.159225
Si Si3 0.385277 0.435098 0.390707
Si Si4 0.743696 0.938015 0.321059
Si Si5 0.979966 0.936652 0.558332
Si Si6 0.436125 0.934730 0.599045
Si Si7 0.589209 0.564538 0.270112
Si Si8 0.199161 0.565271 0.884857
O O1 0.373632 0.250000 0.970135
O O2 0.320937 0.016262 0.827055
O O3 0.279000 0.012352 0.919213
O O4 0.477092 0.991162 0.107144
O O5 0.312849 0.250000 0.144051
O O6 0.311630 0.476679 0.235670
O O7 0.439733 0.479785 0.270835
O O8 0.236264 0.513651 0.008327
O O9 0.500000 0.500000 0.500000
O O10 0.390237 0.250000 0.400249
O O11 0.367860 0.502123 0.451410
O O12 0.744679 0.750000 0.322697
O O13 0.682014 0.988059 0.322448
O O14 0.865338 0.990031 0.454457
O O15 0.977346 0.750000 0.551159
O O16 0.079417 0.980410 0.724649
O O17 0.000000 0.000000 0.500000
O O18 0.432815 0.750000 0.594807
O O19 0.401057 0.998679 0.636726
O O20 0.589348 0.750000 0.273599
O O21 0.208503 0.750000 0.888945
#
# Coordination Sequence:
#
# PCOD9158269 Si02
#       8
#     4   4   4   4   4   4   4   4
#     4  11  20  33  51  69  98 134 164 203 252 295
#     4   9  18  31  47  68 100 133 161 194 244 294
#     4   9  17  29  46  69  97 131 165 198 238 292
#     4   9  20  36  52  69  95 132 168 208 255 294
#     4  10  20  36  53  72  96 126 167 211 252 294
#     4  10  19  31  47  70 100 134 162 195 245 296
#     4  11  21  33  50  72  98 131 170 206 243 296
#     4  11  21  30  49  76  99 128 168 206 242 291
#
# _framework density 16.138238000000001
#
# number of rings (size 3 to 8) (size 9 to 14) (size 15 to 20)
#    0.000    2.000    2.500    3.000    0.000    3.000 
#    0.000    3.125    0.000    0.000    0.000    0.875 
#    0.000    0.000    0.000    0.000    0.000    0.000 
#
# Total GULP energy -178501.657766 kJ/mol
# GULP energy per Si atom -5578.176805 kJ/mol
# Density = 1.610151 g / cm^3
# Si number density = 16.138238 Si / 1000 Ang^3
#
#
#
# Elastic Constant Matrix: (Units=GPa)
#
#
# Indices 1 2 3 4 5 6 
#
# 1 127.5441 31.4642 93.9694 0.0000 -11.8424 0.0000
# 2 31.4642 35.3073 33.3680 0.0000 -9.0079 0.0000
# 3 93.9694 33.3680 109.0058 0.0000 -24.6237 0.0000
# 4 0.0000 0.0000 0.0000 17.3419 0.0000 -9.2528
# 5 -11.8424 -9.0079 -24.6237 0.0000 29.0348 0.0000
# 6 0.0000 0.0000 0.0000 -9.2528 0.0000 20.7438
#
#
#
# Elastic Compliance Matrix: (Units=1/GPa)
#
#
# Indices 1 2 3 4 5 6 
#
# 1 0.023611 -0.003104 -0.021580 0.000000 -0.009635 0.000000
# 2 -0.003104 0.040407 -0.008841 0.000000 0.003772 0.000000
# 3 -0.021580 -0.008841 0.034482 0.000000 0.017698 0.000000
# 4 0.000000 0.000000 0.000000 0.075673 0.000000 0.033754
# 5 -0.009635 0.003772 0.017698 0.000000 0.046692 0.000000
# 6 0.000000 0.000000 0.000000 0.033754 0.000000 0.063263
#
#
# Mechanical properties :
#
#
# Convention : Reuss Voigt Hill
#
# Bulk Modulus (GPa) = 31.79790 65.49559 48.64675
# Shear Modulus (GPa) = 13.82510 20.96115 17.39312
#
# Velocity S-wave (km/s) = 2.93006 3.60787 3.28648
# Velocity P-wave (km/s) = 5.58509 7.61760 6.67911
#
# Compressibility (1/GPa) = 0.03144862
#
# Stress axis : x y z
#
# Youngs Moduli (GPa) = 42.35271 24.74828 29.00089
#
# Poissons Ratio (x) = 0.07682 0.62585
# Poissons Ratio (y) = 0.13147 0.25640
# Poissons Ratio (z) = 0.91399 0.21880
#
# Static dielectric constant tensor:
#      x y z
#    x 1.534170 0.000000 -0.018330 
#    y 0.000000 1.546270 0.000000 
#    z -0.018330 0.000000 1.539780 
# 
# From -- ./inp_files/61785.got.cif
#   From: 2010.05.17/outbox.cif.g08.bks.cpg/sg11_31_cif.got.tgz:61785.got - 2010.06.03 12:22:45.
