data_PCOD9158387
_publ_section_title
;
Structure prediction by ZEFSAII (Michael W. Deem and Ramdas Pophale) SiO2 
 PCOD9158387
Probable space group: P 21/M
;
_chemical_formula_sum "Si O2"
_cell_formula_units_Z 24
_cell_length_a 15.651845
_cell_length_b 8.906609
_cell_length_c 20.620737
_cell_angle_alpha 90.000000
_cell_angle_beta 150.592912
_cell_angle_gamma 90.000000
_cell_volume 1411.476970
_symmetry_space_group_name_H-M "P 21/M"
_symmetry_group_IT_number 11
_symmetry_cell_setting 'monoclinic'
loop_
_space_group_symop_operation_xyz
x,y,z
-x,1/2+y,-z
-x,-y,-z
x,1/2-y,z
loop_
_atom_site_type_symbol
_atom_site_label
_atom_site_fract_x
_atom_site_fract_y
_atom_site_fract_z
Si Si1 0.723505 0.078116 0.324033
Si Si2 0.533871 0.573343 0.309719
Si Si3 0.824230 0.428852 0.856967
Si Si4 0.307866 0.430033 0.363932
Si Si5 0.068000 0.423324 0.643765
Si Si6 0.822237 0.430746 0.593070
O O1 0.666516 0.250000 0.282949
O O2 0.897321 0.072634 0.484171
O O3 0.584390 0.980055 0.271192
O O4 0.784940 0.017812 0.295115
O O5 0.573716 0.750000 0.343292
O O6 0.334978 0.548779 0.198114
O O7 0.656094 0.482438 0.440520
O O8 0.842914 0.250000 0.858994
O O9 0.769428 0.508287 0.754011
O O10 0.000000 0.500000 0.000000
O O11 0.500000 0.500000 0.500000
O O12 0.318937 0.250000 0.371258
O O13 0.194300 0.488840 0.349231
O O14 0.122903 0.250000 0.684233
O O15 0.992326 0.472755 0.663101
O O16 0.818792 0.250000 0.597318
#
# Coordination Sequence:
#
# PCOD9158387 Si02
#       6
#     4   4   4   4   4   4
#     4   9  16  25  41  65  96 133 170 210 258 310
#     4  10  19  31  49  72 101 137 176 216 263 316
#     4  11  24  40  57  79 107 142 182 225 271 319
#     4  12  23  36  56  80 108 142 180 223 268 320
#     4   8  15  26  40  64  98 133 167 208 257 309
#     4  10  19  31  50  75 104 137 175 217 263 314
#
# _framework density 17.003464999999998
#
# number of rings (size 3 to 8) (size 9 to 14) (size 15 to 20)
#    0.000    2.000    1.667    4.500    0.000    6.667 
#    0.000    0.000    0.000    0.000    0.000    1.167 
#    0.000    0.000    0.000    0.000    0.000    0.000 
#
# Total GULP energy -133870.893625 kJ/mol
# GULP energy per Si atom -5577.953901 kJ/mol
# Density = 1.696476 g / cm^3
# Si number density = 17.003465 Si / 1000 Ang^3
#
#
#
# Elastic Constant Matrix: (Units=GPa)
#
#
# Indices 1 2 3 4 5 6 
#
# 1 156.5157 79.0832 42.9429 0.0000 -4.5585 0.0000
# 2 79.0832 114.1593 40.3380 0.0000 2.6991 0.0000
# 3 42.9429 40.3380 65.5645 0.0000 -3.1016 0.0000
# 4 0.0000 0.0000 0.0000 19.0286 0.0000 -1.1475
# 5 -4.5585 2.6991 -3.1016 0.0000 10.2185 0.0000
# 6 0.0000 0.0000 0.0000 -1.1475 0.0000 34.3227
#
#
#
# Elastic Compliance Matrix: (Units=1/GPa)
#
#
# Indices 1 2 3 4 5 6 
#
# 1 0.010576 -0.006525 -0.002646 0.000000 0.005638 0.000000
# 2 -0.006525 0.015489 -0.005668 0.000000 -0.008723 0.000000
# 3 -0.002646 -0.005668 0.020786 0.000000 0.006626 0.000000
# 4 0.000000 0.000000 0.000000 0.052659 0.000000 0.001761
# 5 0.005638 -0.008723 0.006626 0.000000 0.104692 0.000000
# 6 0.000000 0.000000 0.000000 0.001761 0.000000 0.029194
#
#
# Mechanical properties :
#
#
# Convention : Reuss Voigt Hill
#
# Bulk Modulus (GPa) = 58.23238 73.44085 65.83662
# Shear Modulus (GPa) = 18.60127 24.30566 21.45346
#
# Velocity S-wave (km/s) = 3.31111 3.78491 3.55591
# Velocity P-wave (km/s) = 6.99569 7.89849 7.46076
#
# Compressibility (1/GPa) = 0.01717258
#
# Stress axis : x y z
#
# Youngs Moduli (GPa) = 94.55178 64.56209 48.10914
#
# Poissons Ratio (x) = 0.42127 0.12730
# Poissons Ratio (y) = 0.61695 0.27270
# Poissons Ratio (z) = 0.25018 0.36596
#
# Static dielectric constant tensor:
#      x y z
#    x 1.607190 0.000000 -0.001980 
#    y 0.000000 1.570440 0.000000 
#    z -0.001980 0.000000 1.538140 
# 
# From -- ./inp_files/36998.got.cif
#   From: 2010.05.17/outbox.cif.g08.bks.cpg/sg11_19_cif.got.tgz:36998.got - 2010.06.03 12:22:45.
