data_PCOD9158711
_publ_section_title
;
Structure prediction by ZEFSAII (Michael W. Deem and Ramdas Pophale) SiO2 
 PCOD9158711
Probable space group: P 21/M
;
_chemical_formula_sum "Si O2"
_cell_formula_units_Z 32
_cell_length_a 15.841525
_cell_length_b 8.647283
_cell_length_c 15.894378
_cell_angle_alpha 90.000000
_cell_angle_beta 56.982354
_cell_angle_gamma 90.000000
_cell_volume 1825.680213
_symmetry_space_group_name_H-M "P 21/M"
_symmetry_group_IT_number 11
_symmetry_cell_setting 'monoclinic'
loop_
_space_group_symop_operation_xyz
x,y,z
-x,1/2+y,-z
-x,-y,-z
x,1/2-y,z
loop_
_atom_site_type_symbol
_atom_site_label
_atom_site_fract_x
_atom_site_fract_y
_atom_site_fract_z
Si Si1 0.588403 0.064118 0.145688
Si Si2 0.647411 0.563635 0.468656
Si Si3 0.132327 0.435716 0.589269
Si Si4 0.451384 0.065392 0.653307
Si Si5 0.828570 0.065055 0.614553
Si Si6 0.632666 0.563901 0.800312
Si Si7 0.728488 0.063750 0.917766
Si Si8 0.923718 0.565504 0.733763
O O1 0.589869 0.250000 0.151959
O O2 0.480328 0.021640 0.164017
O O3 0.593751 0.993856 0.235219
O O4 0.676045 0.018401 0.033504
O O5 0.643051 0.750000 0.475491
O O6 0.760491 0.516483 0.429630
O O7 0.612484 0.515332 0.394107
O O8 0.564004 0.498539 0.577709
O O9 0.125637 0.250000 0.593545
O O10 0.132117 0.495501 0.493586
O O11 0.036191 0.506501 0.688085
O O12 0.455122 0.250000 0.651760
O O13 0.834255 0.250000 0.610331
O O14 0.714137 0.009410 0.692845
O O15 0.889702 0.000523 0.661233
O O16 0.643027 0.750000 0.793035
O O17 0.662574 0.502183 0.876126
O O18 0.729942 0.250000 0.910370
O O19 0.840346 0.998978 0.843251
O O20 0.919606 0.750000 0.733722
#
# Coordination Sequence:
#
# PCOD9158711 Si02
#       8
#     4   4   4   4   4   4   4   4
#     4  10  21  34  51  75 104 137 170 207 252 301
#     4   9  20  37  55  77 106 136 164 201 252 303
#     4  11  21  35  54  74 100 134 170 208 252 300
#     4  10  20  34  55  81 106 133 166 204 247 299
#     4  11  21  33  49  74 106 137 171 207 247 297
#     4  10  19  32  49  73 105 138 171 207 250 295
#     4  10  20  35  52  72 100 136 175 210 250 296
#     4  11  22  36  52  73 101 133 171 212 254 296
#
# _framework density 17.527715000000001
#
# number of rings (size 3 to 8) (size 9 to 14) (size 15 to 20)
#    0.000    1.750    0.000    6.750    0.000    6.500 
#    0.000    0.000    0.000    0.750    0.000    0.000 
#    0.000    0.000    0.000    0.000    0.000    0.000 
#
# Total GULP energy -178789.727604 kJ/mol
# GULP energy per Si atom -5587.178988 kJ/mol
# Density = 1.748782 g / cm^3
# Si number density = 17.527715 Si / 1000 Ang^3
#
#
#
# Elastic Constant Matrix: (Units=GPa)
#
#
# Indices 1 2 3 4 5 6 
#
# 1 69.2648 22.0885 42.6510 0.0000 -23.2099 0.0000
# 2 22.0885 61.3127 26.1464 0.0000 -7.9295 0.0000
# 3 42.6510 26.1464 121.5792 0.0000 -12.3387 0.0000
# 4 0.0000 0.0000 0.0000 30.4811 0.0000 -1.4410
# 5 -23.2099 -7.9295 -12.3387 0.0000 21.3439 0.0000
# 6 0.0000 0.0000 0.0000 -1.4410 0.0000 19.8653
#
#
#
# Elastic Compliance Matrix: (Units=1/GPa)
#
#
# Indices 1 2 3 4 5 6 
#
# 1 0.028255 -0.004141 -0.006437 0.000000 0.025465 0.000000
# 2 -0.004141 0.019022 -0.002526 0.000000 0.001104 0.000000
# 3 -0.006437 -0.002526 0.010858 0.000000 -0.001662 0.000000
# 4 0.000000 0.000000 0.000000 0.032920 0.000000 0.002388
# 5 0.025465 0.001104 -0.001662 0.000000 0.073993 0.000000
# 6 0.000000 0.000000 0.000000 0.002388 0.000000 0.050512
#
#
# Mechanical properties :
#
#
# Convention : Reuss Voigt Hill
#
# Bulk Modulus (GPa) = 31.32190 48.21427 39.76809
# Shear Modulus (GPa) = 19.80909 25.08945 22.44927
#
# Velocity S-wave (km/s) = 3.36543 3.78751 3.58269
# Velocity P-wave (km/s) = 5.74545 6.83331 6.31286
#
# Compressibility (1/GPa) = 0.03192654
#
# Stress axis : x y z
#
# Youngs Moduli (GPa) = 35.39231 52.57206 92.09860
#
# Poissons Ratio (x) = 0.21768 0.59285
# Poissons Ratio (y) = 0.14654 0.23265
# Poissons Ratio (z) = 0.22782 0.13280
#
# Static dielectric constant tensor:
#      x y z
#    x 1.599860 0.000000 -0.011970 
#    y 0.000000 1.586890 0.000000 
#    z -0.011970 0.000000 1.588360 
# 
# From -- ./inp_files/51625.got.cif
#   From: 2010.05.17/outbox.cif.g08.bks.cpg/sg11_26_cif.got.tgz:51625.got - 2010.06.03 12:22:45.
