data_PCOD9158345
_publ_section_title
;
Structure prediction by ZEFSAII (Michael W. Deem and Ramdas Pophale) SiO2 
 PCOD9158345
Probable space group: P 21/M
;
_chemical_formula_sum "Si O2"
_cell_formula_units_Z 28
_cell_length_a 18.811505
_cell_length_b 8.856471
_cell_length_c 16.694236
_cell_angle_alpha 90.000000
_cell_angle_beta 36.338917
_cell_angle_gamma 90.000000
_cell_volume 1648.099620
_symmetry_space_group_name_H-M "P 21/M"
_symmetry_group_IT_number 11
_symmetry_cell_setting 'monoclinic'
loop_
_space_group_symop_operation_xyz
x,y,z
-x,1/2+y,-z
-x,-y,-z
x,1/2-y,z
loop_
_atom_site_type_symbol
_atom_site_label
_atom_site_fract_x
_atom_site_fract_y
_atom_site_fract_z
Si Si1 0.007864 0.070427 0.758237
Si Si2 0.916663 0.930476 0.006431
Si Si3 0.259282 0.932002 0.470953
Si Si4 0.322140 0.928745 0.711407
Si Si5 0.408957 0.071249 0.469789
Si Si6 0.087806 0.077800 0.307388
Si Si7 0.818925 0.076341 0.627411
O O1 0.016891 0.250000 0.758186
O O2 0.922407 0.026400 0.761156
O O3 0.138076 0.001453 0.618785
O O4 0.959694 0.996196 0.882783
O O5 0.925250 0.750000 0.998992
O O6 0.782407 0.984583 0.148031
O O7 0.000000 0.000000 0.000000
O O8 0.252150 0.750000 0.481093
O O9 0.260988 0.975180 0.375314
O O10 0.367616 0.994503 0.425313
O O11 0.295758 0.750000 0.731431
O O12 0.450623 0.949044 0.637895
O O13 0.337411 0.994515 0.608121
O O14 0.383337 0.250000 0.491404
O O15 0.113009 0.250000 0.261149
O O16 0.954345 0.075163 0.467984
O O17 0.176079 0.020795 0.296788
O O18 0.790382 0.250000 0.672935
#
# Coordination Sequence:
#
# PCOD9158345 Si02
#       7
#     4   4   4   4   4   4   4
#     4  11  21  33  49  70  99 133 167 201 243 292
#     4  12  24  38  54  73  99 129 164 202 243 289
#     4  10  19  31  48  72 102 132 165 203 243 288
#     4  10  21  37  54  73  98 128 164 202 242 288
#     4  10  20  34  53  75  99 128 162 201 244 288
#     4   9  16  27  43  65  94 127 162 199 240 287
#     4   8  15  26  41  64  94 128 161 196 239 285
#
# _framework density 16.989263999999999
#
# number of rings (size 3 to 8) (size 9 to 14) (size 15 to 20)
#    0.000    2.000    0.000    6.000    0.000    5.714 
#    0.000    0.000    0.000    0.000    0.000    1.000 
#    0.000    0.000    0.000    0.000    0.000    0.000 
#
# Total GULP energy -156261.284085 kJ/mol
# GULP energy per Si atom -5580.760146 kJ/mol
# Density = 1.695060 g / cm^3
# Si number density = 16.989264 Si / 1000 Ang^3
#
#
#
# Elastic Constant Matrix: (Units=GPa)
#
#
# Indices 1 2 3 4 5 6 
#
# 1 110.9991 52.6200 15.3845 0.0000 22.2090 0.0000
# 2 52.6200 121.8824 30.5138 0.0000 9.8415 0.0000
# 3 15.3845 30.5138 39.1542 0.0000 9.5350 0.0000
# 4 0.0000 0.0000 0.0000 23.9968 0.0000 3.5146
# 5 22.2090 9.8415 9.5350 0.0000 15.7180 0.0000
# 6 0.0000 0.0000 0.0000 3.5146 0.0000 32.9504
#
#
#
# Elastic Compliance Matrix: (Units=1/GPa)
#
#
# Indices 1 2 3 4 5 6 
#
# 1 0.015324 -0.005854 0.003427 0.000000 -0.020066 0.000000
# 2 -0.005854 0.012475 -0.008840 0.000000 0.005823 0.000000
# 3 0.003427 -0.008840 0.036272 0.000000 -0.021312 0.000000
# 4 0.000000 0.000000 0.000000 0.042334 0.000000 -0.004515
# 5 -0.020066 0.005823 -0.021312 0.000000 0.101257 0.000000
# 6 0.000000 0.000000 0.000000 -0.004515 0.000000 0.030830
#
#
# Mechanical properties :
#
#
# Convention : Reuss Voigt Hill
#
# Bulk Modulus (GPa) = 24.07374 52.11913 38.09644
# Shear Modulus (GPa) = 18.19043 26.10087 22.14565
#
# Velocity S-wave (km/s) = 3.27571 3.92384 3.61433
# Velocity P-wave (km/s) = 5.33926 7.16051 6.31588
#
# Compressibility (1/GPa) = 0.04153903
#
# Stress axis : x y z
#
# Youngs Moduli (GPa) = 65.25766 80.16229 27.56918
#
# Poissons Ratio (x) = 0.46923 -0.09449
# Poissons Ratio (y) = 0.38199 0.24371
# Poissons Ratio (z) = -0.22366 0.70862
#
# Static dielectric constant tensor:
#      x y z
#    x 1.599360 0.000000 -0.001490 
#    y 0.000000 1.572470 0.000000 
#    z -0.001490 0.000000 1.542640 
# 
# From -- ./inp_files/53226.got.cif
#   From: 2010.05.17/outbox.cif.g08.bks.cpg/sg11_27_cif.got.tgz:53226.got - 2010.06.03 12:22:45.
