data_PCOD9158424
_publ_section_title
;
Structure prediction by ZEFSAII (Michael W. Deem and Ramdas Pophale) SiO2 
 PCOD9158424
Probable space group: P 21/M
;
_chemical_formula_sum "Si O2"
_cell_formula_units_Z 32
_cell_length_a 23.514699
_cell_length_b 8.666174
_cell_length_c 28.800094
_cell_angle_alpha 90.000000
_cell_angle_beta 162.238384
_cell_angle_gamma 90.000000
_cell_volume 1790.367841
_symmetry_space_group_name_H-M "P 21/M"
_symmetry_group_IT_number 11
_symmetry_cell_setting 'monoclinic'
loop_
_space_group_symop_operation_xyz
x,y,z
-x,1/2+y,-z
-x,-y,-z
x,1/2-y,z
loop_
_atom_site_type_symbol
_atom_site_label
_atom_site_fract_x
_atom_site_fract_y
_atom_site_fract_z
Si Si1 0.843866 0.435862 0.343533
Si Si2 0.842222 0.936099 0.090039
Si Si3 0.153760 0.935198 0.154634
Si Si4 0.576256 0.063101 0.211652
Si Si5 0.887716 0.935092 0.523901
Si Si6 0.426431 0.435982 0.543024
Si Si7 0.160300 0.934143 0.411050
Si Si8 0.109544 0.065278 0.223047
O O1 0.849660 0.250000 0.348661
O O2 0.650356 0.481898 0.217699
O O3 0.000000 0.500000 0.500000
O O4 0.918099 0.483943 0.350608
O O5 0.844833 0.750000 0.086872
O O6 0.982056 0.976559 0.240728
O O7 0.633117 0.985553 0.939501
O O8 0.929432 0.010701 0.111897
O O9 0.148432 0.750000 0.149520
O O10 0.362205 0.985399 0.301772
O O11 0.117608 0.992561 0.178649
O O12 0.000000 0.000000 0.000000
O O13 0.583110 0.250000 0.219856
O O14 0.720773 0.995402 0.361321
O O15 0.881524 0.750000 0.520522
O O16 0.863310 0.000175 0.556112
O O17 0.421577 0.250000 0.541582
O O18 0.338212 0.501828 0.521500
O O19 0.288914 0.482870 0.393778
O O20 0.172450 0.750000 0.422640
O O21 0.110547 0.250000 0.220129
#
# Coordination Sequence:
#
# PCOD9158424 Si02
#       8
#     4   4   4   4   4   4   4   4
#     4   8  15  28  47  70  96 129 167 207 251 299
#     4   9  19  35  54  76 102 133 170 211 252 297
#     4  11  23  38  56  80 109 136 166 207 252 296
#     4   9  17  32  53  74  98 130 170 213 255 300
#     4  10  19  31  49  74 103 133 168 210 255 303
#     4   9  20  38  58  78 101 133 171 209 249 297
#     4  10  20  34  53  76 102 134 171 209 250 298
#     4  10  20  36  58  80 103 134 170 206 249 302
#
# _framework density 17.873422000000001
#
# number of rings (size 3 to 8) (size 9 to 14) (size 15 to 20)
#    0.000    2.500    0.000    1.875    0.000    4.000 
#    0.000    0.625    0.000    0.000    0.000    0.000 
#    0.000    0.000    0.000    0.000    0.000    0.000 
#
# Total GULP energy -178427.310730 kJ/mol
# GULP energy per Si atom -5575.853460 kJ/mol
# Density = 1.783274 g / cm^3
# Si number density = 17.873422 Si / 1000 Ang^3
#
#
#
# Elastic Constant Matrix: (Units=GPa)
#
#
# Indices 1 2 3 4 5 6 
#
# 1 206.0042 43.7846 92.5057 0.0000 22.5941 0.0000
# 2 43.7846 23.3527 29.0587 0.0000 7.2869 0.0000
# 3 92.5057 29.0587 115.3062 0.0000 36.5487 0.0000
# 4 0.0000 0.0000 0.0000 22.6503 0.0000 0.8419
# 5 22.5941 7.2869 36.5487 0.0000 28.2528 0.0000
# 6 0.0000 0.0000 0.0000 0.8419 0.0000 -11.6493
#
#
#
# Elastic Compliance Matrix: (Units=1/GPa)
#
#
# Indices 1 2 3 4 5 6 
#
# 1 0.009566 -0.011919 -0.005459 0.000000 0.002485 0.000000
# 2 -0.011919 0.078112 -0.011456 0.000000 0.004205 0.000000
# 3 -0.005459 -0.011456 0.023084 0.000000 -0.022542 0.000000
# 4 0.000000 0.000000 0.000000 0.044031 0.000000 0.003182
# 5 0.002485 0.004205 -0.022542 0.000000 0.061484 0.000000
# 6 0.000000 0.000000 0.000000 0.003182 0.000000 -0.085612
#
#
# Mechanical properties :
#
#
# Convention : Reuss Voigt Hill
#
# Bulk Modulus (GPa) = 18.83416 75.04015 46.93715
# Shear Modulus (GPa) = 24.26821 19.80503 22.03662
#
# Velocity S-wave (km/s) = 3.68881 3.33238 3.51512
# Velocity P-wave (km/s) = 5.35756 7.54200 6.54160
#
# Compressibility (1/GPa) = 0.05309502
#
# Stress axis : x y z
#
# Youngs Moduli (GPa) = 104.53537 12.80212 43.31988
#
# Poissons Ratio (x) = 0.15259 0.23646
# Poissons Ratio (y) = 1.24596 0.49627
# Poissons Ratio (z) = 0.57061 0.14666
#
# Static dielectric constant tensor:
#      x y z
#    x 1.604370 0.000000 0.028600 
#    y 0.000000 1.599470 0.000000 
#    z 0.028600 0.000000 1.598940 
# 
# From -- ./inp_files/66972.got.cif
#   From: 2010.05.17/outbox.cif.g08.bks.cpg/sg11_34_cif.got.tgz:66972.got - 2010.06.03 12:22:45.
