data_PCOD9158484
_publ_section_title
;
Structure prediction by ZEFSAII (Michael W. Deem and Ramdas Pophale) SiO2 
 PCOD9158484
Probable space group: P 21/M
;
_chemical_formula_sum "Si O2"
_cell_formula_units_Z 32
_cell_length_a 12.481926
_cell_length_b 13.232589
_cell_length_c 12.710179
_cell_angle_alpha 90.000000
_cell_angle_beta 143.719300
_cell_angle_gamma 90.000000
_cell_volume 1242.253550
_symmetry_space_group_name_H-M "P 21/M"
_symmetry_group_IT_number 11
_symmetry_cell_setting 'monoclinic'
loop_
_space_group_symop_operation_xyz
x,y,z
-x,1/2+y,-z
-x,-y,-z
x,1/2-y,z
loop_
_atom_site_type_symbol
_atom_site_label
_atom_site_fract_x
_atom_site_fract_y
_atom_site_fract_z
Si Si1 0.230694 0.076171 0.658214
Si Si2 0.821931 0.571309 0.611537
Si Si3 0.688555 0.641936 0.053525
Si Si4 0.254118 0.857446 0.750090
Si Si5 0.664662 0.077609 0.962103
Si Si6 0.608941 0.070004 0.695091
Si Si7 0.869005 0.138789 0.736249
Si Si8 0.174463 0.363488 0.158874
O O1 0.213284 0.131604 0.755884
O O2 0.146982 0.112071 0.481686
O O3 0.183231 0.958558 0.640263
O O4 0.448653 0.080704 0.812203
O O5 0.604939 0.573930 0.458801
O O6 0.878404 0.453742 0.663389
O O7 0.895841 0.622384 0.776213
O O8 0.733283 0.750000 0.039137
O O9 0.720451 0.540168 0.014595
O O10 0.471496 0.641820 0.900757
O O11 0.180953 0.750000 0.655766
O O12 0.242857 0.868263 0.867219
O O13 0.691627 0.116539 0.866822
O O14 0.680281 0.126064 0.649330
O O15 0.685753 0.955525 0.748307
O O16 0.879079 0.250000 0.697297
O O17 0.016263 0.126691 0.946715
O O18 0.250425 0.250000 0.210471
#
# Coordination Sequence:
#
# PCOD9158484 Si02
#       8
#     4   4   4   4   4   4   4   4
#     4   8  15  25  38  63  94 121 151 184 225 276
#     4  10  19  31  50  75 100 123 153 200 246 280
#     4   8  13  23  38  57  89 128 154 176 216 274
#     4   8  13  23  38  57  89 128 154 176 216 274
#     4   8  15  25  38  63  94 121 151 184 225 276
#     4  10  19  31  50  75 100 123 153 200 246 280
#     4  10  21  36  51  67  92 128 165 197 234 287
#     4  10  21  36  51  67  92 128 165 197 234 287
#
# _framework density 25.759636
#
# number of rings (size 3 to 8) (size 9 to 14) (size 15 to 20)
#    0.000    3.000    0.000    4.500    0.000    4.000 
#    0.000    5.000    0.000    0.000    0.000   14.000 
#    0.000   24.000    0.000    0.000    0.000    0.000 
#
# Total GULP energy -178974.123855 kJ/mol
# GULP energy per Si atom -5592.941370 kJ/mol
# Density = 2.570101 g / cm^3
# Si number density = 25.759636 Si / 1000 Ang^3
#
#
#
# Elastic Constant Matrix: (Units=GPa)
#
#
# Indices 1 2 3 4 5 6 
#
# 1 61.4018 -9.9093 32.0468 0.0000 -6.0621 0.0000
# 2 -9.9093 94.8300 1.0244 0.0000 11.5897 0.0000
# 3 32.0468 1.0244 108.2690 0.0000 5.8334 0.0000
# 4 0.0000 0.0000 0.0000 14.0973 0.0000 9.6457
# 5 -6.0621 11.5897 5.8334 0.0000 49.2637 0.0000
# 6 0.0000 0.0000 0.0000 9.6457 0.0000 -23.8186
#
#
#
# Elastic Compliance Matrix: (Units=1/GPa)
#
#
# Indices 1 2 3 4 5 6 
#
# 1 0.020034 0.001822 -0.006096 0.000000 0.002758 0.000000
# 2 0.001822 0.011023 -0.000519 0.000000 -0.002308 0.000000
# 3 -0.006096 -0.000519 0.011150 0.000000 -0.001948 0.000000
# 4 0.000000 0.000000 0.000000 0.055545 0.000000 0.022494
# 5 0.002758 -0.002308 -0.001948 0.000000 0.021412 0.000000
# 6 0.000000 0.000000 0.000000 0.022494 0.000000 -0.032875
#
#
# Mechanical properties :
#
#
# Convention : Reuss Voigt Hill
#
# Bulk Modulus (GPa) = 30.65426 34.53609 32.59518
# Shear Modulus (GPa) = 46.83862 23.99774 35.41818
#
# Velocity S-wave (km/s) = 4.26877 3.05553 3.71205
# Velocity P-wave (km/s) = 6.01851 5.08768 5.57257
#
# Compressibility (1/GPa) = 0.03262189
#
# Stress axis : x y z
#
# Youngs Moduli (GPa) = 49.91490 90.71756 89.68246
#
# Poissons Ratio (x) = -0.16530 0.54669
# Poissons Ratio (y) = -0.09095 0.04657
# Poissons Ratio (z) = 0.30427 0.04711
#
# Static dielectric constant tensor:
#      x y z
#    x 2.056950 0.000000 0.043730 
#    y 0.000000 1.979060 0.000000 
#    z 0.043730 0.000000 2.014990 
# 
# From -- ./inp_files/53731.got.cif
#   From: 2010.05.17/outbox.cif.g08.bks.cpg/sg11_27_cif.got.tgz:53731.got - 2010.06.03 12:22:45.
