data_PCOD9158925
_publ_section_title
;
Structure prediction by ZEFSAII (Michael W. Deem and Ramdas Pophale) SiO2 
 PCOD9158925
Probable space group: P 21/M
;
_chemical_formula_sum "Si O2"
_cell_formula_units_Z 24
_cell_length_a 9.475113
_cell_length_b 8.788664
_cell_length_c 25.069425
_cell_angle_alpha 90.000000
_cell_angle_beta 139.213358
_cell_angle_gamma 90.000000
_cell_volume 1363.726023
_symmetry_space_group_name_H-M "P 21/M"
_symmetry_group_IT_number 11
_symmetry_cell_setting 'monoclinic'
loop_
_space_group_symop_operation_xyz
x,y,z
-x,1/2+y,-z
-x,-y,-z
x,1/2-y,z
loop_
_atom_site_type_symbol
_atom_site_label
_atom_site_fract_x
_atom_site_fract_y
_atom_site_fract_z
Si Si1 0.672882 0.067384 0.509247
Si Si2 0.158695 0.568102 0.001365
Si Si3 0.763106 0.067075 0.420944
Si Si4 0.146487 0.932251 0.667256
Si Si5 0.339789 0.067919 0.829279
Si Si6 0.260307 0.067294 0.922764
O O1 0.672774 0.250000 0.512600
O O2 0.627069 0.021802 0.434169
O O3 0.500000 0.000000 0.500000
O O4 0.910338 0.005888 0.592239
O O5 0.138308 0.750000 0.993313
O O6 0.121872 0.500097 0.931615
O O7 0.407072 0.531740 0.088628
O O8 0.000000 0.500000 0.000000
O O9 0.775502 0.250000 0.425659
O O10 0.714210 0.023803 0.345857
O O11 0.000000 0.000000 0.500000
O O12 0.123921 0.750000 0.661374
O O13 0.251834 0.987405 0.751892
O O14 0.323852 0.250000 0.817952
O O15 0.211301 0.027735 0.847103
O O16 0.267465 0.250000 0.928942
O O17 0.500000 0.000000 0.000000
#
# Coordination Sequence:
#
# PCOD9158925 Si02
#       6
#     4   4   4   4   4   4
#     4  10  19  33  52  73 100 131 164 204 248 295
#     4  10  20  34  53  76 102 133 170 210 252 299
#     4   8  16  30  48  70  95 125 161 199 239 287
#     4  10  19  32  52  76  99 127 165 205 246 294
#     4   9  19  34  51  74 102 131 163 202 249 298
#     4   9  17  31  51  73  99 131 168 206 247 301
#
# _framework density 17.598845000000001
#
# number of rings (size 3 to 8) (size 9 to 14) (size 15 to 20)
#    0.000    2.667    0.000    3.000    0.000    5.333 
#    0.000    1.667    0.000    4.000    0.000    0.000 
#    0.000    0.000    0.000    0.000    0.000    0.000 
#
# Total GULP energy -133642.993546 kJ/mol
# GULP energy per Si atom -5568.458064 kJ/mol
# Density = 1.755879 g / cm^3
# Si number density = 17.598845 Si / 1000 Ang^3
#
#
#
# Elastic Constant Matrix: (Units=GPa)
#
#
# Indices 1 2 3 4 5 6 
#
# 1 161.7370 52.6786 64.5964 0.0000 -51.6272 0.0000
# 2 52.6786 47.8078 44.6727 0.0000 -20.4370 0.0000
# 3 64.5964 44.6727 98.3543 0.0000 -46.1394 0.0000
# 4 0.0000 0.0000 0.0000 28.2574 0.0000 -3.9207
# 5 -51.6272 -20.4370 -46.1394 0.0000 36.8471 0.0000
# 6 0.0000 0.0000 0.0000 -3.9207 0.0000 30.7394
#
#
#
# Elastic Compliance Matrix: (Units=1/GPa)
#
#
# Indices 1 2 3 4 5 6 
#
# 1 0.014633 -0.012807 0.006040 0.000000 0.020963 0.000000
# 2 -0.012807 0.047573 -0.022386 0.000000 -0.019590 0.000000
# 3 0.006040 -0.022386 0.035177 0.000000 0.040096 0.000000
# 4 0.000000 0.000000 0.000000 0.036027 0.000000 0.004595
# 5 0.020963 -0.019590 0.040096 0.000000 0.095853 0.000000
# 6 0.000000 0.000000 0.000000 0.004595 0.000000 0.033118
#
#
# Mechanical properties :
#
#
# Convention : Reuss Voigt Hill
#
# Bulk Modulus (GPa) = 25.59000 70.19938 47.89469
# Shear Modulus (GPa) = 14.98295 28.89888 21.94091
#
# Velocity S-wave (km/s) = 2.92097 4.05667 3.53473
# Velocity P-wave (km/s) = 5.09396 7.86875 6.62819
#
# Compressibility (1/GPa) = 0.03907776
#
# Stress axis : x y z
#
# Youngs Moduli (GPa) = 68.33717 21.02033 28.42735
#
# Poissons Ratio (x) = 0.26921 -0.17172
# Poissons Ratio (y) = 0.87520 0.63639
# Poissons Ratio (z) = -0.41279 0.47057
#
# Static dielectric constant tensor:
#      x y z
#    x 1.662590 0.000000 -0.027960 
#    y 0.000000 1.583500 0.000000 
#    z -0.027960 0.000000 1.608010 
# 
# From -- ./inp_files/23737.got.cif
#   From: 2010.05.17/outbox.cif.g08.bks.cpg/sg11_12_cif.got.tgz:23737.got - 2010.06.03 12:22:45.
