data_PCOD9158405
_publ_section_title
;
Structure prediction by ZEFSAII (Michael W. Deem and Ramdas Pophale) SiO2 
 PCOD9158405
Probable space group: P 21/M
;
_chemical_formula_sum "Si O2"
_cell_formula_units_Z 28
_cell_length_a 9.155534
_cell_length_b 9.309521
_cell_length_c 26.307462
_cell_angle_alpha 90.000000
_cell_angle_beta 134.958886
_cell_angle_gamma 90.000000
_cell_volume 1586.669176
_symmetry_space_group_name_H-M "P 21/M"
_symmetry_group_IT_number 11
_symmetry_cell_setting 'monoclinic'
loop_
_space_group_symop_operation_xyz
x,y,z
-x,1/2+y,-z
-x,-y,-z
x,1/2-y,z
loop_
_atom_site_type_symbol
_atom_site_label
_atom_site_fract_x
_atom_site_fract_y
_atom_site_fract_z
Si Si1 0.447265 0.914322 0.564647
Si Si2 0.822876 0.585256 0.574424
Si Si3 0.348172 0.922648 0.001510
Si Si4 0.126116 0.421883 0.138432
Si Si5 0.912390 0.578344 0.282303
Si Si6 0.562400 0.421481 0.859908
Si Si7 0.210258 0.422846 0.276241
O O1 0.373803 0.750000 0.550391
O O2 0.633188 0.915625 0.568585
O O3 0.564135 0.957236 0.645057
O O4 0.270374 0.016010 0.499369
O O5 0.886330 0.750000 0.583020
O O6 0.999445 0.491405 0.644428
O O7 0.369699 0.750000 0.001841
O O8 0.402871 0.962468 0.072818
O O9 0.111452 0.960446 0.930954
O O10 0.500000 0.000000 0.000000
O O11 0.145078 0.250000 0.137082
O O12 0.276727 0.499336 0.136502
O O13 0.184260 0.457077 0.210849
O O14 0.944599 0.750000 0.290546
O O15 0.671859 0.547858 0.214441
O O16 0.042886 0.506775 0.268723
O O17 0.594211 0.250000 0.864104
O O18 0.181445 0.250000 0.276184
#
# Coordination Sequence:
#
# PCOD9158405 Si02
#       7
#     4   4   4   4   4   4   4
#     4   8  14  25  42  66  98 130 160 203 257 305
#     4   9  16  26  43  69  99 129 165 210 256 301
#     4  10  21  37  57  82 108 134 169 211 253 299
#     4  10  21  36  55  78 104 136 173 210 251 301
#     4  10  19  31  49  73 101 135 173 211 254 303
#     4  10  22  37  52  75 107 139 172 209 251 302
#     4   9  18  32  50  75 103 131 169 214 256 301
#
# _framework density 17.647030999999998
#
# number of rings (size 3 to 8) (size 9 to 14) (size 15 to 20)
#    0.000    2.571    0.000    3.000    0.000    6.286 
#    0.000    0.000    0.000    0.857    0.000    0.000 
#    0.000    0.000    0.000    0.000    0.000    0.000 
#
# Total GULP energy -156191.281532 kJ/mol
# GULP energy per Si atom -5578.260055 kJ/mol
# Density = 1.760687 g / cm^3
# Si number density = 17.647031 Si / 1000 Ang^3
#
#
#
# Elastic Constant Matrix: (Units=GPa)
#
#
# Indices 1 2 3 4 5 6 
#
# 1 98.9627 59.5573 85.2143 0.0000 4.9067 0.0000
# 2 59.5573 63.4051 82.2347 0.0000 -1.3547 0.0000
# 3 85.2143 82.2347 193.5188 0.0000 -6.6047 0.0000
# 4 0.0000 0.0000 0.0000 19.7279 0.0000 0.6733
# 5 4.9067 -1.3547 -6.6047 0.0000 -4.5247 0.0000
# 6 0.0000 0.0000 0.0000 0.6733 0.0000 29.0639
#
#
#
# Elastic Compliance Matrix: (Units=1/GPa)
#
#
# Indices 1 2 3 4 5 6 
#
# 1 0.019461 -0.017328 -0.000294 0.000000 0.026722 0.000000
# 2 -0.017328 0.050025 -0.014079 0.000000 -0.013217 0.000000
# 3 -0.000294 -0.014079 0.010871 0.000000 -0.011973 0.000000
# 4 0.000000 0.000000 0.000000 0.050730 0.000000 -0.001175
# 5 0.026722 -0.013217 -0.011973 0.000000 -0.170598 0.000000
# 6 0.000000 0.000000 0.000000 -0.001175 0.000000 0.034434
#
#
# Mechanical properties :
#
#
# Convention : Reuss Voigt Hill
#
# Bulk Modulus (GPa) = 58.97613 89.98881 74.48247
# Shear Modulus (GPa) = 78.15171 17.44543 47.79857
#
# Velocity S-wave (km/s) = 6.66200 3.14757 5.21006
# Velocity P-wave (km/s) = 9.62646 8.01961 8.85954
#
# Compressibility (1/GPa) = 0.01695601
#
# Stress axis : x y z
#
# Youngs Moduli (GPa) = 51.38379 19.98984 91.98563
#
# Poissons Ratio (x) = 0.34638 0.02708
# Poissons Ratio (y) = 0.89036 1.29507
# Poissons Ratio (z) = 0.01513 0.28144
#
# Static dielectric constant tensor:
#      x y z
#    x 1.558130 0.000000 -0.010010 
#    y 0.000000 1.591510 0.000000 
#    z -0.010010 0.000000 1.612930 
# 
# From -- ./inp_files/70799.got.cif
#   From: 2010.05.17/outbox.cif.g08.bks.cpg/sg11_36_cif.got.tgz:70799.got - 2010.06.03 12:22:45.
