data_PCOD9158275
_publ_section_title
;
Structure prediction by ZEFSAII (Michael W. Deem and Ramdas Pophale) SiO2 
 PCOD9158275
Probable space group: P 21/M
;
_chemical_formula_sum "Si O2"
_cell_formula_units_Z 32
_cell_length_a 18.949585
_cell_length_b 23.651945
_cell_length_c 14.726786
_cell_angle_alpha 90.000000
_cell_angle_beta 161.356449
_cell_angle_gamma 90.000000
_cell_volume 2110.034203
_symmetry_space_group_name_H-M "P 21/M"
_symmetry_group_IT_number 11
_symmetry_cell_setting 'monoclinic'
loop_
_space_group_symop_operation_xyz
x,y,z
-x,1/2+y,-z
-x,-y,-z
x,1/2-y,z
loop_
_atom_site_type_symbol
_atom_site_label
_atom_site_fract_x
_atom_site_fract_y
_atom_site_fract_z
Si Si1 0.872092 0.684620 0.190283
Si Si2 0.061853 0.869163 0.242305
Si Si3 0.407765 0.519794 0.242880
Si Si4 0.620624 0.473556 0.326945
Si Si5 0.574840 0.908196 0.610801
Si Si6 0.605822 0.185773 0.488525
Si Si7 0.856395 0.920425 0.295217
Si Si8 0.945919 0.520151 0.583529
O O1 0.921631 0.750000 0.270832
O O2 0.886419 0.641976 0.292061
O O3 0.021346 0.661227 0.289538
O O4 0.621995 0.681202 0.846606
O O5 0.200885 0.926335 0.427154
O O6 0.197174 0.830376 0.338401
O O7 0.822712 0.884357 0.910635
O O8 0.555523 0.512065 0.333344
O O9 0.420011 0.460020 0.311078
O O10 0.493780 0.566834 0.416954
O O11 0.156904 0.529611 0.905135
O O12 0.728873 0.509419 0.378233
O O13 0.395914 0.441535 0.024805
O O14 0.418937 0.859697 0.461701
O O15 0.624790 0.250000 0.544420
O O16 0.921264 0.931337 0.478148
O O17 0.999869 0.962989 0.407286
#
# Coordination Sequence:
#
# PCOD9158275 Si02
#       8
#     4   4   4   4   4   4   4   4
#     4  10  19  31  47  70  99 126 156 195 236 285
#     4  11  17  30  48  72 101 125 153 191 238 287
#     4  10  20  32  47  73  98 129 163 192 238 288
#     4  11  17  30  48  72 100 126 153 191 239 285
#     4  10  20  32  48  70 101 129 159 197 234 286
#     4  10  19  32  49  70  97 128 159 194 239 288
#     4  10  19  31  48  72  95 128 160 193 237 291
#     4  10  19  32  49  68 100 127 159 198 235 281
#
# _framework density 15.16563
#
# number of rings (size 3 to 8) (size 9 to 14) (size 15 to 20)
#    0.000    1.750    5.000    2.250    0.000    2.000 
#    0.000    0.000    0.000    0.750    0.000    0.875 
#    0.000    0.000    0.000    0.000    0.000    0.000 
#
# Total GULP energy -178496.836572 kJ/mol
# GULP energy per Si atom -5578.026143 kJ/mol
# Density = 1.513111 g / cm^3
# Si number density = 15.165630 Si / 1000 Ang^3
#
#
#
# Elastic Constant Matrix: (Units=GPa)
#
#
# Indices 1 2 3 4 5 6 
#
# 1 100.7586 58.8828 51.3317 0.0000 8.0380 0.0000
# 2 58.8828 105.9981 30.1159 0.0000 -2.7431 0.0000
# 3 51.3317 30.1159 40.1202 0.0000 9.4918 0.0000
# 4 0.0000 0.0000 0.0000 15.3102 0.0000 -4.7462
# 5 8.0380 -2.7431 9.4918 0.0000 29.8548 0.0000
# 6 0.0000 0.0000 0.0000 -4.7462 0.0000 20.4784
#
#
#
# Elastic Compliance Matrix: (Units=1/GPa)
#
#
# Indices 1 2 3 4 5 6 
#
# 1 0.033326 -0.007880 -0.037230 0.000000 0.002140 0.000000
# 2 -0.007880 0.014384 -0.001655 0.000000 0.003969 0.000000
# 3 -0.037230 -0.001655 0.077279 0.000000 -0.014698 0.000000
# 4 0.000000 0.000000 0.000000 0.070372 0.000000 0.016310
# 5 0.002140 0.003969 -0.014698 0.000000 0.037957 0.000000
# 6 0.000000 0.000000 0.000000 0.016310 0.000000 0.052612
#
#
# Mechanical properties :
#
#
# Convention : Reuss Voigt Hill
#
# Bulk Modulus (GPa) = 31.78705 58.61530 45.20117
# Shear Modulus (GPa) = 12.82228 20.23177 16.52703
#
# Velocity S-wave (km/s) = 2.91087 3.65643 3.30475
# Velocity P-wave (km/s) = 5.68357 7.52064 6.66570
#
# Compressibility (1/GPa) = 0.03145935
#
# Stress axis : x y z
#
# Youngs Moduli (GPa) = 30.00675 69.52050 12.94013
#
# Poissons Ratio (x) = 0.54779 0.48176
# Poissons Ratio (y) = 0.23644 0.02142
# Poissons Ratio (z) = 1.11716 0.11505
#
# Static dielectric constant tensor:
#      x y z
#    x 1.501420 0.000000 0.009660 
#    y 0.000000 1.495420 0.000000 
#    z 0.009660 0.000000 1.498840 
# 
# From -- ./inp_files/7181.got.cif
#   From: 2010.05.17/outbox.cif.g08.bks.cpg/sg11_4_cif.got.tgz:7181.got - 2010.06.03 12:22:45.
