data_PCOD9158139
_publ_section_title
;
Structure prediction by ZEFSAII (Michael W. Deem and Ramdas Pophale) SiO2 
 PCOD9158139
Probable space group: P 21/M
;
_chemical_formula_sum "Si O2"
_cell_formula_units_Z 32
_cell_length_a 23.725401
_cell_length_b 7.471062
_cell_length_c 23.377653
_cell_angle_alpha 90.000000
_cell_angle_beta 20.734513
_cell_angle_gamma 90.000000
_cell_volume 1467.057062
_symmetry_space_group_name_H-M "P 21/M"
_symmetry_group_IT_number 11
_symmetry_cell_setting 'monoclinic'
loop_
_space_group_symop_operation_xyz
x,y,z
-x,1/2+y,-z
-x,-y,-z
x,1/2-y,z
loop_
_atom_site_type_symbol
_atom_site_label
_atom_site_fract_x
_atom_site_fract_y
_atom_site_fract_z
Si Si1 0.235813 0.954173 0.073718
Si Si2 0.537659 0.961080 0.396310
Si Si3 0.788493 0.965899 0.651326
Si Si4 0.176969 0.036499 0.817308
Si Si5 0.409125 0.031049 0.267404
Si Si6 0.115292 0.030127 0.628652
Si Si7 0.770975 0.546881 0.357698
Si Si8 0.845284 0.539176 0.723742
O O1 0.235520 0.750000 0.052430
O O2 0.062975 0.031238 0.219140
O O3 0.225976 0.953277 0.152040
O O4 0.409870 0.031011 0.892051
O O5 0.525975 0.750000 0.397009
O O6 0.717595 0.027024 0.229226
O O7 0.500000 0.000000 0.500000
O O8 0.421060 0.050784 0.462155
O O9 0.785377 0.750000 0.656207
O O10 0.651241 0.024651 0.738386
O O11 0.780927 0.030461 0.723901
O O12 0.963107 0.014351 0.461031
O O13 0.210342 0.250000 0.781343
O O14 0.200912 0.959339 0.730888
O O15 0.000000 0.000000 0.000000
O O16 0.414110 0.250000 0.263611
O O17 0.264181 0.976704 0.447039
O O18 0.114550 0.250000 0.626923
O O19 0.158006 0.969787 0.652300
O O20 0.832286 0.750000 0.296788
O O21 0.812774 0.750000 0.758401
#
# Coordination Sequence:
#
# PCOD9158139 Si02
#       8
#     4   4   4   4   4   4   4   4
#     4  10  19  33  55  76 100 136 173 214 261 310
#     4   9  17  31  51  74  99 129 164 200 241 293
#     4   9  17  32  52  74 102 134 174 218 260 316
#     4   9  18  31  48  74 106 133 162 201 247 296
#     4   9  17  31  54  79  97 129 177 216 259 310
#     4   9  17  33  54  76 104 133 172 221 255 297
#     4   9  18  33  52  76 101 130 168 210 251 295
#     4  10  19  30  49  76 104 135 170 214 268 317
#
# _framework density 21.812374999999999
#
# number of rings (size 3 to 8) (size 9 to 14) (size 15 to 20)
#    0.000    2.750    1.250    1.500    0.000    3.500 
#    2.250    1.250    0.000    0.000    0.000    0.000 
#    0.000    0.000    0.000    0.000    0.000    0.000 
#
# Total GULP energy -178200.681186 kJ/mol
# GULP energy per Si atom -5568.771287 kJ/mol
# Density = 2.176273 g / cm^3
# Si number density = 21.812375 Si / 1000 Ang^3
#
#
#
# Elastic Constant Matrix: (Units=GPa)
#
#
# Indices 1 2 3 4 5 6 
#
# 1 130.3526 3.1682 69.8636 0.0000 -25.0124 0.0000
# 2 3.1682 68.6590 0.6954 0.0000 -0.0530 0.0000
# 3 69.8636 0.6954 126.6781 0.0000 -36.2643 0.0000
# 4 0.0000 0.0000 0.0000 7.9238 0.0000 -0.9799
# 5 -25.0124 -0.0530 -36.2643 0.0000 24.1440 0.0000
# 6 0.0000 0.0000 0.0000 -0.9799 0.0000 9.0722
#
#
#
# Elastic Compliance Matrix: (Units=1/GPa)
#
#
# Indices 1 2 3 4 5 6 
#
# 1 0.011126 -0.000460 -0.004972 0.000000 0.004057 0.000000
# 2 -0.000460 0.014585 0.000081 0.000000 -0.000322 0.000000
# 3 -0.004972 0.000081 0.016072 0.000000 0.018989 0.000000
# 4 0.000000 0.000000 0.000000 0.127910 0.000000 0.013815
# 5 0.004057 -0.000322 0.018989 0.000000 0.074142 0.000000
# 6 0.000000 0.000000 0.000000 0.013815 0.000000 0.111719
#
#
# Mechanical properties :
#
#
# Convention : Reuss Voigt Hill
#
# Bulk Modulus (GPa) = 32.17382 52.57158 42.37270
# Shear Modulus (GPa) = 13.27613 25.02549 19.15081
#
# Velocity S-wave (km/s) = 2.46976 3.39087 2.96629
# Velocity P-wave (km/s) = 4.78699 6.28368 5.58569
#
# Compressibility (1/GPa) = 0.03108117
#
# Stress axis : x y z
#
# Youngs Moduli (GPa) = 89.87958 68.56419 62.22106
#
# Poissons Ratio (x) = 0.03153 0.30937
# Poissons Ratio (y) = 0.04134 -0.00506
# Poissons Ratio (z) = 0.44689 -0.00557
#
# Static dielectric constant tensor:
#      x y z
#    x 1.769760 0.000000 -0.122430 
#    y 0.000000 1.832290 0.000000 
#    z -0.122430 0.000000 1.627610 
# 
# From -- ./inp_files/69934.got.cif
#   From: 2010.05.17/outbox.cif.g08.bks.cpg/sg11_35_cif.got.tgz:69934.got - 2010.06.03 12:22:45.
