data_PCOD9158237
_publ_section_title
;
Structure prediction by ZEFSAII (Michael W. Deem and Ramdas Pophale) SiO2 
 PCOD9158237
Probable space group: P 21/M
;
_chemical_formula_sum "Si O2"
_cell_formula_units_Z 28
_cell_length_a 30.488796
_cell_length_b 10.134108
_cell_length_c 30.488986
_cell_angle_alpha 90.000000
_cell_angle_beta 170.040957
_cell_angle_gamma 90.000000
_cell_volume 1629.201052
_symmetry_space_group_name_H-M "P 21/M"
_symmetry_group_IT_number 11
_symmetry_cell_setting 'monoclinic'
loop_
_space_group_symop_operation_xyz
x,y,z
-x,1/2+y,-z
-x,-y,-z
x,1/2-y,z
loop_
_atom_site_type_symbol
_atom_site_label
_atom_site_fract_x
_atom_site_fract_y
_atom_site_fract_z
Si Si1 0.048897 0.408925 0.950103
Si Si2 0.203130 0.018339 0.795601
Si Si3 0.323726 0.590291 0.677639
Si Si4 0.899086 0.911316 0.098692
Si Si5 0.521234 0.410266 0.477804
Si Si6 0.769407 0.250000 0.230476
Si Si7 0.373001 0.589457 0.624747
Si Si8 0.239389 0.250000 0.760487
O O1 0.050375 0.250000 0.948592
O O2 0.783735 0.443382 0.711708
O O3 0.074720 0.457642 0.925659
O O4 0.286709 0.443356 0.214831
O O5 0.223327 0.124464 0.776455
O O6 0.938860 0.040855 0.560401
O O7 0.215108 0.877261 0.784848
O O8 0.437237 0.041046 0.059015
O O9 0.322568 0.750000 0.678415
O O10 0.348446 0.549663 0.651177
O O11 0.899376 0.750000 0.098379
O O12 0.135473 0.952922 0.361361
O O13 0.635756 0.952922 0.861416
O O14 0.500000 0.500000 0.500000
O O15 0.516989 0.250000 0.482306
O O16 0.003657 0.250000 0.495070
O O17 0.504803 0.250000 0.996213
O O18 0.373019 0.750000 0.624699
#
# Coordination Sequence:
#
# PCOD9158237 Si02
#       8
#     4   4   4   4   4   2   4   2
#     4   9  17  28  45  66  99 135 163 206 260 307
#     4  12  23  39  60  80 113 140 177 219 259 315
#     4  11  20  36  55  81 110 146 174 209 266 316
#     4   9  15  26  41  68 101 133 160 200 260 306
#     4  10  19  31  46  68  98 132 171 209 251 303
#     4  12  26  40  58  86 108 138 186 220 260 302
#     4   9  17  26  45  71 104 131 162 204 249 311
#     4  12  22  42  60  82 108 144 176 218 268 310
#
# _framework density 17.186337000000002
#
# number of rings (size 3 to 8) (size 9 to 14) (size 15 to 20)
#    0.000    1.714    1.429    4.714    0.000    5.714 
#    0.000    0.000    0.000    0.000    0.000    0.000 
#   42.857    0.000    0.000    0.000    0.000    0.000 
#
# Total GULP energy -156302.820074 kJ/mol
# GULP energy per Si atom -5582.243574 kJ/mol
# Density = 1.714722 g / cm^3
# Si number density = 17.186337 Si / 1000 Ang^3
#
#
#
# Elastic Constant Matrix: (Units=GPa)
#
#
# Indices 1 2 3 4 5 6 
#
# 1 204.6569 60.0730 133.0997 0.0000 -4.6239 0.0000
# 2 60.0730 67.8921 37.8448 0.0000 -3.1699 0.0000
# 3 133.0997 37.8448 220.2261 0.0000 -2.0632 0.0000
# 4 0.0000 0.0000 0.0000 -16.0716 0.0000 -2.4727
# 5 -4.6239 -3.1699 -2.0632 0.0000 32.2798 0.0000
# 6 0.0000 0.0000 0.0000 -2.4727 0.0000 8.9353
#
#
#
# Elastic Compliance Matrix: (Units=1/GPa)
#
#
# Indices 1 2 3 4 5 6 
#
# 1 0.009844 -0.005942 -0.004924 0.000000 0.000512 0.000000
# 2 -0.005942 0.019942 0.000175 0.000000 0.001118 0.000000
# 3 -0.004924 0.000175 0.007485 0.000000 -0.000210 0.000000
# 4 0.000000 0.000000 0.000000 -0.059681 0.000000 -0.016516
# 5 0.000512 0.001118 -0.000210 0.000000 0.031149 0.000000
# 6 0.000000 0.000000 0.000000 -0.016516 0.000000 0.107345
#
#
# Mechanical properties :
#
#
# Convention : Reuss Voigt Hill
#
# Bulk Modulus (GPa) = 62.93802 106.09003 84.51403
# Shear Modulus (GPa) = 35.02348 22.47921 28.75134
#
# Velocity S-wave (km/s) = 4.51917 3.62051 4.09457
# Velocity P-wave (km/s) = 7.99569 8.90734 8.46380
#
# Compressibility (1/GPa) = 0.01588865
#
# Stress axis : x y z
#
# Youngs Moduli (GPa) = 101.58470 50.14649 133.60899
#
# Poissons Ratio (x) = 0.29796 0.65784
# Poissons Ratio (y) = 0.60360 -0.02334
# Poissons Ratio (z) = 0.50016 -0.00876
#
# Static dielectric constant tensor:
#      x y z
#    x 1.569040 0.000000 0.000700 
#    y 0.000000 1.547050 0.000000 
#    z 0.000700 0.000000 1.577480 
# 
# From -- ./inp_files/9649.got.cif
#   From: 2010.05.17/outbox.cif.g08.bks.cpg/sg11_5_cif.got.tgz:9649.got - 2010.06.03 12:22:45.
