data_PCOD9158460
_publ_section_title
;
Structure prediction by ZEFSAII (Michael W. Deem and Ramdas Pophale) SiO2 
 PCOD9158460
Probable space group: P 21/M
;
_chemical_formula_sum "Si O2"
_cell_formula_units_Z 32
_cell_length_a 12.867443
_cell_length_b 8.249184
_cell_length_c 29.749971
_cell_angle_alpha 90.000000
_cell_angle_beta 149.856836
_cell_angle_gamma 90.000000
_cell_volume 1585.747178
_symmetry_space_group_name_H-M "P 21/M"
_symmetry_group_IT_number 11
_symmetry_cell_setting 'monoclinic'
loop_
_space_group_symop_operation_xyz
x,y,z
-x,1/2+y,-z
-x,-y,-z
x,1/2-y,z
loop_
_atom_site_type_symbol
_atom_site_label
_atom_site_fract_x
_atom_site_fract_y
_atom_site_fract_z
Si Si1 0.176780 0.058492 0.531080
Si Si2 0.806621 0.056214 0.214603
Si Si3 0.518885 0.052895 0.778024
Si Si4 0.356407 0.553457 0.011227
Si Si5 0.080692 0.056618 0.643308
Si Si6 0.358929 0.553758 0.271703
Si Si7 0.818705 0.055802 0.964083
Si Si8 0.962913 0.445339 0.180060
O O1 0.186248 0.250000 0.541130
O O2 0.411041 0.997794 0.627250
O O3 0.000000 0.000000 0.500000
O O4 0.109017 0.018418 0.454822
O O5 0.814479 0.250000 0.221735
O O6 0.954056 0.001581 0.228527
O O7 0.577412 0.009623 0.110867
O O8 0.874960 0.985385 0.288189
O O9 0.519471 0.250000 0.777692
O O10 0.282469 0.000799 0.690429
O O11 0.649275 0.999919 0.783691
O O12 0.615757 0.000466 0.861244
O O13 0.371324 0.750000 0.015726
O O14 0.195063 0.501427 0.990063
O O15 0.246339 0.497549 0.924232
O O16 0.065414 0.250000 0.634045
O O17 0.354023 0.750000 0.270946
O O18 0.168712 0.494369 0.230408
O O19 0.821197 0.250000 0.966019
O O20 0.000000 0.000000 0.000000
O O21 0.953513 0.250000 0.176202
#
# Coordination Sequence:
#
# PCOD9158460 Si02
#       8
#     4   4   4   4   4   4   4   4
#     4  11  22  38  62  94 125 156 195 242 295 356
#     4  11  23  39  59  87 120 155 201 254 297 348
#     4   9  17  33  54  79 113 149 183 231 287 339
#     4  10  20  37  59  83 114 157 201 244 294 351
#     4  11  21  39  63  87 117 153 195 244 298 353
#     4  10  21  38  60  86 120 156 195 240 292 355
#     4  10  19  31  49  76 113 151 189 232 282 346
#     4  10  23  40  58  85 121 156 200 253 298 345
#
# _framework density 20.179760000000002
#
# number of rings (size 3 to 8) (size 9 to 14) (size 15 to 20)
#    0.000    1.750    2.500    2.250    0.000    3.000 
#    0.000    0.625    0.000    0.000    0.000    0.000 
#    0.000    0.000    0.000    0.000    0.000    0.000 
#
# Total GULP energy -178508.472724 kJ/mol
# GULP energy per Si atom -5578.389773 kJ/mol
# Density = 2.013383 g / cm^3
# Si number density = 20.179760 Si / 1000 Ang^3
#
#
#
# Elastic Constant Matrix: (Units=GPa)
#
#
# Indices 1 2 3 4 5 6 
#
# 1 118.5340 -0.2609 27.4337 0.0000 -7.5392 0.0000
# 2 -0.2609 10.6216 1.6945 0.0000 0.7059 0.0000
# 3 27.4337 1.6945 75.0854 0.0000 -11.0145 0.0000
# 4 0.0000 0.0000 0.0000 26.3011 0.0000 2.1809
# 5 -7.5392 0.7059 -11.0145 0.0000 25.4057 0.0000
# 6 0.0000 0.0000 0.0000 2.1809 0.0000 25.1310
#
#
#
# Elastic Compliance Matrix: (Units=1/GPa)
#
#
# Indices 1 2 3 4 5 6 
#
# 1 0.009264 0.000649 -0.003203 0.000000 0.001343 0.000000
# 2 0.000649 0.094876 -0.002923 0.000000 -0.003711 0.000000
# 3 -0.003203 -0.002923 0.015407 0.000000 0.005810 0.000000
# 4 0.000000 0.000000 0.000000 0.038297 0.000000 -0.003323
# 5 0.001343 -0.003711 0.005810 0.000000 0.042382 0.000000
# 6 0.000000 0.000000 0.000000 -0.003323 0.000000 0.040080
#
#
# Mechanical properties :
#
#
# Convention : Reuss Voigt Hill
#
# Bulk Modulus (GPa) = 9.20849 29.10840 19.15844
# Shear Modulus (GPa) = 17.39392 27.05913 22.22653
#
# Velocity S-wave (km/s) = 2.93908 3.66581 3.32238
# Velocity P-wave (km/s) = 4.01133 5.68976 4.92261
#
# Compressibility (1/GPa) = 0.10859541
#
# Stress axis : x y z
#
# Youngs Moduli (GPa) = 107.93956 10.54002 64.90732
#
# Poissons Ratio (x) = -0.00684 0.20787
# Poissons Ratio (y) = -0.07008 0.18971
# Poissons Ratio (z) = 0.34569 0.03081
#
# Static dielectric constant tensor:
#      x y z
#    x 1.743690 0.000000 -0.002440 
#    y 0.000000 1.703440 0.000000 
#    z -0.002440 0.000000 1.754040 
# 
# From -- ./inp_files/64386.got.cif
#   From: 2010.05.17/outbox.cif.g08.bks.cpg/sg11_33_cif.got.tgz:64386.got - 2010.06.03 12:22:45.
