data_PCOD9158691
_publ_section_title
;
Structure prediction by ZEFSAII (Michael W. Deem and Ramdas Pophale) SiO2 
 PCOD9158691
Probable space group: P 21/M
;
_chemical_formula_sum "Si O2"
_cell_formula_units_Z 24
_cell_length_a 5.083543
_cell_length_b 10.841627
_cell_length_c 23.727438
_cell_angle_alpha 90.000000
_cell_angle_beta 108.937658
_cell_angle_gamma 90.000000
_cell_volume 1236.927651
_symmetry_space_group_name_H-M "P 21/M"
_symmetry_group_IT_number 11
_symmetry_cell_setting 'monoclinic'
loop_
_space_group_symop_operation_xyz
x,y,z
-x,1/2+y,-z
-x,-y,-z
x,1/2-y,z
loop_
_atom_site_type_symbol
_atom_site_label
_atom_site_fract_x
_atom_site_fract_y
_atom_site_fract_z
Si Si1 0.727917 0.607961 0.779894
Si Si2 0.235091 0.879769 0.534798
Si Si3 0.624435 0.609901 0.045760
Si Si4 0.894433 0.108014 0.300633
Si Si5 0.248451 0.890330 0.127630
Si Si6 0.799357 0.003285 0.578286
O O1 0.738045 0.750000 0.802999
O O2 0.436420 0.596447 0.726298
O O3 0.737649 0.500892 0.826852
O O4 0.975715 0.593151 0.752347
O O5 0.354783 0.750000 0.561099
O O6 0.475416 0.977042 0.565639
O O7 0.951620 0.903148 0.548232
O O8 0.183360 0.884461 0.464220
O O9 0.557789 0.750000 0.020599
O O10 0.493674 0.599436 0.099076
O O11 0.956094 0.599373 0.074273
O O12 0.500000 0.500000 0.000000
O O13 0.960367 0.250000 0.322915
O O14 0.032479 0.010695 0.352643
O O15 0.257581 0.750000 0.152634
#
# Coordination Sequence:
#
# PCOD9158691 Si02
#       6
#     4   4   4   4   4   4
#     4  10  21  35  54  78 102 134 177 219 254 298
#     4  10  19  32  49  71  97 126 161 200 252 314
#     4  10  21  36  57  84 112 142 176 213 253 301
#     4  10  19  33  52  75 100 127 169 217 258 300
#     4  10  21  38  56  78 111 145 175 210 257 307
#     4  10  20  32  50  72  96 128 162 203 257 310
#
# _framework density 19.402911
#
# number of rings (size 3 to 8) (size 9 to 14) (size 15 to 20)
#    0.000    2.000    0.000    4.000    0.000    2.667 
#    0.000    1.667    0.000    0.000    0.000    0.000 
#    0.000    0.000    0.000    0.000    0.000    0.000 
#
# Total GULP energy -133745.283520 kJ/mol
# GULP energy per Si atom -5572.720147 kJ/mol
# Density = 1.935875 g / cm^3
# Si number density = 19.402911 Si / 1000 Ang^3
#
#
#
# Elastic Constant Matrix: (Units=GPa)
#
#
# Indices 1 2 3 4 5 6 
#
# 1 47.3061 -13.6388 -18.8914 0.0000 1.7283 0.0000
# 2 -13.6388 86.5048 38.2563 0.0000 -3.3818 0.0000
# 3 -18.8914 38.2563 45.3342 0.0000 0.1940 0.0000
# 4 0.0000 0.0000 0.0000 23.8745 0.0000 3.5693
# 5 1.7283 -3.3818 0.1940 0.0000 22.1324 0.0000
# 6 0.0000 0.0000 0.0000 3.5693 0.0000 15.2045
#
#
#
# Elastic Compliance Matrix: (Units=1/GPa)
#
#
# Indices 1 2 3 4 5 6 
#
# 1 0.025536 -0.001234 0.011692 0.000000 -0.002285 0.000000
# 2 -0.001234 0.018698 -0.016306 0.000000 0.003096 0.000000
# 3 0.011692 -0.016306 0.040707 0.000000 -0.003761 0.000000
# 4 0.000000 0.000000 0.000000 0.043409 0.000000 -0.010190
# 5 -0.002285 0.003096 -0.003761 0.000000 0.045867 0.000000
# 6 0.000000 0.000000 0.000000 -0.010190 0.000000 0.068162
#
#
# Mechanical properties :
#
#
# Convention : Reuss Voigt Hill
#
# Bulk Modulus (GPa) = 13.65279 21.17749 17.41514
# Shear Modulus (GPa) = 17.95393 23.80353 20.87873
#
# Velocity S-wave (km/s) = 3.04521 3.50637 3.28390
# Velocity P-wave (km/s) = 4.40638 5.22792 4.83463
#
# Compressibility (1/GPa) = 0.07324509
#
# Stress axis : x y z
#
# Youngs Moduli (GPa) = 39.16061 53.48209 24.56567
#
# Poissons Ratio (x) = 0.06600 -0.28723
# Poissons Ratio (y) = 0.04833 0.40057
# Poissons Ratio (z) = -0.45788 0.87209
#
# Static dielectric constant tensor:
#      x y z
#    x 1.648660 0.000000 -0.006640 
#    y 0.000000 2.537950 0.000000 
#    z -0.006640 0.000000 1.672200 
# 
# From -- ./inp_files/62599.got.cif
#   From: 2010.05.17/outbox.cif.g08.bks.cpg/sg11_32_cif.got.tgz:62599.got - 2010.06.03 12:22:45.
