data_PCOD9158981
_publ_section_title
;
Structure prediction by ZEFSAII (Michael W. Deem and Ramdas Pophale) SiO2 
 PCOD9158981
Probable space group: P 21/M
;
_chemical_formula_sum "Si O2"
_cell_formula_units_Z 32
_cell_length_a 25.002245
_cell_length_b 8.863327
_cell_length_c 19.876662
_cell_angle_alpha 90.000000
_cell_angle_beta 156.484658
_cell_angle_gamma 90.000000
_cell_volume 1757.463302
_symmetry_space_group_name_H-M "P 21/M"
_symmetry_group_IT_number 11
_symmetry_cell_setting 'monoclinic'
loop_
_space_group_symop_operation_xyz
x,y,z
-x,1/2+y,-z
-x,-y,-z
x,1/2-y,z
loop_
_atom_site_type_symbol
_atom_site_label
_atom_site_fract_x
_atom_site_fract_y
_atom_site_fract_z
Si Si1 0.474559 0.069852 0.396915
Si Si2 0.233744 0.569545 0.290633
Si Si3 0.094478 0.068318 0.255506
Si Si4 0.795731 0.068852 0.900798
Si Si5 0.512273 0.068435 0.939376
Si Si6 0.764333 0.566243 0.448784
Si Si7 0.962182 0.930095 0.559082
Si Si8 0.208118 0.428753 0.773527
O O1 0.468084 0.250000 0.394969
O O2 0.610390 0.031230 0.513739
O O3 0.500000 0.000000 0.500000
O O4 0.331657 0.005452 0.210179
O O5 0.218394 0.750000 0.276839
O O6 0.137848 0.492744 0.233346
O O7 0.207087 0.526870 0.182091
O O8 0.097404 0.250000 0.256102
O O9 0.194562 0.015869 0.429447
O O10 0.941454 0.025302 0.095682
O O11 0.780480 0.250000 0.886564
O O12 0.512647 0.250000 0.944683
O O13 0.381188 0.020246 0.745874
O O14 0.500000 0.000000 0.000000
O O15 0.649733 0.011511 0.064708
O O16 0.764737 0.750000 0.449071
O O17 0.879687 0.519718 0.529198
O O18 0.985294 0.750000 0.589853
O O19 0.865354 0.956483 0.383115
O O20 0.102522 0.010977 0.706501
O O21 0.227885 0.250000 0.803102
#
# Coordination Sequence:
#
# PCOD9158981 Si02
#       8
#     4   4   4   4   4   4   4   4
#     4   9  17  30  50  75 102 132 166 210 258 301
#     4   9  18  32  49  74 107 135 165 211 260 301
#     4  10  20  34  53  75 100 136 177 213 251 306
#     4   9  18  32  51  77 104 132 171 215 256 302
#     4  11  20  34  55  79 104 134 169 211 259 306
#     4   9  19  36  54  74 103 135 172 215 259 303
#     4   9  17  33  53  74 103 135 163 206 257 300
#     4  10  19  32  52  81 106 130 167 209 252 303
#
# _framework density 18.208062000000002
#
# number of rings (size 3 to 8) (size 9 to 14) (size 15 to 20)
#    0.000    2.500    1.250    2.250    0.000    3.500 
#    0.000    3.125    0.000    6.000    0.000    0.000 
#    0.000    0.000    0.000    0.000    0.000    0.000 
#
# Total GULP energy -178415.588880 kJ/mol
# GULP energy per Si atom -5575.487152 kJ/mol
# Density = 1.816662 g / cm^3
# Si number density = 18.208062 Si / 1000 Ang^3
#
#
#
# Elastic Constant Matrix: (Units=GPa)
#
#
# Indices 1 2 3 4 5 6 
#
# 1 23.6709 11.0077 20.4465 0.0000 13.0544 0.0000
# 2 11.0077 22.1998 33.1997 0.0000 8.1292 0.0000
# 3 20.4465 33.1997 119.0647 0.0000 18.6527 0.0000
# 4 0.0000 0.0000 0.0000 24.3043 0.0000 10.8468
# 5 13.0544 8.1292 18.6527 0.0000 28.9722 0.0000
# 6 0.0000 0.0000 0.0000 10.8468 0.0000 22.5014
#
#
#
# Elastic Compliance Matrix: (Units=1/GPa)
#
#
# Indices 1 2 3 4 5 6 
#
# 1 0.066506 -0.022141 -0.001697 0.000000 -0.022662 0.000000
# 2 -0.022141 0.086652 -0.020146 0.000000 -0.001367 0.000000
# 3 -0.001697 -0.020146 0.014794 0.000000 -0.003108 0.000000
# 4 0.000000 0.000000 0.000000 0.052423 0.000000 -0.025271
# 5 -0.022662 -0.001367 -0.003108 0.000000 0.047111 0.000000
# 6 0.000000 0.000000 0.000000 -0.025271 0.000000 0.056623
#
#
# Mechanical properties :
#
#
# Convention : Reuss Voigt Hill
#
# Bulk Modulus (GPa) = 12.50222 32.69368 22.59795
# Shear Modulus (GPa) = 11.39632 21.84099 16.61865
#
# Velocity S-wave (km/s) = 2.50450 3.46717 3.02438
# Velocity P-wave (km/s) = 3.90443 5.83292 4.96324
#
# Compressibility (1/GPa) = 0.07998578
#
# Stress axis : x y z
#
# Youngs Moduli (GPa) = 15.03629 11.54040 67.59325
#
# Poissons Ratio (x) = 0.25551 0.11470
# Poissons Ratio (y) = 0.33291 1.36170
# Poissons Ratio (z) = 0.02552 0.23249
#
# Static dielectric constant tensor:
#      x y z
#    x 1.605270 0.000000 0.005330 
#    y 0.000000 1.611470 0.000000 
#    z 0.005330 0.000000 1.665890 
# 
# From -- ./inp_files/67189.got.cif
#   From: 2010.05.17/outbox.cif.g08.bks.cpg/sg11_34_cif.got.tgz:67189.got - 2010.06.03 12:22:45.
