data_PCOD9158883
_publ_section_title
;
Structure prediction by ZEFSAII (Michael W. Deem and Ramdas Pophale) SiO2 
 PCOD9158883
Probable space group: P 21/M
;
_chemical_formula_sum "Si O2"
_cell_formula_units_Z 32
_cell_length_a 22.913316
_cell_length_b 8.634726
_cell_length_c 29.101056
_cell_angle_alpha 90.000000
_cell_angle_beta 18.510772
_cell_angle_gamma 90.000000
_cell_volume 1827.955632
_symmetry_space_group_name_H-M "P 21/M"
_symmetry_group_IT_number 11
_symmetry_cell_setting 'monoclinic'
loop_
_space_group_symop_operation_xyz
x,y,z
-x,1/2+y,-z
-x,-y,-z
x,1/2-y,z
loop_
_atom_site_type_symbol
_atom_site_label
_atom_site_fract_x
_atom_site_fract_y
_atom_site_fract_z
Si Si1 0.058702 0.434555 0.383213
Si Si2 0.086136 0.936480 0.004092
Si Si3 0.686409 0.064574 0.883343
Si Si4 0.984463 0.060995 0.840020
Si Si5 0.407402 0.064574 0.522847
Si Si6 0.313465 0.560996 0.011017
Si Si7 0.708957 0.565445 0.232958
Si Si8 0.274775 0.436480 0.315452
O O1 0.064226 0.250000 0.374374
O O2 0.144184 0.511150 0.274448
O O3 0.187800 0.477169 0.330602
O O4 0.855966 0.489682 0.548677
O O5 0.102713 0.750000 0.989342
O O6 0.237394 0.010319 0.857962
O O7 0.089654 0.985232 0.054428
O O8 0.885809 0.977168 0.132594
O O9 0.674753 0.250000 0.892061
O O10 0.703507 0.011424 0.923366
O O11 0.500000 0.000000 0.000000
O O12 0.985085 0.250000 0.839145
O O13 0.196014 0.011426 0.677114
O O14 0.851050 0.008371 0.898950
O O15 0.407494 0.250000 0.525691
O O16 0.500000 0.000000 0.500000
O O17 0.530347 0.011150 0.388286
O O18 0.311834 0.750000 0.012397
O O19 0.513325 0.514769 0.842594
O O20 0.690174 0.750000 0.248426
O O21 0.265506 0.250000 0.326548
#
# Coordination Sequence:
#
# PCOD9158883 Si02
#       8
#     4   4   4   4   4   4   4   4
#     4  10  19  32  51  79 107 135 172 217 263 309
#     4   9  17  32  52  77 103 133 172 216 263 309
#     4  11  20  33  54  81 108 139 177 221 269 315
#     4   9  18  34  55  78 105 137 178 223 263 312
#     4  11  20  33  54  81 108 139 177 221 269 315
#     4   9  18  34  55  78 105 137 178 223 263 312
#     4  10  19  32  51  79 107 135 172 217 263 309
#     4   9  17  32  52  77 103 133 172 216 263 309
#
# _framework density 17.505896
#
# number of rings (size 3 to 8) (size 9 to 14) (size 15 to 20)
#    0.000    2.250    2.500    1.500    0.000    1.000 
#    0.000    1.250    0.000   14.250    0.000    0.000 
#    0.000    0.000    0.000    0.000    0.000    0.000 
#
# Total GULP energy -178538.191497 kJ/mol
# GULP energy per Si atom -5579.318484 kJ/mol
# Density = 1.746605 g / cm^3
# Si number density = 17.505896 Si / 1000 Ang^3
#
#
#
# Elastic Constant Matrix: (Units=GPa)
#
#
# Indices 1 2 3 4 5 6 
#
# 1 135.0017 27.3327 95.0261 0.0000 7.1042 0.0000
# 2 27.3327 23.2980 33.6274 0.0000 4.3751 0.0000
# 3 95.0261 33.6274 161.0772 0.0000 11.0225 0.0000
# 4 0.0000 0.0000 0.0000 28.0554 0.0000 6.0488
# 5 7.1042 4.3751 11.0225 0.0000 27.8210 0.0000
# 6 0.0000 0.0000 0.0000 6.0488 0.0000 19.3531
#
#
#
# Elastic Compliance Matrix: (Units=1/GPa)
#
#
# Indices 1 2 3 4 5 6 
#
# 1 0.013247 -0.006122 -0.006549 0.000000 0.000175 0.000000
# 2 -0.006122 0.064868 -0.009600 0.000000 -0.004834 0.000000
# 3 -0.006549 -0.009600 0.012189 0.000000 -0.001647 0.000000
# 4 0.000000 0.000000 0.000000 0.038219 0.000000 -0.011945
# 5 0.000175 -0.004834 -0.001647 0.000000 0.037312 0.000000
# 6 0.000000 0.000000 0.000000 -0.011945 0.000000 0.055405
#
#
# Mechanical properties :
#
#
# Convention : Reuss Voigt Hill
#
# Bulk Modulus (GPa) = 21.85197 70.14993 46.00095
# Shear Modulus (GPa) = 17.79135 25.93864 21.86499
#
# Velocity S-wave (km/s) = 3.19141 3.85347 3.53796
# Velocity P-wave (km/s) = 5.10783 7.74327 6.55927
#
# Compressibility (1/GPa) = 0.04576247
#
# Stress axis : x y z
#
# Youngs Moduli (GPa) = 75.48662 15.41597 82.04338
#
# Poissons Ratio (x) = 0.09437 0.53732
# Poissons Ratio (y) = 0.46209 0.78761
# Poissons Ratio (z) = 0.49437 0.14799
#
# Static dielectric constant tensor:
#      x y z
#    x 1.585460 0.000000 0.002390 
#    y 0.000000 1.597870 0.000000 
#    z 0.002390 0.000000 1.588890 
# 
# From -- ./inp_files/72090.got.cif
#   From: 2010.05.17/outbox.cif.g08.bks.cpg/sg11_37_cif.got.tgz:72090.got - 2010.06.03 12:22:45.
