data_PCOD9158223
_publ_section_title
;
Structure prediction by ZEFSAII (Michael W. Deem and Ramdas Pophale) SiO2 
 PCOD9158223
Probable space group: P 21/M
;
_chemical_formula_sum "Si O2"
_cell_formula_units_Z 32
_cell_length_a 13.212876
_cell_length_b 7.551839
_cell_length_c 17.840262
_cell_angle_alpha 90.000000
_cell_angle_beta 89.564304
_cell_angle_gamma 90.000000
_cell_volume 1780.076853
_symmetry_space_group_name_H-M "P 21/M"
_symmetry_group_IT_number 11
_symmetry_cell_setting 'monoclinic'
loop_
_space_group_symop_operation_xyz
x,y,z
-x,1/2+y,-z
-x,-y,-z
x,1/2-y,z
loop_
_atom_site_type_symbol
_atom_site_label
_atom_site_fract_x
_atom_site_fract_y
_atom_site_fract_z
Si Si1 0.871265 0.039671 0.661192
Si Si2 0.809755 0.467339 0.822445
Si Si3 0.616502 0.462957 0.916752
Si Si4 0.879881 0.462113 0.498822
Si Si5 0.794954 0.456474 0.183448
Si Si6 0.009057 0.039324 0.911991
Si Si7 0.388036 0.538305 0.912483
Si Si8 0.889394 0.035068 0.335692
O O1 0.852567 0.250000 0.659315
O O2 0.819077 0.970750 0.736653
O O3 0.840853 0.967937 0.579148
O O4 0.992235 0.015014 0.670046
O O5 0.810271 0.250000 0.822144
O O6 0.708216 0.526092 0.864784
O O7 0.909312 0.523342 0.868155
O O8 0.623665 0.250000 0.919654
O O9 0.503982 0.506415 0.889438
O O10 0.625255 0.530464 0.002341
O O11 0.865704 0.250000 0.499351
O O12 0.846978 0.526513 0.416769
O O13 0.000000 0.500000 0.500000
O O14 0.772841 0.250000 0.198220
O O15 0.889466 0.465109 0.125953
O O16 0.696366 0.533783 0.143430
O O17 0.830969 0.532275 0.262901
O O18 0.014291 0.250000 0.902585
O O19 0.000000 0.000000 0.000000
O O20 0.373067 0.750000 0.916794
O O21 0.887291 0.250000 0.335475
#
# Coordination Sequence:
#
# PCOD9158223 Si02
#       8
#     4   4   4   4   4   4   4   4
#     4   9  15  26  42  61  87 117 146 173 209 257
#     4   9  17  29  45  64  87 115 143 177 218 258
#     4   9  17  31  48  62  79 105 143 186 223 257
#     4   8  14  23  38  59  84 114 144 173 205 247
#     4  10  19  31  46  64  90 119 145 177 218 262
#     4  11  21  32  45  63  90 120 149 176 212 263
#     4   9  18  32  47  62  82 109 142 183 227 261
#     4   9  16  26  40  62  90 116 143 175 210 250
#
# _framework density 17.976752000000001
#
# number of rings (size 3 to 8) (size 9 to 14) (size 15 to 20)
#    0.000    2.750    1.250    1.125    0.000    2.500 
#    0.000    4.375    0.000    0.000    0.000    0.875 
#    0.000    0.000    0.000    0.000    0.000    0.000 
#
# Total GULP energy -178346.959794 kJ/mol
# GULP energy per Si atom -5573.342494 kJ/mol
# Density = 1.793584 g / cm^3
# Si number density = 17.976752 Si / 1000 Ang^3
#
#
#
# Elastic Constant Matrix: (Units=GPa)
#
#
# Indices 1 2 3 4 5 6 
#
# 1 81.6352 -5.4210 48.1927 0.0000 6.0314 0.0000
# 2 -5.4210 42.3759 -0.9725 0.0000 0.1442 0.0000
# 3 48.1927 -0.9725 131.9224 0.0000 8.7171 0.0000
# 4 0.0000 0.0000 0.0000 -14.7782 0.0000 -23.0850
# 5 6.0314 0.1442 8.7171 0.0000 21.3813 0.0000
# 6 0.0000 0.0000 0.0000 -23.0850 0.0000 -8.0914
#
#
#
# Elastic Compliance Matrix: (Units=1/GPa)
#
#
# Indices 1 2 3 4 5 6 
#
# 1 0.015866 0.001908 -0.005637 0.000000 -0.002190 0.000000
# 2 0.001908 0.023833 -0.000488 0.000000 -0.000500 0.000000
# 3 -0.005637 -0.000488 0.009795 0.000000 -0.002400 0.000000
# 4 0.000000 0.000000 0.000000 0.019575 0.000000 -0.055850
# 5 -0.002190 -0.000500 -0.002400 0.000000 0.048369 0.000000
# 6 0.000000 0.000000 0.000000 -0.055850 0.000000 0.035753
#
#
# Mechanical properties :
#
#
# Convention : Reuss Voigt Hill
#
# Bulk Modulus (GPa) = 24.35575 37.72576 31.04075
# Shear Modulus (GPa) = 28.52049 13.97798 21.24923
#
# Velocity S-wave (km/s) = 3.98744 2.79150 3.44181
# Velocity P-wave (km/s) = 5.89724 5.60548 5.75321
#
# Compressibility (1/GPa) = 0.04105807
#
# Stress axis : x y z
#
# Youngs Moduli (GPa) = 63.02773 41.95888 102.09781
#
# Poissons Ratio (x) = -0.08005 0.57555
# Poissons Ratio (y) = -0.12024 0.04984
# Poissons Ratio (z) = 0.35530 0.02048
#
# Static dielectric constant tensor:
#      x y z
#    x 1.575710 0.000000 0.009090 
#    y 0.000000 1.679360 0.000000 
#    z 0.009090 0.000000 1.672720 
# 
# From -- ./inp_files/42466.got.cif
#   From: 2010.05.17/outbox.cif.g08.bks.cpg/sg11_22_cif.got.tgz:42466.got - 2010.06.03 12:22:45.
