data_PCOD9158646
_publ_section_title
;
Structure prediction by ZEFSAII (Michael W. Deem and Ramdas Pophale) SiO2 
 PCOD9158646
Probable space group: P 21/M
;
_chemical_formula_sum "Si O2"
_cell_formula_units_Z 26
_cell_length_a 6.950135
_cell_length_b 24.294268
_cell_length_c 7.097775
_cell_angle_alpha 90.000000
_cell_angle_beta 62.936931
_cell_angle_gamma 90.000000
_cell_volume 1067.225658
_symmetry_space_group_name_H-M "P 21/M"
_symmetry_group_IT_number 11
_symmetry_cell_setting 'monoclinic'
loop_
_space_group_symop_operation_xyz
x,y,z
-x,1/2+y,-z
-x,-y,-z
x,1/2-y,z
loop_
_atom_site_type_symbol
_atom_site_label
_atom_site_fract_x
_atom_site_fract_y
_atom_site_fract_z
Si Si1 0.240633 0.250000 0.786349
Si Si2 0.664285 0.460462 0.614598
Si Si3 0.815090 0.526172 0.212476
Si Si4 0.818027 0.636820 0.017878
Si Si5 0.662618 0.250000 0.854297
Si Si6 0.540898 0.250000 0.347649
Si Si7 0.740513 0.366187 0.305491
Si Si8 0.677942 0.371332 0.892825
O O1 0.131458 0.195610 0.913136
O O2 0.471906 0.250000 0.788492
O O3 0.299673 0.250000 0.540435
O O4 0.805925 0.502542 0.428433
O O5 0.428624 0.486341 0.758752
O O6 0.623551 0.409875 0.487258
O O7 0.754346 0.426434 0.751333
O O8 0.837182 0.591058 0.170560
O O9 0.000000 0.500000 0.000000
O O10 0.578541 0.633727 0.040751
O O11 0.002675 0.627293 0.780650
O O12 0.770473 0.310854 0.790566
O O13 0.562321 0.250000 0.111866
O O14 0.656253 0.304850 0.370975
O O15 0.702566 0.378209 0.103324
#
# Coordination Sequence:
#
# PCOD9158646 Si02
#       8
#     2   4   4   4   2   2   4   4
#     4  10  19  37  59  84 116 156 193 236 307 353
#     4  10  21  37  63  84 118 167 195 247 310 344
#     4  10  19  38  62  84 123 158 196 254 297 348
#     4  10  20  37  62  83 119 153 190 253 289 349
#     4   8  16  32  54  80 118 149 188 251 289 340
#     4  10  19  31  57  86 114 155 195 241 300 357
#     4  11  20  37  61  89 118 156 205 244 300 359
#     4   9  20  37  58  88 121 156 198 250 297 354
#
# _framework density 24.362234999999998
#
# number of rings (size 3 to 8) (size 9 to 14) (size 15 to 20)
#    0.000    2.154    1.538    3.231    0.000    0.000 
#    0.000   15.385    0.000   12.923    0.000    0.000 
#    0.000    0.000    0.000    0.000    0.000    0.000 
#
# Total GULP energy -145300.217403 kJ/mol
# GULP energy per Si atom -5588.469900 kJ/mol
# Density = 2.430679 g / cm^3
# Si number density = 24.362235 Si / 1000 Ang^3
#
#
#
# Elastic Constant Matrix: (Units=GPa)
#
#
# Indices 1 2 3 4 5 6 
#
# 1 79.3193 6.2935 15.8953 0.0000 -5.1119 0.0000
# 2 6.2935 116.7933 23.0400 0.0000 -10.5763 0.0000
# 3 15.8953 23.0400 99.9781 0.0000 -22.4991 0.0000
# 4 0.0000 0.0000 0.0000 48.0312 0.0000 2.3941
# 5 -5.1119 -10.5763 -22.4991 0.0000 39.7540 0.0000
# 6 0.0000 0.0000 0.0000 2.3941 0.0000 16.8975
#
#
#
# Elastic Compliance Matrix: (Units=1/GPa)
#
#
# Indices 1 2 3 4 5 6 
#
# 1 0.013042 -0.000282 -0.001889 0.000000 0.000533 0.000000
# 2 -0.000282 0.009044 -0.001726 0.000000 0.001393 0.000000
# 3 -0.001889 -0.001726 0.012081 0.000000 0.006135 0.000000
# 4 0.000000 0.000000 0.000000 0.020968 0.000000 -0.002971
# 5 0.000533 0.001393 0.006135 0.000000 0.029066 0.000000
# 6 0.000000 0.000000 0.000000 -0.002971 0.000000 0.059601
#
#
# Mechanical properties :
#
#
# Convention : Reuss Voigt Hill
#
# Bulk Modulus (GPa) = 37.91552 42.94982 40.43267
# Shear Modulus (GPa) = 31.17461 37.66067 34.41764
#
# Velocity S-wave (km/s) = 3.58107 3.93601 3.76273
# Velocity P-wave (km/s) = 5.71802 6.19065 5.95903
#
# Compressibility (1/GPa) = 0.02637442
#
# Stress axis : x y z
#
# Youngs Moduli (GPa) = 76.67251 110.57128 82.77563
#
# Poissons Ratio (x) = 0.03118 0.15633
# Poissons Ratio (y) = 0.02162 0.14286
# Poissons Ratio (z) = 0.14481 0.19083
#
# Static dielectric constant tensor:
#      x y z
#    x 1.968200 0.000000 -0.036990 
#    y 0.000000 1.983650 0.000000 
#    z -0.036990 0.000000 1.934630 
# 
# From -- ./inp_files/14754.got.cif
#   From: 2010.05.17/outbox.cif.g08.bks.cpg/sg11_8_cif.got.tgz:14754.got - 2010.06.03 12:22:45.
