data_PCOD9158892
_publ_section_title
;
Structure prediction by ZEFSAII (Michael W. Deem and Ramdas Pophale) SiO2 
 PCOD9158892
Probable space group: P 21/M
;
_chemical_formula_sum "Si O2"
_cell_formula_units_Z 32
_cell_length_a 25.104056
_cell_length_b 7.540971
_cell_length_c 18.115127
_cell_angle_alpha 90.000000
_cell_angle_beta 27.598977
_cell_angle_gamma 90.000000
_cell_volume 1588.752692
_symmetry_space_group_name_H-M "P 21/M"
_symmetry_group_IT_number 11
_symmetry_cell_setting 'monoclinic'
loop_
_space_group_symop_operation_xyz
x,y,z
-x,1/2+y,-z
-x,-y,-z
x,1/2-y,z
loop_
_atom_site_type_symbol
_atom_site_label
_atom_site_fract_x
_atom_site_fract_y
_atom_site_fract_z
Si Si1 0.400372 0.457485 0.447688
Si Si2 0.711442 0.953517 0.559618
Si Si3 0.764326 0.537367 0.771756
Si Si4 0.491165 0.461458 0.923858
Si Si5 0.634622 0.459779 0.347933
Si Si6 0.339437 0.967818 0.844771
Si Si7 0.878194 0.968317 0.479112
Si Si8 0.132946 0.961153 0.200549
O O1 0.415505 0.250000 0.411421
O O2 0.325795 0.535747 0.472710
O O3 0.340787 0.468656 0.600909
O O4 0.531131 0.529243 0.293847
O O5 0.746651 0.750000 0.502002
O O6 0.811062 0.031030 0.488949
O O7 0.596190 0.954949 0.750841
O O8 0.757029 0.750000 0.775631
O O9 0.810798 0.474295 0.635807
O O10 0.847382 0.493308 0.737151
O O11 0.634699 0.473349 0.946563
O O12 0.498565 0.250000 0.903534
O O13 0.500000 0.500000 0.000000
O O14 0.500000 0.500000 0.500000
O O15 0.651114 0.250000 0.331884
O O16 0.690245 0.523029 0.202956
O O17 0.342758 0.750000 0.840530
O O18 0.242991 0.029213 0.020176
O O19 0.875930 0.750000 0.481883
O O20 0.009799 0.027211 0.324270
O O21 0.131612 0.750000 0.191046
#
# Coordination Sequence:
#
# PCOD9158892 Si02
#       8
#     4   4   4   4   4   4   4   4
#     4   9  17  29  48  72  98 126 157 193 239 293
#     4  10  19  34  52  71 100 132 163 202 243 287
#     4  10  20  34  48  68  99 125 156 204 252 285
#     4  11  21  33  50  71  98 129 161 200 246 294
#     4   9  16  28  47  70  99 125 152 193 241 291
#     4   8  15  28  45  70  95 118 153 195 233 280
#     4   9  18  33  50  68  94 129 165 205 243 281
#     4  10  19  32  52  72  91 124 170 204 238 290
#
# _framework density 20.141587000000001
#
# number of rings (size 3 to 8) (size 9 to 14) (size 15 to 20)
#    0.000    2.500    1.250    2.625    0.000    2.500 
#    0.000    5.000    0.000    0.750    0.000    0.000 
#    0.000    0.000    0.000    0.000    0.000    0.500 
#
# Total GULP energy -178516.145362 kJ/mol
# GULP energy per Si atom -5578.629543 kJ/mol
# Density = 2.009574 g / cm^3
# Si number density = 20.141587 Si / 1000 Ang^3
#
#
#
# Elastic Constant Matrix: (Units=GPa)
#
#
# Indices 1 2 3 4 5 6 
#
# 1 195.0610 -2.9899 54.2071 0.0000 -5.8007 0.0000
# 2 -2.9899 48.3305 1.0595 0.0000 -5.8223 0.0000
# 3 54.2071 1.0595 41.6890 0.0000 -11.6239 0.0000
# 4 0.0000 0.0000 0.0000 8.6397 0.0000 4.4317
# 5 -5.8007 -5.8223 -11.6239 0.0000 32.7374 0.0000
# 6 0.0000 0.0000 0.0000 4.4317 0.0000 16.3841
#
#
#
# Elastic Compliance Matrix: (Units=1/GPa)
#
#
# Indices 1 2 3 4 5 6 
#
# 1 0.008231 0.000457 -0.011415 0.000000 -0.002513 0.000000
# 2 0.000457 0.021181 -0.000066 0.000000 0.003825 0.000000
# 3 -0.011415 -0.000066 0.042469 0.000000 0.013045 0.000000
# 4 0.000000 0.000000 0.000000 0.134390 0.000000 -0.036351
# 5 -0.002513 0.003825 0.013045 0.000000 0.035413 0.000000
# 6 0.000000 0.000000 0.000000 -0.036351 0.000000 0.070867
#
#
# Mechanical properties :
#
#
# Convention : Reuss Voigt Hill
#
# Bulk Modulus (GPa) = 20.06703 43.29266 31.67984
# Shear Modulus (GPa) = 14.23647 27.07249 20.65448
#
# Velocity S-wave (km/s) = 2.66149 3.67019 3.20576
# Velocity P-wave (km/s) = 4.40787 6.28500 5.42819
#
# Compressibility (1/GPa) = 0.04983299
#
# Stress axis : x y z
#
# Youngs Moduli (GPa) = 121.49059 47.21144 23.54667
#
# Poissons Ratio (x) = -0.02156 0.26879
# Poissons Ratio (y) = -0.05548 0.00155
# Poissons Ratio (z) = 1.38683 0.00310
#
# Static dielectric constant tensor:
#      x y z
#    x 1.739600 0.000000 0.001240 
#    y 0.000000 1.787390 0.000000 
#    z 0.001240 0.000000 1.692510 
# 
# From -- ./inp_files/61757.got.cif
#   From: 2010.05.17/outbox.cif.g08.bks.cpg/sg11_31_cif.got.tgz:61757.got - 2010.06.03 12:22:45.
