data_PCOD9158878
_publ_section_title
;
Structure prediction by ZEFSAII (Michael W. Deem and Ramdas Pophale) SiO2 
 PCOD9158878
Probable space group: P 21/M
;
_chemical_formula_sum "Si O2"
_cell_formula_units_Z 28
_cell_length_a 11.437998
_cell_length_b 7.820321
_cell_length_c 17.131838
_cell_angle_alpha 90.000000
_cell_angle_beta 119.357720
_cell_angle_gamma 90.000000
_cell_volume 1335.622512
_symmetry_space_group_name_H-M "P 21/M"
_symmetry_group_IT_number 11
_symmetry_cell_setting 'monoclinic'
loop_
_space_group_symop_operation_xyz
x,y,z
-x,1/2+y,-z
-x,-y,-z
x,1/2-y,z
loop_
_atom_site_type_symbol
_atom_site_label
_atom_site_fract_x
_atom_site_fract_y
_atom_site_fract_z
Si Si1 0.376835 0.454063 0.015449
Si Si2 0.660310 0.448630 0.381864
Si Si3 0.801213 0.457613 0.577825
Si Si4 0.172368 0.453357 0.238282
Si Si5 0.874677 0.452092 0.168289
Si Si6 0.405562 0.460670 0.202335
Si Si7 0.893628 0.948656 0.347108
O O1 0.366410 0.250000 0.015419
O O2 0.401713 0.517317 0.111484
O O3 0.500000 0.500000 0.000000
O O4 0.240621 0.520763 0.932174
O O5 0.626986 0.250000 0.384383
O O6 0.698325 0.522014 0.478809
O O7 0.536851 0.521529 0.292225
O O8 0.793878 0.458585 0.372960
O O9 0.803173 0.250000 0.577621
O O10 0.773385 0.514000 0.656764
O O11 0.952960 0.513757 0.605050
O O12 0.164067 0.250000 0.223724
O O13 0.274075 0.518368 0.206458
O O14 0.019676 0.520156 0.187748
O O15 0.887876 0.250000 0.188068
O O16 0.842047 0.534816 0.241221
O O17 0.408635 0.250000 0.202431
O O18 0.895915 0.750000 0.370454
#
# Coordination Sequence:
#
# PCOD9158878 Si02
#       7
#     4   4   4   4   4   4   4
#     4  11  22  37  58  83 111 140 174 216 264 317
#     4  10  19  33  53  76 107 144 178 216 268 321
#     4   9  19  33  51  78 109 140 174 219 270 315
#     4   9  19  37  57  76 102 139 181 218 259 316
#     4  10  20  35  56  79 105 139 177 218 266 317
#     4   9  20  37  55  76 104 139 176 217 264 315
#     4  10  19  32  51  78 110 139 176 222 266 316
#
# _framework density 20.964008
#
# number of rings (size 3 to 8) (size 9 to 14) (size 15 to 20)
#    0.000    2.286    0.000    2.571    0.000    4.000 
#    0.000    2.857    0.000    0.000    0.000    0.000 
#    0.000    0.000    0.000    0.000    0.000    0.000 
#
# Total GULP energy -156375.924549 kJ/mol
# GULP energy per Si atom -5584.854448 kJ/mol
# Density = 2.091629 g / cm^3
# Si number density = 20.964008 Si / 1000 Ang^3
#
#
#
# Elastic Constant Matrix: (Units=GPa)
#
#
# Indices 1 2 3 4 5 6 
#
# 1 90.9770 -7.5840 71.4191 0.0000 -26.7743 0.0000
# 2 -7.5840 25.1469 -11.4401 0.0000 4.3216 0.0000
# 3 71.4191 -11.4401 164.7755 0.0000 4.4046 0.0000
# 4 0.0000 0.0000 0.0000 14.1035 0.0000 -1.6232
# 5 -26.7743 4.3216 4.4046 0.0000 20.0279 0.0000
# 6 0.0000 0.0000 0.0000 -1.6232 0.0000 15.2735
#
#
#
# Elastic Compliance Matrix: (Units=1/GPa)
#
#
# Indices 1 2 3 4 5 6 
#
# 1 0.055562 -0.009646 -0.026952 0.000000 0.082287 0.000000
# 2 -0.009646 0.044635 0.007928 0.000000 -0.024270 0.000000
# 3 -0.026952 0.007928 0.019424 0.000000 -0.042013 0.000000
# 4 0.000000 0.000000 0.000000 0.071782 0.000000 0.007628
# 5 0.082287 -0.024270 -0.042013 0.000000 0.174412 0.000000
# 6 0.000000 0.000000 0.000000 0.007628 0.000000 0.066284
#
#
# Mechanical properties :
#
#
# Convention : Reuss Voigt Hill
#
# Bulk Modulus (GPa) = 16.05560 42.85437 29.45498
# Shear Modulus (GPa) = 9.80009 25.11460 17.45735
#
# Velocity S-wave (km/s) = 2.16446 3.46495 2.88884
# Velocity P-wave (km/s) = 3.73119 6.04103 5.02075
#
# Compressibility (1/GPa) = 0.06228355
#
# Stress axis : x y z
#
# Youngs Moduli (GPa) = 17.99779 22.40389 51.48222
#
# Poissons Ratio (x) = 0.21610 1.38754
# Poissons Ratio (y) = 0.17360 -0.40817
# Poissons Ratio (z) = 0.48507 -0.17763
#
# Static dielectric constant tensor:
#      x y z
#    x 1.731450 0.000000 0.016200 
#    y 0.000000 1.767350 0.000000 
#    z 0.016200 0.000000 1.742890 
# 
# From -- ./inp_files/48922.got.cif
#   From: 2010.05.17/outbox.cif.g08.bks.cpg/sg11_25_cif.got.tgz:48922.got - 2010.06.03 12:22:45.
