data_PCOD9158940
_publ_section_title
;
Structure prediction by ZEFSAII (Michael W. Deem and Ramdas Pophale) SiO2 
 PCOD9158940
Probable space group: P 21/M
;
_chemical_formula_sum "Si O2"
_cell_formula_units_Z 32
_cell_length_a 12.040642
_cell_length_b 27.844046
_cell_length_c 5.041637
_cell_angle_alpha 90.000000
_cell_angle_beta 65.246399
_cell_angle_gamma 90.000000
_cell_volume 1534.953764
_symmetry_space_group_name_H-M "P 21/M"
_symmetry_group_IT_number 11
_symmetry_cell_setting 'monoclinic'
loop_
_space_group_symop_operation_xyz
x,y,z
-x,1/2+y,-z
-x,-y,-z
x,1/2-y,z
loop_
_atom_site_type_symbol
_atom_site_label
_atom_site_fract_x
_atom_site_fract_y
_atom_site_fract_z
Si Si1 0.896417 0.195973 0.888995
Si Si2 0.250000 0.971423 0.088257
Si Si3 0.750000 0.961356 0.417180
Si Si4 0.396173 0.633976 0.302454
Si Si5 0.103829 0.633976 0.594800
Si Si6 0.490853 0.943929 0.588805
Si Si7 0.396420 0.695973 0.818166
Si Si8 0.990853 0.443929 0.929488
O O1 0.944433 0.250000 0.809703
O O2 0.942733 0.157314 0.630142
O O3 0.749998 0.198116 0.986720
O O4 0.911674 0.175532 0.167364
O O5 0.250000 0.994238 0.377534
O O6 0.127829 0.941826 0.141400
O O7 0.250000 0.015988 0.879138
O O8 0.372171 0.941826 0.897056
O O9 0.623300 0.933255 0.579142
O O10 0.876699 0.933255 0.325742
O O11 0.250001 0.623096 0.435525
O O12 0.463915 0.588528 0.361378
O O13 0.442736 0.657314 0.984387
O O14 0.411677 0.675532 0.509284
O O15 0.036087 0.588528 0.789208
O O16 0.500000 0.000000 0.500000
O O17 0.444437 0.750000 0.801425
O O18 0.000000 0.500000 0.000000
#
# Coordination Sequence:
#
# PCOD9158940 Si02
#       8
#     4   4   4   4   4   4   4   4
#     4   9  18  32  52  79 108 133 170 225 281 327
#     4  10  20  36  52  72 101 142 185 222 264 306
#     4  10  22  34  52  72 103 144 181 222 262 302
#     4  10  19  32  52  78 106 142 176 217 271 327
#     4  10  19  32  52  78 106 142 176 217 271 327
#     4  10  21  37  53  79 110 148 187 226 264 319
#     4   9  18  32  52  79 108 133 170 225 281 327
#     4  10  21  37  53  79 110 148 187 226 264 319
#
# _framework density 20.847534
#
# number of rings (size 3 to 8) (size 9 to 14) (size 15 to 20)
#    0.000    2.250    1.250    1.500    0.000   11.000 
#    0.000    0.000    0.000    0.000    0.000    5.250 
#    0.000    0.000    0.000    0.000    0.000    0.000 
#
# Total GULP energy -178834.251179 kJ/mol
# GULP energy per Si atom -5588.570349 kJ/mol
# Density = 2.080008 g / cm^3
# Si number density = 20.847534 Si / 1000 Ang^3
#
#
#
# Elastic Constant Matrix: (Units=GPa)
#
#
# Indices 1 2 3 4 5 6 
#
# 1 101.1338 12.9560 28.9233 0.0000 -28.1689 0.0000
# 2 12.9560 106.6485 8.9867 0.0000 -2.2773 0.0000
# 3 28.9233 8.9867 51.4637 0.0000 -0.3259 0.0000
# 4 0.0000 0.0000 0.0000 18.1127 0.0000 0.2940
# 5 -28.1689 -2.2773 -0.3259 0.0000 27.5271 0.0000
# 6 0.0000 0.0000 0.0000 0.2940 0.0000 17.6005
#
#
#
# Elastic Compliance Matrix: (Units=1/GPa)
#
#
# Indices 1 2 3 4 5 6 
#
# 1 0.017819 -0.000959 -0.009733 0.000000 0.018040 0.000000
# 2 -0.000959 0.009585 -0.001136 0.000000 -0.000202 0.000000
# 3 -0.009733 -0.001136 0.025038 0.000000 -0.009757 0.000000
# 4 0.000000 0.000000 0.000000 0.055225 0.000000 -0.000923
# 5 0.018040 -0.000202 -0.009757 0.000000 0.054656 0.000000
# 6 0.000000 0.000000 0.000000 -0.000923 0.000000 0.056832
#
#
# Mechanical properties :
#
#
# Convention : Reuss Voigt Hill
#
# Bulk Modulus (GPa) = 34.73990 40.10868 37.42429
# Shear Modulus (GPa) = 19.80945 26.54005 23.17475
#
# Velocity S-wave (km/s) = 3.08589 3.57186 3.33773
# Velocity P-wave (km/s) = 5.42189 6.02426 5.73100
#
# Compressibility (1/GPa) = 0.02878535
#
# Stress axis : x y z
#
# Youngs Moduli (GPa) = 56.12032 104.33481 39.93991
#
# Poissons Ratio (x) = 0.10009 0.38872
# Poissons Ratio (y) = 0.05384 0.04536
# Poissons Ratio (z) = 0.54620 0.11850
#
# Static dielectric constant tensor:
#      x y z
#    x 1.787160 0.000000 -0.002280 
#    y 0.000000 1.779210 0.000000 
#    z -0.002280 0.000000 1.783170 
# 
# From -- ./inp_files/5461.got.cif
#   From: 2010.05.17/outbox.cif.g08.bks.cpg/sg11_3_cif.got.tgz:5461.got - 2010.06.03 12:22:45.
