data_PCOD9158232
_publ_section_title
;
Structure prediction by ZEFSAII (Michael W. Deem and Ramdas Pophale) SiO2 
 PCOD9158232
Probable space group: P 21/M
;
_chemical_formula_sum "Si O2"
_cell_formula_units_Z 28
_cell_length_a 10.880070
_cell_length_b 7.356529
_cell_length_c 15.515117
_cell_angle_alpha 90.000000
_cell_angle_beta 99.394477
_cell_angle_gamma 90.000000
_cell_volume 1225.167537
_symmetry_space_group_name_H-M "P 21/M"
_symmetry_group_IT_number 11
_symmetry_cell_setting 'monoclinic'
loop_
_space_group_symop_operation_xyz
x,y,z
-x,1/2+y,-z
-x,-y,-z
x,1/2-y,z
loop_
_atom_site_type_symbol
_atom_site_label
_atom_site_fract_x
_atom_site_fract_y
_atom_site_fract_z
Si Si1 0.555371 0.969416 0.650100
Si Si2 0.050341 0.030121 0.251642
Si Si3 0.353530 0.466860 0.988144
Si Si4 0.231491 0.457990 0.801320
Si Si5 0.201660 0.028275 0.430448
Si Si6 0.726888 0.958570 0.381757
Si Si7 0.709097 0.528703 0.829610
O O1 0.549323 0.750000 0.647111
O O2 0.667374 0.025065 0.599536
O O3 0.598704 0.025166 0.751368
O O4 0.419508 0.040155 0.612020
O O5 0.044583 0.250000 0.250304
O O6 0.092541 0.973455 0.352649
O O7 0.161476 0.975315 0.200323
O O8 0.917214 0.958806 0.209036
O O9 0.329984 0.250000 0.986885
O O10 0.290343 0.540229 0.894070
O O11 0.500000 0.500000 0.000000
O O12 0.305933 0.536711 0.074895
O O13 0.279123 0.250000 0.802816
O O14 0.260843 0.543214 0.711483
O O15 0.202091 0.250000 0.432117
O O16 0.199953 0.962358 0.528278
O O17 0.769857 0.750000 0.378159
O O18 0.707102 0.750000 0.830028
#
# Coordination Sequence:
#
# PCOD9158232 Si02
#       7
#     4   4   4   4   4   4   4
#     4   9  16  29  50  74  95 118 159 205 237 274
#     4   9  18  35  55  71  89 123 170 203 229 276
#     4  10  20  35  53  74 101 128 155 190 236 287
#     4  10  22  35  47  70 103 130 153 193 243 283
#     4   8  16  31  50  70  94 125 159 198 239 279
#     4  10  19  31  46  67 100 134 156 186 242 293
#     4   8  16  32  53  72  94 126 159 198 241 275
#
# _framework density 22.854018
#
# number of rings (size 3 to 8) (size 9 to 14) (size 15 to 20)
#    0.000    2.857    0.000    3.000    0.000    2.286 
#    0.000    4.286    0.000    0.000    0.000    0.000 
#    0.000    0.000    0.000    0.000    0.000    0.000 
#
# Total GULP energy -156403.841330 kJ/mol
# GULP energy per Si atom -5585.851476 kJ/mol
# Density = 2.280200 g / cm^3
# Si number density = 22.854018 Si / 1000 Ang^3
#
#
#
# Elastic Constant Matrix: (Units=GPa)
#
#
# Indices 1 2 3 4 5 6 
#
# 1 52.4901 -10.9654 50.8866 0.0000 23.9406 0.0000
# 2 -10.9654 87.9361 9.5273 0.0000 -6.1055 0.0000
# 3 50.8866 9.5273 240.6486 0.0000 5.6140 0.0000
# 4 0.0000 0.0000 0.0000 -17.1192 0.0000 5.3254
# 5 23.9406 -6.1055 5.6140 0.0000 27.6872 0.0000
# 6 0.0000 0.0000 0.0000 5.3254 0.0000 18.9286
#
#
#
# Elastic Compliance Matrix: (Units=1/GPa)
#
#
# Indices 1 2 3 4 5 6 
#
# 1 0.044957 0.004049 -0.008822 0.000000 -0.036191 0.000000
# 2 0.004049 0.011978 -0.001317 0.000000 -0.000593 0.000000
# 3 -0.008822 -0.001317 0.005930 0.000000 0.006136 0.000000
# 4 0.000000 0.000000 0.000000 -0.053713 0.000000 0.015112
# 5 -0.036191 -0.000593 0.006136 0.000000 0.066037 0.000000
# 6 0.000000 0.000000 0.000000 0.015112 0.000000 0.048579
#
#
# Mechanical properties :
#
#
# Convention : Reuss Voigt Hill
#
# Bulk Modulus (GPa) = 19.72970 53.33020 36.52995
# Shear Modulus (GPa) = 32.71344 28.00773 30.36059
#
# Velocity S-wave (km/s) = 3.78750 3.50452 3.64875
# Velocity P-wave (km/s) = 5.27054 6.30566 5.81119
#
# Compressibility (1/GPa) = 0.05068501
#
# Stress axis : x y z
#
# Youngs Moduli (GPa) = 22.24364 83.48440 168.63507
#
# Poissons Ratio (x) = -0.33803 1.48776
# Poissons Ratio (y) = -0.09006 0.22202
# Poissons Ratio (z) = 0.19624 0.10991
#
# Static dielectric constant tensor:
#      x y z
#    x 1.788670 0.000000 -0.024810 
#    y 0.000000 1.867600 0.000000 
#    z -0.024810 0.000000 1.865820 
# 
# From -- ./inp_files/21165.got.cif
#   From: 2010.05.17/outbox.cif.g08.bks.cpg/sg11_11_cif.got.tgz:21165.got - 2010.06.03 12:22:45.
