data_PCOD9158649
_publ_section_title
;
Structure prediction by ZEFSAII (Michael W. Deem and Ramdas Pophale) SiO2 
 PCOD9158649
Probable space group: P 21/M
;
_chemical_formula_sum "Si O2"
_cell_formula_units_Z 28
_cell_length_a 14.616909
_cell_length_b 20.442478
_cell_length_c 9.250310
_cell_angle_alpha 90.000000
_cell_angle_beta 146.740626
_cell_angle_gamma 90.000000
_cell_volume 1515.886231
_symmetry_space_group_name_H-M "P 21/M"
_symmetry_group_IT_number 11
_symmetry_cell_setting 'monoclinic'
loop_
_space_group_symop_operation_xyz
x,y,z
-x,1/2+y,-z
-x,-y,-z
x,1/2-y,z
loop_
_atom_site_type_symbol
_atom_site_label
_atom_site_fract_x
_atom_site_fract_y
_atom_site_fract_z
Si Si1 0.494860 0.076973 0.451915
Si Si2 0.794829 0.585361 0.710060
Si Si3 0.700617 0.063245 0.192557
Si Si4 0.945767 0.474891 0.740852
Si Si5 0.603162 0.912716 0.010696
Si Si6 0.182791 0.596881 0.963990
Si Si7 0.146747 0.326793 0.484558
O O1 0.352774 0.099910 0.375098
O O2 0.500000 0.000000 0.500000
O O3 0.676828 0.105090 0.729034
O O4 0.443330 0.089870 0.219299
O O5 0.798875 0.641026 0.595715
O O6 0.796254 0.516100 0.621884
O O7 0.961703 0.572489 0.024794
O O8 0.721599 0.090132 0.060585
O O9 0.871240 0.064021 0.508704
O O10 0.661312 0.986553 0.119928
O O11 0.557012 0.096773 0.097419
O O12 0.077375 0.530272 0.860771
O O13 0.748466 0.863967 0.253133
O O14 0.047154 0.653202 0.766364
O O15 0.172596 0.250000 0.524761
#
# Coordination Sequence:
#
# PCOD9158649 Si02
#       7
#     4   4   4   4   4   4   4
#     4  12  21  34  61 103 132 151 185 259 330 389
#     4  10  20  35  61  89 122 163 198 248 313 362
#     4  11  20  34  60 100 127 154 192 256 329 374
#     4  10  19  31  59  96 130 149 193 256 316 372
#     4  11  23  36  62  93 132 159 199 254 318 372
#     4  11  22  35  62  94 128 161 199 251 318 367
#     4  11  26  47  62  81 120 177 224 250 290 377
#
# _framework density 18.471043999999999
#
# number of rings (size 3 to 8) (size 9 to 14) (size 15 to 20)
#    0.000    1.143    5.714    2.143    6.000    0.000 
#    0.000    4.286    0.000    0.000    0.000    0.000 
#    0.000    0.000    0.000    0.000    0.000    0.000 
#
# Total GULP energy -156336.633139 kJ/mol
# GULP energy per Si atom -5583.451184 kJ/mol
# Density = 1.842900 g / cm^3
# Si number density = 18.471044 Si / 1000 Ang^3
#
#
#
# Elastic Constant Matrix: (Units=GPa)
#
#
# Indices 1 2 3 4 5 6 
#
# 1 112.6760 23.5516 44.3952 0.0000 -10.6152 0.0000
# 2 23.5516 64.3587 41.6714 0.0000 -3.3735 0.0000
# 3 44.3952 41.6714 139.1929 0.0000 -20.9983 0.0000
# 4 0.0000 0.0000 0.0000 7.9379 0.0000 -1.8528
# 5 -10.6152 -3.3735 -20.9983 0.0000 33.8554 0.0000
# 6 0.0000 0.0000 0.0000 -1.8528 0.0000 9.3206
#
#
#
# Elastic Compliance Matrix: (Units=1/GPa)
#
#
# Indices 1 2 3 4 5 6 
#
# 1 0.010436 -0.002150 -0.002453 0.000000 0.001536 0.000000
# 2 -0.002150 0.019820 -0.005573 0.000000 -0.002156 0.000000
# 3 -0.002453 -0.005573 0.010409 0.000000 0.005132 0.000000
# 4 0.000000 0.000000 0.000000 0.132106 0.000000 0.026260
# 5 0.001536 -0.002156 0.005132 0.000000 0.032987 0.000000
# 6 0.000000 0.000000 0.000000 0.026260 0.000000 0.112509
#
#
# Mechanical properties :
#
#
# Convention : Reuss Voigt Hill
#
# Bulk Modulus (GPa) = 49.23021 59.49601 54.36311
# Shear Modulus (GPa) = 14.47633 23.99675 19.23654
#
# Velocity S-wave (km/s) = 2.80256 3.60829 3.23064
# Velocity P-wave (km/s) = 6.09778 7.04557 6.58874
#
# Compressibility (1/GPa) = 0.02031273
#
# Stress axis : x y z
#
# Youngs Moduli (GPa) = 95.82542 50.45327 96.06771
#
# Poissons Ratio (x) = 0.10848 0.23565
# Poissons Ratio (y) = 0.20603 0.53541
# Poissons Ratio (z) = 0.23506 0.28119
#
# Static dielectric constant tensor:
#      x y z
#    x 1.689560 0.000000 0.025110 
#    y 0.000000 1.605820 0.000000 
#    z 0.025110 0.000000 1.696780 
# 
# From -- ./inp_files/23226.got.cif
#   From: 2010.05.17/outbox.cif.g08.bks.cpg/sg11_12_cif.got.tgz:23226.got - 2010.06.03 12:22:45.
