data_PCOD9158390
_publ_section_title
;
Structure prediction by ZEFSAII (Michael W. Deem and Ramdas Pophale) SiO2 
 PCOD9158390
Probable space group: P 21/M
;
_chemical_formula_sum "Si O2"
_cell_formula_units_Z 28
_cell_length_a 28.289372
_cell_length_b 9.002976
_cell_length_c 9.830652
_cell_angle_alpha 90.000000
_cell_angle_beta 39.767073
_cell_angle_gamma 90.000000
_cell_volume 1601.571738
_symmetry_space_group_name_H-M "P 21/M"
_symmetry_group_IT_number 11
_symmetry_cell_setting 'monoclinic'
loop_
_space_group_symop_operation_xyz
x,y,z
-x,1/2+y,-z
-x,-y,-z
x,1/2-y,z
loop_
_atom_site_type_symbol
_atom_site_label
_atom_site_fract_x
_atom_site_fract_y
_atom_site_fract_z
Si Si1 0.104120 0.922657 0.870400
Si Si2 0.962372 0.424617 0.287763
Si Si3 0.290663 0.570924 0.775818
Si Si4 0.738182 0.926504 0.444894
Si Si5 0.309961 0.570766 0.175364
Si Si6 0.578923 0.072082 0.302596
Si Si7 0.180912 0.569782 0.249670
O O1 0.120040 0.750000 0.863633
O O2 0.076820 0.933588 0.774116
O O3 0.177458 0.017434 0.727715
O O4 0.037118 0.982512 0.110647
O O5 0.978781 0.250000 0.274968
O O6 0.901479 0.479569 0.530591
O O7 0.287980 0.750000 0.765110
O O8 0.291765 0.491856 0.629700
O O9 0.362149 0.535111 0.709397
O O10 0.218812 0.525367 0.024342
O O11 0.735004 0.750000 0.453042
O O12 0.695067 0.993455 0.669050
O O13 0.307919 0.750000 0.195718
O O14 0.238207 0.528661 0.243093
O O15 0.381104 0.530657 0.927497
O O16 0.571454 0.250000 0.318878
O O17 0.500000 0.000000 0.500000
O O18 0.179060 0.750000 0.254462
#
# Coordination Sequence:
#
# PCOD9158390 Si02
#       7
#     4   4   4   4   4   4   4
#     4  10  19  31  49  72 104 142 175 217 268 319
#     4   9  16  29  50  76 102 130 173 228 269 307
#     4   9  19  36  57  78 104 142 177 209 260 321
#     4  12  23  34  50  78 110 140 177 223 265 307
#     4   9  17  34  57  80 104 139 178 212 257 315
#     4   9  19  36  62  88 111 137 171 211 257 314
#     4   8  14  30  55  77  97 130 179 224 261 307
#
# _framework density 17.482824999999998
#
# number of rings (size 3 to 8) (size 9 to 14) (size 15 to 20)
#    0.000    2.571    1.429    3.429    0.000    1.714 
#    0.000    4.286    0.000    0.000    0.000    0.000 
#    0.000    0.000    0.000    0.000    0.000    0.000 
#
# Total GULP energy -156169.021151 kJ/mol
# GULP energy per Si atom -5577.465041 kJ/mol
# Density = 1.744303 g / cm^3
# Si number density = 17.482825 Si / 1000 Ang^3
#
#
#
# Elastic Constant Matrix: (Units=GPa)
#
#
# Indices 1 2 3 4 5 6 
#
# 1 59.1547 40.9511 68.8680 0.0000 14.8230 0.0000
# 2 40.9511 59.7940 57.0542 0.0000 8.7516 0.0000
# 3 68.8680 57.0542 164.8640 0.0000 4.6143 0.0000
# 4 0.0000 0.0000 0.0000 27.6683 0.0000 -6.2672
# 5 14.8230 8.7516 4.6143 0.0000 29.6892 0.0000
# 6 0.0000 0.0000 0.0000 -6.2672 0.0000 18.1672
#
#
#
# Elastic Compliance Matrix: (Units=1/GPa)
#
#
# Indices 1 2 3 4 5 6 
#
# 1 0.050895 -0.018591 -0.014331 0.000000 -0.017703 0.000000
# 2 -0.018591 0.032889 -0.003620 0.000000 0.000150 0.000000
# 3 -0.014331 -0.003620 0.013132 0.000000 0.006181 0.000000
# 4 0.000000 0.000000 0.000000 0.039206 0.000000 0.013525
# 5 -0.017703 0.000150 0.006181 0.000000 0.041516 0.000000
# 6 0.000000 0.000000 0.000000 0.013525 0.000000 0.059710
#
#
# Mechanical properties :
#
#
# Convention : Reuss Voigt Hill
#
# Bulk Modulus (GPa) = 41.96130 68.61769 55.28950
# Shear Modulus (GPa) = 15.70474 22.90091 19.30283
#
# Velocity S-wave (km/s) = 3.00041 3.62319 3.32641
# Velocity P-wave (km/s) = 6.00473 7.53905 6.81520
#
# Compressibility (1/GPa) = 0.02383148
#
# Stress axis : x y z
#
# Youngs Moduli (GPa) = 19.64828 30.40549 76.15160
#
# Poissons Ratio (x) = 0.56528 1.09132
# Poissons Ratio (y) = 0.36529 0.27566
# Poissons Ratio (z) = 0.28158 0.11006
#
# Static dielectric constant tensor:
#      x y z
#    x 1.578630 0.000000 0.005960 
#    y 0.000000 1.575890 0.000000 
#    z 0.005960 0.000000 1.606980 
# 
# From -- ./inp_files/28019.got.cif
#   From: 2010.05.17/outbox.cif.g08.bks.cpg/sg11_15_cif.got.tgz:28019.got - 2010.06.03 12:22:45.
