data_PCOD9158290
_publ_section_title
;
Structure prediction by ZEFSAII (Michael W. Deem and Ramdas Pophale) SiO2 
 PCOD9158290
Probable space group: P 21/M
;
_chemical_formula_sum "Si O2"
_cell_formula_units_Z 32
_cell_length_a 12.762671
_cell_length_b 7.505154
_cell_length_c 24.094738
_cell_angle_alpha 90.000000
_cell_angle_beta 138.222225
_cell_angle_gamma 90.000000
_cell_volume 1537.645468
_symmetry_space_group_name_H-M "P 21/M"
_symmetry_group_IT_number 11
_symmetry_cell_setting 'monoclinic'
loop_
_space_group_symop_operation_xyz
x,y,z
-x,1/2+y,-z
-x,-y,-z
x,1/2-y,z
loop_
_atom_site_type_symbol
_atom_site_label
_atom_site_fract_x
_atom_site_fract_y
_atom_site_fract_z
Si Si1 0.512928 0.531947 0.765152
Si Si2 0.179538 0.454411 0.291550
Si Si3 0.494362 0.968529 0.631886
Si Si4 0.640355 0.045282 0.983677
Si Si5 0.666981 0.048352 0.201450
Si Si6 0.164058 0.529859 0.836321
Si Si7 0.669364 0.461358 0.539036
Si Si8 0.825204 0.961601 0.951640
O O1 0.510465 0.750000 0.765168
O O2 0.477360 0.476331 0.688609
O O3 0.388323 0.467721 0.762103
O O4 0.687400 0.478360 0.854774
O O5 0.172898 0.250000 0.269857
O O6 0.335331 0.530890 0.324072
O O7 0.208874 0.456963 0.369557
O O8 0.008276 0.532315 0.213524
O O9 0.495847 0.750000 0.630327
O O10 0.358341 0.024142 0.534942
O O11 0.591672 0.250000 0.971622
O O12 0.494267 0.946795 0.898224
O O13 0.780836 0.039860 0.993995
O O14 0.705955 0.975122 0.067511
O O15 0.719079 0.250000 0.233828
O O16 0.791513 0.968335 0.207915
O O17 0.164202 0.750000 0.836022
O O18 0.500000 0.500000 0.500000
O O19 0.696891 0.250000 0.549677
O O20 0.809361 0.750000 0.950771
O O21 0.000000 0.000000 0.000000
#
# Coordination Sequence:
#
# PCOD9158290 Si02
#       8
#     4   4   4   4   4   4   4   4
#     4   8  15  27  46  67  86 116 155 191 223 269
#     4   9  17  29  46  67  92 119 153 190 230 281
#     4   8  14  25  45  68  87 113 150 184 220 277
#     4  10  19  31  48  68  91 124 163 197 237 283
#     4   9  17  32  49  67  92 120 161 205 238 273
#     4   9  18  30  48  70  91 124 162 199 236 280
#     4   9  16  28  46  67  93 119 146 182 228 282
#     4  10  20  32  47  67  96 128 157 193 235 277
#
# _framework density 20.811039999999998
#
# number of rings (size 3 to 8) (size 9 to 14) (size 15 to 20)
#    0.000    3.000    0.000    3.000    1.750    0.000 
#    0.000    2.500    0.000   11.250    0.000    0.000 
#    0.000    0.000    0.000    0.000    0.000    0.500 
#
# Total GULP energy -178379.628390 kJ/mol
# GULP energy per Si atom -5574.363387 kJ/mol
# Density = 2.076367 g / cm^3
# Si number density = 20.811040 Si / 1000 Ang^3
#
#
#
# Elastic Constant Matrix: (Units=GPa)
#
#
# Indices 1 2 3 4 5 6 
#
# 1 64.3012 -5.6713 11.1142 0.0000 -24.3837 0.0000
# 2 -5.6713 62.5095 -5.8731 0.0000 0.1900 0.0000
# 3 11.1142 -5.8731 49.4286 0.0000 -30.4796 0.0000
# 4 0.0000 0.0000 0.0000 11.2803 0.0000 -2.7149
# 5 -24.3837 0.1900 -30.4796 0.0000 36.0174 0.0000
# 6 0.0000 0.0000 0.0000 -2.7149 0.0000 6.9543
#
#
#
# Elastic Compliance Matrix: (Units=1/GPa)
#
#
# Indices 1 2 3 4 5 6 
#
# 1 0.023282 0.002987 0.010100 0.000000 0.024293 0.000000
# 2 0.002987 0.016742 0.005250 0.000000 0.006377 0.000000
# 3 0.010100 0.005250 0.047647 0.000000 0.047131 0.000000
# 4 0.000000 0.000000 0.000000 0.097843 0.000000 0.038196
# 5 0.024293 0.006377 0.047131 0.000000 0.084062 0.000000
# 6 0.000000 0.000000 0.000000 0.038196 0.000000 0.158706
#
#
# Mechanical properties :
#
#
# Convention : Reuss Voigt Hill
#
# Bulk Modulus (GPa) = 8.04211 19.48655 13.76433
# Shear Modulus (GPa) = 11.54585 22.62837 17.08711
#
# Velocity S-wave (km/s) = 2.35796 3.30104 2.86852
# Velocity P-wave (km/s) = 3.35947 4.89010 4.19518
#
# Compressibility (1/GPa) = 0.12434541
#
# Stress axis : x y z
#
# Youngs Moduli (GPa) = 42.95219 59.72835 20.98775
#
# Poissons Ratio (x) = -0.17843 -0.21198
# Poissons Ratio (y) = -0.12832 -0.11018
# Poissons Ratio (z) = -0.43382 -0.31356
#
# Static dielectric constant tensor:
#      x y z
#    x 1.758850 0.000000 -0.019130 
#    y 0.000000 1.805250 0.000000 
#    z -0.019130 0.000000 1.737690 
# 
# From -- ./inp_files/68323.got.cif
#   From: 2010.05.17/outbox.cif.g08.bks.cpg/sg11_35_cif.got.tgz:68323.got - 2010.06.03 12:22:45.
