data_PCOD9158146
_publ_section_title
;
Structure prediction by ZEFSAII (Michael W. Deem and Ramdas Pophale) SiO2 
 PCOD9158146
Probable space group: P 21/M
;
_chemical_formula_sum "Si O2"
_cell_formula_units_Z 32
_cell_length_a 32.819908
_cell_length_b 7.865328
_cell_length_c 12.835064
_cell_angle_alpha 90.000000
_cell_angle_beta 27.898769
_cell_angle_gamma 90.000000
_cell_volume 1550.298512
_symmetry_space_group_name_H-M "P 21/M"
_symmetry_group_IT_number 11
_symmetry_cell_setting 'monoclinic'
loop_
_space_group_symop_operation_xyz
x,y,z
-x,1/2+y,-z
-x,-y,-z
x,1/2-y,z
loop_
_atom_site_type_symbol
_atom_site_label
_atom_site_fract_x
_atom_site_fract_y
_atom_site_fract_z
Si Si1 0.076601 0.045664 0.750370
Si Si2 0.236254 0.045155 0.522585
Si Si3 0.984344 0.548766 0.333617
Si Si4 0.799735 0.048811 0.781262
Si Si5 0.321646 0.544850 0.131192
Si Si6 0.309029 0.456036 0.771994
Si Si7 0.500591 0.045307 0.377118
Si Si8 0.816245 0.953176 0.127508
O O1 0.085631 0.250000 0.720354
O O2 0.160447 0.975916 0.618713
O O3 0.049050 0.975789 0.701330
O O4 0.000000 0.000000 0.000000
O O5 0.230857 0.250000 0.540360
O O6 0.215448 0.982510 0.686565
O O7 0.316582 0.003798 0.264840
O O8 0.995000 0.750000 0.302987
O O9 0.895764 0.517004 0.598613
O O10 0.082004 0.483285 0.129903
O O11 0.808096 0.250000 0.751964
O O12 0.756699 0.981048 0.769657
O O13 0.731330 0.008797 0.026483
O O14 0.319152 0.750000 0.130979
O O15 0.412115 0.482994 0.876355
O O16 0.308981 0.250000 0.769461
O O17 0.408702 0.514884 0.537847
O O18 0.246644 0.519661 0.820848
O O19 0.502002 0.250000 0.365952
O O20 0.500000 0.000000 0.500000
O O21 0.805961 0.750000 0.154513
#
# Coordination Sequence:
#
# PCOD9158146 Si02
#       8
#     4   4   4   4   4   4   4   4
#     4  10  19  30  49  77 107 141 184 231 274 320
#     4  10  20  35  55  80 114 151 189 231 277 332
#     4  11  22  35  54  83 115 150 192 233 280 334
#     4  11  22  36  57  85 117 148 184 235 286 337
#     4  10  21  35  55  87 119 144 179 231 290 339
#     4  10  22  40  62  83 111 149 189 234 283 340
#     4  10  20  37  61  89 115 143 182 233 289 340
#     4  10  22  40  58  80 112 155 197 230 275 333
#
# _framework density 20.641186000000001
#
# number of rings (size 3 to 8) (size 9 to 14) (size 15 to 20)
#    0.000    1.750    3.750    0.750    0.000    3.500 
#    0.000    0.625    0.000    0.000    0.000    0.000 
#    0.000    0.000    0.000    0.000    0.000    0.000 
#
# Total GULP energy -178373.342381 kJ/mol
# GULP energy per Si atom -5574.166949 kJ/mol
# Density = 2.059421 g / cm^3
# Si number density = 20.641186 Si / 1000 Ang^3
#
#
#
# Elastic Constant Matrix: (Units=GPa)
#
#
# Indices 1 2 3 4 5 6 
#
# 1 88.8782 9.0978 37.4680 0.0000 -17.8596 0.0000
# 2 9.0978 25.0958 -3.2791 0.0000 -2.8816 0.0000
# 3 37.4680 -3.2791 129.2494 0.0000 -12.2487 0.0000
# 4 0.0000 0.0000 0.0000 25.0775 0.0000 3.6606
# 5 -17.8596 -2.8816 -12.2487 0.0000 28.1988 0.0000
# 6 0.0000 0.0000 0.0000 3.6606 0.0000 13.1053
#
#
#
# Elastic Compliance Matrix: (Units=1/GPa)
#
#
# Indices 1 2 3 4 5 6 
#
# 1 0.014791 -0.005019 -0.003729 0.000000 0.007235 0.000000
# 2 -0.005019 0.042294 0.002749 0.000000 0.002338 0.000000
# 3 -0.003729 0.002749 0.009064 0.000000 0.001856 0.000000
# 4 0.000000 0.000000 0.000000 0.041571 0.000000 -0.011612
# 5 0.007235 0.002338 0.001856 0.000000 0.041090 0.000000
# 6 0.000000 0.000000 0.000000 -0.011612 0.000000 0.079548
#
#
# Mechanical properties :
#
#
# Convention : Reuss Voigt Hill
#
# Bulk Modulus (GPa) = 18.46657 36.64407 27.55532
# Shear Modulus (GPa) = 19.34932 26.60542 22.97737
#
# Velocity S-wave (km/s) = 3.06504 3.59409 3.34006
# Velocity P-wave (km/s) = 4.63593 5.91732 5.31538
#
# Compressibility (1/GPa) = 0.05415192
#
# Stress axis : x y z
#
# Youngs Moduli (GPa) = 67.60799 23.64381 110.32955
#
# Poissons Ratio (x) = 0.11866 0.41147
# Poissons Ratio (y) = 0.33930 -0.30334
# Poissons Ratio (z) = 0.25214 -0.06501
#
# Static dielectric constant tensor:
#      x y z
#    x 1.752520 0.000000 0.001770 
#    y 0.000000 1.745740 0.000000 
#    z 0.001770 0.000000 1.818330 
# 
# From -- ./inp_files/45231.got.cif
#   From: 2010.05.17/outbox.cif.g08.bks.cpg/sg11_23_cif.got.tgz:45231.got - 2010.06.03 12:22:45.
