data_PCOD9158894
_publ_section_title
;
Structure prediction by ZEFSAII (Michael W. Deem and Ramdas Pophale) SiO2 
 PCOD9158894
Probable space group: P 21/M
;
_chemical_formula_sum "Si O2"
_cell_formula_units_Z 24
_cell_length_a 9.285397
_cell_length_b 15.909358
_cell_length_c 18.038596
_cell_angle_alpha 90.000000
_cell_angle_beta 160.492898
_cell_angle_gamma 90.000000
_cell_volume 889.821936
_symmetry_space_group_name_H-M "P 21/M"
_symmetry_group_IT_number 11
_symmetry_cell_setting 'monoclinic'
loop_
_space_group_symop_operation_xyz
x,y,z
-x,1/2+y,-z
-x,-y,-z
x,1/2-y,z
loop_
_atom_site_type_symbol
_atom_site_label
_atom_site_fract_x
_atom_site_fract_y
_atom_site_fract_z
Si Si1 0.669908 0.750000 0.103145
Si Si2 0.906477 0.250000 0.054230
Si Si3 0.138675 0.910449 0.155582
Si Si4 0.556616 0.594058 0.748912
Si Si5 0.236328 0.750000 0.754645
Si Si6 0.338047 0.250000 0.650745
Si Si7 0.747244 0.588855 0.579958
Si Si8 0.883690 0.091080 0.605127
O O1 0.874013 0.665920 0.236312
O O2 0.192121 0.750000 0.907130
O O3 0.677569 0.750000 0.016851
O O4 0.153212 0.167804 0.145602
O O5 0.444719 0.250000 0.788587
O O6 0.416819 0.832317 0.260519
O O7 0.288459 0.915087 0.312936
O O8 0.303086 0.999446 0.203618
O O9 0.662647 0.899350 0.888444
O O10 0.127288 0.601128 0.489788
O O11 0.134464 0.750000 0.616646
O O12 0.994752 0.668684 0.670099
O O13 0.598733 0.594060 0.592737
O O14 0.010193 0.504235 0.687606
#
# Coordination Sequence:
#
# PCOD9158894 Si02
#       8
#     2   2   4   4   2   2   4   4
#     4  12  24  34  48  76 108 136 166 202 246 306
#     4  10  19  32  52  74 104 138 163 198 256 308
#     4   8  15  28  55  81  96 120 169 216 247 286
#     4   9  16  31  53  77 100 130 167 206 250 296
#     4  10  19  34  54  72 100 136 169 204 252 296
#     4   8  16  32  52  76 102 134 170 206 248 294
#     4   9  18  35  56  74  96 131 169 212 251 288
#     4  10  20  33  51  76 103 129 169 211 247 292
#
# _framework density 26.971688
#
# number of rings (size 3 to 8) (size 9 to 14) (size 15 to 20)
#    0.000    2.667    0.000    2.000    0.000    0.667 
#    0.000    1.667    0.000   34.000    0.000    0.000 
#    0.000    0.000    0.000    0.000    0.000    0.000 
#
# Total GULP energy -133955.839198 kJ/mol
# GULP energy per Si atom -5581.493300 kJ/mol
# Density = 2.691030 g / cm^3
# Si number density = 26.971688 Si / 1000 Ang^3
#
#
#
# Elastic Constant Matrix: (Units=GPa)
#
#
# Indices 1 2 3 4 5 6 
#
# 1 100.4661 32.8808 36.8065 0.0000 -20.8601 0.0000
# 2 32.8808 214.5646 64.1092 0.0000 8.8246 0.0000
# 3 36.8065 64.1092 88.9263 0.0000 -47.0339 0.0000
# 4 0.0000 0.0000 0.0000 43.6025 0.0000 -17.6129
# 5 -20.8601 8.8246 -47.0339 0.0000 51.9523 0.0000
# 6 0.0000 0.0000 0.0000 -17.6129 0.0000 19.2334
#
#
#
# Elastic Compliance Matrix: (Units=1/GPa)
#
#
# Indices 1 2 3 4 5 6 
#
# 1 0.011843 -0.001003 -0.003020 0.000000 0.002192 0.000000
# 2 -0.001003 0.009995 -0.015162 0.000000 -0.015827 0.000000
# 3 -0.003020 -0.015162 0.046332 0.000000 0.043308 0.000000
# 4 0.000000 0.000000 0.000000 0.036399 0.000000 0.033332
# 5 0.002192 -0.015827 0.043308 0.000000 0.062025 0.000000
# 6 0.000000 0.000000 0.000000 0.033332 0.000000 0.082517
#
#
# Mechanical properties :
#
#
# Convention : Reuss Voigt Hill
#
# Bulk Modulus (GPa) = 33.55490 74.61668 54.08579
# Shear Modulus (GPa) = 16.81163 40.96833 28.88998
#
# Velocity S-wave (km/s) = 2.49932 3.90158 3.27635
# Velocity P-wave (km/s) = 4.56033 6.92974 5.86592
#
# Compressibility (1/GPa) = 0.02980190
#
# Stress axis : x y z
#
# Youngs Moduli (GPa) = 84.43679 100.04631 21.58346
#
# Poissons Ratio (x) = 0.10033 0.06517
# Poissons Ratio (y) = 0.08468 0.32724
# Poissons Ratio (z) = 0.25496 1.51688
#
# Static dielectric constant tensor:
#      x y z
#    x 2.032410 0.000000 -0.042870 
#    y 0.000000 2.109910 0.000000 
#    z -0.042870 0.000000 2.229920 
# 
# From -- ./inp_files/39770.got.cif
#   From: 2010.05.17/outbox.cif.g08.bks.cpg/sg11_20_cif.got.tgz:39770.got - 2010.06.03 12:22:45.
