data_PCOD9158117
_publ_section_title
;
Structure prediction by ZEFSAII (Michael W. Deem and Ramdas Pophale) SiO2 
 PCOD9158117
Probable space group: P 21/M
;
_chemical_formula_sum "Si O2"
_cell_formula_units_Z 28
_cell_length_a 13.926985
_cell_length_b 8.037194
_cell_length_c 12.437537
_cell_angle_alpha 90.000000
_cell_angle_beta 54.614858
_cell_angle_gamma 90.000000
_cell_volume 1135.015159
_symmetry_space_group_name_H-M "P 21/M"
_symmetry_group_IT_number 11
_symmetry_cell_setting 'monoclinic'
loop_
_space_group_symop_operation_xyz
x,y,z
-x,1/2+y,-z
-x,-y,-z
x,1/2-y,z
loop_
_atom_site_type_symbol
_atom_site_label
_atom_site_fract_x
_atom_site_fract_y
_atom_site_fract_z
Si Si1 0.413500 0.051802 0.276203
Si Si2 0.277544 0.945566 0.554604
Si Si3 0.608118 0.446170 0.312566
Si Si4 0.329202 0.440615 0.115450
Si Si5 0.029432 0.064271 0.793667
Si Si6 0.214856 0.051734 0.969847
Si Si7 0.095902 0.564397 0.355425
O O1 0.431601 0.250000 0.252853
O O2 0.513559 0.980002 0.290468
O O3 0.412850 0.982994 0.154450
O O4 0.297653 0.025279 0.425062
O O5 0.297013 0.750000 0.529423
O O6 0.370082 0.017233 0.582624
O O7 0.150293 0.972101 0.689565
O O8 0.583423 0.250000 0.340246
O O9 0.730186 0.468029 0.169571
O O10 0.363681 0.250000 0.074335
O O11 0.205886 0.446052 0.261653
O O12 0.289546 0.514553 0.026216
O O13 0.056037 0.250000 0.817469
O O14 0.969548 0.076904 0.715556
O O15 0.923847 0.984115 0.929817
O O16 0.230828 0.250000 0.956130
O O17 0.138370 0.750000 0.358726
O O18 0.000000 0.500000 0.500000
#
# Coordination Sequence:
#
# PCOD9158117 Si02
#       7
#     4   4   4   4   4   4   4
#     4  10  21  39  61  84 114 152 190 230 282 339
#     4  11  23  38  58  86 116 147 190 240 284 329
#     4  10  23  41  59  81 114 154 192 234 282 333
#     4   9  19  35  55  81 112 144 181 228 278 330
#     4  10  21  37  57  81 112 150 188 228 281 342
#     4  10  21  38  60  87 116 147 188 234 280 334
#     4  10  19  30  48  76 109 145 182 223 275 334
#
# _framework density 24.669274000000001
#
# number of rings (size 3 to 8) (size 9 to 14) (size 15 to 20)
#    0.000    2.000    0.000    3.000    0.000    9.143 
#    0.000    0.000    0.000    0.000    0.000    0.000 
#    0.000    0.000    0.000    0.000    0.000    0.000 
#
# Total GULP energy -156407.702328 kJ/mol
# GULP energy per Si atom -5585.989369 kJ/mol
# Density = 2.461313 g / cm^3
# Si number density = 24.669274 Si / 1000 Ang^3
#
#
#
# Elastic Constant Matrix: (Units=GPa)
#
#
# Indices 1 2 3 4 5 6 
#
# 1 73.6166 2.1803 24.9056 0.0000 19.8223 0.0000
# 2 2.1803 63.8452 1.0189 0.0000 1.1710 0.0000
# 3 24.9056 1.0189 86.7658 0.0000 19.3465 0.0000
# 4 0.0000 0.0000 0.0000 20.8908 0.0000 -8.6664
# 5 19.8223 1.1710 19.3465 0.0000 46.1858 0.0000
# 6 0.0000 0.0000 0.0000 -8.6664 0.0000 18.7648
#
#
#
# Elastic Compliance Matrix: (Units=1/GPa)
#
#
# Indices 1 2 3 4 5 6 
#
# 1 0.016243 -0.000399 -0.003425 0.000000 -0.005526 0.000000
# 2 -0.000399 0.015681 -0.000021 0.000000 -0.000218 0.000000
# 3 -0.003425 -0.000021 0.013436 0.000000 -0.004157 0.000000
# 4 0.000000 0.000000 0.000000 0.059213 0.000000 0.027347
# 5 -0.005526 -0.000218 -0.004157 0.000000 0.025770 0.000000
# 6 0.000000 0.000000 0.000000 0.027347 0.000000 0.065921
#
#
# Mechanical properties :
#
#
# Convention : Reuss Voigt Hill
#
# Bulk Modulus (GPa) = 26.54738 31.15969 28.85353
# Shear Modulus (GPa) = 23.09356 30.24312 26.66834
#
# Velocity S-wave (km/s) = 3.06294 3.50515 3.29148
# Velocity P-wave (km/s) = 4.82633 5.38886 5.11533
#
# Compressibility (1/GPa) = 0.03766850
#
# Stress axis : x y z
#
# Youngs Moduli (GPa) = 61.56663 63.77216 74.42820
#
# Poissons Ratio (x) = 0.02542 0.25495
# Poissons Ratio (y) = 0.02454 0.00158
# Poissons Ratio (z) = 0.21090 0.00135
#
# Static dielectric constant tensor:
#      x y z
#    x 2.087090 0.000000 -0.018380 
#    y 0.000000 1.906120 0.000000 
#    z -0.018380 0.000000 1.968020 
# 
# From -- ./inp_files/37909.got.cif
#   From: 2010.05.17/outbox.cif.g08.bks.cpg/sg11_19_cif.got.tgz:37909.got - 2010.06.03 12:22:45.
