data_PCOD9158012
_publ_section_title
;
Structure prediction by ZEFSAII (Michael W. Deem and Ramdas Pophale) SiO2 
 PCOD9158012
Probable space group: P 21/M
;
_chemical_formula_sum "Si O2"
_cell_formula_units_Z 28
_cell_length_a 16.801974
_cell_length_b 8.947408
_cell_length_c 21.619091
_cell_angle_alpha 90.000000
_cell_angle_beta 148.356915
_cell_angle_gamma 90.000000
_cell_volume 1705.080879
_symmetry_space_group_name_H-M "P 21/M"
_symmetry_group_IT_number 11
_symmetry_cell_setting 'monoclinic'
loop_
_space_group_symop_operation_xyz
x,y,z
-x,1/2+y,-z
-x,-y,-z
x,1/2-y,z
loop_
_atom_site_type_symbol
_atom_site_label
_atom_site_fract_x
_atom_site_fract_y
_atom_site_fract_z
Si Si1 0.198465 0.572263 0.076697
Si Si2 0.117440 0.927947 0.164713
Si Si3 0.339159 0.427481 0.410739
Si Si4 0.739868 0.074352 0.513314
Si Si5 0.020916 0.928030 0.425150
Si Si6 0.754214 0.573941 0.327979
Si Si7 0.511834 0.073290 0.246686
O O1 0.185237 0.750000 0.059183
O O2 0.190405 0.542578 0.145276
O O3 0.355037 0.511544 0.153224
O O4 0.053086 0.490535 0.951461
O O5 0.116707 0.750000 0.174158
O O6 0.214745 0.008367 0.281314
O O7 0.500000 0.500000 0.500000
O O8 0.349145 0.250000 0.411913
O O9 0.296077 0.475327 0.451629
O O10 0.728617 0.250000 0.522623
O O11 0.619887 0.047312 0.378275
O O12 0.906354 0.047392 0.593847
O O13 0.047064 0.750000 0.456447
O O14 0.845146 0.958036 0.324425
O O15 0.121886 0.027231 0.538166
O O16 0.722997 0.750000 0.310703
O O17 0.605445 0.484073 0.249155
O O18 0.486262 0.250000 0.225495
#
# Coordination Sequence:
#
# PCOD9158012 Si02
#       7
#     4   4   4   4   4   4   4
#     4  10  20  34  53  75  97 123 158 199 239 282
#     4  10  21  37  55  73  95 125 159 196 241 286
#     4  12  24  36  51  72  98 128 163 200 238 281
#     4   9  18  32  48  68  97 131 165 199 238 285
#     4   8  15  27  42  62  91 126 159 193 237 287
#     4   9  15  24  41  65  93 124 158 196 237 282
#     4  10  19  30  46  70 100 132 163 197 239 284
#
# _framework density 16.421509
#
# number of rings (size 3 to 8) (size 9 to 14) (size 15 to 20)
#    0.000    2.286    0.000    4.714    0.000    7.429 
#    0.000    0.000    0.000    0.000    0.000    1.000 
#    0.000    0.000    0.000    0.000    0.000    0.000 
#
# Total GULP energy -156108.615554 kJ/mol
# GULP energy per Si atom -5575.307698 kJ/mol
# Density = 1.638413 g / cm^3
# Si number density = 16.421509 Si / 1000 Ang^3
#
#
#
# Elastic Constant Matrix: (Units=GPa)
#
#
# Indices 1 2 3 4 5 6 
#
# 1 116.6152 56.4008 41.7052 0.0000 23.5553 0.0000
# 2 56.4008 78.0183 37.0976 0.0000 5.4463 0.0000
# 3 41.7052 37.0976 48.3153 0.0000 9.3606 0.0000
# 4 0.0000 0.0000 0.0000 25.2922 0.0000 3.9860
# 5 23.5553 5.4463 9.3606 0.0000 22.5914 0.0000
# 6 0.0000 0.0000 0.0000 3.9860 0.0000 29.1861
#
#
#
# Elastic Compliance Matrix: (Units=1/GPa)
#
#
# Indices 1 2 3 4 5 6 
#
# 1 0.017940 -0.009326 -0.005584 0.000000 -0.014143 0.000000
# 2 -0.009326 0.025096 -0.012972 0.000000 0.009049 0.000000
# 3 -0.005584 -0.012972 0.036690 0.000000 -0.006252 0.000000
# 4 0.000000 0.000000 0.000000 0.040408 0.000000 -0.005519
# 5 -0.014143 0.009049 -0.006252 0.000000 0.059420 0.000000
# 6 0.000000 0.000000 0.000000 -0.005519 0.000000 0.035017
#
#
# Mechanical properties :
#
#
# Convention : Reuss Voigt Hill
#
# Bulk Modulus (GPa) = 41.73704 57.03955 49.38829
# Shear Modulus (GPa) = 17.96478 22.59695 20.28087
#
# Velocity S-wave (km/s) = 3.31112 3.71355 3.51810
# Velocity P-wave (km/s) = 6.33161 7.29365 6.82959
#
# Compressibility (1/GPa) = 0.02395953
#
# Stress axis : x y z
#
# Youngs Moduli (GPa) = 55.74198 39.84659 27.25574
#
# Poissons Ratio (x) = 0.37162 0.15221
# Poissons Ratio (y) = 0.51987 0.35357
# Poissons Ratio (z) = 0.31129 0.51690
#
# Static dielectric constant tensor:
#      x y z
#    x 1.583250 0.000000 0.011890 
#    y 0.000000 1.546770 0.000000 
#    z 0.011890 0.000000 1.521780 
# 
# From -- ./inp_files/64274.got.cif
#   From: 2010.05.17/outbox.cif.g08.bks.cpg/sg11_33_cif.got.tgz:64274.got - 2010.06.03 12:22:45.
