data_PCOD9158664
_publ_section_title
;
Structure prediction by ZEFSAII (Michael W. Deem and Ramdas Pophale) SiO2 
 PCOD9158664
Probable space group: P 21/M
;
_chemical_formula_sum "Si O2"
_cell_formula_units_Z 32
_cell_length_a 16.186975
_cell_length_b 8.492607
_cell_length_c 14.701266
_cell_angle_alpha 90.000000
_cell_angle_beta 89.143112
_cell_angle_gamma 90.000000
_cell_volume 2020.751400
_symmetry_space_group_name_H-M "P 21/M"
_symmetry_group_IT_number 11
_symmetry_cell_setting 'monoclinic'
loop_
_space_group_symop_operation_xyz
x,y,z
-x,1/2+y,-z
-x,-y,-z
x,1/2-y,z
loop_
_atom_site_type_symbol
_atom_site_label
_atom_site_fract_x
_atom_site_fract_y
_atom_site_fract_z
Si Si1 0.666053 0.442226 0.283586
Si Si2 0.345132 0.561630 0.291303
Si Si3 0.001606 0.938594 0.396314
Si Si4 0.596528 0.059895 0.093731
Si Si5 0.817338 0.441727 0.600071
Si Si6 0.172696 0.559991 0.611583
Si Si7 0.403485 0.062222 0.103496
Si Si8 0.496125 0.938735 0.602579
O O1 0.666340 0.250000 0.284081
O O2 0.649274 0.491034 0.180113
O O3 0.751742 0.494493 0.327000
O O4 0.587911 0.492039 0.346012
O O5 0.347214 0.750000 0.298083
O O6 0.261245 0.504110 0.341283
O O7 0.352659 0.512436 0.186374
O O8 0.424533 0.494936 0.342614
O O9 0.998022 0.750000 0.396185
O O10 0.092911 0.987677 0.361394
O O11 0.917522 0.003740 0.355033
O O12 0.000000 0.000000 0.500000
O O13 0.598755 0.250000 0.087859
O O14 0.500372 0.014528 0.111418
O O15 0.622919 0.990388 0.996653
O O16 0.815558 0.250000 0.599224
O O17 0.813110 0.491354 0.493920
O O18 0.172251 0.750000 0.610762
O O19 0.399960 0.250000 0.111327
O O20 0.495341 0.750000 0.601682
O O21 0.500000 0.000000 0.500000
#
# Coordination Sequence:
#
# PCOD9158664 Si02
#       8
#     4   4   4   4   4   4   4   4
#     4   9  17  31  49  66  92 126 158 188 227 279
#     4  11  20  32  49  69  91 124 162 193 228 278
#     4   9  16  29  46  65  90 119 152 192 231 270
#     4   9  17  32  50  67  88 122 160 192 231 281
#     4   8  16  29  45  65  92 125 157 184 224 278
#     4   9  16  29  48  68  91 122 155 189 227 271
#     4  10  19  32  48  69  94 119 152 199 243 275
#     4  11  21  34  46  64  94 130 162 192 225 267
#
# _framework density 15.835692999999999
#
# number of rings (size 3 to 8) (size 9 to 14) (size 15 to 20)
#    0.000    2.500    1.250    3.000    0.000    2.500 
#    0.000   10.625    0.000    0.000    0.000    0.875 
#    0.000    0.000    0.000    0.000    0.000    0.000 
#
# Total GULP energy -178352.789002 kJ/mol
# GULP energy per Si atom -5573.524656 kJ/mol
# Density = 1.579965 g / cm^3
# Si number density = 15.835693 Si / 1000 Ang^3
#
#
#
# Elastic Constant Matrix: (Units=GPa)
#
#
# Indices 1 2 3 4 5 6 
#
# 1 144.2681 20.6574 66.6600 0.0000 15.9779 0.0000
# 2 20.6574 21.4510 17.3942 0.0000 1.9950 0.0000
# 3 66.6600 17.3942 102.0834 0.0000 12.4683 0.0000
# 4 0.0000 0.0000 0.0000 21.7716 0.0000 1.2260
# 5 15.9779 1.9950 12.4683 0.0000 10.5050 0.0000
# 6 0.0000 0.0000 0.0000 1.2260 0.0000 21.4383
#
#
#
# Elastic Compliance Matrix: (Units=1/GPa)
#
#
# Indices 1 2 3 4 5 6 
#
# 1 0.011222 -0.005714 -0.005148 0.000000 -0.009873 0.000000
# 2 -0.005714 0.057006 -0.006692 0.000000 0.005807 0.000000
# 3 -0.005148 -0.006692 0.015422 0.000000 -0.009203 0.000000
# 4 0.000000 0.000000 0.000000 0.046080 0.000000 -0.002635
# 5 -0.009873 0.005807 -0.009203 0.000000 0.120028 0.000000
# 6 0.000000 0.000000 0.000000 -0.002635 0.000000 0.046796
#
#
# Mechanical properties :
#
#
# Convention : Reuss Voigt Hill
#
# Bulk Modulus (GPa) = 20.60046 53.02509 36.81278
# Shear Modulus (GPa) = 14.37429 21.61573 17.99501
#
# Velocity S-wave (km/s) = 3.01610 3.69860 3.37465
# Velocity P-wave (km/s) = 5.01660 7.19700 6.20335
#
# Compressibility (1/GPa) = 0.04854260
#
# Stress axis : x y z
#
# Youngs Moduli (GPa) = 89.11070 17.54190 64.84227
#
# Poissons Ratio (x) = 0.10023 0.33384
# Poissons Ratio (y) = 0.50916 0.43390
# Poissons Ratio (z) = 0.45879 0.11738
#
# Static dielectric constant tensor:
#      x y z
#    x 1.544380 0.000000 0.002670 
#    y 0.000000 1.538780 0.000000 
#    z 0.002670 0.000000 1.511780 
# 
# From -- ./inp_files/51347.got.cif
#   From: 2010.05.17/outbox.cif.g08.bks.cpg/sg11_26_cif.got.tgz:51347.got - 2010.06.03 12:22:45.
