data_PCOD9158309
_publ_section_title
;
Structure prediction by ZEFSAII (Michael W. Deem and Ramdas Pophale) SiO2 
 PCOD9158309
Probable space group: P 21/M
;
_chemical_formula_sum "Si O2"
_cell_formula_units_Z 32
_cell_length_a 21.649580
_cell_length_b 9.080073
_cell_length_c 20.875756
_cell_angle_alpha 90.000000
_cell_angle_beta 153.046789
_cell_angle_gamma 90.000000
_cell_volume 1860.077505
_symmetry_space_group_name_H-M "P 21/M"
_symmetry_group_IT_number 11
_symmetry_cell_setting 'monoclinic'
loop_
_space_group_symop_operation_xyz
x,y,z
-x,1/2+y,-z
-x,-y,-z
x,1/2-y,z
loop_
_atom_site_type_symbol
_atom_site_label
_atom_site_fract_x
_atom_site_fract_y
_atom_site_fract_z
Si Si1 0.127514 0.078547 0.584231
Si Si2 0.154999 0.081412 0.213495
Si Si3 0.629269 0.921935 0.088528
Si Si4 0.133898 0.581429 0.321116
Si Si5 0.787637 0.426503 0.121890
Si Si6 0.823424 0.419360 0.895279
Si Si7 0.197299 0.419482 0.995293
Si Si8 0.084476 0.927740 0.416151
O O1 0.095793 0.250000 0.541583
O O2 0.251041 0.072699 0.748059
O O3 0.156027 0.993050 0.544691
O O4 0.000000 0.000000 0.500000
O O5 0.197578 0.250000 0.246646
O O6 0.189236 0.017145 0.314836
O O7 0.209012 0.987101 0.203875
O O8 0.989202 0.077582 0.054701
O O9 0.603545 0.750000 0.049579
O O10 0.681366 0.008789 0.074435
O O11 0.500000 0.000000 0.000000
O O12 0.178229 0.750000 0.353012
O O13 0.158471 0.536263 0.417315
O O14 0.968493 0.580183 0.162330
O O15 0.795753 0.250000 0.132086
O O16 0.754387 0.482396 0.019513
O O17 0.934512 0.498652 0.274922
O O18 0.781045 0.250000 0.860720
O O19 0.768123 0.513239 0.903707
O O20 0.241128 0.250000 0.029375
O O21 0.069666 0.750000 0.405927
#
# Coordination Sequence:
#
# PCOD9158309 Si02
#       8
#     4   4   4   4   4   4   4   4
#     4  11  22  35  55  78 102 130 165 206 252 301
#     4   9  15  21  31  47  71 106 146 187 230 279
#     4  11  24  40  56  76 102 132 167 207 253 305
#     4   8  15  25  36  53  79 112 147 189 235 280
#     4  11  20  31  49  70  94 125 160 200 248 297
#     4   9  15  22  32  48  72 105 147 189 230 280
#     4   9  16  26  39  56  81 111 149 195 238 282
#     4  10  19  31  48  70  96 124 161 204 246 291
#
# _framework density 17.203583999999999
#
# number of rings (size 3 to 8) (size 9 to 14) (size 15 to 20)
#    0.000    2.250    1.250    4.125    0.000    8.000 
#    0.000    0.000    0.000    0.000    0.000    0.000 
#    0.000    0.000    0.000    1.125    0.000   15.750 
#
# Total GULP energy -178427.776208 kJ/mol
# GULP energy per Si atom -5575.868007 kJ/mol
# Density = 1.716443 g / cm^3
# Si number density = 17.203584 Si / 1000 Ang^3
#
#
#
# Elastic Constant Matrix: (Units=GPa)
#
#
# Indices 1 2 3 4 5 6 
#
# 1 116.3501 68.9057 22.4870 0.0000 -32.3178 0.0000
# 2 68.9057 139.0387 22.6455 0.0000 -16.5405 0.0000
# 3 22.4870 22.6455 14.3164 0.0000 -4.6630 0.0000
# 4 0.0000 0.0000 0.0000 15.7468 0.0000 -8.6134
# 5 -32.3178 -16.5405 -4.6630 0.0000 23.0939 0.0000
# 6 0.0000 0.0000 0.0000 -8.6134 0.0000 34.9030
#
#
#
# Elastic Compliance Matrix: (Units=1/GPa)
#
#
# Indices 1 2 3 4 5 6 
#
# 1 0.021332 -0.004879 -0.018414 0.000000 0.022639 0.000000
# 2 -0.004879 0.011184 -0.010320 0.000000 -0.000902 0.000000
# 3 -0.018414 -0.010320 0.111639 0.000000 -0.010619 0.000000
# 4 0.000000 0.000000 0.000000 0.073415 0.000000 0.018117
# 5 0.022639 -0.000902 -0.010619 0.000000 0.072192 0.000000
# 6 0.000000 0.000000 0.000000 0.018117 0.000000 0.033122
#
#
# Mechanical properties :
#
#
# Convention : Reuss Voigt Hill
#
# Bulk Modulus (GPa) = 12.99932 55.30905 34.15419
# Shear Modulus (GPa) = 12.02635 25.12654 18.57645
#
# Velocity S-wave (km/s) = 2.64684 3.82585 3.28960
# Velocity P-wave (km/s) = 4.11262 7.19275 5.85872
#
# Compressibility (1/GPa) = 0.07692713
#
# Stress axis : x y z
#
# Youngs Moduli (GPa) = 46.87902 89.41355 8.95743
#
# Poissons Ratio (x) = 0.43628 0.16494
# Poissons Ratio (y) = 0.22874 0.09244
# Poissons Ratio (z) = 0.86323 0.92278
#
# Static dielectric constant tensor:
#      x y z
#    x 1.589530 0.000000 -0.021680 
#    y 0.000000 1.588960 0.000000 
#    z -0.021680 0.000000 1.568140 
# 
# From -- ./inp_files/66455.got.cif
#   From: 2010.05.17/outbox.cif.g08.bks.cpg/sg11_34_cif.got.tgz:66455.got - 2010.06.03 12:22:45.
