data_PCOD9158514
_publ_section_title
;
Structure prediction by ZEFSAII (Michael W. Deem and Ramdas Pophale) SiO2 
 PCOD9158514
Probable space group: P 21/M
;
_chemical_formula_sum "Si O2"
_cell_formula_units_Z 24
_cell_length_a 16.684925
_cell_length_b 8.879268
_cell_length_c 15.507455
_cell_angle_alpha 90.000000
_cell_angle_beta 142.824013
_cell_angle_gamma 90.000000
_cell_volume 1388.255999
_symmetry_space_group_name_H-M "P 21/M"
_symmetry_group_IT_number 11
_symmetry_cell_setting 'monoclinic'
loop_
_space_group_symop_operation_xyz
x,y,z
-x,1/2+y,-z
-x,-y,-z
x,1/2-y,z
loop_
_atom_site_type_symbol
_atom_site_label
_atom_site_fract_x
_atom_site_fract_y
_atom_site_fract_z
Si Si1 0.143680 0.570098 0.107390
Si Si2 0.635902 0.570038 0.579607
Si Si3 0.402178 0.927017 0.634547
Si Si4 0.281325 0.426937 0.063313
Si Si5 0.639814 0.923767 0.223381
Si Si6 0.679598 0.076283 0.081381
O O1 0.141195 0.750000 0.112691
O O2 0.245121 0.499504 0.263291
O O3 0.197675 0.521004 0.060034
O O4 0.000000 0.500000 0.000000
O O5 0.500000 0.500000 0.500000
O O6 0.632877 0.750000 0.586096
O O7 0.645228 0.521099 0.488100
O O8 0.375372 0.750000 0.599499
O O9 0.562190 0.944947 0.779750
O O10 0.341227 0.986559 0.671676
O O11 0.250090 0.250000 0.043354
O O12 0.262887 0.485600 0.950265
O O13 0.680063 0.750000 0.266351
O O14 0.704097 0.000536 0.194818
O O15 0.480477 0.925208 0.069669
O O16 0.722041 0.250000 0.116635
#
# Coordination Sequence:
#
# PCOD9158514 Si02
#       6
#     4   4   4   4   4   4
#     4  12  25  41  59  80 110 145 185 230 277 328
#     4  12  23  37  57  82 110 144 185 227 275 328
#     4  10  19  31  50  76 107 141 179 222 271 323
#     4  10  19  32  51  75 105 140 181 223 271 324
#     4   9  16  26  41  66 101 137 174 217 268 320
#     4   9  16  26  42  66  99 137 176 216 267 322
#
# _framework density 17.287877000000002
#
# number of rings (size 3 to 8) (size 9 to 14) (size 15 to 20)
#    0.000    1.667    1.667    5.000    0.000    5.333 
#    0.000    0.000    0.000    0.000    0.000    1.167 
#    0.000    0.000    0.000    0.000    0.000    0.000 
#
# Total GULP energy -134014.851738 kJ/mol
# GULP energy per Si atom -5583.952156 kJ/mol
# Density = 1.724853 g / cm^3
# Si number density = 17.287877 Si / 1000 Ang^3
#
#
#
# Elastic Constant Matrix: (Units=GPa)
#
#
# Indices 1 2 3 4 5 6 
#
# 1 109.0567 73.9739 61.7251 0.0000 -33.1651 0.0000
# 2 73.9739 176.6213 57.8036 0.0000 -10.9682 0.0000
# 3 61.7251 57.8036 75.0301 0.0000 -9.3505 0.0000
# 4 0.0000 0.0000 0.0000 23.2346 0.0000 -8.7109
# 5 -33.1651 -10.9682 -9.3505 0.0000 24.6693 0.0000
# 6 0.0000 0.0000 0.0000 -8.7109 0.0000 34.8692
#
#
#
# Elastic Compliance Matrix: (Units=1/GPa)
#
#
# Indices 1 2 3 4 5 6 
#
# 1 0.037209 -0.006322 -0.020841 0.000000 0.039313 0.000000
# 2 -0.006322 0.008680 -0.002166 0.000000 -0.005462 0.000000
# 3 -0.020841 -0.002166 0.029945 0.000000 -0.017631 0.000000
# 4 0.000000 0.000000 0.000000 0.047487 0.000000 0.011863
# 5 0.039313 -0.005462 -0.017631 0.000000 0.084277 0.000000
# 6 0.000000 0.000000 0.000000 0.011863 0.000000 0.031642
#
#
# Mechanical properties :
#
#
# Convention : Reuss Voigt Hill
#
# Bulk Modulus (GPa) = 58.22505 83.07925 70.65215
# Shear Modulus (GPa) = 16.46774 27.70165 22.08469
#
# Velocity S-wave (km/s) = 3.08971 4.00731 3.57804
# Velocity P-wave (km/s) = 6.81771 8.34099 7.61752
#
# Compressibility (1/GPa) = 0.01717474
#
# Stress axis : x y z
#
# Youngs Moduli (GPa) = 26.87508 115.21327 33.39467
#
# Poissons Ratio (x) = 0.72840 0.69598
# Poissons Ratio (y) = 0.16991 0.07234
# Poissons Ratio (z) = 0.56010 0.24959
#
# Static dielectric constant tensor:
#      x y z
#    x 1.581920 0.000000 -0.007570 
#    y 0.000000 1.574010 0.000000 
#    z -0.007570 0.000000 1.571660 
# 
# From -- ./inp_files/46504.got.cif
#   From: 2010.05.17/outbox.cif.g08.bks.cpg/sg11_24_cif.got.tgz:46504.got - 2010.06.03 12:22:45.
