data_PCOD9158409
_publ_section_title
;
Structure prediction by ZEFSAII (Michael W. Deem and Ramdas Pophale) SiO2 
 PCOD9158409
Probable space group: P 21/M
;
_chemical_formula_sum "Si O2"
_cell_formula_units_Z 28
_cell_length_a 12.885825
_cell_length_b 8.776291
_cell_length_c 15.476664
_cell_angle_alpha 90.000000
_cell_angle_beta 74.209935
_cell_angle_gamma 90.000000
_cell_volume 1684.206637
_symmetry_space_group_name_H-M "P 21/M"
_symmetry_group_IT_number 11
_symmetry_cell_setting 'monoclinic'
loop_
_space_group_symop_operation_xyz
x,y,z
-x,1/2+y,-z
-x,-y,-z
x,1/2-y,z
loop_
_atom_site_type_symbol
_atom_site_label
_atom_site_fract_x
_atom_site_fract_y
_atom_site_fract_z
Si Si1 0.653572 0.932111 0.405666
Si Si2 0.634230 0.433450 0.105839
Si Si3 0.982546 0.565903 0.908512
Si Si4 0.588046 0.067846 0.597532
Si Si5 0.742787 0.933911 0.912172
Si Si6 0.794625 0.433639 0.225757
Si Si7 0.394147 0.066053 0.220652
O O1 0.657160 0.750000 0.409412
O O2 0.537660 0.977041 0.389890
O O3 0.652931 0.000668 0.501766
O O4 0.746722 0.994059 0.322856
O O5 0.637153 0.250000 0.097663
O O6 0.717479 0.477903 0.162806
O O7 0.513554 0.478391 0.160265
O O8 0.672057 0.504173 0.007375
O O9 0.983288 0.750000 0.914257
O O10 0.866427 0.517409 0.898488
O O11 0.083790 0.521213 0.826094
O O12 0.000000 0.500000 0.000000
O O13 0.594016 0.250000 0.594867
O O14 0.624120 0.004383 0.681410
O O15 0.739657 0.750000 0.915795
O O16 0.691663 0.981145 0.832569
O O17 0.789919 0.250000 0.234346
O O18 0.392578 0.250000 0.228445
#
# Coordination Sequence:
#
# PCOD9158409 Si02
#       7
#     4   4   4   4   4   4   4
#     4  10  20  33  52  78 104 131 164 205 252 301
#     4  10  19  31  49  73 103 137 168 203 252 299
#     4  10  20  34  51  72  99 134 173 212 251 290
#     4  10  20  33  52  77 104 133 164 202 250 304
#     4  10  21  34  50  72 101 137 175 210 247 294
#     4  10  19  32  51  74 103 134 166 208 254 296
#     4  10  20  34  50  72 104 138 168 205 251 300
#
# _framework density 16.625039000000001
#
# number of rings (size 3 to 8) (size 9 to 14) (size 15 to 20)
#    0.000    2.000    2.857    1.286    0.000    3.429 
#    0.000    0.000    0.000    0.857    0.000    0.000 
#    0.000    0.000    0.000    0.000    0.000    0.000 
#
# Total GULP energy -156292.306975 kJ/mol
# GULP energy per Si atom -5581.868106 kJ/mol
# Density = 1.658720 g / cm^3
# Si number density = 16.625039 Si / 1000 Ang^3
#
#
#
# Elastic Constant Matrix: (Units=GPa)
#
#
# Indices 1 2 3 4 5 6 
#
# 1 99.8186 25.6831 79.0200 0.0000 13.8432 0.0000
# 2 25.6831 14.7628 39.8214 0.0000 1.6589 0.0000
# 3 79.0200 39.8214 179.9765 0.0000 5.9999 0.0000
# 4 0.0000 0.0000 0.0000 35.0121 0.0000 0.9250
# 5 13.8432 1.6589 5.9999 0.0000 25.1228 0.0000
# 6 0.0000 0.0000 0.0000 0.9250 0.0000 11.3439
#
#
#
# Elastic Compliance Matrix: (Units=1/GPa)
#
#
# Indices 1 2 3 4 5 6 
#
# 1 0.020331 -0.027518 -0.002545 0.000000 -0.008778 0.000000
# 2 -0.027518 0.205384 -0.033683 0.000000 0.009646 0.000000
# 3 -0.002545 -0.033683 0.014118 0.000000 0.000255 0.000000
# 4 0.000000 0.000000 0.000000 0.028623 0.000000 -0.002334
# 5 -0.008778 0.009646 0.000255 0.000000 0.043943 0.000000
# 6 0.000000 0.000000 0.000000 -0.002334 0.000000 0.088343
#
#
# Mechanical properties :
#
#
# Convention : Reuss Voigt Hill
#
# Bulk Modulus (GPa) = 8.90147 64.84520 36.87333
# Shear Modulus (GPa) = 8.83890 24.29800 16.56845
#
# Velocity S-wave (km/s) = 2.30828 3.82714 3.16032
# Velocity P-wave (km/s) = 3.53130 7.65628 5.96191
#
# Compressibility (1/GPa) = 0.11234096
#
# Stress axis : x y z
#
# Youngs Moduli (GPa) = 49.18693 4.86892 70.83277
#
# Poissons Ratio (x) = 0.13398 0.18027
# Poissons Ratio (y) = 1.35354 2.38583
# Poissons Ratio (z) = 0.12518 0.16400
#
# Static dielectric constant tensor:
#      x y z
#    x 1.560880 0.000000 -0.001910 
#    y 0.000000 1.559890 0.000000 
#    z -0.001910 0.000000 1.527650 
# 
# From -- ./inp_files/37223.got.cif
#   From: 2010.05.17/outbox.cif.g08.bks.cpg/sg11_19_cif.got.tgz:37223.got - 2010.06.03 12:22:45.
