data_PCOD9158210
_publ_section_title
;
Structure prediction by ZEFSAII (Michael W. Deem and Ramdas Pophale) SiO2 
 PCOD9158210
Probable space group: P 21/M
;
_chemical_formula_sum "Si O2"
_cell_formula_units_Z 24
_cell_length_a 9.557363
_cell_length_b 15.408570
_cell_length_c 11.395482
_cell_angle_alpha 90.000000
_cell_angle_beta 122.293910
_cell_angle_gamma 90.000000
_cell_volume 1418.579091
_symmetry_space_group_name_H-M "P 21/M"
_symmetry_group_IT_number 11
_symmetry_cell_setting 'monoclinic'
loop_
_space_group_symop_operation_xyz
x,y,z
-x,1/2+y,-z
-x,-y,-z
x,1/2-y,z
loop_
_atom_site_type_symbol
_atom_site_label
_atom_site_fract_x
_atom_site_fract_y
_atom_site_fract_z
Si Si1 0.355188 0.750000 0.671489
Si Si2 0.193634 0.402923 0.581209
Si Si3 0.851345 0.411319 0.317275
Si Si4 0.732705 0.250000 0.627727
Si Si5 0.442265 0.849570 0.262997
Si Si6 0.420600 0.250000 0.021611
Si Si7 0.608160 0.418256 0.007042
Si Si8 0.885487 0.750000 0.271012
O O1 0.249437 0.833599 0.665728
O O2 0.368358 0.750000 0.538143
O O3 0.528080 0.750000 0.818978
O O4 0.187883 0.498785 0.633914
O O5 0.377427 0.382847 0.618713
O O6 0.154407 0.333712 0.666622
O O7 0.046350 0.395047 0.421014
O O8 0.781110 0.418516 0.154249
O O9 0.680697 0.332869 0.683803
O O10 0.923891 0.250000 0.680038
O O11 0.465946 0.750000 0.228320
O O12 0.379388 0.907987 0.127400
O O13 0.507585 0.334480 0.006325
O O14 0.232388 0.250000 0.895267
O O15 0.500000 0.500000 0.000000
#
# Coordination Sequence:
#
# PCOD9158210 Si02
#       8
#     2   4   4   2   4   2   4   2
#     4  10  20  36  49  83 112 148 172 229 275 323
#     4  11  18  34  56  87 106 138 189 228 267 315
#     4  10  21  29  58  88 109 131 189 236 271 302
#     4  10  22  36  56  74 115 153 178 210 278 340
#     4  10  20  36  55  80 106 149 181 216 273 327
#     4  10  19  30  55  81 104 133 195 218 269 315
#     4  11  17  33  56  84 108 137 174 238 268 309
#     4  12  17  36  58  80 109 150 177 231 270 324
#
# _framework density 16.918337000000001
#
# number of rings (size 3 to 8) (size 9 to 14) (size 15 to 20)
#    0.500    1.000    6.667    0.000    0.000    0.000 
#    0.000    2.500    0.000    4.000    0.000    0.000 
#    0.000    0.000    0.000    0.000    0.000    0.000 
#
# Total GULP energy -133719.996505 kJ/mol
# GULP energy per Si atom -5571.666521 kJ/mol
# Density = 1.687983 g / cm^3
# Si number density = 16.918337 Si / 1000 Ang^3
#
#
#
# Elastic Constant Matrix: (Units=GPa)
#
#
# Indices 1 2 3 4 5 6 
#
# 1 56.6525 12.3904 30.8725 0.0000 6.3849 0.0000
# 2 12.3904 100.4835 13.8003 0.0000 -1.0980 0.0000
# 3 30.8725 13.8003 143.4560 0.0000 15.6875 0.0000
# 4 0.0000 0.0000 0.0000 20.8835 0.0000 3.2944
# 5 6.3849 -1.0980 15.6875 0.0000 27.2404 0.0000
# 6 0.0000 0.0000 0.0000 3.2944 0.0000 -12.3612
#
#
#
# Elastic Compliance Matrix: (Units=1/GPa)
#
#
# Indices 1 2 3 4 5 6 
#
# 1 0.020535 -0.002020 -0.003938 0.000000 -0.002627 0.000000
# 2 -0.002020 0.010311 -0.000698 0.000000 0.001291 0.000000
# 3 -0.003938 -0.000698 0.008311 0.000000 -0.003891 0.000000
# 4 0.000000 0.000000 0.000000 0.045953 0.000000 0.012247
# 5 -0.002627 0.001291 -0.003891 0.000000 0.039619 0.000000
# 6 0.000000 0.000000 0.000000 0.012247 0.000000 -0.077634
#
#
# Mechanical properties :
#
#
# Convention : Reuss Voigt Hill
#
# Bulk Modulus (GPa) = 38.69245 46.07983 42.38614
# Shear Modulus (GPa) = 72.44075 23.38778 47.91426
#
# Velocity S-wave (km/s) = 6.55064 3.72209 5.32751
# Velocity P-wave (km/s) = 8.95177 6.76518 7.93416
#
# Compressibility (1/GPa) = 0.02584484
#
# Stress axis : x y z
#
# Youngs Moduli (GPa) = 48.69692 96.98383 120.32375
#
# Poissons Ratio (x) = 0.19591 0.47380
# Poissons Ratio (y) = 0.09837 0.08403
# Poissons Ratio (z) = 0.19175 0.06773
#
# Static dielectric constant tensor:
#      x y z
#    x 1.535340 0.000000 0.010800 
#    y 0.000000 1.575560 0.000000 
#    z 0.010800 0.000000 1.613430 
# 
# From -- ./inp_files/35332.got.cif
#   From: 2010.05.17/outbox.cif.g08.bks.cpg/sg11_18_cif.got.tgz:35332.got - 2010.06.03 12:22:45.
