data_PCOD9158905
_publ_section_title
;
Structure prediction by ZEFSAII (Michael W. Deem and Ramdas Pophale) SiO2 
 PCOD9158905
Probable space group: P 21/M
;
_chemical_formula_sum "Si O2"
_cell_formula_units_Z 32
_cell_length_a 8.381620
_cell_length_b 7.371883
_cell_length_c 21.505481
_cell_angle_alpha 90.000000
_cell_angle_beta 113.896643
_cell_angle_gamma 90.000000
_cell_volume 1214.880845
_symmetry_space_group_name_H-M "P 21/M"
_symmetry_group_IT_number 11
_symmetry_cell_setting 'monoclinic'
loop_
_space_group_symop_operation_xyz
x,y,z
-x,1/2+y,-z
-x,-y,-z
x,1/2-y,z
loop_
_atom_site_type_symbol
_atom_site_label
_atom_site_fract_x
_atom_site_fract_y
_atom_site_fract_z
Si Si1 0.023173 0.029478 0.275452
Si Si2 0.549925 0.042721 0.105904
Si Si3 0.654680 0.528577 0.598053
Si Si4 0.217939 0.965528 0.650670
Si Si5 0.765282 0.030257 0.020746
Si Si6 0.533443 0.527519 0.775282
Si Si7 0.929189 0.970874 0.852485
Si Si8 0.749564 0.951644 0.481135
O O1 0.014602 0.250000 0.274370
O O2 0.906206 0.964286 0.314266
O O3 0.222312 0.982814 0.324962
O O4 0.979994 0.974575 0.198492
O O5 0.610945 0.250000 0.119687
O O6 0.653016 0.966228 0.063494
O O7 0.564305 0.968410 0.177022
O O8 0.344600 0.040263 0.054712
O O9 0.639678 0.750000 0.593831
O O10 0.458754 0.457507 0.566108
O O11 0.751096 0.462570 0.549912
O O12 0.220414 0.750000 0.658324
O O13 0.413702 0.028679 0.698826
O O14 0.166990 0.993670 0.571129
O O15 0.759207 0.250000 0.015721
O O16 0.960293 0.971840 0.069810
O O17 0.541511 0.750000 0.775948
O O18 0.731454 0.466288 0.813804
O O19 0.928436 0.750000 0.854098
O O20 0.813316 0.750000 0.502172
#
# Coordination Sequence:
#
# PCOD9158905 Si02
#       8
#     4   4   4   4   4   4   4   4
#     4   9  17  30  51  76  97 123 164 208 243 282
#     4   9  17  30  47  67  92 121 154 192 234 282
#     4   9  18  34  54  74  98 130 167 203 239 285
#     4  10  19  32  52  75  98 127 164 203 243 289
#     4   9  17  29  46  68  93 121 152 189 236 286
#     4   9  17  29  48  72  94 121 160 202 238 277
#     4   9  16  27  46  71  95 119 155 202 241 276
#     4  10  20  33  50  74 103 132 162 199 244 291
#
# _framework density 26.340032999999998
#
# number of rings (size 3 to 8) (size 9 to 14) (size 15 to 20)
#    0.000    2.750    0.000    1.875    0.000    6.500 
#    0.000    1.250    0.000    5.250    0.000    0.000 
#    0.000    0.000    0.000    0.000    0.000    0.000 
#
# Total GULP energy -178806.773430 kJ/mol
# GULP energy per Si atom -5587.711670 kJ/mol
# Density = 2.628008 g / cm^3
# Si number density = 26.340033 Si / 1000 Ang^3
#
#
#
# Elastic Constant Matrix: (Units=GPa)
#
#
# Indices 1 2 3 4 5 6 
#
# 1 63.0276 -3.9880 -3.0706 0.0000 0.3191 0.0000
# 2 -3.9880 90.8249 -7.0689 0.0000 -0.4635 0.0000
# 3 -3.0706 -7.0689 131.8362 0.0000 1.3324 0.0000
# 4 0.0000 0.0000 0.0000 3.7145 0.0000 -1.6636
# 5 0.3191 -0.4635 1.3324 0.0000 44.6400 0.0000
# 6 0.0000 0.0000 0.0000 -1.6636 0.0000 -0.7346
#
#
#
# Elastic Compliance Matrix: (Units=1/GPa)
#
#
# Indices 1 2 3 4 5 6 
#
# 1 0.015933 0.000731 0.000411 0.000000 -0.000119 0.000000
# 2 0.000731 0.011090 0.000611 0.000000 0.000092 0.000000
# 3 0.000411 0.000611 0.007630 0.000000 -0.000224 0.000000
# 4 0.000000 0.000000 0.000000 0.133660 0.000000 -0.302678
# 5 -0.000119 0.000092 -0.000224 0.000000 0.022410 0.000000
# 6 0.000000 0.000000 0.000000 -0.302678 0.000000 -0.675835
#
#
# Mechanical properties :
#
#
# Convention : Reuss Voigt Hill
#
# Bulk Modulus (GPa) = 26.20577 28.60374 27.40476
# Shear Modulus (GPa) = -10.50645 29.51173 9.50264
#
# Velocity S-wave (km/s) = -1.99936 3.35089 1.90145
# Velocity P-wave (km/s) = 2.15423 5.08471 3.90480
#
# Compressibility (1/GPa) = 0.03815954
#
# Stress axis : x y z
#
# Youngs Moduli (GPa) = 62.76293 90.16894 131.06557
#
# Poissons Ratio (x) = -0.06591 -0.05393
# Poissons Ratio (y) = -0.04588 -0.08005
# Poissons Ratio (z) = -0.02583 -0.05507
#
# Static dielectric constant tensor:
#      x y z
#    x 2.134660 0.000000 -0.002830 
#    y 0.000000 2.027640 0.000000 
#    z -0.002830 0.000000 2.000450 
# 
# From -- ./inp_files/63574.got.cif
#   From: 2010.05.17/outbox.cif.g08.bks.cpg/sg11_32_cif.got.tgz:63574.got - 2010.06.03 12:22:45.
