data_PCOD9158921
_publ_section_title
;
Structure prediction by ZEFSAII (Michael W. Deem and Ramdas Pophale) SiO2 
 PCOD9158921
Probable space group: P 21/M
;
_chemical_formula_sum "Si O2"
_cell_formula_units_Z 28
_cell_length_a 15.483424
_cell_length_b 8.713193
_cell_length_c 17.315426
_cell_angle_alpha 90.000000
_cell_angle_beta 134.135433
_cell_angle_gamma 90.000000
_cell_volume 1676.555449
_symmetry_space_group_name_H-M "P 21/M"
_symmetry_group_IT_number 11
_symmetry_cell_setting 'monoclinic'
loop_
_space_group_symop_operation_xyz
x,y,z
-x,1/2+y,-z
-x,-y,-z
x,1/2-y,z
loop_
_atom_site_type_symbol
_atom_site_label
_atom_site_fract_x
_atom_site_fract_y
_atom_site_fract_z
Si Si1 0.609450 0.435381 0.517527
Si Si2 0.150276 0.564687 0.243846
Si Si3 0.889868 0.433664 0.105836
Si Si4 0.486180 0.935354 0.706356
Si Si5 0.311588 0.066936 0.912830
Si Si6 0.437743 0.934743 0.847547
Si Si7 0.244445 0.935299 0.134712
O O1 0.500000 0.500000 0.500000
O O2 0.604671 0.250000 0.518346
O O3 0.736446 0.483494 0.633095
O O4 0.588399 0.482109 0.415692
O O5 0.143018 0.750000 0.241269
O O6 0.179518 0.518020 0.173746
O O7 0.024542 0.496540 0.192711
O O8 0.891410 0.250000 0.107604
O O9 0.805243 0.493672 0.121581
O O10 0.828826 0.484699 0.986721
O O11 0.493329 0.750000 0.711677
O O12 0.430885 0.983026 0.754159
O O13 0.621141 0.999070 0.783661
O O14 0.301217 0.250000 0.907379
O O15 0.342862 0.009264 0.846627
O O16 0.428891 0.023975 0.037605
O O17 0.426936 0.750000 0.845660
O O18 0.251956 0.750000 0.139094
#
# Coordination Sequence:
#
# PCOD9158921 Si02
#       7
#     4   4   4   4   4   4   4
#     4  10  20  34  54  77 103 137 175 215 254 298
#     4  10  21  36  51  72 105 142 177 212 253 300
#     4  11  22  34  51  76 105 139 176 213 256 307
#     4  10  19  32  53  79 106 136 170 209 257 305
#     4  10  19  32  52  76 103 136 169 207 259 312
#     4   9  18  32  50  76 106 134 166 208 257 308
#     4  10  20  33  50  75 106 139 172 210 255 304
#
# _framework density 16.700907999999998
#
# number of rings (size 3 to 8) (size 9 to 14) (size 15 to 20)
#    0.000    2.000    2.857    1.286    0.000    2.857 
#    0.000    0.000    0.000    0.857    0.000    0.000 
#    0.000    0.000    0.000    0.000    0.000    0.000 
#
# Total GULP energy -156279.418461 kJ/mol
# GULP energy per Si atom -5581.407802 kJ/mol
# Density = 1.666290 g / cm^3
# Si number density = 16.700908 Si / 1000 Ang^3
#
#
#
# Elastic Constant Matrix: (Units=GPa)
#
#
# Indices 1 2 3 4 5 6 
#
# 1 174.5987 37.1583 90.8506 0.0000 -1.7539 0.0000
# 2 37.1583 13.5320 25.9298 0.0000 1.8569 0.0000
# 3 90.8506 25.9298 105.0059 0.0000 5.7492 0.0000
# 4 0.0000 0.0000 0.0000 15.3402 0.0000 8.1921
# 5 -1.7539 1.8569 5.7492 0.0000 29.1652 0.0000
# 6 0.0000 0.0000 0.0000 8.1921 0.0000 27.4779
#
#
#
# Elastic Compliance Matrix: (Units=1/GPa)
#
#
# Indices 1 2 3 4 5 6 
#
# 1 0.015732 -0.032748 -0.005753 0.000000 0.004165 0.000000
# 2 -0.032748 0.208569 -0.022579 0.000000 -0.010798 0.000000
# 3 -0.005753 -0.022579 0.020235 0.000000 -0.002897 0.000000
# 4 0.000000 0.000000 0.000000 0.077532 0.000000 -0.023115
# 5 0.004165 -0.010798 -0.002897 0.000000 0.035797 0.000000
# 6 0.000000 0.000000 0.000000 -0.023115 0.000000 0.043284
#
#
# Mechanical properties :
#
#
# Convention : Reuss Voigt Hill
#
# Bulk Modulus (GPa) = 8.17147 66.77933 37.47540
# Shear Modulus (GPa) = 8.86369 23.67652 16.27010
#
# Velocity S-wave (km/s) = 2.30626 3.76929 3.12461
# Velocity P-wave (km/s) = 3.46341 7.68217 5.95864
#
# Compressibility (1/GPa) = 0.12237700
#
# Stress axis : x y z
#
# Youngs Moduli (GPa) = 63.56464 4.79458 49.41998
#
# Poissons Ratio (x) = 0.15701 0.28430
# Poissons Ratio (y) = 2.08159 1.11585
# Poissons Ratio (z) = 0.36567 0.10826
#
# Static dielectric constant tensor:
#      x y z
#    x 1.541710 0.000000 -0.026180 
#    y 0.000000 1.560700 0.000000 
#    z -0.026180 0.000000 1.555320 
# 
# From -- ./inp_files/37034.got.cif
#   From: 2010.05.17/outbox.cif.g08.bks.cpg/sg11_19_cif.got.tgz:37034.got - 2010.06.03 12:22:45.
