data_PCOD9158338
_publ_section_title
;
Structure prediction by ZEFSAII (Michael W. Deem and Ramdas Pophale) SiO2 
 PCOD9158338
Probable space group: P 21/M
;
_chemical_formula_sum "Si O2"
_cell_formula_units_Z 32
_cell_length_a 17.592753
_cell_length_b 8.546533
_cell_length_c 23.699793
_cell_angle_alpha 90.000000
_cell_angle_beta 148.888571
_cell_angle_gamma 90.000000
_cell_volume 1841.239391
_symmetry_space_group_name_H-M "P 21/M"
_symmetry_group_IT_number 11
_symmetry_cell_setting 'monoclinic'
loop_
_space_group_symop_operation_xyz
x,y,z
-x,1/2+y,-z
-x,-y,-z
x,1/2-y,z
loop_
_atom_site_type_symbol
_atom_site_label
_atom_site_fract_x
_atom_site_fract_y
_atom_site_fract_z
Si Si1 0.663090 0.933787 0.605843
Si Si2 0.140856 0.561601 0.623617
Si Si3 0.897934 0.562383 0.058731
Si Si4 0.643757 0.941370 0.820429
Si Si5 0.028723 0.437469 0.379090
Si Si6 0.312025 0.939675 0.627042
Si Si7 0.172530 0.064909 0.171288
Si Si8 0.945192 0.436625 0.728316
O O1 0.662556 0.750000 0.592423
O O2 0.726918 0.954624 0.709347
O O3 0.500000 0.000000 0.500000
O O4 0.777853 0.017733 0.637366
O O5 0.140525 0.750000 0.623685
O O6 0.275703 0.513906 0.669045
O O7 0.000000 0.500000 0.500000
O O8 0.106102 0.510956 0.665468
O O9 0.894657 0.750000 0.060331
O O10 0.019870 0.517903 0.089435
O O11 0.955630 0.503013 0.156006
O O12 0.739281 0.509796 0.935554
O O13 0.640653 0.750000 0.817396
O O14 0.474876 0.993415 0.713565
O O15 0.736198 0.992281 0.824459
O O16 0.034327 0.250000 0.382582
O O17 0.180945 0.498193 0.503985
O O18 0.013396 0.496537 0.305938
O O19 0.308076 0.750000 0.621233
O O20 0.143256 0.250000 0.145336
O O21 0.956711 0.250000 0.733827
#
# Coordination Sequence:
#
# PCOD9158338 Si02
#       8
#     4   4   4   4   4   4   4   4
#     4  10  20  32  46  67  98 131 159 194 239 283
#     4   8  15  28  46  69  96 125 154 186 232 287
#     4   9  18  33  50  68  91 122 162 203 236 272
#     4   9  17  30  50  73  95 120 155 199 238 278
#     4  10  19  31  48  72 100 125 156 198 237 285
#     4   9  17  30  50  74  99 127 154 187 239 295
#     4   9  18  31  47  68  93 124 159 194 234 280
#     4  10  20  33  49  68  91 125 167 201 235 281
#
# _framework density 17.379598000000001
#
# number of rings (size 3 to 8) (size 9 to 14) (size 15 to 20)
#    0.000    2.750    0.000    1.500    1.750    1.500 
#    0.000    1.250    0.000    0.750    0.000    0.000 
#    0.000    0.000    0.000    0.000    0.000    1.000 
#
# Total GULP energy -178259.788510 kJ/mol
# GULP energy per Si atom -5570.618391 kJ/mol
# Density = 1.734004 g / cm^3
# Si number density = 17.379598 Si / 1000 Ang^3
#
#
#
# Elastic Constant Matrix: (Units=GPa)
#
#
# Indices 1 2 3 4 5 6 
#
# 1 127.0411 14.8314 31.1374 0.0000 -18.7429 0.0000
# 2 14.8314 12.5299 13.5397 0.0000 -3.8763 0.0000
# 3 31.1374 13.5397 41.3520 0.0000 0.6986 0.0000
# 4 0.0000 0.0000 0.0000 11.9805 0.0000 2.0928
# 5 -18.7429 -3.8763 0.6986 0.0000 15.2523 0.0000
# 6 0.0000 0.0000 0.0000 2.0928 0.0000 19.6902
#
#
#
# Elastic Compliance Matrix: (Units=1/GPa)
#
#
# Indices 1 2 3 4 5 6 
#
# 1 0.012628 0.001001 -0.010111 0.000000 0.016235 0.000000
# 2 0.001001 0.143120 -0.048287 0.000000 0.039815 0.000000
# 3 -0.010111 -0.048287 0.048061 0.000000 -0.026898 0.000000
# 4 0.000000 0.000000 0.000000 0.085048 0.000000 -0.009040
# 5 0.016235 0.039815 -0.026898 0.000000 0.096866 0.000000
# 6 0.000000 0.000000 0.000000 -0.009040 0.000000 0.051747
#
#
# Mechanical properties :
#
#
# Convention : Reuss Voigt Hill
#
# Bulk Modulus (GPa) = 11.23414 33.32666 22.28040
# Shear Modulus (GPa) = 8.59202 17.47892 13.03547
#
# Velocity S-wave (km/s) = 2.22586 3.17474 2.74167
# Velocity P-wave (km/s) = 3.61718 5.71454 4.78226
#
# Compressibility (1/GPa) = 0.08901438
#
# Stress axis : x y z
#
# Youngs Moduli (GPa) = 79.18904 6.98714 20.80710
#
# Poissons Ratio (x) = -0.00699 0.21037
# Poissons Ratio (y) = -0.07923 1.00471
# Poissons Ratio (z) = 0.80065 0.33739
#
# Static dielectric constant tensor:
#      x y z
#    x 1.626230 0.000000 -0.011560 
#    y 0.000000 1.592320 0.000000 
#    z -0.011560 0.000000 1.579400 
# 
# From -- ./inp_files/64196.got.cif
#   From: 2010.05.17/outbox.cif.g08.bks.cpg/sg11_33_cif.got.tgz:64196.got - 2010.06.03 12:22:45.
