data_PCOD9158303
_publ_section_title
;
Structure prediction by ZEFSAII (Michael W. Deem and Ramdas Pophale) SiO2 
 PCOD9158303
Probable space group: P 21/M
;
_chemical_formula_sum "Si O2"
_cell_formula_units_Z 32
_cell_length_a 10.800510
_cell_length_b 9.553050
_cell_length_c 16.524953
_cell_angle_alpha 90.000000
_cell_angle_beta 89.834555
_cell_angle_gamma 90.000000
_cell_volume 1705.001387
_symmetry_space_group_name_H-M "P 21/M"
_symmetry_group_IT_number 11
_symmetry_cell_setting 'monoclinic'
loop_
_space_group_symop_operation_xyz
x,y,z
-x,1/2+y,-z
-x,-y,-z
x,1/2-y,z
loop_
_atom_site_type_symbol
_atom_site_label
_atom_site_fract_x
_atom_site_fract_y
_atom_site_fract_z
Si Si1 0.480216 0.081449 0.583078
Si Si2 0.588644 0.593051 0.862657
Si Si3 0.292285 0.593392 0.017019
Si Si4 0.295522 0.906772 0.837699
Si Si5 0.026473 0.910470 0.080924
Si Si6 0.694474 0.417807 0.714246
Si Si7 0.023681 0.580357 0.265852
Si Si8 0.236889 0.082191 0.683617
O O1 0.477135 0.250000 0.570924
O O2 0.596453 0.051520 0.642645
O O3 0.347898 0.038131 0.623394
O O4 0.500000 0.000000 0.500000
O O5 0.639455 0.750000 0.858812
O O6 0.618973 0.522516 0.947775
O O7 0.442611 0.597914 0.849852
O O8 0.644967 0.497982 0.792436
O O9 0.348074 0.750000 0.013525
O O10 0.175511 0.599325 0.076544
O O11 0.245152 0.560535 0.926944
O O12 0.253247 0.750000 0.813634
O O13 0.270050 0.020499 0.770776
O O14 0.977384 0.750000 0.073030
O O15 0.999990 0.966299 0.172037
O O16 0.000000 0.000000 0.000000
O O17 0.690517 0.250000 0.727071
O O18 0.839202 0.459108 0.703451
O O19 0.023535 0.750000 0.261149
O O20 0.908114 0.539401 0.323613
O O21 0.240731 0.250000 0.684464
#
# Coordination Sequence:
#
# PCOD9158303 Si02
#       8
#     4   4   4   4   4   4   4   4
#     4  10  22  39  64  91 114 144 178 221 279 344
#     4  11  21  32  50  79 110 144 189 241 286 323
#     4  10  20  34  49  69 105 152 197 236 284 336
#     4  10  21  34  50  77 113 150 187 238 290 326
#     4  10  19  31  48  70 101 147 193 237 280 319
#     4  10  19  38  62  83 110 149 188 224 281 347
#     4   9  18  34  57  81 109 146 190 235 275 322
#     4  10  20  36  59  86 111 143 188 230 275 333
#
# _framework density 18.768312000000002
#
# number of rings (size 3 to 8) (size 9 to 14) (size 15 to 20)
#    0.000    2.000    2.500    1.500    0.000    2.500 
#    0.000    1.250    0.000    0.000    0.000    0.000 
#    0.000    0.000    0.000    0.000    0.000    0.000 
#
# Total GULP energy -178296.992741 kJ/mol
# GULP energy per Si atom -5571.781023 kJ/mol
# Density = 1.872559 g / cm^3
# Si number density = 18.768312 Si / 1000 Ang^3
#
#
#
# Elastic Constant Matrix: (Units=GPa)
#
#
# Indices 1 2 3 4 5 6 
#
# 1 122.1447 22.3846 55.0966 0.0000 -20.6536 0.0000
# 2 22.3846 26.4908 34.3650 0.0000 0.6699 0.0000
# 3 55.0966 34.3650 96.7392 0.0000 -17.5850 0.0000
# 4 0.0000 0.0000 0.0000 31.0789 0.0000 0.6776
# 5 -20.6536 0.6699 -17.5850 0.0000 26.1897 0.0000
# 6 0.0000 0.0000 0.0000 0.6776 0.0000 7.8603
#
#
#
# Elastic Compliance Matrix: (Units=1/GPa)
#
#
# Indices 1 2 3 4 5 6 
#
# 1 0.012066 -0.005945 -0.003420 0.000000 0.007371 0.000000
# 2 -0.005945 0.084879 -0.031907 0.000000 -0.028284 0.000000
# 3 -0.003420 -0.031907 0.026514 0.000000 0.015922 0.000000
# 4 0.000000 0.000000 0.000000 0.032237 0.000000 -0.002779
# 5 0.007371 -0.028284 0.015922 0.000000 0.055410 0.000000
# 6 0.000000 0.000000 0.000000 -0.002779 0.000000 0.127462
#
#
# Mechanical properties :
#
#
# Convention : Reuss Voigt Hill
#
# Bulk Modulus (GPa) = 24.44179 52.11858 38.28019
# Shear Modulus (GPa) = 11.50087 21.92766 16.71427
#
# Velocity S-wave (km/s) = 2.47813 3.42180 2.98746
# Velocity P-wave (km/s) = 4.60861 6.59101 5.68686
#
# Compressibility (1/GPa) = 0.04091353
#
# Stress axis : x y z
#
# Youngs Moduli (GPa) = 82.88043 11.78144 37.71639
#
# Poissons Ratio (x) = 0.07004 0.12899
# Poissons Ratio (y) = 0.49273 1.20343
# Poissons Ratio (z) = 0.28346 0.37591
#
# Static dielectric constant tensor:
#      x y z
#    x 1.726630 0.000000 -0.006490 
#    y 0.000000 1.635920 0.000000 
#    z -0.006490 0.000000 1.627390 
# 
# From -- ./inp_files/49373.got.cif
#   From: 2010.05.17/outbox.cif.g08.bks.cpg/sg11_25_cif.got.tgz:49373.got - 2010.06.03 12:22:45.
