data_PCOD9158577
_publ_section_title
;
Structure prediction by ZEFSAII (Michael W. Deem and Ramdas Pophale) SiO2 
 PCOD9158577
Probable space group: P 21/M
;
_chemical_formula_sum "Si O2"
_cell_formula_units_Z 24
_cell_length_a 27.522404
_cell_length_b 8.291343
_cell_length_c 11.871145
_cell_angle_alpha 90.000000
_cell_angle_beta 28.826276
_cell_angle_gamma 90.000000
_cell_volume 1306.143766
_symmetry_space_group_name_H-M "P 21/M"
_symmetry_group_IT_number 11
_symmetry_cell_setting 'monoclinic'
loop_
_space_group_symop_operation_xyz
x,y,z
-x,1/2+y,-z
-x,-y,-z
x,1/2-y,z
loop_
_atom_site_type_symbol
_atom_site_label
_atom_site_fract_x
_atom_site_fract_y
_atom_site_fract_z
Si Si1 0.390051 0.445627 0.591873
Si Si2 0.889071 0.063833 0.745162
Si Si3 0.993401 0.058589 0.885894
Si Si4 0.201168 0.065506 0.851462
Si Si5 0.378303 0.556994 0.873935
Si Si6 0.179220 0.441874 0.349270
O O1 0.382781 0.250000 0.611028
O O2 0.313118 0.503136 0.650116
O O3 0.363750 0.508537 0.771160
O O4 0.506093 0.489805 0.334502
O O5 0.886521 0.250000 0.788532
O O6 0.839092 0.043138 0.726341
O O7 0.000000 0.000000 0.500000
O O8 0.842464 0.950076 0.933892
O O9 0.997299 0.250000 0.877108
O O10 0.093099 0.005113 0.612772
O O11 0.886691 0.009658 0.046619
O O12 0.000000 0.000000 0.000000
O O13 0.211531 0.250000 0.793728
O O14 0.369677 0.750000 0.899581
O O15 0.298131 0.475409 0.121499
O O16 0.165044 0.250000 0.358148
#
# Coordination Sequence:
#
# PCOD9158577 Si02
#       6
#     4   4   4   4   4   4
#     4   9  19  33  50  78 116 152 184 222 269 323
#     4  12  22  32  50  80 113 147 183 221 273 333
#     4  11  25  42  60  80 107 141 186 235 284 335
#     4  11  21  35  57  81 113 149 183 225 275 330
#     4  10  19  31  51  80 114 151 187 223 266 324
#     4  11  22  36  54  79 113 148 181 226 277 331
#
# _framework density 18.374700000000001
#
# number of rings (size 3 to 8) (size 9 to 14) (size 15 to 20)
#    0.000    1.333    3.333    3.500    0.000    3.333 
#    0.000    0.000    0.000    1.000    0.000    0.000 
#    0.000    0.000    0.000    0.000    0.000    0.000 
#
# Total GULP energy -133744.658072 kJ/mol
# GULP energy per Si atom -5572.694086 kJ/mol
# Density = 1.833288 g / cm^3
# Si number density = 18.374700 Si / 1000 Ang^3
#
#
#
# Elastic Constant Matrix: (Units=GPa)
#
#
# Indices 1 2 3 4 5 6 
#
# 1 109.5037 13.3641 69.7863 0.0000 -14.4557 0.0000
# 2 13.3641 37.2356 14.9864 0.0000 -5.4194 0.0000
# 3 69.7863 14.9864 105.6905 0.0000 -32.9693 0.0000
# 4 0.0000 0.0000 0.0000 24.7848 0.0000 -0.5631
# 5 -14.4557 -5.4194 -32.9693 0.0000 26.2980 0.0000
# 6 0.0000 0.0000 0.0000 -0.5631 0.0000 23.9920
#
#
#
# Elastic Compliance Matrix: (Units=1/GPa)
#
#
# Indices 1 2 3 4 5 6 
#
# 1 0.016759 -0.001820 -0.013221 0.000000 -0.007738 0.000000
# 2 -0.001820 0.028707 -0.002193 0.000000 0.002166 0.000000
# 3 -0.013221 -0.002193 0.026431 0.000000 0.025416 0.000000
# 4 0.000000 0.000000 0.000000 0.040369 0.000000 0.000947
# 5 -0.007738 0.002166 0.025416 0.000000 0.066082 0.000000
# 6 0.000000 0.000000 0.000000 0.000947 0.000000 0.041703
#
#
# Mechanical properties :
#
#
# Convention : Reuss Voigt Hill
#
# Bulk Modulus (GPa) = 26.71820 49.85593 38.28707
# Shear Modulus (GPa) = 18.72689 25.30116 22.01403
#
# Velocity S-wave (km/s) = 3.19590 3.71476 3.46506
# Velocity P-wave (km/s) = 5.30949 6.75212 6.07379
#
# Compressibility (1/GPa) = 0.03742767
#
# Stress axis : x y z
#
# Youngs Moduli (GPa) = 59.67085 34.83451 37.83438
#
# Poissons Ratio (x) = 0.06339 0.50022
# Poissons Ratio (y) = 0.10859 0.08298
# Poissons Ratio (z) = 0.78893 0.07640
#
# Static dielectric constant tensor:
#      x y z
#    x 1.640770 0.000000 -0.063710 
#    y 0.000000 1.646440 0.000000 
#    z -0.063710 0.000000 1.702830 
# 
# From -- ./inp_files/44433.got.cif
#   From: 2010.05.17/outbox.cif.g08.bks.cpg/sg11_23_cif.got.tgz:44433.got - 2010.06.03 12:22:45.
