data_PCOD9158814
_publ_section_title
;
Structure prediction by ZEFSAII (Michael W. Deem and Ramdas Pophale) SiO2 
 PCOD9158814
Probable space group: P 21/M
;
_chemical_formula_sum "Si O2"
_cell_formula_units_Z 32
_cell_length_a 15.521680
_cell_length_b 9.201491
_cell_length_c 22.290433
_cell_angle_alpha 90.000000
_cell_angle_beta 150.752147
_cell_angle_gamma 90.000000
_cell_volume 1555.459539
_symmetry_space_group_name_H-M "P 21/M"
_symmetry_group_IT_number 11
_symmetry_cell_setting 'monoclinic'
loop_
_space_group_symop_operation_xyz
x,y,z
-x,1/2+y,-z
-x,-y,-z
x,1/2-y,z
loop_
_atom_site_type_symbol
_atom_site_label
_atom_site_fract_x
_atom_site_fract_y
_atom_site_fract_z
Si Si1 0.662510 0.409801 0.624411
Si Si2 0.811289 0.075372 0.386803
Si Si3 0.698072 0.076197 0.876470
Si Si4 0.475844 0.422790 0.114585
Si Si5 0.631256 0.922677 0.391329
Si Si6 0.872960 0.412584 0.629472
Si Si7 0.046818 0.083903 0.141085
Si Si8 0.821567 0.081993 0.130024
O O1 0.500000 0.500000 0.500000
O O2 0.602671 0.250000 0.607530
O O3 0.793788 0.397067 0.647759
O O4 0.782105 0.486743 0.746614
O O5 0.823880 0.250000 0.401469
O O6 0.683613 0.048399 0.251671
O O7 0.717373 0.000700 0.386315
O O8 0.000000 0.000000 0.500000
O O9 0.682682 0.250000 0.882224
O O10 0.578097 0.053529 0.745193
O O11 0.612630 0.980440 0.877434
O O12 0.904794 0.042217 0.004219
O O13 0.450222 0.250000 0.093018
O O14 0.365600 0.506113 0.996780
O O15 0.663671 0.750000 0.410250
O O16 0.728201 0.995469 0.505772
O O17 0.894234 0.250000 0.616815
O O18 0.057273 0.496381 0.749030
O O19 0.102725 0.250000 0.166274
O O20 0.932144 0.079652 0.133892
O O21 0.799793 0.250000 0.133609
#
# Coordination Sequence:
#
# PCOD9158814 Si02
#       8
#     4   4   4   4   4   4   4   4
#     4  10  20  32  48  70  96 126 159 197 240 286
#     4  10  20  33  50  73 101 132 165 201 241 285
#     4   8  15  27  44  67  93 122 156 194 235 279
#     4   9  16  26  43  68  95 122 155 198 241 278
#     4  10  19  32  51  74 100 130 163 198 239 288
#     4  10  20  33  49  72 100 128 160 199 243 288
#     4   8  14  26  44  66  92 119 151 193 236 277
#     4   9  16  27  45  68  93 123 158 196 238 283
#
# _framework density 20.572697999999999
#
# number of rings (size 3 to 8) (size 9 to 14) (size 15 to 20)
#    0.000    2.750    0.000    3.000    0.000    6.500 
#    0.000    0.000    0.000    1.500    0.000    0.000 
#    0.000    0.000    0.000    0.000    0.000    0.000 
#
# Total GULP energy -178366.641292 kJ/mol
# GULP energy per Si atom -5573.957540 kJ/mol
# Density = 2.052587 g / cm^3
# Si number density = 20.572698 Si / 1000 Ang^3
#
#
#
# Elastic Constant Matrix: (Units=GPa)
#
#
# Indices 1 2 3 4 5 6 
#
# 1 10.7545 10.2498 19.0612 0.0000 3.0102 0.0000
# 2 10.2498 142.4628 122.8899 0.0000 10.7279 0.0000
# 3 19.0612 122.8899 218.9775 0.0000 5.8107 0.0000
# 4 0.0000 0.0000 0.0000 41.5937 0.0000 0.3780
# 5 3.0102 10.7279 5.8107 0.0000 18.3678 0.0000
# 6 0.0000 0.0000 0.0000 0.3780 0.0000 13.0612
#
#
#
# Elastic Compliance Matrix: (Units=1/GPa)
#
#
# Indices 1 2 3 4 5 6 
#
# 1 0.114678 0.002400 -0.010885 0.000000 -0.016753 0.000000
# 2 0.002400 0.014248 -0.008041 0.000000 -0.006171 0.000000
# 3 -0.010885 -0.008041 0.009938 0.000000 0.003336 0.000000
# 4 0.000000 0.000000 0.000000 0.024048 0.000000 -0.000696
# 5 -0.016753 -0.006171 0.003336 0.000000 0.059738 0.000000
# 6 0.000000 0.000000 0.000000 -0.000696 0.000000 0.076583
#
#
# Mechanical properties :
#
#
# Convention : Reuss Voigt Hill
#
# Bulk Modulus (GPa) = 9.45067 75.17740 42.31403
# Shear Modulus (GPa) = 13.60344 29.27079 21.43712
#
# Velocity S-wave (km/s) = 2.57424 3.77609 3.23153
# Velocity P-wave (km/s) = 3.66598 7.45878 5.87677
#
# Compressibility (1/GPa) = 0.10581260
#
# Stress axis : x y z
#
# Youngs Moduli (GPa) = 8.72007 70.18754 100.62244
#
# Poissons Ratio (x) = -0.16845 1.09524
# Poissons Ratio (y) = -0.02093 0.80909
# Poissons Ratio (z) = 0.09491 0.56437
#
# Static dielectric constant tensor:
#      x y z
#    x 1.776030 0.000000 -0.005020 
#    y 0.000000 1.715200 0.000000 
#    z -0.005020 0.000000 1.767300 
# 
# From -- ./inp_files/64221.got.cif
#   From: 2010.05.17/outbox.cif.g08.bks.cpg/sg11_33_cif.got.tgz:64221.got - 2010.06.03 12:22:45.
