data_PCOD9158531
_publ_section_title
;
Structure prediction by ZEFSAII (Michael W. Deem and Ramdas Pophale) SiO2 
 PCOD9158531
Probable space group: P 21/M
;
_chemical_formula_sum "Si O2"
_cell_formula_units_Z 28
_cell_length_a 13.467582
_cell_length_b 7.714142
_cell_length_c 15.136240
_cell_angle_alpha 90.000000
_cell_angle_beta 125.611683
_cell_angle_gamma 90.000000
_cell_volume 1278.427833
_symmetry_space_group_name_H-M "P 21/M"
_symmetry_group_IT_number 11
_symmetry_cell_setting 'monoclinic'
loop_
_space_group_symop_operation_xyz
x,y,z
-x,1/2+y,-z
-x,-y,-z
x,1/2-y,z
loop_
_atom_site_type_symbol
_atom_site_label
_atom_site_fract_x
_atom_site_fract_y
_atom_site_fract_z
Si Si1 0.484092 0.456574 0.389574
Si Si2 0.785939 0.462656 0.241789
Si Si3 0.251587 0.543823 0.157834
Si Si4 0.708587 0.457242 0.390019
Si Si5 0.031800 0.953121 0.157553
Si Si6 0.755262 0.448218 0.034112
Si Si7 0.932925 0.957378 0.630625
O O1 0.500000 0.500000 0.500000
O O2 0.484310 0.250000 0.382321
O O3 0.357556 0.519605 0.283294
O O4 0.596444 0.527235 0.389388
O O5 0.784055 0.250000 0.238497
O O6 0.718550 0.522895 0.294956
O O7 0.734571 0.525320 0.120663
O O8 0.928965 0.513111 0.321452
O O9 0.233326 0.750000 0.136599
O O10 0.124216 0.476275 0.131750
O O11 0.288490 0.470994 0.080847
O O12 0.693988 0.250000 0.376350
O O13 0.834064 0.489676 0.507387
O O14 0.006601 0.750000 0.128654
O O15 0.094985 0.969565 0.286443
O O16 0.902859 0.048906 0.098838
O O17 0.710753 0.250000 0.015001
O O18 0.932539 0.750000 0.637226
#
# Coordination Sequence:
#
# PCOD9158531 Si02
#       7
#     4   4   4   4   4   4   4
#     4  11  24  39  56  76 101 134 173 214 256 301
#     4   8  16  32  53  76 104 134 166 205 253 305
#     4  10  21  36  54  76 105 139 173 208 253 302
#     4  10  20  35  53  74 101 135 172 213 258 302
#     4  10  19  31  50  78 109 139 168 206 254 303
#     4   9  18  34  55  79 105 135 169 207 251 303
#     4  10  19  31  51  79 106 136 170 207 254 308
#
# _framework density 21.901902
#
# number of rings (size 3 to 8) (size 9 to 14) (size 15 to 20)
#    0.000    2.286    0.000    3.857    0.000    6.286 
#    0.000    3.571    0.000    0.000    0.000    0.000 
#    0.000    0.000    0.000    0.000    0.000    0.000 
#
# Total GULP energy -156357.256482 kJ/mol
# GULP energy per Si atom -5584.187732 kJ/mol
# Density = 2.185205 g / cm^3
# Si number density = 21.901902 Si / 1000 Ang^3
#
#
#
# Elastic Constant Matrix: (Units=GPa)
#
#
# Indices 1 2 3 4 5 6 
#
# 1 91.7879 5.3346 32.6450 0.0000 -32.6865 0.0000
# 2 5.3346 44.8115 -9.9493 0.0000 -4.9617 0.0000
# 3 32.6450 -9.9493 115.4155 0.0000 -31.5930 0.0000
# 4 0.0000 0.0000 0.0000 19.0415 0.0000 2.2240
# 5 -32.6865 -4.9617 -31.5930 0.0000 29.9753 0.0000
# 6 0.0000 0.0000 0.0000 2.2240 0.0000 12.2741
#
#
#
# Elastic Compliance Matrix: (Units=1/GPa)
#
#
# Indices 1 2 3 4 5 6 
#
# 1 0.017825 0.000177 0.000425 0.000000 0.019914 0.000000
# 2 0.000177 0.024283 0.004492 0.000000 0.008947 0.000000
# 3 0.000425 0.004492 0.013017 0.000000 0.014927 0.000000
# 4 0.000000 0.000000 0.000000 0.053652 0.000000 -0.009721
# 5 0.019914 0.008947 0.014927 0.000000 0.072289 0.000000
# 6 0.000000 0.000000 0.000000 -0.009721 0.000000 0.083234
#
#
# Mechanical properties :
#
#
# Convention : Reuss Voigt Hill
#
# Bulk Modulus (GPa) = 15.31077 34.23062 24.77070
# Shear Modulus (GPa) = 18.12365 27.19050 22.65708
#
# Velocity S-wave (km/s) = 2.87974 3.52727 3.21982
# Velocity P-wave (km/s) = 4.25006 5.67907 5.01572
#
# Compressibility (1/GPa) = 0.06531349
#
# Stress axis : x y z
#
# Youngs Moduli (GPa) = 56.10130 41.18158 76.82037
#
# Poissons Ratio (x) = -0.00730 -0.03262
# Poissons Ratio (y) = -0.00994 -0.34510
# Poissons Ratio (z) = -0.02382 -0.18500
#
# Static dielectric constant tensor:
#      x y z
#    x 1.804700 0.000000 -0.041190 
#    y 0.000000 1.815740 0.000000 
#    z -0.041190 0.000000 1.795780 
# 
# From -- ./inp_files/37895.got.cif
#   From: 2010.05.17/outbox.cif.g08.bks.cpg/sg11_19_cif.got.tgz:37895.got - 2010.06.03 12:22:45.
