data_PCOD9158323
_publ_section_title
;
Structure prediction by ZEFSAII (Michael W. Deem and Ramdas Pophale) SiO2 
 PCOD9158323
Probable space group: P 21/M
;
_chemical_formula_sum "Si O2"
_cell_formula_units_Z 32
_cell_length_a 23.754824
_cell_length_b 8.284737
_cell_length_c 15.787503
_cell_angle_alpha 90.000000
_cell_angle_beta 148.723468
_cell_angle_gamma 90.000000
_cell_volume 1613.068517
_symmetry_space_group_name_H-M "P 21/M"
_symmetry_group_IT_number 11
_symmetry_cell_setting 'monoclinic'
loop_
_space_group_symop_operation_xyz
x,y,z
-x,1/2+y,-z
-x,-y,-z
x,1/2-y,z
loop_
_atom_site_type_symbol
_atom_site_label
_atom_site_fract_x
_atom_site_fract_y
_atom_site_fract_z
Si Si1 0.131396 0.944830 0.439326
Si Si2 0.899903 0.946971 0.077830
Si Si3 0.717321 0.558440 0.509499
Si Si4 0.759532 0.944745 0.056879
Si Si5 0.521575 0.932189 0.777531
Si Si6 0.819557 0.434594 0.317226
Si Si7 0.405532 0.431681 0.935059
Si Si8 0.121631 0.054813 0.137085
O O1 0.131745 0.750000 0.445111
O O2 0.120088 0.004433 0.522302
O O3 0.024849 0.997728 0.250748
O O4 0.237601 0.993209 0.522381
O O5 0.899650 0.750000 0.078730
O O6 0.830571 0.000834 0.069288
O O7 0.854365 0.998256 0.928328
O O8 0.727867 0.750000 0.518275
O O9 0.593827 0.518088 0.374798
O O10 0.796107 0.494803 0.685339
O O11 0.751785 0.750000 0.045138
O O12 0.814305 0.985568 0.217964
O O13 0.634908 0.005949 0.889278
O O14 0.509056 0.750000 0.727083
O O15 0.548512 0.920802 0.911520
O O16 0.853257 0.250000 0.348495
O O17 0.696048 0.449908 0.191526
O O18 0.371426 0.250000 0.865192
O O19 0.500000 0.500000 0.000000
O O20 0.125083 0.250000 0.142925
O O21 0.000000 0.000000 0.000000
#
# Coordination Sequence:
#
# PCOD9158323 Si02
#       8
#     4   4   4   4   4   4   4   4
#     4  10  20  34  54  79 108 145 181 213 265 328
#     4   9  18  36  60  79 102 141 181 218 262 322
#     4  11  22  33  52  84 113 136 172 223 272 314
#     4   9  19  37  58  77 101 142 190 221 256 315
#     4   9  19  34  51  72 101 140 180 216 259 316
#     4  10  20  32  48  75 108 141 179 221 265 314
#     4  10  19  31  48  71 100 139 184 223 266 317
#     4  10  20  36  58  83 109 138 172 214 267 322
#
# _framework density 19.837966999999999
#
# number of rings (size 3 to 8) (size 9 to 14) (size 15 to 20)
#    0.000    2.250    1.250    2.625    0.000    7.500 
#    0.000    1.875    0.000    0.000    0.000    0.000 
#    0.000    0.000    0.000    0.000    0.000    0.000 
#
# Total GULP energy -178373.959560 kJ/mol
# GULP energy per Si atom -5574.186236 kJ/mol
# Density = 1.979282 g / cm^3
# Si number density = 19.837967 Si / 1000 Ang^3
#
#
#
# Elastic Constant Matrix: (Units=GPa)
#
#
# Indices 1 2 3 4 5 6 
#
# 1 105.0769 5.8502 23.8517 0.0000 -16.7918 0.0000
# 2 5.8502 15.5045 5.9081 0.0000 -2.7130 0.0000
# 3 23.8517 5.9081 79.3378 0.0000 -11.3179 0.0000
# 4 0.0000 0.0000 0.0000 18.2941 0.0000 -1.1425
# 5 -16.7918 -2.7130 -11.3179 0.0000 21.6336 0.0000
# 6 0.0000 0.0000 0.0000 -1.1425 0.0000 14.7621
#
#
#
# Elastic Compliance Matrix: (Units=1/GPa)
#
#
# Indices 1 2 3 4 5 6 
#
# 1 0.011310 -0.002145 -0.002190 0.000000 0.007364 0.000000
# 2 -0.002145 0.067567 -0.003691 0.000000 0.004878 0.000000
# 3 -0.002190 -0.003691 0.014296 0.000000 0.005316 0.000000
# 4 0.000000 0.000000 0.000000 0.054928 0.000000 0.004251
# 5 0.007364 0.004878 0.005316 0.000000 0.055333 0.000000
# 6 0.000000 0.000000 0.000000 0.004251 0.000000 0.068070
#
#
# Mechanical properties :
#
#
# Convention : Reuss Voigt Hill
#
# Bulk Modulus (GPa) = 12.96649 30.12659 21.54654
# Shear Modulus (GPa) = 15.96106 21.89192 18.92649
#
# Velocity S-wave (km/s) = 2.83957 3.32556 3.09213
# Velocity P-wave (km/s) = 4.15948 5.47404 4.86140
#
# Compressibility (1/GPa) = 0.07712190
#
# Stress axis : x y z
#
# Youngs Moduli (GPa) = 88.41591 14.80018 69.94977
#
# Poissons Ratio (x) = 0.03174 0.15319
# Poissons Ratio (y) = 0.18961 0.25818
# Poissons Ratio (z) = 0.19363 0.05463
#
# Static dielectric constant tensor:
#      x y z
#    x 1.006780 0.000000 -0.240850 
#    y 0.000000 1.710650 0.000000 
#    z -0.240850 0.000000 1.646840 
# 
# From -- ./inp_files/55651.got.cif
#   From: 2010.05.17/outbox.cif.g08.bks.cpg/sg11_28_cif.got.tgz:55651.got - 2010.06.03 12:22:45.
