data_PCOD9158329
_publ_section_title
;
Structure prediction by ZEFSAII (Michael W. Deem and Ramdas Pophale) SiO2 
 PCOD9158329
Probable space group: P 21/M
;
_chemical_formula_sum "Si O2"
_cell_formula_units_Z 32
_cell_length_a 12.358149
_cell_length_b 7.824994
_cell_length_c 17.100466
_cell_angle_alpha 90.000000
_cell_angle_beta 83.040561
_cell_angle_gamma 90.000000
_cell_volume 1641.472967
_symmetry_space_group_name_H-M "P 21/M"
_symmetry_group_IT_number 11
_symmetry_cell_setting 'monoclinic'
loop_
_space_group_symop_operation_xyz
x,y,z
-x,1/2+y,-z
-x,-y,-z
x,1/2-y,z
loop_
_atom_site_type_symbol
_atom_site_label
_atom_site_fract_x
_atom_site_fract_y
_atom_site_fract_z
Si Si1 0.112518 0.444755 0.949561
Si Si2 0.423923 0.953382 0.182317
Si Si3 0.748861 0.048492 0.920910
Si Si4 0.537191 0.543977 0.583211
Si Si5 0.904459 0.959330 0.761540
Si Si6 0.617747 0.042897 0.261990
Si Si7 0.857849 0.054198 0.223929
Si Si8 0.728736 0.553188 0.662550
O O1 0.101648 0.250000 0.924413
O O2 0.133358 0.553309 0.870702
O O3 0.207411 0.460131 0.005359
O O4 0.000000 0.500000 0.000000
O O5 0.404807 0.750000 0.191967
O O6 0.367132 0.006305 0.106104
O O7 0.549169 0.989620 0.191233
O O8 0.355619 0.046070 0.256839
O O9 0.744988 0.250000 0.937530
O O10 0.837244 0.016814 0.844004
O O11 0.500000 0.500000 0.500000
O O12 0.541702 0.750000 0.589126
O O13 0.450644 0.484697 0.656207
O O14 0.656981 0.477309 0.598549
O O15 0.902980 0.750000 0.763192
O O16 0.838300 0.020595 0.690840
O O17 0.028670 0.020346 0.754874
O O18 0.620675 0.250000 0.261385
O O19 0.740778 0.975990 0.253795
O O20 0.855302 0.250000 0.252590
O O21 0.752917 0.750000 0.640787
#
# Coordination Sequence:
#
# PCOD9158329 Si02
#       8
#     4   4   4   4   4   4   4   4
#     4  12  23  34  49  71 100 132 168 209 251 294
#     4   9  17  29  48  72  96 125 163 207 249 291
#     4  10  19  31  48  71  98 126 164 213 255 290
#     4   9  17  30  50  75 101 128 160 199 243 291
#     4   9  16  28  49  72  94 125 164 204 249 294
#     4   9  19  35  52  72 101 132 163 201 245 300
#     4  10  20  34  52  73  97 129 167 206 251 299
#     4   8  15  28  46  71  99 125 158 200 243 291
#
# _framework density 19.494686000000002
#
# number of rings (size 3 to 8) (size 9 to 14) (size 15 to 20)
#    0.000    2.500    1.250    2.625    0.000    4.000 
#    0.000    0.625    0.000    0.750    0.000    0.000 
#    0.000    0.000    0.000    0.000    0.000    1.000 
#
# Total GULP energy -178331.995622 kJ/mol
# GULP energy per Si atom -5572.874863 kJ/mol
# Density = 1.945032 g / cm^3
# Si number density = 19.494686 Si / 1000 Ang^3
#
#
#
# Elastic Constant Matrix: (Units=GPa)
#
#
# Indices 1 2 3 4 5 6 
#
# 1 163.4535 -3.1669 56.5369 0.0000 36.6340 0.0000
# 2 -3.1669 38.3264 -5.2780 0.0000 0.3712 0.0000
# 3 56.5369 -5.2780 67.4964 0.0000 32.7269 0.0000
# 4 0.0000 0.0000 0.0000 17.9261 0.0000 7.8175
# 5 36.6340 0.3712 32.7269 0.0000 35.0355 0.0000
# 6 0.0000 0.0000 0.0000 7.8175 0.0000 13.5398
#
#
#
# Elastic Compliance Matrix: (Units=1/GPa)
#
#
# Indices 1 2 3 4 5 6 
#
# 1 0.008956 0.000037 -0.005407 0.000000 -0.004314 0.000000
# 2 0.000037 0.026691 0.004043 0.000000 -0.004099 0.000000
# 3 -0.005407 0.004043 0.030965 0.000000 -0.023314 0.000000
# 4 0.000000 0.000000 0.000000 0.074558 0.000000 -0.043048
# 5 -0.004314 -0.004099 -0.023314 0.000000 0.054874 0.000000
# 6 0.000000 0.000000 0.000000 -0.043048 0.000000 0.098711
#
#
# Mechanical properties :
#
#
# Convention : Reuss Voigt Hill
#
# Bulk Modulus (GPa) = 15.63502 40.60670 28.12086
# Shear Modulus (GPa) = 15.68740 28.04590 21.86665
#
# Velocity S-wave (km/s) = 2.83980 3.79706 3.35277
# Velocity P-wave (km/s) = 4.33477 6.33233 5.42626
#
# Compressibility (1/GPa) = 0.06395900
#
# Stress axis : x y z
#
# Youngs Moduli (GPa) = 111.65984 37.46544 32.29469
#
# Poissons Ratio (x) = -0.00139 0.17461
# Poissons Ratio (y) = -0.00415 -0.13058
# Poissons Ratio (z) = 0.60374 -0.15148
#
# Static dielectric constant tensor:
#      x y z
#    x 1.743110 0.000000 0.038830 
#    y 0.000000 1.697860 0.000000 
#    z 0.038830 0.000000 1.675380 
# 
# From -- ./inp_files/42488.got.cif
#   From: 2010.05.17/outbox.cif.g08.bks.cpg/sg11_22_cif.got.tgz:42488.got - 2010.06.03 12:22:45.
