data_PCOD9158282
_publ_section_title
;
Structure prediction by ZEFSAII (Michael W. Deem and Ramdas Pophale) SiO2 
 PCOD9158282
Probable space group: P 21/M
;
_chemical_formula_sum "Si O2"
_cell_formula_units_Z 28
_cell_length_a 25.124774
_cell_length_b 7.773589
_cell_length_c 9.888797
_cell_angle_alpha 90.000000
_cell_angle_beta 34.752237
_cell_angle_gamma 90.000000
_cell_volume 1100.940963
_symmetry_space_group_name_H-M "P 21/M"
_symmetry_group_IT_number 11
_symmetry_cell_setting 'monoclinic'
loop_
_space_group_symop_operation_xyz
x,y,z
-x,1/2+y,-z
-x,-y,-z
x,1/2-y,z
loop_
_atom_site_type_symbol
_atom_site_label
_atom_site_fract_x
_atom_site_fract_y
_atom_site_fract_z
Si Si1 0.029767 0.556758 0.785653
Si Si2 0.440274 0.550751 0.300057
Si Si3 0.392969 0.044343 0.684772
Si Si4 0.829041 0.554718 0.058279
Si Si5 0.902511 0.453539 0.628392
Si Si6 0.350557 0.038880 0.057065
Si Si7 0.720884 0.946238 0.529046
O O1 0.064606 0.750000 0.734562
O O2 0.095790 0.470872 0.529434
O O3 0.933060 0.559545 0.903032
O O4 0.000000 0.500000 0.000000
O O5 0.444274 0.750000 0.252101
O O6 0.381221 0.534827 0.562514
O O7 0.543970 0.488417 0.120216
O O8 0.385717 0.445596 0.301045
O O9 0.384958 0.250000 0.691147
O O10 0.335212 0.982773 0.935733
O O11 0.500000 0.000000 0.500000
O O12 0.792227 0.750000 0.129089
O O13 0.775034 0.463957 0.294342
O O14 0.830883 0.498010 0.898990
O O15 0.899991 0.250000 0.616883
O O16 0.000000 0.500000 0.500000
O O17 0.349727 0.250000 0.059613
O O18 0.281511 0.975842 0.317343
O O19 0.756571 0.750000 0.469261
#
# Coordination Sequence:
#
# PCOD9158282 Si02
#       7
#     4   4   4   4   4   4   4
#     4   9  18  32  51  77 102 126 158 197 237 284
#     4  10  19  31  47  71  99 128 167 210 250 300
#     4   9  16  29  48  69  92 121 160 206 254 300
#     4   9  19  34  51  73 100 129 165 203 244 292
#     4   9  17  31  52  75 100 128 159 192 231 282
#     4   8  16  30  49  71  95 126 166 209 252 295
#     4  10  19  33  51  70  96 130 165 207 252 293
#
# _framework density 25.432790000000001
#
# number of rings (size 3 to 8) (size 9 to 14) (size 15 to 20)
#    0.000    2.857    0.000    3.429    0.000    3.429 
#    0.000    5.000    0.000    3.429    0.000    0.000 
#    0.000    0.000    0.000    0.000    0.000    0.000 
#
# Total GULP energy -156099.033541 kJ/mol
# GULP energy per Si atom -5574.965484 kJ/mol
# Density = 2.537490 g / cm^3
# Si number density = 25.432790 Si / 1000 Ang^3
#
#
#
# Elastic Constant Matrix: (Units=GPa)
#
#
# Indices 1 2 3 4 5 6 
#
# 1 93.3012 -9.5172 42.7871 0.0000 24.8611 0.0000
# 2 -9.5172 56.8922 19.4627 0.0000 9.6492 0.0000
# 3 42.7871 19.4627 248.2714 0.0000 78.6740 0.0000
# 4 0.0000 0.0000 0.0000 19.6718 0.0000 10.8652
# 5 24.8611 9.6492 78.6740 0.0000 50.3616 0.0000
# 6 0.0000 0.0000 0.0000 10.8652 0.0000 8.3639
#
#
#
# Elastic Compliance Matrix: (Units=1/GPa)
#
#
# Indices 1 2 3 4 5 6 
#
# 1 0.012967 0.003406 -0.000528 0.000000 -0.006230 0.000000
# 2 0.003406 0.019113 -0.000776 0.000000 -0.004131 0.000000
# 3 -0.000528 -0.000776 0.008020 0.000000 -0.012120 0.000000
# 4 0.000000 0.000000 0.000000 0.179945 0.000000 -0.233758
# 5 -0.006230 -0.004131 -0.012120 0.000000 0.042657 0.000000
# 6 0.000000 0.000000 0.000000 -0.233758 0.000000 0.423225
#
#
# Mechanical properties :
#
#
# Convention : Reuss Voigt Hill
#
# Bulk Modulus (GPa) = 22.57070 55.99221 39.28146
# Shear Modulus (GPa) = 7.17884 38.72828 22.95356
#
# Velocity S-wave (km/s) = 1.68190 3.90650 3.00745
# Velocity P-wave (km/s) = 3.55888 6.51239 5.24771
#
# Compressibility (1/GPa) = 0.04430522
#
# Stress axis : x y z
#
# Youngs Moduli (GPa) = 77.11640 52.32007 124.68348
#
# Poissons Ratio (x) = -0.17822 0.06580
# Poissons Ratio (y) = -0.26269 0.09681
# Poissons Ratio (z) = 0.04070 0.04062
#
# Static dielectric constant tensor:
#      x y z
#    x 2.169770 0.000000 -0.182280 
#    y 0.000000 1.941130 0.000000 
#    z -0.182280 0.000000 2.337530 
# 
# From -- ./inp_files/29033.got.cif
#   From: 2010.05.17/outbox.cif.g08.bks.cpg/sg11_15_cif.got.tgz:29033.got - 2010.06.03 12:22:45.
