data_PCOD9158628
_publ_section_title
;
Structure prediction by ZEFSAII (Michael W. Deem and Ramdas Pophale) SiO2 
 PCOD9158628
Probable space group: P 21/M
;
_chemical_formula_sum "Si O2"
_cell_formula_units_Z 24
_cell_length_a 5.461191
_cell_length_b 14.609782
_cell_length_c 16.012389
_cell_angle_alpha 90.000000
_cell_angle_beta 72.655010
_cell_angle_gamma 90.000000
_cell_volume 1219.482159
_symmetry_space_group_name_H-M "P 21/M"
_symmetry_group_IT_number 11
_symmetry_cell_setting 'monoclinic'
loop_
_space_group_symop_operation_xyz
x,y,z
-x,1/2+y,-z
-x,-y,-z
x,1/2-y,z
loop_
_atom_site_type_symbol
_atom_site_label
_atom_site_fract_x
_atom_site_fract_y
_atom_site_fract_z
Si Si1 0.627053 0.906660 0.284858
Si Si2 0.729157 0.051452 0.524872
Si Si3 0.003504 0.504384 0.138041
Si Si4 0.260010 0.750000 0.472930
Si Si5 0.366887 0.651766 0.148637
Si Si6 0.130142 0.145185 0.997927
Si Si7 0.143262 0.250000 0.638461
O O1 0.399722 0.931424 0.371155
O O2 0.520167 0.846688 0.219810
O O3 0.840060 0.844135 0.310616
O O4 0.765048 0.991270 0.225227
O O5 0.788686 0.151958 0.480971
O O6 0.500000 0.000000 0.500000
O O7 0.000000 0.000000 0.500000
O O8 0.231827 0.553891 0.163196
O O9 0.966452 0.579884 0.067438
O O10 0.062308 0.408604 0.089104
O O11 0.567750 0.750000 0.428731
O O12 0.082232 0.750000 0.406781
O O13 0.224399 0.750000 0.156867
O O14 0.566315 0.648801 0.051554
O O15 0.036040 0.250000 0.004800
#
# Coordination Sequence:
#
# PCOD9158628 Si02
#       7
#     4   4   4   2   4   4   2
#     4  10  22  33  55  88 117 149 194 247 311 365
#     4  11  24  41  64  92 125 164 204 255 315 373
#     4  10  20  31  56  79 112 151 191 246 297 360
#     4  10  22  40  64  92 120 158 198 255 317 376
#     4  10  19  31  54  86 114 142 185 246 305 358
#     4   9  19  36  49  79 112 151 195 237 297 355
#     4  10  20  34  58  92 126 148 188 257 321 366
#
# _framework density 19.680486999999999
#
# number of rings (size 3 to 8) (size 9 to 14) (size 15 to 20)
#    0.000    2.000    0.833    3.000    9.333    0.000 
#    0.000    0.000    3.667    0.000    0.000    0.000 
#    0.000    0.000    0.000    0.000    0.000    0.000 
#
# Total GULP energy -133664.635775 kJ/mol
# GULP energy per Si atom -5569.359824 kJ/mol
# Density = 1.963569 g / cm^3
# Si number density = 19.680487 Si / 1000 Ang^3
#
#
#
# Elastic Constant Matrix: (Units=GPa)
#
#
# Indices 1 2 3 4 5 6 
#
# 1 84.9228 36.0861 18.0395 0.0000 -3.0541 0.0000
# 2 36.0861 125.5133 29.9437 0.0000 -11.9015 0.0000
# 3 18.0395 29.9437 63.3536 0.0000 -22.0767 0.0000
# 4 0.0000 0.0000 0.0000 20.0230 0.0000 -4.6310
# 5 -3.0541 -11.9015 -22.0767 0.0000 27.7124 0.0000
# 6 0.0000 0.0000 0.0000 -4.6310 0.0000 31.8934
#
#
#
# Elastic Compliance Matrix: (Units=1/GPa)
#
#
# Indices 1 2 3 4 5 6 
#
# 1 0.013828 -0.003455 -0.003171 0.000000 -0.002486 0.000000
# 2 -0.003455 0.009852 -0.003227 0.000000 0.001280 0.000000
# 3 -0.003171 -0.003227 0.024374 0.000000 0.017682 0.000000
# 4 0.000000 0.000000 0.000000 0.051678 0.000000 0.007504
# 5 -0.002486 0.001280 0.017682 0.000000 0.050447 0.000000
# 6 0.000000 0.000000 0.000000 0.007504 0.000000 0.032444
#
#
# Mechanical properties :
#
#
# Convention : Reuss Voigt Hill
#
# Bulk Modulus (GPa) = 35.27448 49.10314 42.18881
# Shear Modulus (GPa) = 23.60986 28.57377 26.09181
#
# Velocity S-wave (km/s) = 3.46737 3.81449 3.64506
# Velocity P-wave (km/s) = 5.83032 6.66369 6.26089
#
# Compressibility (1/GPa) = 0.02834911
#
# Stress axis : x y z
#
# Youngs Moduli (GPa) = 72.31932 101.50524 41.02743
#
# Poissons Ratio (x) = 0.35068 0.13008
# Poissons Ratio (y) = 0.24985 0.13238
# Poissons Ratio (z) = 0.22929 0.32752
#
# Static dielectric constant tensor:
#      x y z
#    x 1.796220 0.000000 0.003990 
#    y 0.000000 1.714250 0.000000 
#    z 0.003990 0.000000 1.717070 
# 
# From -- ./inp_files/56866.got.cif
#   From: 2010.05.17/outbox.cif.g08.bks.cpg/sg11_29_cif.got.tgz:56866.got - 2010.06.03 12:22:45.
