data_PCOD9158456
_publ_section_title
;
Structure prediction by ZEFSAII (Michael W. Deem and Ramdas Pophale) SiO2 
 PCOD9158456
Probable space group: P 21/M
;
_chemical_formula_sum "Si O2"
_cell_formula_units_Z 32
_cell_length_a 13.999680
_cell_length_b 14.376998
_cell_length_c 10.121684
_cell_angle_alpha 90.000000
_cell_angle_beta 60.197534
_cell_angle_gamma 90.000000
_cell_volume 1767.790300
_symmetry_space_group_name_H-M "P 21/M"
_symmetry_group_IT_number 11
_symmetry_cell_setting 'monoclinic'
loop_
_space_group_symop_operation_xyz
x,y,z
-x,1/2+y,-z
-x,-y,-z
x,1/2-y,z
loop_
_atom_site_type_symbol
_atom_site_label
_atom_site_fract_x
_atom_site_fract_y
_atom_site_fract_z
Si Si1 0.120179 0.361126 0.073725
Si Si2 0.630996 0.014619 0.415736
Si Si3 0.267313 0.858480 0.877813
Si Si4 0.664698 0.858062 0.216992
Si Si5 0.990723 0.139209 0.891919
Si Si6 0.052836 0.982117 0.320225
Si Si7 0.730241 0.358490 0.831217
Si Si8 0.591463 0.142620 0.671007
O O1 0.108201 0.250000 0.105212
O O2 0.076122 0.422470 0.224273
O O3 0.247346 0.384687 0.954998
O O4 0.059643 0.383434 0.976091
O O5 0.672259 0.081292 0.271409
O O6 0.652331 0.067974 0.536642
O O7 0.500000 0.000000 0.500000
O O8 0.681835 0.916305 0.339098
O O9 0.277982 0.750000 0.837047
O O10 0.137245 0.879072 0.982059
O O11 0.314511 0.875361 0.991217
O O12 0.682551 0.750000 0.232699
O O13 0.539768 0.870685 0.252830
O O14 0.002407 0.250000 0.858830
O O15 0.013146 0.080710 0.743328
O O16 0.166702 0.925612 0.263609
O O17 0.000000 0.000000 0.500000
O O18 0.768881 0.250000 0.803074
O O19 0.637090 0.368335 0.786010
O O20 0.613981 0.250000 0.613234
#
# Coordination Sequence:
#
# PCOD9158456 Si02
#       8
#     4   4   4   4   4   4   4   4
#     4  10  21  37  56  76 101 140 184 216 250 310
#     4  10  19  31  49  76 105 133 165 210 258 301
#     4   9  17  32  54  77 101 130 169 216 258 298
#     4   9  18  33  52  73 102 139 176 213 251 300
#     4   9  19  36  57  78 101 136 182 224 259 301
#     4  11  22  34  52  80 112 140 166 214 271 318
#     4   9  19  36  56  77 102 134 172 213 259 309
#     4   9  18  33  54  79 104 132 169 214 262 305
#
# _framework density 18.101694999999999
#
# number of rings (size 3 to 8) (size 9 to 14) (size 15 to 20)
#    0.000    2.500    0.000    3.375    0.000    3.500 
#    0.000    8.125    0.000    0.750    0.000    7.000 
#    0.000    0.000    0.000    0.000    0.000    0.000 
#
# Total GULP energy -178366.655684 kJ/mol
# GULP energy per Si atom -5573.957990 kJ/mol
# Density = 1.806049 g / cm^3
# Si number density = 18.101695 Si / 1000 Ang^3
#
#
#
# Elastic Constant Matrix: (Units=GPa)
#
#
# Indices 1 2 3 4 5 6 
#
# 1 52.5675 33.1634 34.9643 0.0000 18.4002 0.0000
# 2 33.1634 77.5737 58.5917 0.0000 4.5337 0.0000
# 3 34.9643 58.5917 123.4685 0.0000 6.8656 0.0000
# 4 0.0000 0.0000 0.0000 26.1082 0.0000 3.5540
# 5 18.4002 4.5337 6.8656 0.0000 18.1911 0.0000
# 6 0.0000 0.0000 0.0000 3.5540 0.0000 21.8338
#
#
#
# Elastic Compliance Matrix: (Units=1/GPa)
#
#
# Indices 1 2 3 4 5 6 
#
# 1 0.044070 -0.013655 -0.003790 0.000000 -0.039743 0.000000
# 2 -0.013655 0.024361 -0.008298 0.000000 0.010872 0.000000
# 3 -0.003790 -0.008298 0.013056 0.000000 0.000974 0.000000
# 4 0.000000 0.000000 0.000000 0.039170 0.000000 -0.006376
# 5 -0.039743 0.010872 0.000974 0.000000 0.092094 0.000000
# 6 0.000000 0.000000 0.000000 -0.006376 0.000000 0.046838
#
#
# Mechanical properties :
#
#
# Convention : Reuss Voigt Hill
#
# Bulk Modulus (GPa) = 33.33257 56.33873 44.83565
# Shear Modulus (GPa) = 15.57268 21.68598 18.62933
#
# Velocity S-wave (km/s) = 2.93625 3.46498 3.21151
# Velocity P-wave (km/s) = 5.47261 6.87016 6.21082
#
# Compressibility (1/GPa) = 0.03000069
#
# Stress axis : x y z
#
# Youngs Moduli (GPa) = 22.69138 41.04980 76.59226
#
# Poissons Ratio (x) = 0.56053 0.29028
# Poissons Ratio (y) = 0.30985 0.63557
# Poissons Ratio (z) = 0.08600 0.34063
#
# Static dielectric constant tensor:
#      x y z
#    x 1.626560 0.000000 -0.004870 
#    y 0.000000 1.671630 0.000000 
#    z -0.004870 0.000000 1.540360 
# 
# From -- ./inp_files/22158.got.cif
#   From: 2010.05.17/outbox.cif.g08.bks.cpg/sg11_12_cif.got.tgz:22158.got - 2010.06.03 12:22:45.
