data_PCOD9158975
_publ_section_title
;
Structure prediction by ZEFSAII (Michael W. Deem and Ramdas Pophale) SiO2 
 PCOD9158975
Probable space group: P 21/M
;
_chemical_formula_sum "Si O2"
_cell_formula_units_Z 28
_cell_length_a 9.253587
_cell_length_b 8.534744
_cell_length_c 29.789203
_cell_angle_alpha 90.000000
_cell_angle_beta 140.804658
_cell_angle_gamma 90.000000
_cell_volume 1486.802953
_symmetry_space_group_name_H-M "P 21/M"
_symmetry_group_IT_number 11
_symmetry_cell_setting 'monoclinic'
loop_
_space_group_symop_operation_xyz
x,y,z
-x,1/2+y,-z
-x,-y,-z
x,1/2-y,z
loop_
_atom_site_type_symbol
_atom_site_label
_atom_site_fract_x
_atom_site_fract_y
_atom_site_fract_z
Si Si1 0.567932 0.939582 0.793362
Si Si2 0.902229 0.562295 0.793605
Si Si3 0.338015 0.061320 0.500883
Si Si4 0.046104 0.939947 0.654110
Si Si5 0.588530 0.937758 0.068843
Si Si6 0.745065 0.437948 0.931042
Si Si7 0.722432 0.438252 0.656221
O O1 0.570839 0.750000 0.795733
O O2 0.742728 0.989683 0.796574
O O3 0.308876 0.989406 0.719909
O O4 0.646910 0.002951 0.860267
O O5 0.916465 0.750000 0.797991
O O6 0.792018 0.509736 0.720263
O O7 0.155651 0.494694 0.859935
O O8 0.342249 0.250000 0.502007
O O9 0.469744 0.011129 0.577676
O O10 0.085722 0.013354 0.423662
O O11 0.500000 0.000000 0.500000
O O12 0.038327 0.750000 0.655387
O O13 0.903151 0.007700 0.661619
O O14 0.585929 0.750000 0.067212
O O15 0.419616 0.990650 0.068039
O O16 0.500000 0.000000 0.000000
O O17 0.749806 0.250000 0.932109
O O18 0.000000 0.500000 0.000000
O O19 0.729084 0.250000 0.660745
#
# Coordination Sequence:
#
# PCOD9158975 Si02
#       7
#     4   4   4   4   4   4   4
#     4  10  22  38  56  79 108 142 183 225 266 315
#     4  11  23  38  55  78 109 146 185 224 266 317
#     4   8  15  28  49  76 105 137 176 221 270 321
#     4   9  17  33  56  79 105 141 181 224 273 323
#     4  11  24  41  61  87 114 142 177 218 263 316
#     4  11  24  40  60  85 112 140 175 217 263 315
#     4  10  19  32  52  80 110 140 179 227 273 323
#
# _framework density 18.832355
#
# number of rings (size 3 to 8) (size 9 to 14) (size 15 to 20)
#    0.000    2.000    0.000    3.429    0.000   10.286 
#    0.000    0.714    0.000    0.000    0.000    0.000 
#    0.000    0.000    0.000    0.000    0.000    0.000 
#
# Total GULP energy -156293.819866 kJ/mol
# GULP energy per Si atom -5581.922138 kJ/mol
# Density = 1.878949 g / cm^3
# Si number density = 18.832355 Si / 1000 Ang^3
#
#
#
# Elastic Constant Matrix: (Units=GPa)
#
#
# Indices 1 2 3 4 5 6 
#
# 1 146.2311 30.7320 109.0956 0.0000 1.6753 0.0000
# 2 30.7320 24.5102 33.6098 0.0000 0.9904 0.0000
# 3 109.0956 33.6098 227.3851 0.0000 3.5078 0.0000
# 4 0.0000 0.0000 0.0000 29.2381 0.0000 -3.2864
# 5 1.6753 0.9904 3.5078 0.0000 33.5153 0.0000
# 6 0.0000 0.0000 0.0000 -3.2864 0.0000 23.8801
#
#
#
# Elastic Compliance Matrix: (Units=1/GPa)
#
#
# Indices 1 2 3 4 5 6 
#
# 1 0.012053 -0.009012 -0.004453 0.000000 0.000130 0.000000
# 2 -0.009012 0.057926 -0.004226 0.000000 -0.000819 0.000000
# 3 -0.004453 -0.004226 0.007165 0.000000 -0.000402 0.000000
# 4 0.000000 0.000000 0.000000 0.034739 0.000000 0.004781
# 5 0.000130 -0.000819 -0.000402 0.000000 0.029897 0.000000
# 6 0.000000 0.000000 0.000000 0.004781 0.000000 0.042534
#
#
# Mechanical properties :
#
#
# Convention : Reuss Voigt Hill
#
# Bulk Modulus (GPa) = 23.94424 82.77792 53.36108
# Shear Modulus (GPa) = 21.40260 32.30595 26.85427
#
# Velocity S-wave (km/s) = 3.37483 4.14629 3.78029
# Velocity P-wave (km/s) = 5.28469 8.18370 6.88843
#
# Compressibility (1/GPa) = 0.04176369
#
# Stress axis : x y z
#
# Youngs Moduli (GPa) = 82.96750 17.26326 139.56751
#
# Poissons Ratio (x) = 0.15557 0.62146
# Poissons Ratio (y) = 0.74769 0.58977
# Poissons Ratio (z) = 0.36943 0.07295
#
# Static dielectric constant tensor:
#      x y z
#    x 1.622500 0.000000 0.011570 
#    y 0.000000 1.646080 0.000000 
#    z 0.011570 0.000000 1.659230 
# 
# From -- ./inp_files/28447.got.cif
#   From: 2010.05.17/outbox.cif.g08.bks.cpg/sg11_15_cif.got.tgz:28447.got - 2010.06.03 12:22:45.
