data_PCOD9158392
_publ_section_title
;
Structure prediction by ZEFSAII (Michael W. Deem and Ramdas Pophale) SiO2 
 PCOD9158392
Probable space group: P 21/M
;
_chemical_formula_sum "Si O2"
_cell_formula_units_Z 28
_cell_length_a 9.923801
_cell_length_b 8.142621
_cell_length_c 33.383305
_cell_angle_alpha 90.000000
_cell_angle_beta 34.384269
_cell_angle_gamma 90.000000
_cell_volume 1523.422925
_symmetry_space_group_name_H-M "P 21/M"
_symmetry_group_IT_number 11
_symmetry_cell_setting 'monoclinic'
loop_
_space_group_symop_operation_xyz
x,y,z
-x,1/2+y,-z
-x,-y,-z
x,1/2-y,z
loop_
_atom_site_type_symbol
_atom_site_label
_atom_site_fract_x
_atom_site_fract_y
_atom_site_fract_z
Si Si1 0.390417 0.443127 0.800251
Si Si2 0.502059 0.948237 0.059992
Si Si3 0.723226 0.553684 0.569908
Si Si4 0.256425 0.447881 0.920232
Si Si5 0.674153 0.551602 0.493503
Si Si6 0.102689 0.057619 0.101324
Si Si7 0.772589 0.448017 0.644658
O O1 0.440364 0.250000 0.793614
O O2 0.329268 0.514503 0.858998
O O3 0.609141 0.512121 0.720967
O O4 0.144337 0.463332 0.836635
O O5 0.484102 0.750000 0.060883
O O6 0.553015 0.994494 0.092829
O O7 0.268847 0.027533 0.098628
O O8 0.730722 0.998376 0.976829
O O9 0.709630 0.750000 0.573894
O O10 0.608442 0.498027 0.555526
O O11 0.652775 0.491284 0.631212
O O12 0.000000 0.500000 0.500000
O O13 0.249194 0.250000 0.919770
O O14 0.000000 0.500000 0.000000
O O15 0.500000 0.500000 0.500000
O O16 0.675619 0.750000 0.493322
O O17 0.950999 0.495686 0.420051
O O18 0.053107 0.250000 0.108372
O O19 0.780107 0.250000 0.644477
#
# Coordination Sequence:
#
# PCOD9158392 Si02
#       7
#     4   4   4   4   4   4   4
#     4  10  20  34  53  74 101 135 170 214 265 311
#     4   9  18  32  48  69  97 128 166 211 257 308
#     4   9  17  31  52  77 103 133 168 207 244 292
#     4  10  19  32  51  74  99 131 172 217 262 311
#     4   9  18  32  52  78 107 135 167 205 245 295
#     4  10  19  31  49  72  97 127 165 211 257 306
#     4   9  19  35  52  75 104 136 174 211 252 307
#
# _framework density 18.379663000000001
#
# number of rings (size 3 to 8) (size 9 to 14) (size 15 to 20)
#    0.000    2.571    1.429    1.714    0.000    4.571 
#    0.000    1.429    0.000    3.429    0.000    0.000 
#    0.000    0.000    0.000    0.000    0.000    0.000 
#
# Total GULP energy -155952.975323 kJ/mol
# GULP energy per Si atom -5569.749119 kJ/mol
# Density = 1.833783 g / cm^3
# Si number density = 18.379663 Si / 1000 Ang^3
#
#
#
# Elastic Constant Matrix: (Units=GPa)
#
#
# Indices 1 2 3 4 5 6 
#
# 1 135.3099 9.5170 64.1300 0.0000 20.3550 0.0000
# 2 9.5170 10.2086 10.8239 0.0000 3.6134 0.0000
# 3 64.1300 10.8239 109.4201 0.0000 21.5341 0.0000
# 4 0.0000 0.0000 0.0000 16.7031 0.0000 0.7493
# 5 20.3550 3.6134 21.5341 0.0000 22.0913 0.0000
# 6 0.0000 0.0000 0.0000 0.7493 0.0000 26.1189
#
#
#
# Elastic Compliance Matrix: (Units=1/GPa)
#
#
# Indices 1 2 3 4 5 6 
#
# 1 0.010677 -0.002997 -0.005100 0.000000 -0.004376 0.000000
# 2 -0.002997 0.111772 -0.007728 0.000000 -0.007987 0.000000
# 3 -0.005100 -0.007728 0.014501 0.000000 -0.008172 0.000000
# 4 0.000000 0.000000 0.000000 0.059946 0.000000 -0.001720
# 5 -0.004376 -0.007987 -0.008172 0.000000 0.058571 0.000000
# 6 0.000000 0.000000 0.000000 -0.001720 0.000000 0.038336
#
#
# Mechanical properties :
#
#
# Convention : Reuss Voigt Hill
#
# Bulk Modulus (GPa) = 9.49676 47.09783 28.29730
# Shear Modulus (GPa) = 13.86764 24.34716 19.10740
#
# Velocity S-wave (km/s) = 2.74981 3.64356 3.22777
# Velocity P-wave (km/s) = 3.90643 6.58645 5.41486
#
# Compressibility (1/GPa) = 0.10529906
#
# Stress axis : x y z
#
# Youngs Moduli (GPa) = 93.66312 8.94682 68.96218
#
# Poissons Ratio (x) = 0.02682 0.35169
# Poissons Ratio (y) = 0.28072 0.53294
# Poissons Ratio (z) = 0.47766 0.06914
#
# Static dielectric constant tensor:
#      x y z
#    x 1.649060 0.000000 0.038810 
#    y 0.000000 1.647410 0.000000 
#    z 0.038810 0.000000 1.651130 
# 
# From -- ./inp_files/72724.got.cif
#   From: 2010.05.17/outbox.cif.g08.bks.cpg/sg11_37_cif.got.tgz:72724.got - 2010.06.03 12:22:45.
