data_PCOD9158093
_publ_section_title
;
Structure prediction by ZEFSAII (Michael W. Deem and Ramdas Pophale) SiO2 
 PCOD9158093
Probable space group: P 21/M
;
_chemical_formula_sum "Si O2"
_cell_formula_units_Z 32
_cell_length_a 14.488874
_cell_length_b 13.125855
_cell_length_c 14.091037
_cell_angle_alpha 90.000000
_cell_angle_beta 41.949851
_cell_angle_gamma 90.000000
_cell_volume 1791.404033
_symmetry_space_group_name_H-M "P 21/M"
_symmetry_group_IT_number 11
_symmetry_cell_setting 'monoclinic'
loop_
_space_group_symop_operation_xyz
x,y,z
-x,1/2+y,-z
-x,-y,-z
x,1/2-y,z
loop_
_atom_site_type_symbol
_atom_site_label
_atom_site_fract_x
_atom_site_fract_y
_atom_site_fract_z
Si Si1 0.986475 0.366399 0.754493
Si Si2 0.353297 0.527385 0.457410
Si Si3 0.299664 0.972734 0.013004
Si Si4 0.576195 0.862318 0.757099
Si Si5 0.096259 0.952745 0.540789
Si Si6 0.362853 0.132249 0.798301
Si Si7 0.804956 0.932782 0.714464
Si Si8 0.749884 0.866748 0.318309
O O1 0.978921 0.250000 0.726795
O O2 0.837592 0.406599 0.900006
O O3 0.043829 0.440901 0.628604
O O4 0.096828 0.371281 0.755260
O O5 0.383212 0.440656 0.355936
O O6 0.215267 0.582700 0.522388
O O7 0.485413 0.599998 0.356056
O O8 0.327713 0.460942 0.571347
O O9 0.273149 0.024853 0.134358
O O10 0.321633 0.057392 0.914937
O O11 0.435468 0.903247 0.910503
O O12 0.556230 0.750000 0.732870
O O13 0.700397 0.862693 0.737216
O O14 0.954400 0.891323 0.633578
O O15 0.159116 0.977997 0.389621
O O16 0.364054 0.250000 0.828028
O O17 0.261975 0.121544 0.785241
O O18 0.698378 0.750000 0.379397
#
# Coordination Sequence:
#
# PCOD9158093 Si02
#       8
#     4   4   4   4   4   4   4   4
#     4   9  17  31  53  77  98 121 154 201 250 288
#     4   9  17  32  53  73  96 123 156 204 251 283
#     4  10  20  33  48  68 100 134 163 194 232 286
#     4  10  19  30  48  73  97 123 159 201 244 287
#     4   8  16  30  50  71  94 120 155 199 242 287
#     4  10  21  34  48  69  98 134 169 196 230 285
#     4   9  17  31  47  66  94 126 155 192 236 280
#     4   9  17  31  53  78  99 121 156 200 246 292
#
# _framework density 17.863083
#
# number of rings (size 3 to 8) (size 9 to 14) (size 15 to 20)
#    0.000    2.750    0.000    1.500    0.000    4.000 
#    0.000    0.625    0.000   30.000    0.000    0.000 
#    0.000    0.000    0.000    0.000    0.000    0.000 
#
# Total GULP energy -178209.588569 kJ/mol
# GULP energy per Si atom -5569.049643 kJ/mol
# Density = 1.782243 g / cm^3
# Si number density = 17.863083 Si / 1000 Ang^3
#
#
#
# Elastic Constant Matrix: (Units=GPa)
#
#
# Indices 1 2 3 4 5 6 
#
# 1 74.0551 27.2022 20.3987 0.0000 2.4640 0.0000
# 2 27.2022 40.5298 13.5611 0.0000 -0.1137 0.0000
# 3 20.3987 13.5611 63.3866 0.0000 -8.3581 0.0000
# 4 0.0000 0.0000 0.0000 10.6010 0.0000 -3.1243
# 5 2.4640 -0.1137 -8.3581 0.0000 15.4108 0.0000
# 6 0.0000 0.0000 0.0000 -3.1243 0.0000 18.0979
#
#
#
# Elastic Compliance Matrix: (Units=1/GPa)
#
#
# Indices 1 2 3 4 5 6 
#
# 1 0.019074 -0.011330 -0.004445 0.000000 -0.005544 0.000000
# 2 -0.011330 0.033445 -0.003487 0.000000 0.000167 0.000000
# 3 -0.004445 -0.003487 0.019433 0.000000 0.011224 0.000000
# 4 0.000000 0.000000 0.000000 0.099387 0.000000 0.017158
# 5 -0.005544 0.000167 0.011224 0.000000 0.071865 0.000000
# 6 0.000000 0.000000 0.000000 0.017158 0.000000 0.058217
#
#
# Mechanical properties :
#
#
# Convention : Reuss Voigt Hill
#
# Bulk Modulus (GPa) = 29.91617 33.36617 31.64117
# Shear Modulus (GPa) = 14.24143 16.60925 15.42534
#
# Velocity S-wave (km/s) = 2.82663 3.05258 2.94178
# Velocity P-wave (km/s) = 5.23803 5.58066 5.41206
#
# Compressibility (1/GPa) = 0.03342674
#
# Stress axis : x y z
#
# Youngs Moduli (GPa) = 52.42663 29.89996 51.45917
#
# Poissons Ratio (x) = 0.33877 0.22876
# Poissons Ratio (y) = 0.59400 0.17944
# Poissons Ratio (z) = 0.23306 0.10426
#
# Static dielectric constant tensor:
#      x y z
#    x 1.635500 0.000000 -0.029750 
#    y 0.000000 1.594230 0.000000 
#    z -0.029750 0.000000 1.606170 
# 
# From -- ./inp_files/52294.got.cif
#   From: 2010.05.17/outbox.cif.g08.bks.cpg/sg11_27_cif.got.tgz:52294.got - 2010.06.03 12:22:45.
