data_PCOD9158761
_publ_section_title
;
Structure prediction by ZEFSAII (Michael W. Deem and Ramdas Pophale) SiO2 
 PCOD9158761
Probable space group: P 21/M
;
_chemical_formula_sum "Si O2"
_cell_formula_units_Z 22
_cell_length_a 18.425652
_cell_length_b 7.298640
_cell_length_c 16.943867
_cell_angle_alpha 90.000000
_cell_angle_beta 24.471797
_cell_angle_gamma 90.000000
_cell_volume 943.919390
_symmetry_space_group_name_H-M "P 21/M"
_symmetry_group_IT_number 11
_symmetry_cell_setting 'monoclinic'
loop_
_space_group_symop_operation_xyz
x,y,z
-x,1/2+y,-z
-x,-y,-z
x,1/2-y,z
loop_
_atom_site_type_symbol
_atom_site_label
_atom_site_fract_x
_atom_site_fract_y
_atom_site_fract_z
Si Si1 0.733389 0.026333 0.552848
Si Si2 0.662443 0.527040 0.033014
Si Si3 0.500000 0.500000 0.500000
Si Si4 0.225195 0.027795 0.903831
Si Si5 0.032224 0.468226 0.376418
Si Si6 0.834083 0.473204 0.274850
O O1 0.733687 0.250000 0.552452
O O2 0.784967 0.974233 0.412870
O O3 0.875457 0.963661 0.475880
O O4 0.537997 0.966087 0.767867
O O5 0.657403 0.750000 0.037223
O O6 0.783194 0.464782 0.841332
O O7 0.752512 0.475730 0.026801
O O8 0.608280 0.465450 0.310694
O O9 0.688746 0.537724 0.357568
O O10 0.231379 0.250000 0.894652
O O11 0.034466 0.969899 0.061912
O O12 0.034351 0.250000 0.363586
O O13 0.000000 0.500000 0.500000
O O14 0.824040 0.250000 0.280382
#
# Coordination Sequence:
#
# PCOD9158761 Si02
#       6
#     4   4   2   4   4   4
#     4   9  16  30  53  78 100 131 172 218 266 317
#     4   9  16  30  53  78 100 131 172 218 266 317
#     4  12  20  28  48  80 106 128 166 220 278 308
#     4  10  19  32  50  74 103 135 178 225 266 313
#     4  10  20  34  56  83 110 136 178 225 272 324
#     4  10  19  32  50  74 103 135 178 225 266 313
#
# _framework density 23.307075000000001
#
# number of rings (size 3 to 8) (size 9 to 14) (size 15 to 20)
#    0.000    2.182    3.636    1.091    0.000    0.727 
#    0.000    0.000    0.000    4.364    0.000    0.000 
#    0.000    0.000    0.000    0.000    0.000    0.000 
#
# Total GULP energy -122535.442687 kJ/mol
# GULP energy per Si atom -5569.792849 kJ/mol
# Density = 2.325403 g / cm^3
# Si number density = 23.307075 Si / 1000 Ang^3
#
#
#
# Elastic Constant Matrix: (Units=GPa)
#
#
# Indices 1 2 3 4 5 6 
#
# 1 77.5585 -4.3109 29.0604 0.0000 12.6838 0.0000
# 2 -4.3109 93.4135 2.6812 0.0000 -3.3342 0.0000
# 3 29.0604 2.6812 198.6913 0.0000 4.4031 0.0000
# 4 0.0000 0.0000 0.0000 -3.2684 0.0000 21.7986
# 5 12.6838 -3.3342 4.4031 0.0000 50.4816 0.0000
# 6 0.0000 0.0000 0.0000 21.7986 0.0000 18.6787
#
#
#
# Elastic Compliance Matrix: (Units=1/GPa)
#
#
# Indices 1 2 3 4 5 6 
#
# 1 0.014231 0.000595 -0.002015 0.000000 -0.003361 0.000000
# 2 0.000595 0.010760 -0.000245 0.000000 0.000583 0.000000
# 3 -0.002015 -0.000245 0.005330 0.000000 0.000025 0.000000
# 4 0.000000 0.000000 0.000000 -0.034834 0.000000 0.040652
# 5 -0.003361 0.000583 0.000025 0.000000 0.020690 0.000000
# 6 0.000000 0.000000 0.000000 0.040652 0.000000 0.006095
#
#
# Mechanical properties :
#
#
# Convention : Reuss Voigt Hill
#
# Bulk Modulus (GPa) = 37.04939 47.16942 42.10940
# Shear Modulus (GPa) = 144.50332 35.99388 90.24860
#
# Velocity S-wave (km/s) = 7.88254 3.93406 6.22941
# Velocity P-wave (km/s) = 9.93864 6.39672 8.35747
#
# Compressibility (1/GPa) = 0.02699100
#
# Stress axis : x y z
#
# Youngs Moduli (GPa) = 70.26846 92.93370 187.60352
#
# Poissons Ratio (x) = -0.05526 0.37802
# Poissons Ratio (y) = -0.04178 0.04598
# Poissons Ratio (z) = 0.14159 0.02278
#
# Static dielectric constant tensor:
#      x y z
#    x 1.811070 0.000000 -0.008910 
#    y 0.000000 1.975400 0.000000 
#    z -0.008910 0.000000 1.850050 
# 
# From -- ./inp_files/52080.got.cif
#   From: 2010.05.17/outbox.cif.g08.bks.cpg/sg11_27_cif.got.tgz:52080.got - 2010.06.03 12:22:45.
