data_PCOD9158332
_publ_section_title
;
Structure prediction by ZEFSAII (Michael W. Deem and Ramdas Pophale) SiO2 
 PCOD9158332
Probable space group: P 21/M
;
_chemical_formula_sum "Si O2"
_cell_formula_units_Z 32
_cell_length_a 16.148726
_cell_length_b 8.712149
_cell_length_c 21.711186
_cell_angle_alpha 90.000000
_cell_angle_beta 42.056693
_cell_angle_gamma 90.000000
_cell_volume 2046.137370
_symmetry_space_group_name_H-M "P 21/M"
_symmetry_group_IT_number 11
_symmetry_cell_setting 'monoclinic'
loop_
_space_group_symop_operation_xyz
x,y,z
-x,1/2+y,-z
-x,-y,-z
x,1/2-y,z
loop_
_atom_site_type_symbol
_atom_site_label
_atom_site_fract_x
_atom_site_fract_y
_atom_site_fract_z
Si Si1 0.915043 0.935826 0.902585
Si Si2 0.200851 0.432809 0.393746
Si Si3 0.449584 0.567603 0.212483
Si Si4 0.898041 0.065511 0.102965
Si Si5 0.709757 0.434495 0.109599
Si Si6 0.597328 0.934216 0.897503
Si Si7 0.123232 0.434940 0.217391
Si Si8 0.014549 0.567019 0.396274
O O1 0.901619 0.750000 0.913077
O O2 0.903003 0.981607 0.838293
O O3 0.047138 0.978057 0.860727
O O4 0.806382 0.008350 0.004068
O O5 0.218582 0.250000 0.380402
O O6 0.331918 0.514842 0.317305
O O7 0.118493 0.486078 0.380993
O O8 0.117104 0.469309 0.499573
O O9 0.453490 0.750000 0.205609
O O10 0.577086 0.505805 0.169856
O O11 0.430572 0.498226 0.154771
O O12 0.900487 0.250000 0.099082
O O13 0.768468 0.018983 0.143607
O O14 0.000000 0.000000 0.000000
O O15 0.701918 0.250000 0.111090
O O16 0.589091 0.750000 0.900928
O O17 0.736314 0.976379 0.841476
O O18 0.500000 0.000000 0.000000
O O19 0.112776 0.250000 0.227100
O O20 0.032946 0.510106 0.317010
O O21 0.032438 0.750000 0.390399
#
# Coordination Sequence:
#
# PCOD9158332 Si02
#       8
#     4   4   4   4   4   4   4   4
#     4   9  17  31  49  72 100 130 164 199 236 287
#     4  10  20  35  52  71  94 121 157 202 246 289
#     4  12  23  34  49  70  95 129 166 202 242 286
#     4   8  15  28  47  69  95 125 159 199 243 284
#     4  10  19  31  48  71  98 130 164 203 245 286
#     4  11  22  34  47  67  98 135 167 197 231 278
#     4  10  20  32  48  69  97 130 162 195 236 281
#     4  10  20  33  52  73  94 122 157 198 244 290
#
# _framework density 15.639225
#
# number of rings (size 3 to 8) (size 9 to 14) (size 15 to 20)
#    0.000    2.000    1.250    3.375    0.000    4.000 
#    0.000    0.000    0.000    0.000    0.000    0.875 
#    0.000    0.000    0.000    0.000    0.000    0.000 
#
# Total GULP energy -178474.756983 kJ/mol
# GULP energy per Si atom -5577.336156 kJ/mol
# Density = 1.560363 g / cm^3
# Si number density = 15.639225 Si / 1000 Ang^3
#
#
#
# Elastic Constant Matrix: (Units=GPa)
#
#
# Indices 1 2 3 4 5 6 
#
# 1 146.4304 42.4572 66.4800 0.0000 -12.4983 0.0000
# 2 42.4572 44.5308 36.0845 0.0000 -3.1832 0.0000
# 3 66.4800 36.0845 97.3671 0.0000 -3.4161 0.0000
# 4 0.0000 0.0000 0.0000 26.8978 0.0000 -0.2646
# 5 -12.4983 -3.1832 -3.4161 0.0000 8.2870 0.0000
# 6 0.0000 0.0000 0.0000 -0.2646 0.0000 12.8830
#
#
#
# Elastic Compliance Matrix: (Units=1/GPa)
#
#
# Indices 1 2 3 4 5 6 
#
# 1 0.012402 -0.006233 -0.005668 0.000000 0.013974 0.000000
# 2 -0.006233 0.035698 -0.008952 0.000000 0.000621 0.000000
# 3 -0.005668 -0.008952 0.017287 0.000000 -0.004860 0.000000
# 4 0.000000 0.000000 0.000000 0.037185 0.000000 0.000764
# 5 0.013974 0.000621 -0.004860 0.000000 0.139981 0.000000
# 6 0.000000 0.000000 0.000000 0.000764 0.000000 0.077638
#
#
# Mechanical properties :
#
#
# Convention : Reuss Voigt Hill
#
# Bulk Modulus (GPa) = 42.22691 64.26351 53.24521
# Shear Modulus (GPa) = 13.52116 19.16734 16.34425
#
# Velocity S-wave (km/s) = 2.94354 3.50465 3.23628
# Velocity P-wave (km/s) = 6.21384 7.58664 6.93430
#
# Compressibility (1/GPa) = 0.02368158
#
# Stress axis : x y z
#
# Youngs Moduli (GPa) = 80.62940 28.01296 57.84598
#
# Poissons Ratio (x) = 0.17461 0.32786
# Poissons Ratio (y) = 0.50259 0.51783
# Poissons Ratio (z) = 0.45699 0.25077
#
# Static dielectric constant tensor:
#      x y z
#    x 1.537390 0.000000 -0.000770 
#    y 0.000000 1.522570 0.000000 
#    z -0.000770 0.000000 1.501200 
# 
# From -- ./inp_files/51302.got.cif
#   From: 2010.05.17/outbox.cif.g08.bks.cpg/sg11_26_cif.got.tgz:51302.got - 2010.06.03 12:22:45.
