data_PCOD9158404
_publ_section_title
;
Structure prediction by ZEFSAII (Michael W. Deem and Ramdas Pophale) SiO2 
 PCOD9158404
Probable space group: P 21/M
;
_chemical_formula_sum "Si O2"
_cell_formula_units_Z 28
_cell_length_a 13.909354
_cell_length_b 7.519276
_cell_length_c 15.892398
_cell_angle_alpha 90.000000
_cell_angle_beta 128.961502
_cell_angle_gamma 90.000000
_cell_volume 1292.442273
_symmetry_space_group_name_H-M "P 21/M"
_symmetry_group_IT_number 11
_symmetry_cell_setting 'monoclinic'
loop_
_space_group_symop_operation_xyz
x,y,z
-x,1/2+y,-z
-x,-y,-z
x,1/2-y,z
loop_
_atom_site_type_symbol
_atom_site_label
_atom_site_fract_x
_atom_site_fract_y
_atom_site_fract_z
Si Si1 0.783374 0.048610 0.041216
Si Si2 0.531946 0.543038 0.381019
Si Si3 0.308994 0.466215 0.375975
Si Si4 0.929923 0.038752 0.374907
Si Si5 0.533498 0.030466 0.836059
Si Si6 0.321308 0.044918 0.839278
Si Si7 0.967735 0.967752 0.748926
O O1 0.802778 0.250000 0.021592
O O2 0.918329 0.967839 0.130863
O O3 0.724439 0.053110 0.102655
O O4 0.674322 0.968618 0.925311
O O5 0.564973 0.750000 0.389649
O O6 0.397357 0.529305 0.349963
O O7 0.627570 0.469365 0.502118
O O8 0.523875 0.468239 0.283305
O O9 0.313250 0.250000 0.377704
O O10 0.167206 0.522798 0.295356
O O11 0.917110 0.250000 0.361330
O O12 0.004571 0.978286 0.332458
O O13 0.791807 0.962745 0.289601
O O14 0.000000 0.000000 0.500000
O O15 0.535007 0.250000 0.837401
O O16 0.445066 0.976043 0.863849
O O17 0.339767 0.250000 0.873419
O O18 0.970725 0.750000 0.751459
#
# Coordination Sequence:
#
# PCOD9158404 Si02
#       7
#     4   4   4   4   4   4   4
#     4   9  17  33  51  71  99 130 171 206 240 295
#     4   9  18  32  50  71  94 122 162 206 248 296
#     4   9  17  32  52  70  92 123 160 200 249 302
#     4  10  20  33  49  73 103 134 167 204 243 290
#     4   9  18  31  51  73  96 133 170 204 246 298
#     4  10  19  31  49  73 101 134 168 201 247 294
#     4   8  16  30  51  70  91 129 162 193 242 299
#
# _framework density 21.66441
#
# number of rings (size 3 to 8) (size 9 to 14) (size 15 to 20)
#    0.000    2.857    0.000    2.143    2.000    0.000 
#    0.000    7.143    0.000    0.000    0.000    0.000 
#    0.000    0.000    0.000    0.000    0.000    0.000 
#
# Total GULP energy -156238.696467 kJ/mol
# GULP energy per Si atom -5579.953445 kJ/mol
# Density = 2.161510 g / cm^3
# Si number density = 21.664410 Si / 1000 Ang^3
#
#
#
# Elastic Constant Matrix: (Units=GPa)
#
#
# Indices 1 2 3 4 5 6 
#
# 1 54.7186 -9.0235 0.9141 0.0000 27.0275 0.0000
# 2 -9.0235 63.3136 -7.1347 0.0000 -1.7855 0.0000
# 3 0.9141 -7.1347 32.2081 0.0000 7.2007 0.0000
# 4 0.0000 0.0000 0.0000 5.1161 0.0000 1.4808
# 5 27.0275 -1.7855 7.2007 0.0000 28.5327 0.0000
# 6 0.0000 0.0000 0.0000 1.4808 0.0000 15.4866
#
#
#
# Elastic Compliance Matrix: (Units=1/GPa)
#
#
# Indices 1 2 3 4 5 6 
#
# 1 0.037366 0.005225 0.008412 0.000000 -0.037191 0.000000
# 2 0.005225 0.016930 0.004739 0.000000 -0.005086 0.000000
# 3 0.008412 0.004739 0.035582 0.000000 -0.016651 0.000000
# 4 0.000000 0.000000 0.000000 0.201024 0.000000 -0.019221
# 5 -0.037191 -0.005086 -0.016651 0.000000 0.074160 0.000000
# 6 0.000000 0.000000 0.000000 -0.019221 0.000000 0.066410
#
#
# Mechanical properties :
#
#
# Convention : Reuss Voigt Hill
#
# Bulk Modulus (GPa) = 7.89715 13.30578 10.60146
# Shear Modulus (GPa) = 11.44345 20.85939 16.15142
#
# Velocity S-wave (km/s) = 2.30078 3.10633 2.73340
# Velocity P-wave (km/s) = 3.27281 4.36129 3.85565
#
# Compressibility (1/GPa) = 0.12662800
#
# Stress axis : x y z
#
# Youngs Moduli (GPa) = 26.76205 59.06810 28.10426
#
# Poissons Ratio (x) = -0.30861 -0.23640
# Poissons Ratio (y) = -0.13982 -0.13318
# Poissons Ratio (z) = -0.22511 -0.27992
#
# Static dielectric constant tensor:
#      x y z
#    x 1.750310 0.000000 0.024000 
#    y 0.000000 1.827020 0.000000 
#    z 0.024000 0.000000 1.804970 
# 
# From -- ./inp_files/49499.got.cif
#   From: 2010.05.17/outbox.cif.g08.bks.cpg/sg11_25_cif.got.tgz:49499.got - 2010.06.03 12:22:45.
