data_PCOD9158783
_publ_section_title
;
Structure prediction by ZEFSAII (Michael W. Deem and Ramdas Pophale) SiO2 
 PCOD9158783
Probable space group: P 21/M
;
_chemical_formula_sum "Si O2"
_cell_formula_units_Z 20
_cell_length_a 5.502122
_cell_length_b 12.933581
_cell_length_c 15.955390
_cell_angle_alpha 90.000000
_cell_angle_beta 121.249582
_cell_angle_gamma 90.000000
_cell_volume 970.688082
_symmetry_space_group_name_H-M "P 21/M"
_symmetry_group_IT_number 11
_symmetry_cell_setting 'monoclinic'
loop_
_space_group_symop_operation_xyz
x,y,z
-x,1/2+y,-z
-x,-y,-z
x,1/2-y,z
loop_
_atom_site_type_symbol
_atom_site_label
_atom_site_fract_x
_atom_site_fract_y
_atom_site_fract_z
Si Si1 0.272919 0.473815 0.387983
Si Si2 0.260638 0.635935 0.008422
Si Si3 0.677040 0.056206 0.324280
Si Si4 0.872161 0.250000 0.472839
Si Si5 0.646044 0.750000 0.538829
Si Si6 0.592451 0.583487 0.897401
O O1 0.500000 0.500000 0.500000
O O2 0.418454 0.500325 0.326048
O O3 0.249293 0.349172 0.390768
O O4 0.958014 0.511137 0.354767
O O5 0.331776 0.750000 0.053380
O O6 0.406450 0.624632 0.942416
O O7 0.916407 0.624499 0.947995
O O8 0.379121 0.540010 0.082742
O O9 0.771932 0.147692 0.404687
O O10 0.566287 0.102571 0.217928
O O11 0.692925 0.250000 0.524841
O O12 0.208047 0.250000 0.525180
#
# Coordination Sequence:
#
# PCOD9158783 Si02
#       6
#     4   4   4   2   2   4
#     4  10  19  33  53  72 103 137 166 213 260 306
#     4  10  21  36  56  80 111 146 178 222 274 324
#     4  10  19  32  50  78 103 131 174 211 263 310
#     4   8  16  26  44  70  96 121 150 213 254 288
#     4   8  16  30  44  68  94 119 160 203 252 294
#     4  10  21  36  54  82 112 142 182 225 266 329
#
# _framework density 20.603940999999999
#
# number of rings (size 3 to 8) (size 9 to 14) (size 15 to 20)
#    0.000    2.400    0.000    2.400    2.800    0.000 
#    3.600    0.000    4.400    0.000    0.000    0.000 
#    0.000    0.000    0.000    0.000    0.000    0.000 
#
# Total GULP energy -111385.956941 kJ/mol
# GULP energy per Si atom -5569.297847 kJ/mol
# Density = 2.055705 g / cm^3
# Si number density = 20.603941 Si / 1000 Ang^3
#
#
#
# Elastic Constant Matrix: (Units=GPa)
#
#
# Indices 1 2 3 4 5 6 
#
# 1 197.2264 8.6773 -4.9153 0.0000 8.4992 0.0000
# 2 8.6773 81.3920 2.3147 0.0000 1.3665 0.0000
# 3 -4.9153 2.3147 17.0715 0.0000 -0.1194 0.0000
# 4 0.0000 0.0000 0.0000 0.0668 0.0000 1.6805
# 5 8.4992 1.3665 -0.1194 0.0000 22.4089 0.0000
# 6 0.0000 0.0000 0.0000 1.6805 0.0000 1.2172
#
#
#
# Elastic Compliance Matrix: (Units=1/GPa)
#
#
# Indices 1 2 3 4 5 6 
#
# 1 0.005218 -0.000568 0.001566 0.000000 -0.001936 0.000000
# 2 -0.000568 0.012409 -0.001850 0.000000 -0.000551 0.000000
# 3 0.001566 -0.001850 0.059278 0.000000 -0.000165 0.000000
# 4 0.000000 0.000000 0.000000 -0.443772 0.000000 0.612700
# 5 -0.001936 -0.000551 -0.000165 0.000000 0.045392 0.000000
# 6 0.000000 0.000000 0.000000 0.612700 0.000000 -0.024363
#
#
# Mechanical properties :
#
#
# Convention : Reuss Voigt Hill
#
# Bulk Modulus (GPa) = 13.29801 34.20481 23.75141
# Shear Modulus (GPa) = -15.67066 24.04613 4.18774
#
# Velocity S-wave (km/s) = -2.76083 3.41994 1.42720
# Velocity P-wave (km/s) = 1.92218 5.67730 3.77737
#
# Compressibility (1/GPa) = 0.07519923
#
# Stress axis : x y z
#
# Youngs Moduli (GPa) = 191.65265 80.58886 16.86976
#
# Poissons Ratio (x) = 0.04580 -0.02642
# Poissons Ratio (y) = 0.10892 0.03121
# Poissons Ratio (z) = -0.30010 0.14909
#
# Static dielectric constant tensor:
#      x y z
#    x 1.886030 0.000000 0.022920 
#    y 0.000000 1.775310 0.000000 
#    z 0.022920 0.000000 1.677300 
# 
# From -- ./inp_files/6237.got.cif
#   From: 2010.05.17/outbox.cif.g08.bks.cpg/sg11_4_cif.got.tgz:6237.got - 2010.06.03 12:22:45.
