data_PCOD9158560
_publ_section_title
;
Structure prediction by ZEFSAII (Michael W. Deem and Ramdas Pophale) SiO2 
 PCOD9158560
Probable space group: P 21/M
;
_chemical_formula_sum "Si O2"
_cell_formula_units_Z 32
_cell_length_a 12.152737
_cell_length_b 8.714350
_cell_length_c 17.891304
_cell_angle_alpha 90.000000
_cell_angle_beta 46.236336
_cell_angle_gamma 90.000000
_cell_volume 1368.384017
_symmetry_space_group_name_H-M "P 21/M"
_symmetry_group_IT_number 11
_symmetry_cell_setting 'monoclinic'
loop_
_space_group_symop_operation_xyz
x,y,z
-x,1/2+y,-z
-x,-y,-z
x,1/2-y,z
loop_
_atom_site_type_symbol
_atom_site_label
_atom_site_fract_x
_atom_site_fract_y
_atom_site_fract_z
Si Si1 0.552363 0.076749 0.197619
Si Si2 0.789691 0.566197 0.595205
Si Si3 0.357832 0.930504 0.466595
Si Si4 0.999652 0.567111 0.191524
Si Si5 0.318814 0.929884 0.663282
Si Si6 0.138435 0.431494 0.982548
Si Si7 0.409118 0.076410 0.108299
Si Si8 0.899367 0.069376 0.694202
O O1 0.575111 0.250000 0.216108
O O2 0.385729 0.020590 0.301700
O O3 0.524501 0.088793 0.122387
O O4 0.704307 0.979128 0.131551
O O5 0.801838 0.750000 0.591561
O O6 0.781583 0.506908 0.513779
O O7 0.895731 0.501076 0.611692
O O8 0.364218 0.750000 0.445504
O O9 0.334022 0.947718 0.566428
O O10 0.523408 0.009017 0.376068
O O11 0.020234 0.750000 0.181807
O O12 0.830707 0.522493 0.243911
O O13 0.117724 0.494797 0.077115
O O14 0.013030 0.512957 0.272009
O O15 0.298037 0.750000 0.687889
O O16 0.126853 0.250000 0.990708
O O17 0.000000 0.500000 0.000000
O O18 0.352151 0.250000 0.119095
O O19 0.271789 0.967866 0.197636
O O20 0.500000 0.000000 0.000000
O O21 0.928689 0.250000 0.671774
#
# Coordination Sequence:
#
# PCOD9158560 Si02
#       8
#     4   4   4   4   4   4   4   4
#     4   9  20  37  53  77 113 150 192 240 288 341
#     4  10  21  37  62  91 123 160 201 252 302 352
#     4  10  21  39  64  93 125 156 197 248 300 360
#     4  11  24  42  63  87 121 161 201 249 303 361
#     4  10  22  40  64  93 122 158 200 247 301 359
#     4  12  26  41  59  83 116 158 203 249 298 359
#     4  10  19  31  51  77 107 145 190 240 290 341
#     4  10  21  37  57  84 118 156 199 246 299 358
#
# _framework density 23.385249999999999
#
# number of rings (size 3 to 8) (size 9 to 14) (size 15 to 20)
#    0.000    1.750    0.000    4.875    1.750    9.500 
#    0.000    0.625    0.000    0.000    0.000    0.000 
#    0.000    0.000    0.000    0.000    0.000    0.000 
#
# Total GULP energy -178837.995871 kJ/mol
# GULP energy per Si atom -5588.687371 kJ/mol
# Density = 2.333202 g / cm^3
# Si number density = 23.385250 Si / 1000 Ang^3
#
#
#
# Elastic Constant Matrix: (Units=GPa)
#
#
# Indices 1 2 3 4 5 6 
#
# 1 167.0253 32.7121 23.4870 0.0000 10.8792 0.0000
# 2 32.7121 61.3844 1.2675 0.0000 -5.5741 0.0000
# 3 23.4870 1.2675 53.0503 0.0000 6.4003 0.0000
# 4 0.0000 0.0000 0.0000 22.4422 0.0000 5.2845
# 5 10.8792 -5.5741 6.4003 0.0000 46.6650 0.0000
# 6 0.0000 0.0000 0.0000 5.2845 0.0000 33.3754
#
#
#
# Elastic Compliance Matrix: (Units=1/GPa)
#
#
# Indices 1 2 3 4 5 6 
#
# 1 0.007295 -0.003988 -0.002920 0.000000 -0.001777 0.000000
# 2 -0.003988 0.018672 0.000954 0.000000 0.003029 0.000000
# 3 -0.002920 0.000954 0.020361 0.000000 -0.001998 0.000000
# 4 0.000000 0.000000 0.000000 0.046285 0.000000 -0.007328
# 5 -0.001777 0.003029 -0.001998 0.000000 0.022479 0.000000
# 6 0.000000 0.000000 0.000000 -0.007328 0.000000 0.031123
#
#
# Mechanical properties :
#
#
# Convention : Reuss Voigt Hill
#
# Bulk Modulus (GPa) = 29.05373 44.04371 36.54872
# Shear Modulus (GPa) = 29.48206 35.42941 32.45574
#
# Velocity S-wave (km/s) = 3.55450 3.89656 3.72946
# Velocity P-wave (km/s) = 5.41266 6.25453 5.84876
#
# Compressibility (1/GPa) = 0.03441899
#
# Stress axis : x y z
#
# Youngs Moduli (GPa) = 137.08869 53.55741 49.11354
#
# Poissons Ratio (x) = 0.21360 0.14341
# Poissons Ratio (y) = 0.54676 -0.04686
# Poissons Ratio (z) = 0.40028 -0.05110
#
# Static dielectric constant tensor:
#      x y z
#    x 1.906800 0.000000 0.042320 
#    y 0.000000 1.814750 0.000000 
#    z 0.042320 0.000000 1.926080 
# 
# From -- ./inp_files/64339.got.cif
#   From: 2010.05.17/outbox.cif.g08.bks.cpg/sg11_33_cif.got.tgz:64339.got - 2010.06.03 12:22:45.
