data_PCOD9158393
_publ_section_title
;
Structure prediction by ZEFSAII (Michael W. Deem and Ramdas Pophale) SiO2 
 PCOD9158393
Probable space group: P 21/M
;
_chemical_formula_sum "Si O2"
_cell_formula_units_Z 28
_cell_length_a 28.522501
_cell_length_b 8.785000
_cell_length_c 22.007098
_cell_angle_alpha 90.000000
_cell_angle_beta 163.016038
_cell_angle_gamma 90.000000
_cell_volume 1610.755652
_symmetry_space_group_name_H-M "P 21/M"
_symmetry_group_IT_number 11
_symmetry_cell_setting 'monoclinic'
loop_
_space_group_symop_operation_xyz
x,y,z
-x,1/2+y,-z
-x,-y,-z
x,1/2-y,z
loop_
_atom_site_type_symbol
_atom_site_label
_atom_site_fract_x
_atom_site_fract_y
_atom_site_fract_z
Si Si1 0.061554 0.932380 0.639304
Si Si2 0.516968 0.430227 0.121202
Si Si3 0.738002 0.568061 0.296541
Si Si4 0.506058 0.066005 0.650272
Si Si5 0.413645 0.933371 0.113850
Si Si6 0.338553 0.433056 0.269518
Si Si7 0.842008 0.566712 0.836827
O O1 0.069769 0.750000 0.642288
O O2 0.923466 0.965422 0.516782
O O3 0.234163 0.988003 0.874948
O O4 0.000000 0.000000 0.500000
O O5 0.512176 0.250000 0.123122
O O6 0.662479 0.480880 0.259057
O O7 0.519766 0.509074 0.189648
O O8 0.360492 0.475592 0.886773
O O9 0.714999 0.750000 0.275792
O O10 0.516132 0.250000 0.658369
O O11 0.533275 0.018003 0.753442
O O12 0.325394 0.023561 0.404642
O O13 0.642319 0.997056 0.774779
O O14 0.413539 0.750000 0.113678
O O15 0.500000 0.500000 0.500000
O O16 0.346184 0.250000 0.278051
O O17 0.193780 0.475848 0.136464
O O18 0.854718 0.750000 0.850202
O O19 0.000000 0.500000 0.000000
#
# Coordination Sequence:
#
# PCOD9158393 Si02
#       7
#     4   4   4   4   4   4   4
#     4  10  19  32  51  74  97 126 166 212 256 300
#     4  10  19  31  49  72  97 129 167 208 253 301
#     4   9  18  32  48  69  97 126 163 210 255 302
#     4   9  19  35  52  75 104 135 170 206 248 304
#     4  10  20  34  53  74 101 135 168 207 259 307
#     4   9  17  31  52  77 103 133 167 205 244 292
#     4   9  18  32  52  78 105 131 165 204 242 289
#
# _framework density 17.383144999999999
#
# number of rings (size 3 to 8) (size 9 to 14) (size 15 to 20)
#    0.000    2.571    1.429    1.714    0.000    4.571 
#    0.000    1.429    0.000    6.857    0.000    0.000 
#    0.000    0.000    0.000    0.000    0.000    0.000 
#
# Total GULP energy -155970.603248 kJ/mol
# GULP energy per Si atom -5570.378687 kJ/mol
# Density = 1.734358 g / cm^3
# Si number density = 17.383145 Si / 1000 Ang^3
#
#
#
# Elastic Constant Matrix: (Units=GPa)
#
#
# Indices 1 2 3 4 5 6 
#
# 1 163.3260 33.2225 53.1849 0.0000 -2.9175 0.0000
# 2 33.2225 12.6297 16.8763 0.0000 1.5242 0.0000
# 3 53.1849 16.8763 57.7225 0.0000 5.0124 0.0000
# 4 0.0000 0.0000 0.0000 18.2804 0.0000 3.4342
# 5 -2.9175 1.5242 5.0124 0.0000 28.2229 0.0000
# 6 0.0000 0.0000 0.0000 3.4342 0.0000 32.7175
#
#
#
# Elastic Compliance Matrix: (Units=1/GPa)
#
#
# Indices 1 2 3 4 5 6 
#
# 1 0.013963 -0.032095 -0.003816 0.000000 0.003854 0.000000
# 2 -0.032095 0.203721 -0.029197 0.000000 -0.009134 0.000000
# 3 -0.003816 -0.029197 0.029733 0.000000 -0.004098 0.000000
# 4 0.000000 0.000000 0.000000 0.055804 0.000000 -0.005857
# 5 0.003854 -0.009134 -0.004098 0.000000 0.037052 0.000000
# 6 0.000000 0.000000 0.000000 -0.005857 0.000000 0.031180
#
#
# Mechanical properties :
#
#
# Convention : Reuss Voigt Hill
#
# Bulk Modulus (GPa) = 8.53240 48.91617 28.72428
# Shear Modulus (GPa) = 9.24670 24.53713 16.89191
#
# Velocity S-wave (km/s) = 2.30887 3.76113 3.12066
# Velocity P-wave (km/s) = 3.46799 6.86022 5.43551
#
# Compressibility (1/GPa) = 0.11720035
#
# Stress axis : x y z
#
# Youngs Moduli (GPa) = 71.61893 4.90869 33.63304
#
# Poissons Ratio (x) = 0.15754 0.12835
# Poissons Ratio (y) = 2.29860 0.98197
# Poissons Ratio (z) = 0.27332 0.14332
#
# Static dielectric constant tensor:
#      x y z
#    x 1.611820 0.000000 -0.000300 
#    y 0.000000 1.584470 0.000000 
#    z -0.000300 0.000000 1.597540 
# 
# From -- ./inp_files/66905.got.cif
#   From: 2010.05.17/outbox.cif.g08.bks.cpg/sg11_34_cif.got.tgz:66905.got - 2010.06.03 12:22:45.
