data_PCOD9158547
_publ_section_title
;
Structure prediction by ZEFSAII (Michael W. Deem and Ramdas Pophale) SiO2 
 PCOD9158547
Probable space group: P 21/M
;
_chemical_formula_sum "Si O2"
_cell_formula_units_Z 32
_cell_length_a 22.327941
_cell_length_b 8.436436
_cell_length_c 12.604762
_cell_angle_alpha 90.000000
_cell_angle_beta 47.150347
_cell_angle_gamma 90.000000
_cell_volume 1740.723206
_symmetry_space_group_name_H-M "P 21/M"
_symmetry_group_IT_number 11
_symmetry_cell_setting 'monoclinic'
loop_
_space_group_symop_operation_xyz
x,y,z
-x,1/2+y,-z
-x,-y,-z
x,1/2-y,z
loop_
_atom_site_type_symbol
_atom_site_label
_atom_site_fract_x
_atom_site_fract_y
_atom_site_fract_z
Si Si1 0.518466 0.932748 0.781200
Si Si2 0.553807 0.934988 0.340244
Si Si3 0.357430 0.438742 0.055051
Si Si4 0.220974 0.560005 0.060358
Si Si5 0.698854 0.557837 0.490912
Si Si6 0.908214 0.061006 0.612524
Si Si7 0.718526 0.061202 0.231344
Si Si8 0.775193 0.558996 0.614904
O O1 0.530069 0.750000 0.796538
O O2 0.608921 0.996104 0.642088
O O3 0.469526 0.956924 0.730560
O O4 0.451215 0.004986 0.941578
O O5 0.538531 0.750000 0.333906
O O6 0.500000 0.000000 0.500000
O O7 0.643949 0.961283 0.274079
O O8 0.359435 0.250000 0.050743
O O9 0.302074 0.492255 0.020836
O O10 0.304156 0.492504 0.220539
O O11 0.227152 0.750000 0.064930
O O12 0.144060 0.503108 0.222330
O O13 0.214810 0.529632 0.941579
O O14 0.694329 0.750000 0.485481
O O15 0.725299 0.487969 0.345785
O O16 0.761178 0.516315 0.509832
O O17 0.910271 0.250000 0.613929
O O18 0.854941 0.008432 0.575434
O O19 0.000000 0.000000 0.500000
O O20 0.700780 0.250000 0.249784
O O21 0.778260 0.750000 0.617765
#
# Coordination Sequence:
#
# PCOD9158547 Si02
#       8
#     4   4   4   4   4   4   4   4
#     4  11  21  32  47  70 103 144 189 233 277 319
#     4  12  22  32  47  70 100 139 187 238 280 314
#     4  10  19  31  51  75 102 138 185 234 276 317
#     4   9  19  34  53  79 111 139 170 216 273 320
#     4  10  22  37  52  71 105 150 190 227 270 317
#     4  10  20  37  63  92 114 136 164 208 266 327
#     4  11  21  33  52  76 105 142 183 226 269 316
#     4   9  20  39  57  78 108 143 180 222 270 323
#
# _framework density 18.383164000000001
#
# number of rings (size 3 to 8) (size 9 to 14) (size 15 to 20)
#    0.000    1.750    2.500    2.625    0.000    3.000 
#    0.000    0.000    0.000    0.750    0.000    0.000 
#    0.000    0.000    0.000    0.000    0.000    0.000 
#
# Total GULP energy -178377.294529 kJ/mol
# GULP energy per Si atom -5574.290454 kJ/mol
# Density = 1.834132 g / cm^3
# Si number density = 18.383164 Si / 1000 Ang^3
#
#
#
# Elastic Constant Matrix: (Units=GPa)
#
#
# Indices 1 2 3 4 5 6 
#
# 1 91.9527 15.5920 71.3824 0.0000 8.3090 0.0000
# 2 15.5920 28.2240 20.4902 0.0000 -1.5967 0.0000
# 3 71.3824 20.4902 104.1015 0.0000 -1.3551 0.0000
# 4 0.0000 0.0000 0.0000 25.4340 0.0000 -0.1867
# 5 8.3090 -1.5967 -1.3551 0.0000 23.5538 0.0000
# 6 0.0000 0.0000 0.0000 -0.1867 0.0000 19.3570
#
#
#
# Elastic Compliance Matrix: (Units=1/GPa)
#
#
# Indices 1 2 3 4 5 6 
#
# 1 0.025508 -0.002183 -0.017193 0.000000 -0.010136 0.000000
# 2 -0.002183 0.041653 -0.006660 0.000000 0.003211 0.000000
# 3 -0.017193 -0.006660 0.022796 0.000000 0.006925 0.000000
# 4 0.000000 0.000000 0.000000 0.039320 0.000000 0.000379
# 5 -0.010136 0.003211 0.006925 0.000000 0.046647 0.000000
# 6 0.000000 0.000000 0.000000 0.000379 0.000000 0.051665
#
#
# Mechanical properties :
#
#
# Convention : Reuss Voigt Hill
#
# Bulk Modulus (GPa) = 26.39519 48.80082 37.59801
# Shear Modulus (GPa) = 17.10623 21.45653 19.28138
#
# Velocity S-wave (km/s) = 3.05378 3.42011 3.24213
# Velocity P-wave (km/s) = 5.17915 6.49618 5.87469
#
# Compressibility (1/GPa) = 0.03788569
#
# Stress axis : x y z
#
# Youngs Moduli (GPa) = 39.20309 24.00763 43.86657
#
# Poissons Ratio (x) = 0.05241 0.75421
# Poissons Ratio (y) = 0.08558 0.29215
# Poissons Ratio (z) = 0.67403 0.15989
#
# Static dielectric constant tensor:
#      x y z
#    x 1.610130 0.000000 0.025510 
#    y 0.000000 1.648970 0.000000 
#    z 0.025510 0.000000 1.686380 
# 
# From -- ./inp_files/42788.got.cif
#   From: 2010.05.17/outbox.cif.g08.bks.cpg/sg11_22_cif.got.tgz:42788.got - 2010.06.03 12:22:45.
