data_PCOD9158009
_publ_section_title
;
Structure prediction by ZEFSAII (Michael W. Deem and Ramdas Pophale) SiO2 
 PCOD9158009
Probable space group: P 21/M
;
_chemical_formula_sum "Si O2"
_cell_formula_units_Z 32
_cell_length_a 28.678315
_cell_length_b 9.080057
_cell_length_c 15.063191
_cell_angle_alpha 90.000000
_cell_angle_beta 152.790223
_cell_angle_gamma 90.000000
_cell_volume 1793.546370
_symmetry_space_group_name_H-M "P 21/M"
_symmetry_group_IT_number 11
_symmetry_cell_setting 'monoclinic'
loop_
_space_group_symop_operation_xyz
x,y,z
-x,1/2+y,-z
-x,-y,-z
x,1/2-y,z
loop_
_atom_site_type_symbol
_atom_site_label
_atom_site_fract_x
_atom_site_fract_y
_atom_site_fract_z
Si Si1 0.347799 0.073143 0.577998
Si Si2 0.754592 0.573840 0.129639
Si Si3 0.070924 0.425727 0.694047
Si Si4 0.104879 0.574767 0.481849
Si Si5 0.579567 0.425728 0.924073
Si Si6 0.939189 0.580202 0.765307
Si Si7 0.610547 0.073880 0.175039
Si Si8 0.865251 0.921084 0.843844
O O1 0.348373 0.250000 0.593872
O O2 0.460316 0.032371 0.732742
O O3 0.254038 0.039957 0.354055
O O4 0.328849 0.995236 0.640550
O O5 0.750501 0.750000 0.130476
O O6 0.813905 0.533614 0.138536
O O7 0.824493 0.507035 0.327010
O O8 0.643275 0.506844 0.956581
O O9 0.064616 0.250000 0.672368
O O10 0.000000 0.500000 0.500000
O O11 0.012821 0.457532 0.687379
O O12 0.123099 0.750000 0.517687
O O13 0.117463 0.517248 0.403812
O O14 0.583574 0.250000 0.917865
O O15 0.633873 0.457381 0.111487
O O16 0.934881 0.750000 0.730376
O O17 0.893513 0.569376 0.786944
O O18 0.055089 0.522819 0.970841
O O19 0.605411 0.250000 0.175744
O O20 0.500000 0.000000 0.000000
O O21 0.879832 0.750000 0.895367
#
# Coordination Sequence:
#
# PCOD9158009 Si02
#       8
#     4   4   4   4   4   4   4   4
#     4   9  18  32  48  64  87 121 159 193 228 271
#     4  10  19  30  46  69  97 125 156 191 227 272
#     4   8  16  30  46  66  91 121 153 186 226 275
#     4  10  19  32  50  69  94 125 155 188 232 279
#     4   9  18  30  42  64  93 122 156 190 225 272
#     4  10  20  33  49  73  96 117 153 195 232 276
#     4   9  17  28  41  59  85 117 154 191 224 263
#     4   9  19  35  51  67  91 124 156 192 235 272
#
# _framework density 17.841746000000001
#
# number of rings (size 3 to 8) (size 9 to 14) (size 15 to 20)
#    0.000    2.750    0.000    2.250    1.750    4.500 
#    0.000    0.000    0.000    0.000    0.000    0.875 
#    0.000    0.000    0.000    0.000    0.000    0.000 
#
# Total GULP energy -178220.988985 kJ/mol
# GULP energy per Si atom -5569.405906 kJ/mol
# Density = 1.780114 g / cm^3
# Si number density = 17.841746 Si / 1000 Ang^3
#
#
#
# Elastic Constant Matrix: (Units=GPa)
#
#
# Indices 1 2 3 4 5 6 
#
# 1 53.3035 15.1853 4.5965 0.0000 25.0878 0.0000
# 2 15.1853 25.3348 11.8100 0.0000 9.3108 0.0000
# 3 4.5965 11.8100 55.4994 0.0000 20.3179 0.0000
# 4 0.0000 0.0000 0.0000 20.4478 0.0000 4.6357
# 5 25.0878 9.3108 20.3179 0.0000 27.5219 0.0000
# 6 0.0000 0.0000 0.0000 4.6357 0.0000 20.7502
#
#
#
# Elastic Compliance Matrix: (Units=1/GPa)
#
#
# Indices 1 2 3 4 5 6 
#
# 1 0.044679 -0.017379 0.017480 0.000000 -0.047752 0.000000
# 2 -0.017379 0.053092 -0.012446 0.000000 0.007069 0.000000
# 3 0.017480 -0.012446 0.032218 0.000000 -0.035508 0.000000
# 4 0.000000 0.000000 0.000000 0.051514 0.000000 -0.011508
# 5 -0.047752 0.007069 -0.035508 0.000000 0.103685 0.000000
# 6 0.000000 0.000000 0.000000 -0.011508 0.000000 0.050763
#
#
# Mechanical properties :
#
#
# Convention : Reuss Voigt Hill
#
# Bulk Modulus (GPa) = 9.49683 21.92459 15.71071
# Shear Modulus (GPa) = 12.63447 20.58039 16.60743
#
# Velocity S-wave (km/s) = 2.66398 3.40000 3.05424
# Velocity P-wave (km/s) = 3.84665 5.26577 4.61113
#
# Compressibility (1/GPa) = 0.10529829
#
# Stress axis : x y z
#
# Youngs Moduli (GPa) = 22.38179 18.83520 31.03840
#
# Poissons Ratio (x) = 0.32733 -0.54254
# Poissons Ratio (y) = 0.38897 0.38631
# Poissons Ratio (z) = -0.39122 0.23443
#
# Static dielectric constant tensor:
#      x y z
#    x 1.620550 0.000000 0.069530 
#    y 0.000000 1.594320 0.000000 
#    z 0.069530 0.000000 1.596740 
# 
# From -- ./inp_files/56198.got.cif
#   From: 2010.05.17/outbox.cif.g08.bks.cpg/sg11_29_cif.got.tgz:56198.got - 2010.06.03 12:22:45.
