data_PCOD9158723
_publ_section_title
;
Structure prediction by ZEFSAII (Michael W. Deem and Ramdas Pophale) SiO2 
 PCOD9158723
Probable space group: P 21/M
;
_chemical_formula_sum "Si O2"
_cell_formula_units_Z 32
_cell_length_a 15.633211
_cell_length_b 9.300426
_cell_length_c 20.663852
_cell_angle_alpha 90.000000
_cell_angle_beta 30.322292
_cell_angle_gamma 90.000000
_cell_volume 1516.827845
_symmetry_space_group_name_H-M "P 21/M"
_symmetry_group_IT_number 11
_symmetry_cell_setting 'monoclinic'
loop_
_space_group_symop_operation_xyz
x,y,z
-x,1/2+y,-z
-x,-y,-z
x,1/2-y,z
loop_
_atom_site_type_symbol
_atom_site_label
_atom_site_fract_x
_atom_site_fract_y
_atom_site_fract_z
Si Si1 0.670312 0.088496 0.829043
Si Si2 0.869757 0.918646 0.167557
Si Si3 0.256570 0.579496 0.871714
Si Si4 0.579336 0.921862 0.121434
Si Si5 0.949492 0.588052 0.470251
Si Si6 0.817395 0.078406 0.440546
Si Si7 0.655867 0.920948 0.431457
Si Si8 0.195732 0.081003 0.143268
O O1 0.605352 0.250000 0.884013
O O2 0.574063 0.035607 0.827077
O O3 0.868933 0.100299 0.683136
O O4 0.678657 0.995962 0.888561
O O5 0.840550 0.750000 0.171816
O O6 0.810866 0.942592 0.279488
O O7 0.759930 0.011873 0.188902
O O8 0.068222 0.947132 0.025181
O O9 0.284758 0.750000 0.850210
O O10 0.391973 0.504309 0.830501
O O11 0.565546 0.750000 0.142260
O O12 0.743414 0.951152 0.968795
O O13 0.886397 0.750000 0.524224
O O14 0.000000 0.500000 0.500000
O O15 0.828149 0.495266 0.503550
O O16 0.790203 0.250000 0.462315
O O17 0.001280 0.050459 0.287014
O O18 0.688960 0.997398 0.477826
O O19 0.630081 0.750000 0.455760
O O20 0.500000 0.000000 0.500000
O O21 0.214423 0.250000 0.140854
#
# Coordination Sequence:
#
# PCOD9158723 Si02
#       8
#     4   4   4   4   4   4   4   4
#     4   9  19  33  50  74 106 142 178 218 270 326
#     4   9  20  39  59  79 109 146 182 226 282 335
#     4  10  20  34  56  84 109 142 187 229 271 329
#     4  10  19  32  49  76 112 146 176 213 270 329
#     4  10  20  37  58  80 106 144 190 235 278 329
#     4  10  20  36  58  85 112 143 184 229 277 333
#     4  11  23  40  61  86 115 149 188 236 290 342
#     4   9  18  31  52  79 108 142 180 221 266 319
#
# _framework density 21.096658000000001
#
# number of rings (size 3 to 8) (size 9 to 14) (size 15 to 20)
#    0.000    2.250    0.000    2.625    0.000    3.500 
#    2.250    0.000    0.000    0.000    0.000    0.000 
#    0.000    0.000    0.000    0.000    0.000    0.000 
#
# Total GULP energy -178640.894229 kJ/mol
# GULP energy per Si atom -5582.527945 kJ/mol
# Density = 2.104864 g / cm^3
# Si number density = 21.096658 Si / 1000 Ang^3
#
#
#
# Elastic Constant Matrix: (Units=GPa)
#
#
# Indices 1 2 3 4 5 6 
#
# 1 191.4753 101.3309 -3.4993 0.0000 11.9729 0.0000
# 2 101.3309 97.9448 12.9854 0.0000 12.0108 0.0000
# 3 -3.4993 12.9854 11.0390 0.0000 -1.1767 0.0000
# 4 0.0000 0.0000 0.0000 17.7023 0.0000 1.4534
# 5 11.9729 12.0108 -1.1767 0.0000 23.9745 0.0000
# 6 0.0000 0.0000 0.0000 1.4534 0.0000 42.6186
#
#
#
# Elastic Compliance Matrix: (Units=1/GPa)
#
#
# Indices 1 2 3 4 5 6 
#
# 1 0.018356 -0.024166 0.034741 0.000000 0.004645 0.000000
# 2 -0.024166 0.045123 -0.062188 0.000000 -0.013589 0.000000
# 3 0.034741 -0.062188 0.177152 0.000000 0.022500 0.000000
# 4 0.000000 0.000000 0.000000 0.056649 0.000000 -0.001932
# 5 0.004645 -0.013589 0.022500 0.000000 0.047304 0.000000
# 6 0.000000 0.000000 0.000000 -0.001932 0.000000 0.023530
#
#
# Mechanical properties :
#
#
# Convention : Reuss Voigt Hill
#
# Bulk Modulus (GPa) = 7.27775 58.01032 32.64403
# Shear Modulus (GPa) = 9.66855 29.50189 19.58522
#
# Velocity S-wave (km/s) = 2.14311 3.74360 3.05020
# Velocity P-wave (km/s) = 3.09534 6.80023 5.28319
#
# Compressibility (1/GPa) = 0.13740512
#
# Stress axis : x y z
#
# Youngs Moduli (GPa) = 54.47776 22.16179 5.64486
#
# Poissons Ratio (x) = 0.53557 -0.19611
# Poissons Ratio (y) = 1.31652 0.35104
# Poissons Ratio (z) = -1.89262 1.37819
#
# Static dielectric constant tensor:
#      x y z
#    x 1.758240 0.000000 -0.008250 
#    y 0.000000 1.727220 0.000000 
#    z -0.008250 0.000000 1.880470 
# 
# From -- ./inp_files/65210.got.cif
#   From: 2010.05.17/outbox.cif.g08.bks.cpg/sg11_33_cif.got.tgz:65210.got - 2010.06.03 12:22:45.
