data_PCOD9158147
_publ_section_title
;
Structure prediction by ZEFSAII (Michael W. Deem and Ramdas Pophale) SiO2 
 PCOD9158147
Probable space group: P 21/M
;
_chemical_formula_sum "Si O2"
_cell_formula_units_Z 24
_cell_length_a 11.616522
_cell_length_b 9.841261
_cell_length_c 12.623439
_cell_angle_alpha 90.000000
_cell_angle_beta 92.382866
_cell_angle_gamma 90.000000
_cell_volume 1441.879149
_symmetry_space_group_name_H-M "P 21/M"
_symmetry_group_IT_number 11
_symmetry_cell_setting 'monoclinic'
loop_
_space_group_symop_operation_xyz
x,y,z
-x,1/2+y,-z
-x,-y,-z
x,1/2-y,z
loop_
_atom_site_type_symbol
_atom_site_label
_atom_site_fract_x
_atom_site_fract_y
_atom_site_fract_z
Si Si1 0.972524 0.402943 0.902066
Si Si2 0.387593 0.409456 0.006702
Si Si3 0.219299 0.096239 0.802549
Si Si4 0.865146 0.595548 0.585040
Si Si5 0.219090 0.405985 0.193492
Si Si6 0.863466 0.089932 0.382796
O O1 0.941629 0.250000 0.933690
O O2 0.870594 0.477282 0.838088
O O3 0.088529 0.396301 0.838935
O O4 0.000000 0.500000 0.000000
O O5 0.416350 0.250000 0.998662
O O6 0.298418 0.439979 0.907042
O O7 0.500000 0.500000 0.000000
O O8 0.326159 0.427361 0.118788
O O9 0.251857 0.250000 0.768658
O O10 0.211817 0.987241 0.708463
O O11 0.861283 0.750000 0.540947
O O12 0.775840 0.587817 0.679076
O O13 0.844489 0.485469 0.493799
O O14 0.997471 0.577273 0.631718
O O15 0.177498 0.250000 0.167833
O O16 0.838041 0.250000 0.385406
#
# Coordination Sequence:
#
# PCOD9158147 Si02
#       6
#     4   4   4   4   4   4
#     4  11  20  30  48  76 108 139 170 209 259 318
#     4  10  22  39  56  76 103 136 176 222 267 312
#     4  10  20  34  52  74 107 142 171 211 261 312
#     4   9  18  31  49  74 109 145 171 203 254 311
#     4  10  19  35  54  76 107 140 174 213 259 314
#     4  10  19  30  49  77 109 141 175 210 248 307
#
# _framework density 16.644946000000001
#
# number of rings (size 3 to 8) (size 9 to 14) (size 15 to 20)
#    0.000    2.000    3.333    1.000    0.000    3.333 
#    0.000    0.000    0.000    1.000    0.000    0.000 
#    0.000    0.000    0.000    0.000    0.000    0.000 
#
# Total GULP energy -133662.772338 kJ/mol
# GULP energy per Si atom -5569.282181 kJ/mol
# Density = 1.660706 g / cm^3
# Si number density = 16.644946 Si / 1000 Ang^3
#
#
#
# Elastic Constant Matrix: (Units=GPa)
#
#
# Indices 1 2 3 4 5 6 
#
# 1 68.4970 46.4739 33.0268 0.0000 -9.1524 0.0000
# 2 46.4739 125.9835 71.6321 0.0000 -7.9980 0.0000
# 3 33.0268 71.6321 96.5725 0.0000 -12.7416 0.0000
# 4 0.0000 0.0000 0.0000 29.6470 0.0000 0.7638
# 5 -9.1524 -7.9980 -12.7416 0.0000 8.7282 0.0000
# 6 0.0000 0.0000 0.0000 0.7638 0.0000 25.4794
#
#
#
# Elastic Compliance Matrix: (Units=1/GPa)
#
#
# Indices 1 2 3 4 5 6 
#
# 1 0.021427 -0.006782 -0.000189 0.000000 0.015977 0.000000
# 2 -0.006782 0.015930 -0.010539 0.000000 -0.007899 0.000000
# 3 -0.000189 -0.010539 0.020977 0.000000 0.020767 0.000000
# 4 0.000000 0.000000 0.000000 0.033756 0.000000 -0.001012
# 5 0.015977 -0.007899 0.020767 0.000000 0.154402 0.000000
# 6 0.000000 0.000000 0.000000 -0.001012 0.000000 0.039278
#
#
# Mechanical properties :
#
#
# Convention : Reuss Voigt Hill
#
# Bulk Modulus (GPa) = 42.89396 65.92427 54.40912
# Shear Modulus (GPa) = 15.21786 22.09894 18.65840
#
# Velocity S-wave (km/s) = 3.02696 3.64767 3.35171
# Velocity P-wave (km/s) = 6.16786 7.57844 6.90925
#
# Compressibility (1/GPa) = 0.02331331
#
# Stress axis : x y z
#
# Youngs Moduli (GPa) = 46.67041 62.77365 47.67206
#
# Poissons Ratio (x) = 0.42576 0.00901
# Poissons Ratio (y) = 0.31654 0.50241
# Poissons Ratio (z) = 0.00882 0.66157
#
# Static dielectric constant tensor:
#      x y z
#    x 1.381100 0.000000 -0.069850 
#    y 0.000000 1.557490 0.000000 
#    z -0.069850 0.000000 1.565880 
# 
# From -- ./inp_files/33776.got.cif
#   From: 2010.05.17/outbox.cif.g08.bks.cpg/sg11_17_cif.got.tgz:33776.got - 2010.06.03 12:22:45.
