data_PCOD9158805
_publ_section_title
;
Structure prediction by ZEFSAII (Michael W. Deem and Ramdas Pophale) SiO2 
 PCOD9158805
Probable space group: P 21/M
;
_chemical_formula_sum "Si O2"
_cell_formula_units_Z 24
_cell_length_a 15.459074
_cell_length_b 8.985176
_cell_length_c 17.113071
_cell_angle_alpha 90.000000
_cell_angle_beta 35.924682
_cell_angle_gamma 90.000000
_cell_volume 1394.664792
_symmetry_space_group_name_H-M "P 21/M"
_symmetry_group_IT_number 11
_symmetry_cell_setting 'monoclinic'
loop_
_space_group_symop_operation_xyz
x,y,z
-x,1/2+y,-z
-x,-y,-z
x,1/2-y,z
loop_
_atom_site_type_symbol
_atom_site_label
_atom_site_fract_x
_atom_site_fract_y
_atom_site_fract_z
Si Si1 0.930811 0.574838 0.127431
Si Si2 0.600138 0.920805 0.816460
Si Si3 0.149896 0.072597 0.079012
Si Si4 0.579386 0.574491 0.368726
Si Si5 0.273678 0.579935 0.134482
Si Si6 0.435111 0.929518 0.786810
O O1 0.968145 0.750000 0.101619
O O2 0.755366 0.559707 0.251340
O O3 0.002686 0.494181 0.149080
O O4 0.000000 0.500000 0.000000
O O5 0.651350 0.750000 0.779880
O O6 0.564419 0.967826 0.754132
O O7 0.704689 0.019624 0.793945
O O8 0.437930 0.922572 0.975909
O O9 0.153912 0.250000 0.069332
O O10 0.176161 0.020806 0.148698
O O11 0.285050 0.002504 0.930031
O O12 0.500000 0.500000 0.500000
O O13 0.545045 0.750000 0.388544
O O14 0.537978 0.492096 0.318694
O O15 0.222323 0.750000 0.170549
O O16 0.419138 0.750000 0.798725
#
# Coordination Sequence:
#
# PCOD9158805 Si02
#       6
#     4   4   4   4   4   4
#     4  11  22  36  55  79 105 138 178 219 264 316
#     4   8  15  26  41  65  96 132 168 207 257 309
#     4  11  20  30  48  74 104 138 174 215 262 313
#     4  11  24  39  56  78 106 140 179 220 266 315
#     4   9  16  26  41  65  98 134 168 210 258 307
#     4  10  19  32  51  73 102 137 175 218 262 311
#
# _framework density 17.208435999999999
#
# number of rings (size 3 to 8) (size 9 to 14) (size 15 to 20)
#    0.000    2.000    1.667    4.500    0.000    6.667 
#    0.000    0.000    0.000    0.000    0.000    1.167 
#    0.000    0.000    0.000    0.000    0.000    0.000 
#
# Total GULP energy -133897.536746 kJ/mol
# GULP energy per Si atom -5579.064031 kJ/mol
# Density = 1.716927 g / cm^3
# Si number density = 17.208436 Si / 1000 Ang^3
#
#
#
# Elastic Constant Matrix: (Units=GPa)
#
#
# Indices 1 2 3 4 5 6 
#
# 1 135.9919 78.7173 36.5729 0.0000 36.8368 0.0000
# 2 78.7173 135.7459 41.8231 0.0000 16.5506 0.0000
# 3 36.5729 41.8231 46.9572 0.0000 18.0404 0.0000
# 4 0.0000 0.0000 0.0000 18.3569 0.0000 5.1782
# 5 36.8368 16.5506 18.0404 0.0000 21.7403 0.0000
# 6 0.0000 0.0000 0.0000 5.1782 0.0000 35.6916
#
#
#
# Elastic Compliance Matrix: (Units=1/GPa)
#
#
# Indices 1 2 3 4 5 6 
#
# 1 0.019411 -0.008949 0.004214 0.000000 -0.029574 0.000000
# 2 -0.008949 0.014280 -0.010860 0.000000 0.013303 0.000000
# 3 0.004214 -0.010860 0.040008 0.000000 -0.032072 0.000000
# 4 0.000000 0.000000 0.000000 0.056800 0.000000 -0.008241
# 5 -0.029574 0.013303 -0.032072 0.000000 0.112594 0.000000
# 6 0.000000 0.000000 0.000000 -0.008241 0.000000 0.029213
#
#
# Mechanical properties :
#
#
# Convention : Reuss Voigt Hill
#
# Bulk Modulus (GPa) = 23.52398 70.32459 46.92429
# Shear Modulus (GPa) = 15.73990 25.92988 20.83489
#
# Velocity S-wave (km/s) = 3.02762 3.88598 3.48334
# Velocity P-wave (km/s) = 5.09133 7.81598 6.59588
#
# Compressibility (1/GPa) = 0.04250982
#
# Stress axis : x y z
#
# Youngs Moduli (GPa) = 51.51789 70.02909 24.99508
#
# Poissons Ratio (x) = 0.62666 -0.10533
# Poissons Ratio (y) = 0.46101 0.27144
# Poissons Ratio (z) = -0.21710 0.76049
#
# Static dielectric constant tensor:
#      x y z
#    x 1.603770 0.000000 0.013910 
#    y 0.000000 1.583320 0.000000 
#    z 0.013910 0.000000 1.556400 
# 
# From -- ./inp_files/51488.got.cif
#   From: 2010.05.17/outbox.cif.g08.bks.cpg/sg11_26_cif.got.tgz:51488.got - 2010.06.03 12:22:45.
