data_PCOD9158313
_publ_section_title
;
Structure prediction by ZEFSAII (Michael W. Deem and Ramdas Pophale) SiO2 
 PCOD9158313
Probable space group: P 21/M
;
_chemical_formula_sum "Si O2"
_cell_formula_units_Z 32
_cell_length_a 23.083843
_cell_length_b 9.339623
_cell_length_c 20.581223
_cell_angle_alpha 90.000000
_cell_angle_beta 18.762820
_cell_angle_gamma 90.000000
_cell_volume 1427.230090
_symmetry_space_group_name_H-M "P 21/M"
_symmetry_group_IT_number 11
_symmetry_cell_setting 'monoclinic'
loop_
_space_group_symop_operation_xyz
x,y,z
-x,1/2+y,-z
-x,-y,-z
x,1/2-y,z
loop_
_atom_site_type_symbol
_atom_site_label
_atom_site_fract_x
_atom_site_fract_y
_atom_site_fract_z
Si Si1 0.780384 0.087277 0.185658
Si Si2 0.957656 0.588094 0.886738
Si Si3 0.275955 0.080667 0.173021
Si Si4 0.346104 0.078688 0.238744
Si Si5 0.129173 0.089989 0.598627
Si Si6 0.602957 0.913078 0.484561
Si Si7 0.240684 0.911481 0.087555
Si Si8 0.575212 0.913371 0.214519
O O1 0.832795 0.250000 0.144786
O O2 0.587561 0.092241 0.352531
O O3 0.740688 0.994976 0.291593
O O4 0.916335 0.011078 0.992048
O O5 0.001587 0.750000 0.859021
O O6 0.104819 0.520691 0.682506
O O7 0.767772 0.592097 0.048306
O O8 0.262355 0.250000 0.175012
O O9 0.227392 0.052475 0.299872
O O10 0.184703 0.990880 0.212872
O O11 0.480922 0.022471 0.950073
O O12 0.390145 0.250000 0.188419
O O13 0.252983 0.051188 0.406245
O O14 0.177831 0.250000 0.570204
O O15 0.931395 0.098729 0.776117
O O16 0.657601 0.750000 0.439461
O O17 0.556794 0.000615 0.598137
O O18 0.304388 0.750000 0.033180
O O19 0.387085 0.002299 0.892087
O O20 0.518622 0.750000 0.263414
#
# Coordination Sequence:
#
# PCOD9158313 Si02
#       8
#     4   4   4   4   4   4   4   4
#     4   9  15  22  33  50  76 113 153 189 227 274
#     4   9  16  25  38  58  85 116 150 190 234 277
#     4  10  20  34  52  73  96 123 156 194 236 282
#     4   9  19  36  54  71  94 124 157 194 236 282
#     4   9  18  32  49  69  94 125 159 194 235 284
#     4   9  15  22  33  51  77 111 151 191 230 274
#     4  10  19  31  48  70  96 126 158 193 236 284
#     4   9  16  26  39  57  84 117 152 190 232 277
#
# _framework density 22.421053000000001
#
# number of rings (size 3 to 8) (size 9 to 14) (size 15 to 20)
#    0.000    2.750    0.000    2.250    0.000    8.000 
#    0.000    0.000    0.000    0.000    0.000    0.000 
#    0.000    1.000    0.000    3.750    0.000    8.500 
#
# Total GULP energy -178829.420867 kJ/mol
# GULP energy per Si atom -5588.419402 kJ/mol
# Density = 2.237002 g / cm^3
# Si number density = 22.421053 Si / 1000 Ang^3
#
#
#
# Elastic Constant Matrix: (Units=GPa)
#
#
# Indices 1 2 3 4 5 6 
#
# 1 61.9419 31.6920 48.9462 0.0000 -10.7803 0.0000
# 2 31.6920 170.3993 92.4432 0.0000 18.4219 0.0000
# 3 48.9462 92.4432 81.1517 0.0000 65.7799 0.0000
# 4 0.0000 0.0000 0.0000 14.4342 0.0000 14.3909
# 5 -10.7803 18.4219 65.7799 0.0000 -4.7978 0.0000
# 6 0.0000 0.0000 0.0000 14.3909 0.0000 19.3186
#
#
#
# Elastic Compliance Matrix: (Units=1/GPa)
#
#
# Indices 1 2 3 4 5 6 
#
# 1 0.014081 -0.002932 0.002445 0.000000 -0.009373 0.000000
# 2 -0.002932 0.008941 -0.003433 0.000000 -0.006148 0.000000
# 3 0.002445 -0.003433 0.002468 0.000000 0.015163 0.000000
# 4 0.000000 0.000000 0.000000 0.269251 0.000000 -0.200573
# 5 -0.009373 -0.006148 0.015163 0.000000 -0.003091 0.000000
# 6 0.000000 0.000000 0.000000 -0.200573 0.000000 0.201176
#
#
# Mechanical properties :
#
#
# Convention : Reuss Voigt Hill
#
# Bulk Modulus (GPa) = 56.65644 73.29509 64.97576
# Shear Modulus (GPa) = 9.87069 15.15177 12.51123
#
# Velocity S-wave (km/s) = 2.10047 2.60240 2.36479
# Velocity P-wave (km/s) = 5.58630 6.46462 6.04144
#
# Compressibility (1/GPa) = 0.01765024
#
# Stress axis : x y z
#
# Youngs Moduli (GPa) = 71.01843 111.84488 405.18486
#
# Poissons Ratio (x) = 0.32792 -0.99070
# Poissons Ratio (y) = 0.20822 1.39096
# Poissons Ratio (z) = -0.17364 0.38395
#
# Static dielectric constant tensor:
#      x y z
#    x 1.873750 0.000000 -0.049360 
#    y 0.000000 1.779990 0.000000 
#    z -0.049360 0.000000 1.814430 
# 
# From -- ./inp_files/58695.got.cif
#   From: 2010.05.17/outbox.cif.g08.bks.cpg/sg11_30_cif.got.tgz:58695.got - 2010.06.03 12:22:45.
