data_PCOD9158465
_publ_section_title
;
Structure prediction by ZEFSAII (Michael W. Deem and Ramdas Pophale) SiO2 
 PCOD9158465
Probable space group: P 21/M
;
_chemical_formula_sum "Si O2"
_cell_formula_units_Z 32
_cell_length_a 9.247690
_cell_length_b 7.433227
_cell_length_c 19.239671
_cell_angle_alpha 90.000000
_cell_angle_beta 107.214285
_cell_angle_gamma 90.000000
_cell_volume 1263.294799
_symmetry_space_group_name_H-M "P 21/M"
_symmetry_group_IT_number 11
_symmetry_cell_setting 'monoclinic'
loop_
_space_group_symop_operation_xyz
x,y,z
-x,1/2+y,-z
-x,-y,-z
x,1/2-y,z
loop_
_atom_site_type_symbol
_atom_site_label
_atom_site_fract_x
_atom_site_fract_y
_atom_site_fract_z
Si Si1 0.337972 0.461123 0.039902
Si Si2 0.217100 0.465716 0.882770
Si Si3 0.341396 0.047133 0.269446
Si Si4 0.668720 0.464486 0.498872
Si Si5 0.444640 0.964657 0.808256
Si Si6 0.886215 0.952851 0.651966
Si Si7 0.112636 0.966871 0.117780
Si Si8 0.116317 0.535319 0.580739
O O1 0.371730 0.250000 0.040242
O O2 0.451405 0.540722 0.113570
O O3 0.170524 0.480263 0.049749
O O4 0.326632 0.535330 0.960423
O O5 0.215283 0.250000 0.887895
O O6 0.277842 0.509649 0.815071
O O7 0.049889 0.528326 0.878321
O O8 0.375430 0.250000 0.301236
O O9 0.494564 0.966910 0.257398
O O10 0.226810 0.958437 0.308234
O O11 0.236060 0.051851 0.186460
O O12 0.500000 0.500000 0.500000
O O13 0.694685 0.250000 0.506359
O O14 0.777909 0.556656 0.569656
O O15 0.723335 0.522468 0.429556
O O16 0.467349 0.750000 0.806710
O O17 0.920707 0.750000 0.682898
O O18 0.038597 0.036573 0.640295
O O19 0.119347 0.750000 0.123626
O O20 0.124104 0.750000 0.593156
O O21 0.000000 0.500000 0.500000
#
# Coordination Sequence:
#
# PCOD9158465 Si02
#       8
#     4   4   4   4   4   4   4   4
#     4   9  18  33  50  69  94 123 159 200 244 296
#     4  10  20  32  47  70  98 125 155 198 249 296
#     4   9  19  36  54  71  93 125 165 203 240 286
#     4  10  19  31  49  77 110 136 160 194 238 284
#     4   9  18  31  48  70  94 123 160 199 240 291
#     4   9  17  33  56  75  94 126 166 204 241 282
#     4  10  20  32  48  71  96 123 158 199 243 290
#     4   8  15  28  48  73  97 123 157 195 233 275
#
# _framework density 25.330586
#
# number of rings (size 3 to 8) (size 9 to 14) (size 15 to 20)
#    0.000    2.750    0.000    2.250    0.000    4.500 
#    0.000    1.250    0.000    6.000    0.000    0.000 
#    0.000    0.000    0.000    0.000    0.000    0.000 
#
# Total GULP energy -178427.289450 kJ/mol
# GULP energy per Si atom -5575.852795 kJ/mol
# Density = 2.527293 g / cm^3
# Si number density = 25.330586 Si / 1000 Ang^3
#
#
#
# Elastic Constant Matrix: (Units=GPa)
#
#
# Indices 1 2 3 4 5 6 
#
# 1 144.8685 -0.2709 51.3179 0.0000 -74.8227 0.0000
# 2 -0.2709 104.4444 -3.0391 0.0000 -3.4229 0.0000
# 3 51.3179 -3.0391 88.8991 0.0000 -54.7839 0.0000
# 4 0.0000 0.0000 0.0000 -5.5868 0.0000 14.3074
# 5 -74.8227 -3.4229 -54.7839 0.0000 72.9159 0.0000
# 6 0.0000 0.0000 0.0000 14.3074 0.0000 -12.6286
#
#
#
# Elastic Compliance Matrix: (Units=1/GPa)
#
#
# Indices 1 2 3 4 5 6 
#
# 1 0.014836 0.000624 0.001596 0.000000 0.016452 0.000000
# 2 0.000624 0.009677 0.001201 0.000000 0.001997 0.000000
# 3 0.001596 0.001201 0.021252 0.000000 0.017661 0.000000
# 4 0.000000 0.000000 0.000000 0.094138 0.000000 0.106653
# 5 0.016452 0.001997 0.017661 0.000000 0.043960 0.000000
# 6 0.000000 0.000000 0.000000 0.106653 0.000000 0.041646
#
#
# Mechanical properties :
#
#
# Convention : Reuss Voigt Hill
#
# Bulk Modulus (GPa) = 19.00870 48.24751 33.62810
# Shear Modulus (GPa) = 21.16825 30.28705 25.72765
#
# Velocity S-wave (km/s) = 2.89395 3.46160 3.19042
# Velocity P-wave (km/s) = 4.32286 5.92160 5.18423
#
# Compressibility (1/GPa) = 0.05260750
#
# Stress axis : x y z
#
# Youngs Moduli (GPa) = 67.40315 103.34311 47.05335
#
# Poissons Ratio (x) = -0.06450 -0.07509
# Poissons Ratio (y) = -0.04207 -0.05653
# Poissons Ratio (z) = -0.10756 -0.12415
#
# Static dielectric constant tensor:
#      x y z
#    x 2.164000 0.000000 -0.069670 
#    y 0.000000 2.119350 0.000000 
#    z -0.069670 0.000000 2.024330 
# 
# From -- ./inp_files/67798.got.cif
#   From: 2010.05.17/outbox.cif.g08.bks.cpg/sg11_34_cif.got.tgz:67798.got - 2010.06.03 12:22:45.
