data_PCOD9158828
_publ_section_title
;
Structure prediction by ZEFSAII (Michael W. Deem and Ramdas Pophale) SiO2 
 PCOD9158828
Probable space group: P 21/M
;
_chemical_formula_sum "Si O2"
_cell_formula_units_Z 32
_cell_length_a 18.354907
_cell_length_b 20.281786
_cell_length_c 7.525317
_cell_angle_alpha 90.000000
_cell_angle_beta 145.082684
_cell_angle_gamma 90.000000
_cell_volume 1603.533508
_symmetry_space_group_name_H-M "P 21/M"
_symmetry_group_IT_number 11
_symmetry_cell_setting 'monoclinic'
loop_
_space_group_symop_operation_xyz
x,y,z
-x,1/2+y,-z
-x,-y,-z
x,1/2-y,z
loop_
_atom_site_type_symbol
_atom_site_label
_atom_site_fract_x
_atom_site_fract_y
_atom_site_fract_z
Si Si1 0.490450 0.823372 0.015977
Si Si2 0.509550 0.323372 0.554178
Si Si3 0.131071 0.036817 0.298672
Si Si4 0.131071 0.463183 0.725614
Si Si5 0.789234 0.676871 0.539107
Si Si6 0.789234 0.823129 0.117829
Si Si7 0.375013 0.543075 0.213022
Si Si8 0.375013 0.543075 0.787030
O O1 0.454100 0.750000 0.882082
O O2 0.486896 0.823499 0.223793
O O3 0.637739 0.834541 0.259060
O O4 0.403782 0.883290 0.777309
O O5 0.545900 0.250000 0.565681
O O6 0.596219 0.383290 0.662183
O O7 0.362261 0.334541 0.208104
O O8 0.145503 0.041114 0.541006
O O9 0.140279 0.112051 0.248531
O O10 0.250311 0.993997 0.468427
O O11 0.000000 0.000000 0.000000
O O12 0.140279 0.387949 0.812586
O O13 0.000000 0.500000 0.500000
O O14 0.250311 0.506003 0.032816
O O15 0.818035 0.750000 0.671182
O O16 0.814559 0.680191 0.379119
O O17 0.818034 0.750000 0.100956
O O18 0.500000 0.500000 0.500000
O O19 0.361145 0.547782 0.972290
O O20 0.500000 0.500000 0.000000
#
# Coordination Sequence:
#
# PCOD9158828 Si02
#       8
#     4   4   4   4   4   4   4   4
#     4   9  17  29  48  75 103 129 160 203 252 299
#     4   9  17  29  48  75 103 129 160 203 252 299
#     4  10  21  35  50  73 103 135 171 207 249 297
#     4  10  21  35  50  73 103 135 171 207 249 297
#     4   9  17  31  51  73  99 130 165 206 248 295
#     4   9  17  31  51  73  99 130 165 206 248 295
#     4  10  19  32  51  75 101 128 165 207 250 298
#     4  10  19  32  51  75 101 128 165 207 250 298
#
# _framework density 19.955928
#
# number of rings (size 3 to 8) (size 9 to 14) (size 15 to 20)
#    0.000    2.500    2.500    0.000    0.000    2.000 
#    0.000    1.250    0.000    1.500    0.000    0.000 
#    0.000    0.000    0.000    0.000    0.000    0.000 
#
# Total GULP energy -178497.987419 kJ/mol
# GULP energy per Si atom -5578.062107 kJ/mol
# Density = 1.991051 g / cm^3
# Si number density = 19.955928 Si / 1000 Ang^3
#
#
#
# Elastic Constant Matrix: (Units=GPa)
#
#
# Indices 1 2 3 4 5 6 
#
# 1 48.8812 33.1254 14.2917 0.0000 4.2083 0.0000
# 2 33.1254 240.5659 78.3698 0.0000 40.6887 0.0000
# 3 14.2917 78.3698 82.8391 0.0000 26.3300 0.0000
# 4 0.0000 0.0000 0.0000 26.6470 0.0000 10.0133
# 5 4.2083 40.6887 26.3300 0.0000 39.5289 0.0000
# 6 0.0000 0.0000 0.0000 10.0133 0.0000 15.5126
#
#
#
# Elastic Compliance Matrix: (Units=1/GPa)
#
#
# Indices 1 2 3 4 5 6 
#
# 1 0.022756 -0.002840 -0.001774 0.000000 0.001682 0.000000
# 2 -0.002840 0.006666 -0.004734 0.000000 -0.003406 0.000000
# 3 -0.001774 -0.004734 0.019342 0.000000 -0.007822 0.000000
# 4 0.000000 0.000000 0.000000 0.049545 0.000000 -0.031981
# 5 0.001682 -0.003406 -0.007822 0.000000 0.033835 0.000000
# 6 0.000000 0.000000 0.000000 -0.031981 0.000000 0.085107
#
#
# Mechanical properties :
#
#
# Convention : Reuss Voigt Hill
#
# Bulk Modulus (GPa) = 33.25676 69.31779 51.28727
# Shear Modulus (GPa) = 20.32754 32.77100 26.54927
#
# Velocity S-wave (km/s) = 3.19505 4.05676 3.65142
# Velocity P-wave (km/s) = 5.50567 7.53352 6.59797
#
# Compressibility (1/GPa) = 0.03006908
#
# Stress axis : x y z
#
# Youngs Moduli (GPa) = 43.94396 150.00887 51.69987
#
# Poissons Ratio (x) = 0.42606 0.09170
# Poissons Ratio (y) = 0.12481 0.24475
# Poissons Ratio (z) = 0.07795 0.71014
#
# Static dielectric constant tensor:
#      x y z
#    x 1.710670 0.000000 -0.041680 
#    y 0.000000 1.756460 0.000000 
#    z -0.041680 0.000000 1.664330 
# 
# From -- ./inp_files/27130.got.cif
#   From: 2010.05.17/outbox.cif.g08.bks.cpg/sg11_14_cif.got.tgz:27130.got - 2010.06.03 12:22:45.
