data_PCOD9158176
_publ_section_title
;
Structure prediction by ZEFSAII (Michael W. Deem and Ramdas Pophale) SiO2 
 PCOD9158176
Probable space group: P 21/M
;
_chemical_formula_sum "Si O2"
_cell_formula_units_Z 32
_cell_length_a 21.535435
_cell_length_b 9.564925
_cell_length_c 12.070880
_cell_angle_alpha 90.000000
_cell_angle_beta 134.264842
_cell_angle_gamma 90.000000
_cell_volume 1780.576586
_symmetry_space_group_name_H-M "P 21/M"
_symmetry_group_IT_number 11
_symmetry_cell_setting 'monoclinic'
loop_
_space_group_symop_operation_xyz
x,y,z
-x,1/2+y,-z
-x,-y,-z
x,1/2-y,z
loop_
_atom_site_type_symbol
_atom_site_label
_atom_site_fract_x
_atom_site_fract_y
_atom_site_fract_z
Si Si1 0.446670 0.415237 0.023766
Si Si2 0.672436 0.088063 0.817780
Si Si3 0.971058 0.916790 0.137220
Si Si4 0.493639 0.090729 0.697279
Si Si5 0.266955 0.415751 0.893715
Si Si6 0.119019 0.414943 0.207921
Si Si7 0.930375 0.582836 0.340668
Si Si8 0.698391 0.912205 0.636012
O O1 0.459913 0.250000 0.028518
O O2 0.342685 0.441860 0.898126
O O3 0.500000 0.500000 0.000000
O O4 0.482145 0.473792 0.184066
O O5 0.697617 0.250000 0.852341
O O6 0.567393 0.080896 0.695096
O O7 0.703267 0.012530 0.746467
O O8 0.708819 0.007122 0.969411
O O9 0.984819 0.750000 0.154268
O O10 0.937245 0.954307 0.217806
O O11 0.907724 0.946859 0.953693
O O12 0.059058 0.996387 0.214451
O O13 0.502409 0.250000 0.754878
O O14 0.396099 0.074307 0.534864
O O15 0.272153 0.250000 0.928530
O O16 0.167626 0.445440 0.739937
O O17 0.102492 0.250000 0.205012
O O18 0.221312 0.441677 0.345010
O O19 0.945330 0.750000 0.368042
O O20 0.000000 0.500000 0.500000
O O21 0.708797 0.750000 0.685133
#
# Coordination Sequence:
#
# PCOD9158176 Si02
#       8
#     4   4   4   4   4   4   4   4
#     4  10  20  36  58  79 102 138 179 221 265 313
#     4  10  19  30  50  79 108 137 172 219 263 306
#     4   9  18  34  54  75 104 135 169 219 270 313
#     4   9  19  34  50  73 106 139 174 215 260 312
#     4   9  19  37  58  78 102 139 182 216 260 324
#     4   9  18  33  54  77 100 137 181 215 255 316
#     4  10  21  38  58  81 109 141 178 225 276 326
#     4  10  19  32  50  74 106 143 175 208 256 316
#
# _framework density 17.971706999999999
#
# number of rings (size 3 to 8) (size 9 to 14) (size 15 to 20)
#    0.000    2.500    0.000    1.875    0.000    5.000 
#    2.250    2.500    0.000    0.000    0.000    0.000 
#    0.000    0.000    0.000    0.000    0.000    0.000 
#
# Total GULP energy -178389.290581 kJ/mol
# GULP energy per Si atom -5574.665331 kJ/mol
# Density = 1.793080 g / cm^3
# Si number density = 17.971707 Si / 1000 Ang^3
#
#
#
# Elastic Constant Matrix: (Units=GPa)
#
#
# Indices 1 2 3 4 5 6 
#
# 1 115.4859 59.5189 36.6689 0.0000 18.8675 0.0000
# 2 59.5189 57.5748 31.8232 0.0000 12.5258 0.0000
# 3 36.6689 31.8232 42.5858 0.0000 22.5200 0.0000
# 4 0.0000 0.0000 0.0000 27.3713 0.0000 -2.4852
# 5 18.8675 12.5258 22.5200 0.0000 30.9433 0.0000
# 6 0.0000 0.0000 0.0000 -2.4852 0.0000 33.7612
#
#
#
# Elastic Compliance Matrix: (Units=1/GPa)
#
#
# Indices 1 2 3 4 5 6 
#
# 1 0.018975 -0.018499 -0.000579 0.000000 -0.003660 0.000000
# 2 -0.018499 0.048503 -0.025845 0.000000 0.010455 0.000000
# 3 -0.000579 -0.025845 0.061084 0.000000 -0.033640 0.000000
# 4 0.000000 0.000000 0.000000 0.036780 0.000000 0.002707
# 5 -0.003660 0.010455 -0.033640 0.000000 0.054799 0.000000
# 6 0.000000 0.000000 0.000000 0.002707 0.000000 0.029819
#
#
# Mechanical properties :
#
#
# Convention : Reuss Voigt Hill
#
# Bulk Modulus (GPa) = 25.83007 52.40760 39.11883
# Shear Modulus (GPa) = 14.17582 24.25753 19.21668
#
# Velocity S-wave (km/s) = 2.81158 3.67790 3.27352
# Velocity P-wave (km/s) = 4.99438 6.87462 6.00850
#
# Compressibility (1/GPa) = 0.03871457
#
# Stress axis : x y z
#
# Youngs Moduli (GPa) = 52.70062 20.61707 16.37103
#
# Poissons Ratio (x) = 0.38141 0.00948
# Poissons Ratio (y) = 0.97493 0.42311
# Poissons Ratio (z) = 0.03052 0.53285
#
# Static dielectric constant tensor:
#      x y z
#    x 1.638510 0.000000 0.014530 
#    y 0.000000 1.597570 0.000000 
#    z 0.014530 0.000000 1.605880 
# 
# From -- ./inp_files/42843.got.cif
#   From: 2010.05.17/outbox.cif.g08.bks.cpg/sg11_22_cif.got.tgz:42843.got - 2010.06.03 12:22:45.
