data_PCOD9158118
_publ_section_title
;
Structure prediction by ZEFSAII (Michael W. Deem and Ramdas Pophale) SiO2 
 PCOD9158118
Probable space group: P 21/M
;
_chemical_formula_sum "Si O2"
_cell_formula_units_Z 28
_cell_length_a 12.241784
_cell_length_b 10.478759
_cell_length_c 14.358612
_cell_angle_alpha 90.000000
_cell_angle_beta 120.369259
_cell_angle_gamma 90.000000
_cell_volume 1589.167354
_symmetry_space_group_name_H-M "P 21/M"
_symmetry_group_IT_number 11
_symmetry_cell_setting 'monoclinic'
loop_
_space_group_symop_operation_xyz
x,y,z
-x,1/2+y,-z
-x,-y,-z
x,1/2-y,z
loop_
_atom_site_type_symbol
_atom_site_label
_atom_site_fract_x
_atom_site_fract_y
_atom_site_fract_z
Si Si1 0.373554 0.898497 0.757997
Si Si2 0.586813 0.394387 0.890720
Si Si3 0.801545 0.002272 0.856798
Si Si4 0.667206 0.606930 0.622663
Si Si5 0.632657 0.395174 0.461633
Si Si6 0.063607 0.392588 0.906192
Si Si7 0.206813 0.895594 0.859885
O O1 0.417331 0.750000 0.785542
O O2 0.341999 0.919546 0.636141
O O3 0.254978 0.913086 0.775852
O O4 0.481233 0.997660 0.835103
O O5 0.535417 0.250000 0.865343
O O6 0.687769 0.415313 0.851166
O O7 0.668814 0.408205 0.020423
O O8 0.918164 0.086845 0.871647
O O9 0.749124 0.920263 0.749256
O O10 0.855687 0.917550 0.964906
O O11 0.689385 0.750000 0.596835
O O12 0.690472 0.499733 0.555113
O O13 0.519605 0.598374 0.589481
O O14 0.672044 0.250000 0.501657
O O15 0.086314 0.250000 0.881514
O O16 0.108093 0.500722 0.853431
O O17 0.160035 0.750000 0.852807
#
# Coordination Sequence:
#
# PCOD9158118 Si02
#       7
#     4   4   4   4   4   4   4
#     4  10  19  34  52  72 103 140 172 207 257 312
#     4  10  19  30  48  77 105 133 170 211 256 305
#     4  10  20  34  53  77 108 139 169 211 262 310
#     4  10  19  33  52  76 103 136 172 210 257 311
#     4   9  19  33  50  75 104 135 171 210 258 309
#     4  10  21  35  54  79 105 138 178 215 253 304
#     4   9  20  35  50  71 104 140 174 212 254 304
#
# _framework density 17.619289999999999
#
# number of rings (size 3 to 8) (size 9 to 14) (size 15 to 20)
#    0.000    2.286    1.429    1.286    0.000    8.571 
#    0.000    0.000    0.000    0.857    0.000    0.000 
#    0.000    0.000    0.000    0.000    0.000    0.000 
#
# Total GULP energy -156194.370089 kJ/mol
# GULP energy per Si atom -5578.370360 kJ/mol
# Density = 1.757919 g / cm^3
# Si number density = 17.619290 Si / 1000 Ang^3
#
#
#
# Elastic Constant Matrix: (Units=GPa)
#
#
# Indices 1 2 3 4 5 6 
#
# 1 57.9648 47.0423 16.1614 0.0000 -21.2507 0.0000
# 2 47.0423 111.3086 33.8665 0.0000 -20.6497 0.0000
# 3 16.1614 33.8665 34.5059 0.0000 -18.9982 0.0000
# 4 0.0000 0.0000 0.0000 12.7343 0.0000 -0.3671
# 5 -21.2507 -20.6497 -18.9982 0.0000 26.8573 0.0000
# 6 0.0000 0.0000 0.0000 -0.3671 0.0000 6.0241
#
#
#
# Elastic Compliance Matrix: (Units=1/GPa)
#
#
# Indices 1 2 3 4 5 6 
#
# 1 0.033582 -0.012803 0.009905 0.000000 0.023734 0.000000
# 2 -0.012803 0.017731 -0.015523 0.000000 -0.007479 0.000000
# 3 0.009905 -0.015523 0.061128 0.000000 0.039142 0.000000
# 4 0.000000 0.000000 0.000000 0.078666 0.000000 0.004793
# 5 0.023734 -0.007479 0.039142 0.000000 0.077951 0.000000
# 6 0.000000 0.000000 0.000000 0.004793 0.000000 0.166292
#
#
# Mechanical properties :
#
#
# Convention : Reuss Voigt Hill
#
# Bulk Modulus (GPa) = 13.22800 44.21331 28.72066
# Shear Modulus (GPa) = 10.05242 16.23709 13.14475
#
# Velocity S-wave (km/s) = 2.39118 3.03900 2.73434
# Velocity P-wave (km/s) = 3.89200 6.12064 5.12883
#
# Compressibility (1/GPa) = 0.07559723
#
# Stress axis : x y z
#
# Youngs Moduli (GPa) = 29.77760 56.39937 16.35922
#
# Poissons Ratio (x) = 0.72210 -0.16203
# Poissons Ratio (y) = 0.38125 0.25395
# Poissons Ratio (z) = -0.29494 0.87549
#
# Static dielectric constant tensor:
#      x y z
#    x 1.589260 0.000000 -0.010680 
#    y 0.000000 1.608560 0.000000 
#    z -0.010680 0.000000 1.582940 
# 
# From -- ./inp_files/49496.got.cif
#   From: 2010.05.17/outbox.cif.g08.bks.cpg/sg11_25_cif.got.tgz:49496.got - 2010.06.03 12:22:45.
