data_PCOD9158368
_publ_section_title
;
Structure prediction by ZEFSAII (Michael W. Deem and Ramdas Pophale) SiO2 
 PCOD9158368
Probable space group: P 21/M
;
_chemical_formula_sum "Si O2"
_cell_formula_units_Z 32
_cell_length_a 6.639181
_cell_length_b 24.039938
_cell_length_c 11.786268
_cell_angle_alpha 90.000000
_cell_angle_beta 111.563311
_cell_angle_gamma 90.000000
_cell_volume 1749.495084
_symmetry_space_group_name_H-M "P 21/M"
_symmetry_group_IT_number 11
_symmetry_cell_setting 'monoclinic'
loop_
_space_group_symop_operation_xyz
x,y,z
-x,1/2+y,-z
-x,-y,-z
x,1/2-y,z
loop_
_atom_site_type_symbol
_atom_site_label
_atom_site_fract_x
_atom_site_fract_y
_atom_site_fract_z
Si Si1 0.215398 0.815724 0.924973
Si Si2 0.994670 0.913575 0.752100
Si Si3 0.186527 0.045446 0.049552
Si Si4 0.465869 0.602123 0.300806
Si Si5 0.368324 0.186707 0.843091
Si Si6 0.387115 0.518298 0.751178
Si Si7 0.991213 0.360309 0.887201
Si Si8 0.454710 0.063066 0.446308
O O1 0.197688 0.750000 0.893378
O O2 0.130086 0.856913 0.807510
O O3 0.461015 0.827897 0.019604
O O4 0.077708 0.829822 0.010575
O O5 0.876638 0.925306 0.845987
O O6 0.796431 0.919170 0.622677
O O7 0.161309 0.962825 0.756598
O O8 0.427011 0.024041 0.115684
O O9 0.158968 0.090025 0.946175
O O10 0.000000 0.000000 0.000000
O O11 0.592197 0.649353 0.258660
O O12 0.578523 0.544002 0.287791
O O13 0.459308 0.602245 0.435686
O O14 0.221036 0.610004 0.206266
O O15 0.421353 0.250000 0.825461
O O16 0.123041 0.180497 0.834270
O O17 0.433924 0.560097 0.654542
O O18 0.500000 0.000000 0.500000
#
# Coordination Sequence:
#
# PCOD9158368 Si02
#       8
#     4   4   4   4   4   4   4   4
#     4   9  19  37  55  78 108 139 179 224 269 326
#     4  10  21  34  55  80 107 146 181 226 275 321
#     4  10  19  31  48  80 117 136 170 218 267 333
#     4  10  21  34  53  77 105 142 179 221 268 319
#     4  10  21  35  55  80 104 137 182 223 273 333
#     4  10  20  34  54  80 109 142 179 217 272 331
#     4  10  19  33  53  79 108 144 173 214 274 325
#     4   9  21  38  53  76 109 143 183 221 263 326
#
# _framework density 18.290993
#
# number of rings (size 3 to 8) (size 9 to 14) (size 15 to 20)
#    0.000    2.250    1.250    1.125    1.750    4.000 
#    0.000    0.625    0.000    0.750    0.000    0.000 
#    0.000    0.000    0.000    0.000    0.000    0.000 
#
# Total GULP energy -178149.029868 kJ/mol
# GULP energy per Si atom -5567.157183 kJ/mol
# Density = 1.824936 g / cm^3
# Si number density = 18.290993 Si / 1000 Ang^3
#
#
#
# Elastic Constant Matrix: (Units=GPa)
#
#
# Indices 1 2 3 4 5 6 
#
# 1 46.1279 18.6694 19.8594 0.0000 -3.4050 0.0000
# 2 18.6694 81.6093 32.5100 0.0000 7.1720 0.0000
# 3 19.8594 32.5100 71.0816 0.0000 7.6753 0.0000
# 4 0.0000 0.0000 0.0000 25.6843 0.0000 -0.2606
# 5 -3.4050 7.1720 7.6753 0.0000 10.4568 0.0000
# 6 0.0000 0.0000 0.0000 -0.2606 0.0000 21.6276
#
#
#
# Elastic Compliance Matrix: (Units=1/GPa)
#
#
# Indices 1 2 3 4 5 6 
#
# 1 0.028339 -0.005073 -0.007570 0.000000 0.018263 0.000000
# 2 -0.005073 0.016211 -0.005016 0.000000 -0.009089 0.000000
# 3 -0.007570 -0.005016 0.019953 0.000000 -0.013671 0.000000
# 4 0.000000 0.000000 0.000000 0.038939 0.000000 0.000469
# 5 0.018263 -0.009089 -0.013671 0.000000 0.117846 0.000000
# 6 0.000000 0.000000 0.000000 0.000469 0.000000 0.046243
#
#
# Mechanical properties :
#
#
# Convention : Reuss Voigt Hill
#
# Bulk Modulus (GPa) = 34.26129 37.87737 36.06933
# Shear Modulus (GPa) = 15.99614 20.07240 18.03427
#
# Velocity S-wave (km/s) = 2.96046 3.31629 3.14341
# Velocity P-wave (km/s) = 5.51885 5.95120 5.73910
#
# Compressibility (1/GPa) = 0.02918746
#
# Stress axis : x y z
#
# Youngs Moduli (GPa) = 35.28707 61.68777 50.11711
#
# Poissons Ratio (x) = 0.31291 0.37937
# Poissons Ratio (y) = 0.17899 0.25136
# Poissons Ratio (z) = 0.26711 0.30940
#
# Static dielectric constant tensor:
#      x y z
#    x 1.647740 0.000000 0.001420 
#    y 0.000000 1.648830 0.000000 
#    z 0.001420 0.000000 1.665820 
# 
# From -- ./inp_files/30263.got.cif
#   From: 2010.05.17/outbox.cif.g08.bks.cpg/sg11_16_cif.got.tgz:30263.got - 2010.06.03 12:22:45.
