data_PCOD9158681
_publ_section_title
;
Structure prediction by ZEFSAII (Michael W. Deem and Ramdas Pophale) SiO2 
 PCOD9158681
Probable space group: P 21/M
;
_chemical_formula_sum "Si O2"
_cell_formula_units_Z 28
_cell_length_a 12.395548
_cell_length_b 7.822107
_cell_length_c 14.610510
_cell_angle_alpha 90.000000
_cell_angle_beta 51.734982
_cell_angle_gamma 90.000000
_cell_volume 1112.269571
_symmetry_space_group_name_H-M "P 21/M"
_symmetry_group_IT_number 11
_symmetry_cell_setting 'monoclinic'
loop_
_space_group_symop_operation_xyz
x,y,z
-x,1/2+y,-z
-x,-y,-z
x,1/2-y,z
loop_
_atom_site_type_symbol
_atom_site_label
_atom_site_fract_x
_atom_site_fract_y
_atom_site_fract_z
Si Si1 0.060813 0.453097 0.298402
Si Si2 0.652049 0.064385 0.895811
Si Si3 0.300099 0.040812 0.643693
Si Si4 0.266132 0.051093 0.955906
Si Si5 0.787421 0.446946 0.513536
Si Si6 0.499492 0.458435 0.689463
Si Si7 0.018562 0.447667 0.865986
O O1 0.040334 0.250000 0.301383
O O2 0.223299 0.480896 0.227520
O O3 0.020464 0.531956 0.221647
O O4 0.942114 0.520194 0.429759
O O5 0.633859 0.250000 0.863786
O O6 0.500000 0.000000 0.000000
O O7 0.714067 0.061946 0.965125
O O8 0.297979 0.250000 0.634751
O O9 0.437859 0.986019 0.623929
O O10 0.176001 0.993760 0.778883
O O11 0.263793 0.956727 0.566051
O O12 0.289100 0.250000 0.969041
O O13 0.383651 0.999588 0.823952
O O14 0.105434 0.037277 0.015017
O O15 0.798419 0.250000 0.537979
O O16 0.651797 0.524949 0.631628
O O17 0.505826 0.250000 0.683029
O O18 0.015736 0.250000 0.891559
#
# Coordination Sequence:
#
# PCOD9158681 Si02
#       7
#     4   4   4   4   4   4   4
#     4   9  16  28  48  73  97 122 155 192 233 279
#     4  11  21  35  56  79 100 118 144 186 234 286
#     4   9  17  29  45  66  93 128 170 211 245 275
#     4  10  19  32  49  69  96 129 161 192 236 291
#     4   9  17  30  48  69  95 129 168 205 236 272
#     4   9  18  31  46  66  96 133 167 201 241 279
#     4   9  16  27  43  64  93 126 161 203 244 279
#
# _framework density 25.173755
#
# number of rings (size 3 to 8) (size 9 to 14) (size 15 to 20)
#    0.000    2.571    0.000    4.714    0.000    1.714 
#    0.000    2.857    0.000    0.857    0.000    0.000 
#    0.000    0.000    0.000    0.000    0.000    0.000 
#
# Total GULP energy -156149.924053 kJ/mol
# GULP energy per Si atom -5576.783002 kJ/mol
# Density = 2.511646 g / cm^3
# Si number density = 25.173755 Si / 1000 Ang^3
#
#
#
# Elastic Constant Matrix: (Units=GPa)
#
#
# Indices 1 2 3 4 5 6 
#
# 1 84.7510 4.7812 49.9248 0.0000 -33.0249 0.0000
# 2 4.7812 52.3455 -0.0353 0.0000 -11.7351 0.0000
# 3 49.9248 -0.0353 147.5547 0.0000 -61.0386 0.0000
# 4 0.0000 0.0000 0.0000 317.4984 0.0000 -135.7055
# 5 -33.0249 -11.7351 -61.0386 0.0000 58.4161 0.0000
# 6 0.0000 0.0000 0.0000 -135.7055 0.0000 72.8101
#
#
#
# Elastic Compliance Matrix: (Units=1/GPa)
#
#
# Indices 1 2 3 4 5 6 
#
# 1 0.015813 -0.000135 -0.002930 0.000000 0.005851 0.000000
# 2 -0.000135 0.020755 0.003071 0.000000 0.007303 0.000000
# 3 -0.002930 0.003071 0.012927 0.000000 0.012468 0.000000
# 4 0.000000 0.000000 0.000000 0.015488 0.000000 0.028867
# 5 0.005851 0.007303 0.012468 0.000000 0.034921 0.000000
# 6 0.000000 0.000000 0.000000 0.028867 0.000000 0.067537
#
#
# Mechanical properties :
#
#
# Convention : Reuss Voigt Hill
#
# Bulk Modulus (GPa) = 20.19839 43.77696 31.98767
# Shear Modulus (GPa) = 27.18438 105.07695 66.13067
#
# Velocity S-wave (km/s) = 3.28970 6.46771 5.13096
# Velocity P-wave (km/s) = 4.74031 8.55586 6.91640
#
# Compressibility (1/GPa) = 0.04950890
#
# Stress axis : x y z
#
# Youngs Moduli (GPa) = 63.23998 48.18029 77.35982
#
# Poissons Ratio (x) = 0.00648 0.22665
# Poissons Ratio (y) = 0.00851 -0.23760
# Poissons Ratio (z) = 0.18528 -0.14798
#
# Static dielectric constant tensor:
#      x y z
#    x 2.083660 0.000000 -0.052550 
#    y 0.000000 1.915640 0.000000 
#    z -0.052550 0.000000 2.113800 
# 
# From -- ./inp_files/42582.got.cif
#   From: 2010.05.17/outbox.cif.g08.bks.cpg/sg11_22_cif.got.tgz:42582.got - 2010.06.03 12:22:45.
