data_PCOD9158048
_publ_section_title
;
Structure prediction by ZEFSAII (Michael W. Deem and Ramdas Pophale) SiO2 
 PCOD9158048
Probable space group: P 21/M
;
_chemical_formula_sum "Si O2"
_cell_formula_units_Z 28
_cell_length_a 9.868772
_cell_length_b 9.046647
_cell_length_c 18.261450
_cell_angle_alpha 90.000000
_cell_angle_beta 98.645931
_cell_angle_gamma 90.000000
_cell_volume 1611.842201
_symmetry_space_group_name_H-M "P 21/M"
_symmetry_group_IT_number 11
_symmetry_cell_setting 'monoclinic'
loop_
_space_group_symop_operation_xyz
x,y,z
-x,1/2+y,-z
-x,-y,-z
x,1/2-y,z
loop_
_atom_site_type_symbol
_atom_site_label
_atom_site_fract_x
_atom_site_fract_y
_atom_site_fract_z
Si Si1 0.584404 0.427189 0.243313
Si Si2 0.708647 0.074749 0.547848
Si Si3 0.885334 0.575857 0.679803
Si Si4 0.585577 0.925843 0.401109
Si Si5 0.036269 0.926411 0.080021
Si Si6 0.278302 0.074234 0.182986
Si Si7 0.130005 0.926985 0.803460
O O1 0.582654 0.250000 0.255495
O O2 0.601010 0.505555 0.322503
O O3 0.437590 0.466957 0.196994
O O4 0.713514 0.460772 0.202517
O O5 0.282714 0.750000 0.461455
O O6 0.833315 0.015331 0.606593
O O7 0.688765 0.996082 0.468435
O O8 0.568398 0.041584 0.581705
O O9 0.880691 0.750000 0.661730
O O10 0.782916 0.550640 0.740348
O O11 0.034275 0.539816 0.725110
O O12 0.601934 0.750000 0.400468
O O13 0.032858 0.750000 0.075021
O O14 0.184229 0.982994 0.120165
O O15 0.930709 0.985367 0.133040
O O16 0.000000 0.000000 0.000000
O O17 0.264164 0.250000 0.166479
O O18 0.114753 0.750000 0.815810
#
# Coordination Sequence:
#
# PCOD9158048 Si02
#       7
#     4   4   4   4   4   4   4
#     4  10  19  35  57  80 110 144 177 217 268 322
#     4  10  19  30  47  72 101 137 184 230 271 316
#     4   9  16  30  51  75 104 136 176 223 267 315
#     4  10  20  31  47  73 106 139 177 229 276 317
#     4  11  22  38  61  85 111 141 176 217 258 309
#     4   9  18  33  56  83 109 140 177 217 262 315
#     4   9  20  37  57  82 111 143 176 214 265 321
#
# _framework density 17.371428999999999
#
# number of rings (size 3 to 8) (size 9 to 14) (size 15 to 20)
#    0.000    2.286    1.429    3.000    0.000    4.571 
#    0.000    1.429    0.000    0.000    0.000    0.000 
#    0.000    0.000    0.000    0.000    0.000    0.000 
#
# Total GULP energy -156258.199924 kJ/mol
# GULP energy per Si atom -5580.649997 kJ/mol
# Density = 1.733189 g / cm^3
# Si number density = 17.371429 Si / 1000 Ang^3
#
#
#
# Elastic Constant Matrix: (Units=GPa)
#
#
# Indices 1 2 3 4 5 6 
#
# 1 116.4048 48.3448 53.9621 0.0000 13.1772 0.0000
# 2 48.3448 65.0244 69.7477 0.0000 7.9450 0.0000
# 3 53.9621 69.7477 125.1589 0.0000 17.3370 0.0000
# 4 0.0000 0.0000 0.0000 34.5271 0.0000 3.9144
# 5 13.1772 7.9450 17.3370 0.0000 15.5431 0.0000
# 6 0.0000 0.0000 0.0000 3.9144 0.0000 20.0131
#
#
#
# Elastic Compliance Matrix: (Units=1/GPa)
#
#
# Indices 1 2 3 4 5 6 
#
# 1 0.013035 -0.009560 0.000664 0.000000 -0.006905 0.000000
# 2 -0.009560 0.045574 -0.022675 0.000000 0.010101 0.000000
# 3 0.000664 -0.022675 0.022250 0.000000 -0.013790 0.000000
# 4 0.000000 0.000000 0.000000 0.029620 0.000000 -0.005793
# 5 -0.006905 0.010101 -0.013790 0.000000 0.080410 0.000000
# 6 0.000000 0.000000 0.000000 -0.005793 0.000000 0.051101
#
#
# Mechanical properties :
#
#
# Convention : Reuss Voigt Hill
#
# Bulk Modulus (GPa) = 56.44085 72.29970 64.37028
# Shear Modulus (GPa) = 16.07536 22.98554 19.53045
#
# Velocity S-wave (km/s) = 3.04532 3.64150 3.35667
# Velocity P-wave (km/s) = 6.70272 7.70655 7.22210
#
# Compressibility (1/GPa) = 0.01771766
#
# Stress axis : x y z
#
# Youngs Moduli (GPa) = 76.71720 21.94247 44.94430
#
# Poissons Ratio (x) = 0.20976 -0.02983
# Poissons Ratio (y) = 0.73339 1.01909
# Poissons Ratio (z) = -0.05092 0.49753
#
# Static dielectric constant tensor:
#      x y z
#    x 1.600830 0.000000 0.008420 
#    y 0.000000 1.574190 0.000000 
#    z 0.008420 0.000000 1.556150 
# 
# From -- ./inp_files/57559.got.cif
#   From: 2010.05.17/outbox.cif.g08.bks.cpg/sg11_29_cif.got.tgz:57559.got - 2010.06.03 12:22:45.
