data_PCOD9158056
_publ_section_title
;
Structure prediction by ZEFSAII (Michael W. Deem and Ramdas Pophale) SiO2 
 PCOD9158056
Probable space group: P 21/M
;
_chemical_formula_sum "Si O2"
_cell_formula_units_Z 32
_cell_length_a 16.177649
_cell_length_b 8.813795
_cell_length_c 26.690202
_cell_angle_alpha 90.000000
_cell_angle_beta 29.878288
_cell_angle_gamma 90.000000
_cell_volume 1895.825528
_symmetry_space_group_name_H-M "P 21/M"
_symmetry_group_IT_number 11
_symmetry_cell_setting 'monoclinic'
loop_
_space_group_symop_operation_xyz
x,y,z
-x,1/2+y,-z
-x,-y,-z
x,1/2-y,z
loop_
_atom_site_type_symbol
_atom_site_label
_atom_site_fract_x
_atom_site_fract_y
_atom_site_fract_z
Si Si1 0.742275 0.931348 0.154445
Si Si2 0.924674 0.567188 0.423936
Si Si3 0.882774 0.931371 0.767981
Si Si4 0.431001 0.930832 0.121350
Si Si5 0.759716 0.429966 0.676247
Si Si6 0.046527 0.433212 0.053225
Si Si7 0.379115 0.068939 0.351416
Si Si8 0.187851 0.434860 0.085267
O O1 0.739231 0.750000 0.159060
O O2 0.559605 0.995333 0.258665
O O3 0.813739 0.972804 0.061705
O O4 0.875280 0.996850 0.123721
O O5 0.931733 0.750000 0.416539
O O6 0.745270 0.521384 0.538600
O O7 0.983288 0.499302 0.340592
O O8 0.064347 0.524207 0.391880
O O9 0.890359 0.750000 0.761860
O O10 0.898007 0.980922 0.817725
O O11 0.702888 0.984954 0.842499
O O12 0.419856 0.750000 0.116917
O O13 0.373450 0.951724 0.209121
O O14 0.619310 0.982129 0.015127
O O15 0.765218 0.250000 0.661753
O O16 0.708262 0.520354 0.654429
O O17 0.031886 0.250000 0.061053
O O18 0.100545 0.484893 0.079988
O O19 0.394967 0.250000 0.344630
O O20 0.189817 0.250000 0.082941
#
# Coordination Sequence:
#
# PCOD9158056 Si02
#       8
#     4   4   4   4   4   4   4   4
#     4  10  20  34  53  77 102 126 154 192 239 288
#     4   9  20  36  49  65  95 134 168 198 241 288
#     4  10  19  30  47  72  98 127 167 208 238 271
#     4   9  17  31  48  68 101 138 163 189 236 292
#     4   9  17  30  48  70  98 131 163 197 238 282
#     4   9  18  35  55  73  99 131 157 188 236 292
#     4  11  21  32  50  73  96 127 165 200 238 289
#     4   9  17  30  50  73  97 129 165 197 237 287
#
# _framework density 16.879190000000001
#
# number of rings (size 3 to 8) (size 9 to 14) (size 15 to 20)
#    0.000    2.500    0.000    3.375    0.000    5.500 
#    0.000    2.500    0.000    0.750    0.000    0.000 
#    0.000    0.000    0.000    0.000    0.000    0.000 
#
# Total GULP energy -178531.863447 kJ/mol
# GULP energy per Si atom -5579.120733 kJ/mol
# Density = 1.684077 g / cm^3
# Si number density = 16.879190 Si / 1000 Ang^3
#
#
#
# Elastic Constant Matrix: (Units=GPa)
#
#
# Indices 1 2 3 4 5 6 
#
# 1 116.8003 32.0515 88.0378 0.0000 17.0547 0.0000
# 2 32.0515 22.8195 40.8388 0.0000 1.4873 0.0000
# 3 88.0378 40.8388 149.4045 0.0000 -4.1090 0.0000
# 4 0.0000 0.0000 0.0000 22.8859 0.0000 -2.0388
# 5 17.0547 1.4873 -4.1090 0.0000 14.4857 0.0000
# 6 0.0000 0.0000 0.0000 -2.0388 0.0000 23.5499
#
#
#
# Elastic Compliance Matrix: (Units=1/GPa)
#
#
# Indices 1 2 3 4 5 6 
#
# 1 0.027202 -0.010824 -0.014030 0.000000 -0.034895 0.000000
# 2 -0.010824 0.093733 -0.019308 0.000000 -0.002357 0.000000
# 3 -0.014030 -0.019308 0.020910 0.000000 0.024432 0.000000
# 4 0.000000 0.000000 0.000000 0.044035 0.000000 0.003812
# 5 -0.034895 -0.002357 0.024432 0.000000 0.117290 0.000000
# 6 0.000000 0.000000 0.000000 0.003812 0.000000 0.042793
#
#
# Mechanical properties :
#
#
# Convention : Reuss Voigt Hill
#
# Bulk Modulus (GPa) = 18.68412 67.87560 43.27986
# Shear Modulus (GPa) = 11.05881 20.72407 15.89144
#
# Velocity S-wave (km/s) = 2.56241 3.50778 3.07169
# Velocity P-wave (km/s) = 4.45511 7.53033 6.18684
#
# Compressibility (1/GPa) = 0.05352138
#
# Stress axis : x y z
#
# Youngs Moduli (GPa) = 36.76170 10.66856 47.82316
#
# Poissons Ratio (x) = 0.11548 0.67097
# Poissons Ratio (y) = 0.39790 0.92338
# Poissons Ratio (z) = 0.51577 0.20599
#
# Static dielectric constant tensor:
#      x y z
#    x 1.549930 0.000000 0.014090 
#    y 0.000000 1.567560 0.000000 
#    z 0.014090 0.000000 1.574050 
# 
# From -- ./inp_files/51681.got.cif
#   From: 2010.05.17/outbox.cif.g08.bks.cpg/sg11_26_cif.got.tgz:51681.got - 2010.06.03 12:22:45.
