data_PCOD9158454
_publ_section_title
;
Structure prediction by ZEFSAII (Michael W. Deem and Ramdas Pophale) SiO2 
 PCOD9158454
Probable space group: P 21/M
;
_chemical_formula_sum "Si O2"
_cell_formula_units_Z 28
_cell_length_a 5.205004
_cell_length_b 13.405759
_cell_length_c 23.363770
_cell_angle_alpha 90.000000
_cell_angle_beta 107.812776
_cell_angle_gamma 90.000000
_cell_volume 1552.102026
_symmetry_space_group_name_H-M "P 21/M"
_symmetry_group_IT_number 11
_symmetry_cell_setting 'monoclinic'
loop_
_space_group_symop_operation_xyz
x,y,z
-x,1/2+y,-z
-x,-y,-z
x,1/2-y,z
loop_
_atom_site_type_symbol
_atom_site_label
_atom_site_fract_x
_atom_site_fract_y
_atom_site_fract_z
Si Si1 0.625702 0.139267 0.890718
Si Si2 0.229715 0.632543 0.668704
Si Si3 0.199667 0.038769 0.276562
Si Si4 0.771212 0.064034 0.015624
Si Si5 0.883600 0.967627 0.431173
Si Si6 0.084730 0.488707 0.860531
Si Si7 0.688926 0.368978 0.625185
O O1 0.568879 0.250000 0.865000
O O2 0.365561 0.068205 0.867884
O O3 0.875457 0.089230 0.874822
O O4 0.702741 0.145423 0.963430
O O5 0.245158 0.750000 0.659805
O O6 0.511076 0.590269 0.712485
O O7 0.181077 0.568779 0.608093
O O8 0.985252 0.605297 0.694346
O O9 0.245520 0.933360 0.312952
O O10 0.045919 0.025588 0.206667
O O11 0.863267 0.074486 0.087680
O O12 0.500000 0.000000 0.000000
O O13 0.000000 0.000000 0.000000
O O14 0.607914 0.904239 0.415114
O O15 0.097718 0.905132 0.408094
O O16 0.000000 0.000000 0.500000
O O17 0.700973 0.250000 0.634754
#
# Coordination Sequence:
#
# PCOD9158454 Si02
#       7
#     4   4   4   4   4   4   4
#     4  10  19  31  49  76 103 130 173 222 264 316
#     4  10  21  38  58  80 109 144 178 222 268 307
#     4  10  21  37  56  80 110 143 183 221 261 321
#     4   8  16  30  48  67  94 129 161 201 258 308
#     4  10  21  38  58  84 111 140 183 222 262 321
#     4  10  19  34  53  72 101 141 173 211 266 316
#     4  10  21  36  55  81 116 147 174 219 272 317
#
# _framework density 18.040050999999998
#
# number of rings (size 3 to 8) (size 9 to 14) (size 15 to 20)
#    0.000    2.286    0.000    2.571    0.000    2.286 
#    0.000    1.429    0.000    0.000    0.000    0.000 
#    0.000    0.000    0.000    0.000    0.000    0.000 
#
# Total GULP energy -156054.205242 kJ/mol
# GULP energy per Si atom -5573.364473 kJ/mol
# Density = 1.799899 g / cm^3
# Si number density = 18.040051 Si / 1000 Ang^3
#
#
#
# Elastic Constant Matrix: (Units=GPa)
#
#
# Indices 1 2 3 4 5 6 
#
# 1 91.6440 14.1651 -3.4237 0.0000 14.2053 0.0000
# 2 14.1651 107.5271 20.6904 0.0000 6.7306 0.0000
# 3 -3.4237 20.6904 107.3245 0.0000 24.8534 0.0000
# 4 0.0000 0.0000 0.0000 5.0190 0.0000 0.4165
# 5 14.2053 6.7306 24.8534 0.0000 21.2022 0.0000
# 6 0.0000 0.0000 0.0000 0.4165 0.0000 12.3286
#
#
#
# Elastic Compliance Matrix: (Units=1/GPa)
#
#
# Indices 1 2 3 4 5 6 
#
# 1 0.013271 -0.001663 0.003680 0.000000 -0.012677 0.000000
# 2 -0.001663 0.009889 -0.002046 0.000000 0.000373 0.000000
# 3 0.003680 -0.002046 0.014069 0.000000 -0.018307 0.000000
# 4 0.000000 0.000000 0.000000 0.199803 0.000000 -0.006750
# 5 -0.012677 0.000373 -0.018307 0.000000 0.077000 0.000000
# 6 0.000000 0.000000 0.000000 -0.006750 0.000000 0.081341
#
#
# Mechanical properties :
#
#
# Convention : Reuss Voigt Hill
#
# Bulk Modulus (GPa) = 26.90254 41.03990 33.97122
# Shear Modulus (GPa) = 12.26024 26.04754 19.15389
#
# Velocity S-wave (km/s) = 2.60977 3.80396 3.26197
# Velocity P-wave (km/s) = 4.90165 6.48785 5.74971
#
# Compressibility (1/GPa) = 0.03717122
#
# Stress axis : x y z
#
# Youngs Moduli (GPa) = 75.35073 101.11882 71.07907
#
# Poissons Ratio (x) = 0.16814 -0.26154
# Poissons Ratio (y) = 0.12529 0.14542
# Poissons Ratio (z) = -0.27726 0.20688
#
# Static dielectric constant tensor:
#      x y z
#    x 1.606160 0.000000 0.003130 
#    y 0.000000 1.593710 0.000000 
#    z 0.003130 0.000000 1.622780 
# 
# From -- ./inp_files/8767.got.cif
#   From: 2010.05.17/outbox.cif.g08.bks.cpg/sg11_5_cif.got.tgz:8767.got - 2010.06.03 12:22:45.
