data_PCOD9158661
_publ_section_title
;
Structure prediction by ZEFSAII (Michael W. Deem and Ramdas Pophale) SiO2 
 PCOD9158661
Probable space group: P 21/M
;
_chemical_formula_sum "Si O2"
_cell_formula_units_Z 32
_cell_length_a 11.930207
_cell_length_b 13.425901
_cell_length_c 11.936992
_cell_angle_alpha 90.000000
_cell_angle_beta 66.859458
_cell_angle_gamma 90.000000
_cell_volume 1758.161126
_symmetry_space_group_name_H-M "P 21/M"
_symmetry_group_IT_number 11
_symmetry_cell_setting 'monoclinic'
loop_
_space_group_symop_operation_xyz
x,y,z
-x,1/2+y,-z
-x,-y,-z
x,1/2-y,z
loop_
_atom_site_type_symbol
_atom_site_label
_atom_site_fract_x
_atom_site_fract_y
_atom_site_fract_z
Si Si1 0.998159 0.948033 0.212113
Si Si2 0.145854 0.865345 0.353827
Si Si3 0.712947 0.052049 0.497893
Si Si4 0.225991 0.629595 0.985208
Si Si5 0.514481 0.629600 0.274782
Si Si6 0.393438 0.863200 0.106850
Si Si7 0.741097 0.863938 0.338114
Si Si8 0.161916 0.863946 0.759366
O O1 0.878081 0.881310 0.241650
O O2 0.048153 0.921840 0.316029
O O3 0.105970 0.920479 0.085148
O O4 0.948673 0.059772 0.218195
O O5 0.110506 0.750000 0.388857
O O6 0.183339 0.921550 0.451880
O O7 0.269530 0.861398 0.230480
O O8 0.585710 0.079443 0.605475
O O9 0.742343 0.118707 0.377860
O O10 0.719311 0.940274 0.448446
O O11 0.216509 0.750000 0.007517
O O12 0.344287 0.594270 0.008963
O O13 0.224356 0.612561 0.853797
O O14 0.492085 0.750000 0.284299
O O15 0.491129 0.594299 0.156314
O O16 0.645903 0.612613 0.276567
O O17 0.433218 0.750000 0.067153
O O18 0.723109 0.750000 0.379223
O O19 0.120826 0.750000 0.777677
#
# Coordination Sequence:
#
# PCOD9158661 Si02
#       8
#     4   4   4   4   4   4   4   4
#     4  10  19  32  48  67  95 122 152 193 232 271
#     4   9  16  29  50  70  88 118 155 189 228 267
#     4  10  19  32  48  67  95 122 152 193 232 271
#     4   9  16  29  49  71  94 119 152 193 231 269
#     4   9  16  29  49  71  94 119 152 193 231 269
#     4   7  12  24  45  69  88 112 150 193 225 249
#     4  10  20  30  44  69  96 124 154 184 231 285
#     4  10  20  30  44  69  96 124 154 184 231 285
#
# _framework density 18.200835000000001
#
# number of rings (size 3 to 8) (size 9 to 14) (size 15 to 20)
#    0.000    2.750    0.000    4.500    0.000    2.000 
#    0.000    1.875    0.000    3.000    0.000    3.500 
#    0.000   10.000    0.000    0.000    0.000    0.000 
#
# Total GULP energy -178265.859232 kJ/mol
# GULP energy per Si atom -5570.808101 kJ/mol
# Density = 1.815941 g / cm^3
# Si number density = 18.200835 Si / 1000 Ang^3
#
#
#
# Elastic Constant Matrix: (Units=GPa)
#
#
# Indices 1 2 3 4 5 6 
#
# 1 108.1389 41.3442 70.3502 0.0000 46.7186 0.0000
# 2 41.3442 98.3001 25.3399 0.0000 23.6259 0.0000
# 3 70.3502 25.3399 58.1064 0.0000 27.5665 0.0000
# 4 0.0000 0.0000 0.0000 14.6075 0.0000 1.1530
# 5 46.7186 23.6259 27.5665 0.0000 30.5407 0.0000
# 6 0.0000 0.0000 0.0000 1.1530 0.0000 15.4195
#
#
#
# Elastic Compliance Matrix: (Units=1/GPa)
#
#
# Indices 1 2 3 4 5 6 
#
# 1 0.078563 -0.001776 -0.066423 0.000000 -0.058851 0.000000
# 2 -0.001776 0.012613 -0.000018 0.000000 -0.007024 0.000000
# 3 -0.066423 -0.000018 0.086442 0.000000 0.023599 0.000000
# 4 0.000000 0.000000 0.000000 0.068865 0.000000 -0.005149
# 5 -0.058851 -0.007024 0.023599 0.000000 0.106901 0.000000
# 6 0.000000 0.000000 0.000000 -0.005149 0.000000 0.065238
#
#
# Mechanical properties :
#
#
# Convention : Reuss Voigt Hill
#
# Bulk Modulus (GPa) = 24.28175 59.84601 42.06388
# Shear Modulus (GPa) = 8.79070 20.61428 14.70249
#
# Velocity S-wave (km/s) = 2.20007 3.36906 2.84525
# Velocity P-wave (km/s) = 4.45238 6.93444 5.82710
#
# Compressibility (1/GPa) = 0.04118319
#
# Stress axis : x y z
#
# Youngs Moduli (GPa) = 12.72860 79.28516 11.56852
#
# Poissons Ratio (x) = 0.14080 0.76842
# Poissons Ratio (y) = 0.02260 0.00021
# Poissons Ratio (z) = 0.84548 0.00141
#
# Static dielectric constant tensor:
#      x y z
#    x 1.648770 0.000000 0.030660 
#    y 0.000000 1.644580 0.000000 
#    z 0.030660 0.000000 1.626660 
# 
# From -- ./inp_files/35498.got.cif
#   From: 2010.05.17/outbox.cif.g08.bks.cpg/sg11_18_cif.got.tgz:35498.got - 2010.06.03 12:22:45.
