data_PCOD9158741
_publ_section_title
;
Structure prediction by ZEFSAII (Michael W. Deem and Ramdas Pophale) SiO2 
 PCOD9158741
Probable space group: P 21/M
;
_chemical_formula_sum "Si O2"
_cell_formula_units_Z 32
_cell_length_a 7.167382
_cell_length_b 9.302649
_cell_length_c 22.109933
_cell_angle_alpha 90.000000
_cell_angle_beta 107.612738
_cell_angle_gamma 90.000000
_cell_volume 1405.088744
_symmetry_space_group_name_H-M "P 21/M"
_symmetry_group_IT_number 11
_symmetry_cell_setting 'monoclinic'
loop_
_space_group_symop_operation_xyz
x,y,z
-x,1/2+y,-z
-x,-y,-z
x,1/2-y,z
loop_
_atom_site_type_symbol
_atom_site_label
_atom_site_fract_x
_atom_site_fract_y
_atom_site_fract_z
Si Si1 0.774760 0.590832 0.193187
Si Si2 0.593278 0.585427 0.416629
Si Si3 0.366196 0.079260 0.296513
Si Si4 0.025995 0.579598 0.329224
Si Si5 0.722036 0.914919 0.955125
Si Si6 0.685886 0.085632 0.834576
Si Si7 0.244882 0.913539 0.921764
Si Si8 0.202435 0.587611 0.464648
O O1 0.847969 0.750000 0.185011
O O2 0.542415 0.595860 0.169896
O O3 0.840704 0.482084 0.147888
O O4 0.841084 0.559614 0.267919
O O5 0.631245 0.750000 0.402523
O O6 0.543115 0.490205 0.352960
O O7 0.394892 0.585156 0.439230
O O8 0.754966 0.521876 0.477741
O O9 0.389071 0.250000 0.291778
O O10 0.178973 0.034186 0.317882
O O11 0.322165 0.000585 0.228902
O O12 0.086627 0.750000 0.327496
O O13 0.025472 0.557756 0.400876
O O14 0.785667 0.750000 0.960543
O O15 0.483038 0.913289 0.937065
O O16 0.776727 0.997524 0.899031
O O17 0.793670 0.996129 0.021846
O O18 0.756727 0.250000 0.835463
O O19 0.182580 0.750000 0.922548
O O20 0.185946 0.750000 0.486869
#
# Coordination Sequence:
#
# PCOD9158741 Si02
#       8
#     4   4   4   4   4   4   4   4
#     4   9  18  32  51  73  97 127 160 195 237 284
#     4   9  16  27  44  66  92 121 155 196 238 278
#     4  11  21  32  48  71  98 128 161 196 236 282
#     4   9  18  33  51  72  98 127 159 195 237 284
#     4   9  16  27  44  67  94 123 158 198 236 276
#     4  10  19  32  50  72  98 127 159 196 239 284
#     4   9  16  26  43  68  96 124 156 196 237 276
#     4   8  14  25  43  67  93 119 150 192 238 280
#
# _framework density 22.774363999999998
#
# number of rings (size 3 to 8) (size 9 to 14) (size 15 to 20)
#    0.000    2.750    0.000    3.375    0.000    7.000 
#    0.000    0.000    0.000    1.500    0.000    0.000 
#    0.000    0.000    0.000    0.000    0.000    0.000 
#
# Total GULP energy -178772.468002 kJ/mol
# GULP energy per Si atom -5586.639625 kJ/mol
# Density = 2.272253 g / cm^3
# Si number density = 22.774364 Si / 1000 Ang^3
#
#
#
# Elastic Constant Matrix: (Units=GPa)
#
#
# Indices 1 2 3 4 5 6 
#
# 1 49.0582 18.3327 28.8712 0.0000 -3.9148 0.0000
# 2 18.3327 189.6509 111.0265 0.0000 -13.2722 0.0000
# 3 28.8712 111.0265 167.2495 0.0000 0.2566 0.0000
# 4 0.0000 0.0000 0.0000 45.4150 0.0000 -3.8190
# 5 -3.9148 -13.2722 0.2566 0.0000 34.2425 0.0000
# 6 0.0000 0.0000 0.0000 -3.8190 0.0000 5.6166
#
#
#
# Elastic Compliance Matrix: (Units=1/GPa)
#
#
# Indices 1 2 3 4 5 6 
#
# 1 0.022954 0.000495 -0.004296 0.000000 0.002848 0.000000
# 2 0.000495 0.009047 -0.006096 0.000000 0.003609 0.000000
# 3 -0.004296 -0.006096 0.010772 0.000000 -0.002935 0.000000
# 4 0.000000 0.000000 0.000000 0.023355 0.000000 0.015880
# 5 0.002848 0.003609 -0.002935 0.000000 0.030950 0.000000
# 6 0.000000 0.000000 0.000000 0.015880 0.000000 0.188842
#
#
# Mechanical properties :
#
#
# Convention : Reuss Voigt Hill
#
# Bulk Modulus (GPa) = 43.51750 80.26882 61.89316
# Shear Modulus (GPa) = 15.95546 33.57004 24.76275
#
# Velocity S-wave (km/s) = 2.64973 3.84347 3.30101
# Velocity P-wave (km/s) = 5.33957 7.41742 6.46255
#
# Compressibility (1/GPa) = 0.02297926
#
# Stress axis : x y z
#
# Youngs Moduli (GPa) = 43.56509 110.53957 92.83203
#
# Poissons Ratio (x) = -0.05473 0.39876
# Poissons Ratio (y) = -0.02157 0.56594
# Poissons Ratio (z) = 0.18713 0.67390
#
# Static dielectric constant tensor:
#      x y z
#    x 1.961700 0.000000 0.015190 
#    y 0.000000 1.761340 0.000000 
#    z 0.015190 0.000000 1.828190 
# 
# From -- ./inp_files/64219.got.cif
#   From: 2010.05.17/outbox.cif.g08.bks.cpg/sg11_33_cif.got.tgz:64219.got - 2010.06.03 12:22:45.
