data_PCOD9158524
_publ_section_title
;
Structure prediction by ZEFSAII (Michael W. Deem and Ramdas Pophale) SiO2 
 PCOD9158524
Probable space group: P 21/M
;
_chemical_formula_sum "Si O2"
_cell_formula_units_Z 32
_cell_length_a 17.374565
_cell_length_b 8.640566
_cell_length_c 11.641524
_cell_angle_alpha 90.000000
_cell_angle_beta 94.094954
_cell_angle_gamma 90.000000
_cell_volume 1743.234576
_symmetry_space_group_name_H-M "P 21/M"
_symmetry_group_IT_number 11
_symmetry_cell_setting 'monoclinic'
loop_
_space_group_symop_operation_xyz
x,y,z
-x,1/2+y,-z
-x,-y,-z
x,1/2-y,z
loop_
_atom_site_type_symbol
_atom_site_label
_atom_site_fract_x
_atom_site_fract_y
_atom_site_fract_z
Si Si1 0.906348 0.434138 0.114920
Si Si2 0.251931 0.434776 0.815163
Si Si3 0.528520 0.064880 0.789875
Si Si4 0.767017 0.063009 0.745430
Si Si5 0.071564 0.563750 0.151126
Si Si6 0.629132 0.437686 0.580162
Si Si7 0.336566 0.064885 0.058434
Si Si8 0.622609 0.434802 0.321472
O O1 0.897674 0.250000 0.122191
O O2 0.835453 0.514812 0.170610
O O3 0.990066 0.485879 0.168812
O O4 0.906362 0.475907 0.978801
O O5 0.256451 0.250000 0.804253
O O6 0.293418 0.514976 0.712745
O O7 0.301627 0.482827 0.932778
O O8 0.530304 0.250000 0.795481
O O9 0.571880 0.012981 0.676241
O O10 0.579475 0.999413 0.899246
O O11 0.441812 0.006969 0.768317
O O12 0.764987 0.250000 0.753860
O O13 0.856142 0.016184 0.762569
O O14 0.715355 0.018251 0.630435
O O15 0.721528 0.997450 0.850283
O O16 0.062474 0.750000 0.155273
O O17 0.626060 0.250000 0.577354
O O18 0.609682 0.492513 0.450728
O O19 0.338870 0.250000 0.062781
O O20 0.615589 0.250000 0.318605
#
# Coordination Sequence:
#
# PCOD9158524 Si02
#       8
#     4   4   4   4   4   4   4   4
#     4  10  19  31  50  77 107 139 172 207 250 302
#     4  11  23  37  52  72 105 142 175 211 255 307
#     4  10  20  36  57  78 103 132 167 213 263 309
#     4   9  16  31  54  79 107 135 167 207 258 309
#     4   9  17  29  50  79 109 138 166 202 253 307
#     4   8  17  33  55  80 103 131 168 215 259 300
#     4  10  20  33  51  76 104 134 170 212 258 304
#     4  11  22  36  54  76 102 135 176 214 255 304
#
# _framework density 18.356680999999998
#
# number of rings (size 3 to 8) (size 9 to 14) (size 15 to 20)
#    0.000    2.250    1.250    3.000    0.000    3.000 
#    0.000    5.625    0.000    0.750    0.000    0.000 
#    0.000    0.000    0.000    0.000    0.000    0.000 
#
# Total GULP energy -178574.165407 kJ/mol
# GULP energy per Si atom -5580.442669 kJ/mol
# Density = 1.831490 g / cm^3
# Si number density = 18.356681 Si / 1000 Ang^3
#
#
#
# Elastic Constant Matrix: (Units=GPa)
#
#
# Indices 1 2 3 4 5 6 
#
# 1 101.1269 9.0067 5.5848 0.0000 8.7805 0.0000
# 2 9.0067 16.7078 -0.5192 0.0000 4.1056 0.0000
# 3 5.5848 -0.5192 11.3648 0.0000 2.3924 0.0000
# 4 0.0000 0.0000 0.0000 14.7969 0.0000 -1.4081
# 5 8.7805 4.1056 2.3924 0.0000 20.9657 0.0000
# 6 0.0000 0.0000 0.0000 -1.4081 0.0000 31.5659
#
#
#
# Elastic Compliance Matrix: (Units=1/GPa)
#
#
# Indices 1 2 3 4 5 6 
#
# 1 0.010892 -0.005299 -0.004972 0.000000 -0.002956 0.000000
# 2 -0.005299 0.065806 0.008049 0.000000 -0.011585 0.000000
# 3 -0.004972 0.008049 0.092928 0.000000 -0.010098 0.000000
# 4 0.000000 0.000000 0.000000 0.067870 0.000000 0.003028
# 5 -0.002956 -0.011585 -0.010098 0.000000 0.052356 0.000000
# 6 0.000000 0.000000 0.000000 0.003028 0.000000 0.031815
#
#
# Mechanical properties :
#
#
# Convention : Reuss Voigt Hill
#
# Bulk Modulus (GPa) = 6.05396 17.48267 11.76832
# Shear Modulus (GPa) = 13.11745 21.14084 17.12914
#
# Velocity S-wave (km/s) = 2.67608 3.39731 3.05803
# Velocity P-wave (km/s) = 3.58520 4.99334 4.34667
#
# Compressibility (1/GPa) = 0.16518119
#
# Stress axis : x y z
#
# Youngs Moduli (GPa) = 91.81185 15.19618 10.76101
#
# Poissons Ratio (x) = 0.08053 0.05351
# Poissons Ratio (y) = 0.48656 -0.08662
# Poissons Ratio (z) = 0.45650 -0.12232
#
# Static dielectric constant tensor:
#      x y z
#    x 1.638200 0.000000 0.010360 
#    y 0.000000 1.611670 0.000000 
#    z 0.010360 0.000000 1.632590 
# 
# From -- ./inp_files/38150.got.cif
#   From: 2010.05.17/outbox.cif.g08.bks.cpg/sg11_20_cif.got.tgz:38150.got - 2010.06.03 12:22:45.
