data_PCOD9158442
_publ_section_title
;
Structure prediction by ZEFSAII (Michael W. Deem and Ramdas Pophale) SiO2 
 PCOD9158442
Probable space group: P 21/M
;
_chemical_formula_sum "Si O2"
_cell_formula_units_Z 32
_cell_length_a 25.723510
_cell_length_b 9.112043
_cell_length_c 20.267458
_cell_angle_alpha 90.000000
_cell_angle_beta 23.172115
_cell_angle_gamma 90.000000
_cell_volume 1869.321383
_symmetry_space_group_name_H-M "P 21/M"
_symmetry_group_IT_number 11
_symmetry_cell_setting 'monoclinic'
loop_
_space_group_symop_operation_xyz
x,y,z
-x,1/2+y,-z
-x,-y,-z
x,1/2-y,z
loop_
_atom_site_type_symbol
_atom_site_label
_atom_site_fract_x
_atom_site_fract_y
_atom_site_fract_z
Si Si1 0.864278 0.426565 0.078858
Si Si2 0.158918 0.073518 0.750973
Si Si3 0.610537 0.925285 0.061327
Si Si4 0.908577 0.913995 0.702805
Si Si5 0.145169 0.087033 0.392188
Si Si6 0.399579 0.922784 0.068556
Si Si7 0.448029 0.426643 0.366182
Si Si8 0.589420 0.073384 0.339273
O O1 0.859816 0.250000 0.090630
O O2 0.837950 0.498599 0.180871
O O3 0.743226 0.468483 0.171972
O O4 0.017016 0.465039 0.883715
O O5 0.161363 0.250000 0.757141
O O6 0.293525 0.034416 0.556114
O O7 0.595692 0.750000 0.071029
O O8 0.514784 0.990411 0.227776
O O9 0.765083 0.951979 0.898582
O O10 0.588648 0.004088 0.017034
O O11 0.947088 0.750000 0.680046
O O12 0.890712 0.904884 0.643872
O O13 0.020360 0.035589 0.580278
O O14 0.192288 0.250000 0.355958
O O15 0.256154 0.963772 0.264620
O O16 0.418633 0.750000 0.042157
O O17 0.500000 0.000000 0.000000
O O18 0.456931 0.250000 0.346519
O O19 0.528160 0.464354 0.339657
O O20 0.579976 0.250000 0.356836
O O21 0.500000 0.000000 0.500000
#
# Coordination Sequence:
#
# PCOD9158442 Si02
#       8
#     4   4   4   4   4   4   4   4
#     4   9  17  29  48  73 100 131 170 217 264 311
#     4   9  17  30  48  72 101 134 172 214 263 316
#     4  10  21  36  54  77 104 136 175 214 258 314
#     4   8  15  28  46  70  98 128 162 204 251 298
#     4   9  16  27  47  76 104 129 164 204 248 297
#     4  11  21  35  56  80 107 137 172 214 259 307
#     4  10  20  33  50  73 103 140 176 216 267 319
#     4  10  19  31  49  75 104 133 173 219 266 314
#
# _framework density 17.118511999999999
#
# number of rings (size 3 to 8) (size 9 to 14) (size 15 to 20)
#    0.000    2.500    1.250    2.625    0.000    4.500 
#    0.000    0.000    2.750    0.000    0.000    0.000 
#    0.000    0.000    0.000    0.000    0.000    0.000 
#
# Total GULP energy -178243.174142 kJ/mol
# GULP energy per Si atom -5570.099192 kJ/mol
# Density = 1.707955 g / cm^3
# Si number density = 17.118512 Si / 1000 Ang^3
#
#
#
# Elastic Constant Matrix: (Units=GPa)
#
#
# Indices 1 2 3 4 5 6 
#
# 1 58.2664 36.1966 52.3713 0.0000 -10.1723 0.0000
# 2 36.1966 62.8361 54.5764 0.0000 1.3274 0.0000
# 3 52.3713 54.5764 153.4829 0.0000 -3.5195 0.0000
# 4 0.0000 0.0000 0.0000 28.3366 0.0000 1.4241
# 5 -10.1723 1.3274 -3.5195 0.0000 20.1795 0.0000
# 6 0.0000 0.0000 0.0000 1.4241 0.0000 20.2205
#
#
#
# Elastic Compliance Matrix: (Units=1/GPa)
#
#
# Indices 1 2 3 4 5 6 
#
# 1 0.035390 -0.015376 -0.006201 0.000000 0.017770 0.000000
# 2 -0.015376 0.029883 -0.005625 0.000000 -0.010698 0.000000
# 3 -0.006201 -0.005625 0.010611 0.000000 -0.000905 0.000000
# 4 0.000000 0.000000 0.000000 0.035415 0.000000 -0.002494
# 5 0.017770 -0.010698 -0.000905 0.000000 0.059059 0.000000
# 6 0.000000 0.000000 0.000000 -0.002494 0.000000 0.049630
#
#
# Mechanical properties :
#
#
# Convention : Reuss Voigt Hill
#
# Bulk Modulus (GPa) = 46.55352 62.31933 54.43642
# Shear Modulus (GPa) = 17.75867 22.51006 20.13437
#
# Velocity S-wave (km/s) = 3.22436 3.63016 3.43326
# Velocity P-wave (km/s) = 6.41216 7.35217 6.89820
#
# Compressibility (1/GPa) = 0.02148065
#
# Stress axis : x y z
#
# Youngs Moduli (GPa) = 28.25619 33.46364 94.24594
#
# Poissons Ratio (x) = 0.51454 0.58440
# Poissons Ratio (y) = 0.43447 0.53011
# Poissons Ratio (z) = 0.17521 0.18822
#
# Static dielectric constant tensor:
#      x y z
#    x 1.579610 0.000000 -0.052370 
#    y 0.000000 1.588060 0.000000 
#    z -0.052370 0.000000 1.620690 
# 
# From -- ./inp_files/67013.got.cif
#   From: 2010.05.17/outbox.cif.g08.bks.cpg/sg11_34_cif.got.tgz:67013.got - 2010.06.03 12:22:45.
