data_PCOD9158965
_publ_section_title
;
Structure prediction by ZEFSAII (Michael W. Deem and Ramdas Pophale) SiO2 
 PCOD9158965
Probable space group: P 21/M
;
_chemical_formula_sum "Si O2"
_cell_formula_units_Z 28
_cell_length_a 20.321611
_cell_length_b 7.629836
_cell_length_c 13.814079
_cell_angle_alpha 90.000000
_cell_angle_beta 143.930778
_cell_angle_gamma 90.000000
_cell_volume 1261.058460
_symmetry_space_group_name_H-M "P 21/M"
_symmetry_group_IT_number 11
_symmetry_cell_setting 'monoclinic'
loop_
_space_group_symop_operation_xyz
x,y,z
-x,1/2+y,-z
-x,-y,-z
x,1/2-y,z
loop_
_atom_site_type_symbol
_atom_site_label
_atom_site_fract_x
_atom_site_fract_y
_atom_site_fract_z
Si Si1 0.122688 0.960870 0.606251
Si Si2 0.211521 0.462577 0.064802
Si Si3 0.687684 0.042645 0.023894
Si Si4 0.977202 0.460133 0.861150
Si Si5 0.389470 0.039877 0.430083
Si Si6 0.559207 0.540768 0.294809
Si Si7 0.206406 0.961221 0.499331
O O1 0.131028 0.750000 0.613667
O O2 0.219216 0.030161 0.792616
O O3 0.146060 0.023543 0.525152
O O4 0.000000 0.000000 0.500000
O O5 0.212566 0.250000 0.065700
O O6 0.283947 0.524848 0.242958
O O7 0.268822 0.520854 0.033894
O O8 0.084169 0.521733 0.926452
O O9 0.680903 0.250000 0.036301
O O10 0.561629 0.970437 0.880713
O O11 0.974949 0.250000 0.851308
O O12 0.862731 0.526345 0.676740
O O13 0.000000 0.500000 0.000000
O O14 0.377495 0.250000 0.422468
O O15 0.406086 0.969726 0.557953
O O16 0.500000 0.000000 0.500000
O O17 0.545429 0.750000 0.289417
O O18 0.663990 0.510336 0.350361
O O19 0.202589 0.750000 0.493971
#
# Coordination Sequence:
#
# PCOD9158965 Si02
#       7
#     4   4   4   4   4   4   4
#     4  10  22  41  63  86 112 144 186 233 283 337
#     4  10  20  34  55  82 112 148 188 230 277 332
#     4  10  21  37  58  84 112 144 185 233 280 328
#     4  10  21  37  56  80 111 146 185 229 277 330
#     4  10  19  32  52  79 113 150 185 224 272 327
#     4  10  21  37  56  82 116 150 187 230 276 331
#     4  10  22  39  58  82 114 150 186 230 280 333
#
# _framework density 22.203569999999999
#
# number of rings (size 3 to 8) (size 9 to 14) (size 15 to 20)
#    0.000    2.000    1.429    1.714    0.000    6.286 
#    0.000    0.000    0.000    0.000    0.000    0.000 
#    0.000    0.000    0.000    0.000    0.000    0.000 
#
# Total GULP energy -156463.858094 kJ/mol
# GULP energy per Si atom -5587.994932 kJ/mol
# Density = 2.215303 g / cm^3
# Si number density = 22.203570 Si / 1000 Ang^3
#
#
#
# Elastic Constant Matrix: (Units=GPa)
#
#
# Indices 1 2 3 4 5 6 
#
# 1 122.1743 -10.4363 70.3138 0.0000 14.7938 0.0000
# 2 -10.4363 40.2292 9.4473 0.0000 -4.1398 0.0000
# 3 70.3138 9.4473 184.1474 0.0000 9.8861 0.0000
# 4 0.0000 0.0000 0.0000 15.9327 0.0000 3.5761
# 5 14.7938 -4.1398 9.8861 0.0000 40.7622 0.0000
# 6 0.0000 0.0000 0.0000 3.5761 0.0000 22.2393
#
#
#
# Elastic Compliance Matrix: (Units=1/GPa)
#
#
# Indices 1 2 3 4 5 6 
#
# 1 0.011345 0.003695 -0.004377 0.000000 -0.002680 0.000000
# 2 0.003695 0.026709 -0.002892 0.000000 0.002073 0.000000
# 3 -0.004377 -0.002892 0.007275 0.000000 -0.000470 0.000000
# 4 0.000000 0.000000 0.000000 0.065114 0.000000 -0.010470
# 5 -0.002680 0.002073 -0.000470 0.000000 0.025830 0.000000
# 6 0.000000 0.000000 0.000000 -0.010470 0.000000 0.046649
#
#
# Mechanical properties :
#
#
# Convention : Reuss Voigt Hill
#
# Bulk Modulus (GPa) = 26.19221 53.91117 40.05169
# Shear Modulus (GPa) = 24.65518 34.26860 29.46189
#
# Velocity S-wave (km/s) = 3.33590 3.93285 3.64661
# Velocity P-wave (km/s) = 5.16330 6.70494 5.98397
#
# Compressibility (1/GPa) = 0.03817929
#
# Stress axis : x y z
#
# Youngs Moduli (GPa) = 88.14840 37.44096 137.44805
#
# Poissons Ratio (x) = -0.13835 0.60167
# Poissons Ratio (y) = -0.32572 0.39756
# Poissons Ratio (z) = 0.38586 0.10830
#
# Static dielectric constant tensor:
#      x y z
#    x 1.770610 0.000000 -0.008460 
#    y 0.000000 1.834290 0.000000 
#    z -0.008460 0.000000 1.838640 
# 
# From -- ./inp_files/54619.got.cif
#   From: 2010.05.17/outbox.cif.g08.bks.cpg/sg11_28_cif.got.tgz:54619.got - 2010.06.03 12:22:45.
