data_PCOD9158869
_publ_section_title
;
Structure prediction by ZEFSAII (Michael W. Deem and Ramdas Pophale) SiO2 
 PCOD9158869
Probable space group: P 21/M
;
_chemical_formula_sum "Si O2"
_cell_formula_units_Z 32
_cell_length_a 25.933361
_cell_length_b 7.872162
_cell_length_c 16.981169
_cell_angle_alpha 90.000000
_cell_angle_beta 26.646710
_cell_angle_gamma 90.000000
_cell_volume 1554.787841
_symmetry_space_group_name_H-M "P 21/M"
_symmetry_group_IT_number 11
_symmetry_cell_setting 'monoclinic'
loop_
_space_group_symop_operation_xyz
x,y,z
-x,1/2+y,-z
-x,-y,-z
x,1/2-y,z
loop_
_atom_site_type_symbol
_atom_site_label
_atom_site_fract_x
_atom_site_fract_y
_atom_site_fract_z
Si Si1 0.270424 0.543698 0.493845
Si Si2 0.104263 0.542180 0.586635
Si Si3 0.727452 0.545523 0.958921
Si Si4 0.151240 0.047741 0.051997
Si Si5 0.887549 0.451453 0.603793
Si Si6 0.685913 0.439561 0.306938
Si Si7 0.128329 0.442286 0.833822
Si Si8 0.468738 0.542397 0.339980
O O1 0.263646 0.750000 0.507926
O O2 0.217307 0.492922 0.482284
O O3 0.183586 0.459567 0.673455
O O4 0.392957 0.497249 0.366065
O O5 0.104173 0.750000 0.587601
O O6 0.110528 0.481299 0.487941
O O7 0.978336 0.487212 0.792647
O O8 0.724788 0.750000 0.968472
O O9 0.777972 0.502568 0.805104
O O10 0.812450 0.481532 0.911551
O O11 0.598673 0.484300 0.151592
O O12 0.139998 0.250000 0.072686
O O13 0.258903 0.016877 0.846857
O O14 0.888740 0.250000 0.594999
O O15 0.000000 0.500000 0.500000
O O16 0.646690 0.250000 0.340778
O O17 0.797249 0.439688 0.211494
O O18 0.590736 0.518165 0.496598
O O19 0.136263 0.250000 0.853841
O O20 0.000000 0.500000 0.000000
O O21 0.466479 0.750000 0.347879
#
# Coordination Sequence:
#
# PCOD9158869 Si02
#       8
#     4   4   4   4   4   4   4   4
#     4   9  17  33  55  76 102 141 182 220 263 322
#     4   9  18  33  54  79 107 138 174 217 274 330
#     4  10  20  37  57  78 107 145 183 222 271 330
#     4  10  19  32  51  77 108 144 180 223 278 328
#     4  11  21  37  58  83 109 139 176 221 276 332
#     4  10  20  34  51  76 107 143 185 227 266 317
#     4  11  20  31  48  73 105 142 181 224 271 320
#     4   8  17  34  55  76 105 146 186 220 264 318
#
# _framework density 20.581586000000001
#
# number of rings (size 3 to 8) (size 9 to 14) (size 15 to 20)
#    0.000    2.250    1.250    3.375    0.000    2.000 
#    0.000    5.000    0.000    0.000    0.000    0.000 
#    0.000    0.000    0.000    0.000    0.000    0.000 
#
# Total GULP energy -178321.785662 kJ/mol
# GULP energy per Si atom -5572.555802 kJ/mol
# Density = 2.053474 g / cm^3
# Si number density = 20.581586 Si / 1000 Ang^3
#
#
#
# Elastic Constant Matrix: (Units=GPa)
#
#
# Indices 1 2 3 4 5 6 
#
# 1 63.8988 3.4227 16.1174 0.0000 16.9366 0.0000
# 2 3.4227 21.0351 0.3116 0.0000 2.7174 0.0000
# 3 16.1174 0.3116 96.5900 0.0000 1.4067 0.0000
# 4 0.0000 0.0000 0.0000 23.5870 0.0000 6.1678
# 5 16.9366 2.7174 1.4067 0.0000 16.4629 0.0000
# 6 0.0000 0.0000 0.0000 6.1678 0.0000 11.6685
#
#
#
# Elastic Compliance Matrix: (Units=1/GPa)
#
#
# Indices 1 2 3 4 5 6 
#
# 1 0.022611 -0.000675 -0.003438 0.000000 -0.022857 0.000000
# 2 -0.000675 0.048596 0.000063 0.000000 -0.007332 0.000000
# 3 -0.003438 0.000063 0.010889 0.000000 0.002596 0.000000
# 4 0.000000 0.000000 0.000000 0.049196 0.000000 -0.026005
# 5 -0.022857 -0.007332 0.002596 0.000000 0.085246 0.000000
# 6 0.000000 0.000000 0.000000 -0.026005 0.000000 0.099447
#
#
# Mechanical properties :
#
#
# Convention : Reuss Voigt Hill
#
# Bulk Modulus (GPa) = 13.51453 24.58081 19.04767
# Shear Modulus (GPa) = 14.33688 21.12181 17.72935
#
# Velocity S-wave (km/s) = 2.64216 3.20699 2.93818
# Velocity P-wave (km/s) = 3.98605 5.06775 4.55909
#
# Compressibility (1/GPa) = 0.07399445
#
# Stress axis : x y z
#
# Youngs Moduli (GPa) = 44.22561 20.57789 91.83834
#
# Poissons Ratio (x) = 0.01390 0.31574
# Poissons Ratio (y) = 0.02987 -0.00576
# Poissons Ratio (z) = 0.15205 -0.00129
#
# Static dielectric constant tensor:
#      x y z
#    x 1.782500 0.000000 0.030340 
#    y 0.000000 1.724440 0.000000 
#    z 0.030340 0.000000 1.728570 
# 
# From -- ./inp_files/55594.got.cif
#   From: 2010.05.17/outbox.cif.g08.bks.cpg/sg11_28_cif.got.tgz:55594.got - 2010.06.03 12:22:45.
