data_PCOD9158833
_publ_section_title
;
Structure prediction by ZEFSAII (Michael W. Deem and Ramdas Pophale) SiO2 
 PCOD9158833
Probable space group: P 21/M
;
_chemical_formula_sum "Si O2"
_cell_formula_units_Z 32
_cell_length_a 27.003276
_cell_length_b 8.841153
_cell_length_c 14.608176
_cell_angle_alpha 90.000000
_cell_angle_beta 145.031998
_cell_angle_gamma 90.000000
_cell_volume 1998.784927
_symmetry_space_group_name_H-M "P 21/M"
_symmetry_group_IT_number 11
_symmetry_cell_setting 'monoclinic'
loop_
_space_group_symop_operation_xyz
x,y,z
-x,1/2+y,-z
-x,-y,-z
x,1/2-y,z
loop_
_atom_site_type_symbol
_atom_site_label
_atom_site_fract_x
_atom_site_fract_y
_atom_site_fract_z
Si Si1 0.407192 0.568227 0.256628
Si Si2 0.087784 0.569730 0.177249
Si Si3 0.919206 0.931164 0.434686
Si Si4 0.954006 0.569641 0.698875
Si Si5 0.223125 0.568610 0.904158
Si Si6 0.408061 0.930543 0.472596
Si Si7 0.758215 0.923844 0.703712
Si Si8 0.136813 0.075339 0.951163
O O1 0.418065 0.750000 0.269771
O O2 0.495712 0.489306 0.361435
O O3 0.391200 0.528352 0.339651
O O4 0.323720 0.527544 0.069882
O O5 0.080299 0.750000 0.161831
O O6 0.094085 0.513187 0.291399
O O7 0.172288 0.513216 0.251495
O O8 0.000000 0.500000 0.000000
O O9 0.922829 0.750000 0.430296
O O10 0.926342 0.967775 0.553172
O O11 0.830344 0.995030 0.258958
O O12 0.000000 0.000000 0.500000
O O13 0.948498 0.750000 0.702774
O O14 0.052332 0.513479 0.854514
O O15 0.216519 0.750000 0.889698
O O16 0.176097 0.508652 0.923935
O O17 0.403875 0.750000 0.472753
O O18 0.335857 0.003163 0.427939
O O19 0.753162 0.750000 0.664747
O O20 0.797129 0.924193 0.865091
O O21 0.115410 0.250000 0.895886
#
# Coordination Sequence:
#
# PCOD9158833 Si02
#       8
#     4   4   4   4   4   4   4   4
#     4   9  19  33  49  73 105 139 174 213 261 311
#     4  12  24  37  55  77 104 138 178 219 261 312
#     4  11  23  36  53  76 104 139 179 219 262 313
#     4  11  23  38  54  73 104 140 177 223 265 305
#     4  11  21  34  52  75 106 142 179 220 263 309
#     4  10  19  32  51  75 105 138 174 215 260 310
#     4  11  22  35  52  76 106 141 178 215 260 311
#     4  11  21  31  50  75 104 141 180 217 257 308
#
# _framework density 16.009727000000002
#
# number of rings (size 3 to 8) (size 9 to 14) (size 15 to 20)
#    0.000    1.250    3.750    3.375    0.000    4.000 
#    0.000    0.000    0.000    0.000    0.000    0.875 
#    0.000    0.000    0.000    0.000    0.000    0.000 
#
# Total GULP energy -178688.676795 kJ/mol
# GULP energy per Si atom -5584.021150 kJ/mol
# Density = 1.597329 g / cm^3
# Si number density = 16.009727 Si / 1000 Ang^3
#
#
#
# Elastic Constant Matrix: (Units=GPa)
#
#
# Indices 1 2 3 4 5 6 
#
# 1 99.1129 52.5687 46.1076 0.0000 14.7846 0.0000
# 2 52.5687 84.4309 46.6924 0.0000 7.7420 0.0000
# 3 46.1076 46.6924 80.6976 0.0000 11.1422 0.0000
# 4 0.0000 0.0000 0.0000 25.6716 0.0000 3.0126
# 5 14.7846 7.7420 11.1422 0.0000 26.2786 0.0000
# 6 0.0000 0.0000 0.0000 3.0126 0.0000 27.5912
#
#
#
# Elastic Compliance Matrix: (Units=1/GPa)
#
#
# Indices 1 2 3 4 5 6 
#
# 1 0.017062 -0.007572 -0.004621 0.000000 -0.005409 0.000000
# 2 -0.007572 0.020798 -0.007913 0.000000 0.001488 0.000000
# 3 -0.004621 -0.007913 0.020107 0.000000 -0.003594 0.000000
# 4 0.000000 0.000000 0.000000 0.039459 0.000000 -0.004308
# 5 -0.005409 0.001488 -0.003594 0.000000 0.042183 0.000000
# 6 0.000000 0.000000 0.000000 -0.004308 0.000000 0.036714
#
#
# Mechanical properties :
#
#
# Convention : Reuss Voigt Hill
#
# Bulk Modulus (GPa) = 56.31937 61.66429 58.99183
# Shear Modulus (GPa) = 22.47668 23.83313 23.15491
#
# Velocity S-wave (km/s) = 3.75098 3.86251 3.80715
# Velocity P-wave (km/s) = 7.34945 7.64803 7.50023
#
# Compressibility (1/GPa) = 0.01775588
#
# Stress axis : x y z
#
# Youngs Moduli (GPa) = 58.60984 48.08102 49.73425
#
# Poissons Ratio (x) = 0.36407 0.22980
# Poissons Ratio (y) = 0.44379 0.39356
# Poissons Ratio (z) = 0.27081 0.38047
#
# Static dielectric constant tensor:
#      x y z
#    x 1.479800 0.000000 -0.011570 
#    y 0.000000 1.544830 0.000000 
#    z -0.011570 0.000000 1.533060 
# 
# From -- ./inp_files/56179.got.cif
#   From: 2010.05.17/outbox.cif.g08.bks.cpg/sg11_29_cif.got.tgz:56179.got - 2010.06.03 12:22:45.
