data_PCOD9158241
_publ_section_title
;
Structure prediction by ZEFSAII (Michael W. Deem and Ramdas Pophale) SiO2 
 PCOD9158241
Probable space group: P 21/M
;
_chemical_formula_sum "Si O2"
_cell_formula_units_Z 28
_cell_length_a 19.867561
_cell_length_b 7.768303
_cell_length_c 14.875387
_cell_angle_alpha 90.000000
_cell_angle_beta 138.477703
_cell_angle_gamma 90.000000
_cell_volume 1521.929416
_symmetry_space_group_name_H-M "P 21/M"
_symmetry_group_IT_number 11
_symmetry_cell_setting 'monoclinic'
loop_
_space_group_symop_operation_xyz
x,y,z
-x,1/2+y,-z
-x,-y,-z
x,1/2-y,z
loop_
_atom_site_type_symbol
_atom_site_label
_atom_site_fract_x
_atom_site_fract_y
_atom_site_fract_z
Si Si1 0.289159 0.541490 0.075296
Si Si2 0.908577 0.953670 0.016974
Si Si3 0.515770 0.456588 0.619687
Si Si4 0.382366 0.042660 0.785729
Si Si5 0.684072 0.538731 0.471910
Si Si6 0.615584 0.044111 0.014058
Si Si7 0.867943 0.547969 0.776917
O O1 0.289508 0.750000 0.076106
O O2 0.179781 0.485247 0.000500
O O3 0.378064 0.480901 0.232255
O O4 0.319906 0.481254 0.006193
O O5 0.924409 0.750000 0.023062
O O6 0.873045 0.024434 0.883597
O O7 0.018785 0.029821 0.148594
O O8 0.500000 0.500000 0.500000
O O9 0.517369 0.250000 0.629000
O O10 0.419563 0.515874 0.582072
O O11 0.385897 0.250000 0.786455
O O12 0.320916 0.983583 0.636931
O O13 0.343824 0.993787 0.845852
O O14 0.499132 0.978469 0.893919
O O15 0.685235 0.750000 0.472737
O O16 0.780662 0.476549 0.625277
O O17 0.609402 0.250000 0.998449
O O18 0.844426 0.750000 0.763318
#
# Coordination Sequence:
#
# PCOD9158241 Si02
#       7
#     4   4   4   4   4   4   4
#     4  10  19  32  50  70  98 134 164 192 236 293
#     4  10  20  33  50  73  98 125 164 210 243 275
#     4  10  19  31  46  69 101 132 159 191 234 286
#     4   9  16  29  49  71  95 126 161 197 236 283
#     4   9  16  30  51  71  95 128 163 194 234 291
#     4   9  17  30  47  70  98 128 160 195 236 285
#     4   9  18  33  52  71  94 129 166 199 239 289
#
# _framework density 18.397698999999999
#
# number of rings (size 3 to 8) (size 9 to 14) (size 15 to 20)
#    0.000    2.571    1.429    1.286    0.000    2.857 
#    0.000    2.143    0.000    0.857    0.000    0.000 
#    0.000    0.000    0.000    0.000    0.000    0.000 
#
# Total GULP energy -156161.112873 kJ/mol
# GULP energy per Si atom -5577.182603 kJ/mol
# Density = 1.835583 g / cm^3
# Si number density = 18.397699 Si / 1000 Ang^3
#
#
#
# Elastic Constant Matrix: (Units=GPa)
#
#
# Indices 1 2 3 4 5 6 
#
# 1 102.1619 -12.9288 18.6767 0.0000 -7.4411 0.0000
# 2 -12.9288 19.9595 -7.9426 0.0000 -2.0020 0.0000
# 3 18.6767 -7.9426 43.0553 0.0000 -3.9522 0.0000
# 4 0.0000 0.0000 0.0000 14.1588 0.0000 -5.0140
# 5 -7.4411 -2.0020 -3.9522 0.0000 24.9610 0.0000
# 6 0.0000 0.0000 0.0000 -5.0140 0.0000 14.7762
#
#
#
# Elastic Compliance Matrix: (Units=1/GPa)
#
#
# Indices 1 2 3 4 5 6 
#
# 1 0.011481 0.006387 -0.003492 0.000000 0.003382 0.000000
# 2 0.006387 0.058525 0.008759 0.000000 0.007985 0.000000
# 3 -0.003492 0.008759 0.026714 0.000000 0.003891 0.000000
# 4 0.000000 0.000000 0.000000 0.080273 0.000000 0.027239
# 5 0.003382 0.007985 0.003891 0.000000 0.042327 0.000000
# 6 0.000000 0.000000 0.000000 0.027239 0.000000 0.076919
#
#
# Mechanical properties :
#
#
# Convention : Reuss Voigt Hill
#
# Bulk Modulus (GPa) = 8.33144 17.86525 13.09834
# Shear Modulus (GPa) = 15.97746 21.93730 18.95738
#
# Velocity S-wave (km/s) = 2.95014 3.45685 3.21350
# Velocity P-wave (km/s) = 4.01781 5.06604 4.57207
#
# Compressibility (1/GPa) = 0.12002731
#
# Stress axis : x y z
#
# Youngs Moduli (GPa) = 87.09793 17.08680 37.43411
#
# Poissons Ratio (x) = -0.10913 0.13071
# Poissons Ratio (y) = -0.55627 -0.32788
# Poissons Ratio (z) = 0.30413 -0.14966
#
# Static dielectric constant tensor:
#      x y z
#    x 1.622660 0.000000 -0.018940 
#    y 0.000000 1.680770 0.000000 
#    z -0.018940 0.000000 1.633720 
# 
# From -- ./inp_files/48766.got.cif
#   From: 2010.05.17/outbox.cif.g08.bks.cpg/sg11_25_cif.got.tgz:48766.got - 2010.06.03 12:22:45.
