data_PCOD9158382
_publ_section_title
;
Structure prediction by ZEFSAII (Michael W. Deem and Ramdas Pophale) SiO2 
 PCOD9158382
Probable space group: P 21/M
;
_chemical_formula_sum "Si O2"
_cell_formula_units_Z 32
_cell_length_a 5.327991
_cell_length_b 9.567773
_cell_length_c 33.048441
_cell_angle_alpha 90.000000
_cell_angle_beta 93.290865
_cell_angle_gamma 90.000000
_cell_volume 1681.932537
_symmetry_space_group_name_H-M "P 21/M"
_symmetry_group_IT_number 11
_symmetry_cell_setting 'monoclinic'
loop_
_space_group_symop_operation_xyz
x,y,z
-x,1/2+y,-z
-x,-y,-z
x,1/2-y,z
loop_
_atom_site_type_symbol
_atom_site_label
_atom_site_fract_x
_atom_site_fract_y
_atom_site_fract_z
Si Si1 0.597241 0.919473 0.233993
Si Si2 0.430332 0.919732 0.681777
Si Si3 0.555291 0.904297 0.562325
Si Si4 0.920097 0.582131 0.634265
Si Si5 0.205236 0.097564 0.521646
Si Si6 0.027095 0.919367 0.091921
Si Si7 0.078748 0.580715 0.184493
Si Si8 0.509548 0.919472 0.042394
O O1 0.599427 0.750000 0.240119
O O2 0.344653 0.956545 0.206931
O O3 0.843025 0.958884 0.210247
O O4 0.595099 0.001289 0.276098
O O5 0.422899 0.750000 0.686714
O O6 0.696322 0.956028 0.663341
O O7 0.193372 0.964705 0.651571
O O8 0.474959 0.750000 0.577489
O O9 0.799763 0.951749 0.589415
O O10 0.612823 0.884921 0.515558
O O11 0.343807 0.021319 0.559600
O O12 0.937160 0.750000 0.634277
O O13 0.106848 0.250000 0.531870
O O14 0.000000 0.000000 0.500000
O O15 0.028078 0.750000 0.093794
O O16 0.050386 0.970957 0.138225
O O17 0.267072 0.958157 0.067088
O O18 0.764933 0.958037 0.068474
O O19 0.074706 0.750000 0.182602
O O20 0.508138 0.750000 0.036567
O O21 0.500000 0.000000 0.000000
#
# Coordination Sequence:
#
# PCOD9158382 Si02
#       8
#     4   4   4   4   4   4   4   4
#     4  10  19  32  52  76 101 129 161 203 256 304
#     4  10  20  35  54  77 103 134 170 208 246 302
#     4   9  19  35  54  75  99 133 174 217 255 299
#     4   9  19  34  56  78  99 133 177 211 244 291
#     4  10  20  33  53  78 105 135 169 212 261 309
#     4   9  17  30  49  73  97 126 170 213 246 291
#     4   9  17  30  51  76  99 127 166 210 251 296
#     4  10  19  31  49  71  98 132 168 208 251 296
#
# _framework density 19.025735000000001
#
# number of rings (size 3 to 8) (size 9 to 14) (size 15 to 20)
#    0.000    2.500    0.000    2.250    1.750    3.500 
#    0.000    1.250    0.000    4.500    0.000    0.000 
#    0.000    0.000    0.000    0.000    0.000    0.000 
#
# Total GULP energy -178368.559030 kJ/mol
# GULP energy per Si atom -5574.017470 kJ/mol
# Density = 1.898243 g / cm^3
# Si number density = 19.025735 Si / 1000 Ang^3
#
#
#
# Elastic Constant Matrix: (Units=GPa)
#
#
# Indices 1 2 3 4 5 6 
#
# 1 113.7153 20.1729 35.7131 0.0000 7.6378 0.0000
# 2 20.1729 48.5973 17.0318 0.0000 7.8380 0.0000
# 3 35.7131 17.0318 112.9605 0.0000 8.7711 0.0000
# 4 0.0000 0.0000 0.0000 28.4377 0.0000 2.3025
# 5 7.6378 7.8380 8.7711 0.0000 34.1298 0.0000
# 6 0.0000 0.0000 0.0000 2.3025 0.0000 10.7380
#
#
#
# Elastic Compliance Matrix: (Units=1/GPa)
#
#
# Indices 1 2 3 4 5 6 
#
# 1 0.010263 -0.003173 -0.002698 0.000000 -0.000874 0.000000
# 2 -0.003173 0.023323 -0.002196 0.000000 -0.004082 0.000000
# 3 -0.002698 -0.002196 0.010153 0.000000 -0.001501 0.000000
# 4 0.000000 0.000000 0.000000 0.035786 0.000000 -0.007673
# 5 -0.000874 -0.004082 -0.001501 0.000000 0.030819 0.000000
# 6 0.000000 0.000000 0.000000 -0.007673 0.000000 0.094773
#
#
# Mechanical properties :
#
#
# Convention : Reuss Voigt Hill
#
# Bulk Modulus (GPa) = 36.22805 46.78985 41.50895
# Shear Modulus (GPa) = 21.69636 28.15147 24.92392
#
# Velocity S-wave (km/s) = 3.38060 3.85080 3.62333
# Velocity P-wave (km/s) = 5.85840 6.66467 6.27450
#
# Compressibility (1/GPa) = 0.02760292
#
# Stress axis : x y z
#
# Youngs Moduli (GPa) = 97.43719 42.87683 98.48870
#
# Poissons Ratio (x) = 0.13607 0.26575
# Poissons Ratio (y) = 0.30922 0.21631
# Poissons Ratio (z) = 0.26292 0.09417
#
# Static dielectric constant tensor:
#      x y z
#    x 1.695260 0.000000 -0.023140 
#    y 0.000000 1.743310 0.000000 
#    z -0.023140 0.000000 1.664190 
# 
# From -- ./inp_files/9670.got.cif
#   From: 2010.05.17/outbox.cif.g08.bks.cpg/sg11_5_cif.got.tgz:9670.got - 2010.06.03 12:22:45.
