data_PCOD9158812
_publ_section_title
;
Structure prediction by ZEFSAII (Michael W. Deem and Ramdas Pophale) SiO2 
 PCOD9158812
Probable space group: P 21/M
;
_chemical_formula_sum "Si O2"
_cell_formula_units_Z 24
_cell_length_a 16.525957
_cell_length_b 16.920131
_cell_length_c 10.344674
_cell_angle_alpha 90.000000
_cell_angle_beta 29.673769
_cell_angle_gamma 90.000000
_cell_volume 1432.009214
_symmetry_space_group_name_H-M "P 21/M"
_symmetry_group_IT_number 11
_symmetry_cell_setting 'monoclinic'
loop_
_space_group_symop_operation_xyz
x,y,z
-x,1/2+y,-z
-x,-y,-z
x,1/2-y,z
loop_
_atom_site_type_symbol
_atom_site_label
_atom_site_fract_x
_atom_site_fract_y
_atom_site_fract_z
Si Si1 0.003164 0.507419 0.842127
Si Si2 0.284235 0.080325 0.311288
Si Si3 0.620241 0.419675 0.975283
Si Si4 0.095560 0.661307 0.563226
Si Si5 0.651545 0.992582 0.193746
Si Si6 0.745649 0.661307 0.913139
O O1 0.121488 0.441549 0.615205
O O2 0.075941 0.592528 0.696680
O O3 0.000000 0.500000 0.000000
O O4 0.822393 0.501109 0.032820
O O5 0.434624 0.100523 0.196129
O O6 0.261966 0.143444 0.228551
O O7 0.333092 0.000000 0.166907
O O8 0.641817 0.441548 0.094878
O O9 0.747519 0.356557 0.742999
O O10 0.103430 0.750000 0.606173
O O11 0.933274 0.655287 0.700173
O O12 0.500000 0.000000 0.500000
O O13 0.651435 0.907473 0.121185
O O14 0.686961 0.750000 0.022642
#
# Coordination Sequence:
#
# PCOD9158812 Si02
#       6
#     4   4   4   4   4   4
#     4  10  19  32  51  73  99 132 167 204 247 296
#     4   9  17  30  49  72  96 124 160 198 237 288
#     4   9  17  30  49  72  96 124 160 198 237 288
#     4   9  18  33  52  73  97 126 162 205 251 295
#     4  10  19  32  51  73  99 132 167 204 247 296
#     4   9  18  33  52  73  97 126 162 205 251 295
#
# _framework density 16.759668999999999
#
# number of rings (size 3 to 8) (size 9 to 14) (size 15 to 20)
#    0.000    2.667    0.000    2.000    0.000    6.000 
#    0.000    1.667    0.000    6.000    0.000    0.000 
#    0.000    0.000    0.000    0.000    0.000    0.000 
#
# Total GULP energy -133751.160743 kJ/mol
# GULP energy per Si atom -5572.965031 kJ/mol
# Density = 1.672152 g / cm^3
# Si number density = 16.759669 Si / 1000 Ang^3
#
#
#
# Elastic Constant Matrix: (Units=GPa)
#
#
# Indices 1 2 3 4 5 6 
#
# 1 109.2776 40.9171 57.9058 0.0000 20.7937 0.0000
# 2 40.9171 76.9604 41.9526 0.0000 1.0544 0.0000
# 3 57.9058 41.9526 136.4907 0.0000 6.8930 0.0000
# 4 0.0000 0.0000 0.0000 15.7027 0.0000 -0.9024
# 5 20.7937 1.0544 6.8930 0.0000 21.7624 0.0000
# 6 0.0000 0.0000 0.0000 -0.9024 0.0000 16.5907
#
#
#
# Elastic Compliance Matrix: (Units=1/GPa)
#
#
# Indices 1 2 3 4 5 6 
#
# 1 0.016448 -0.006169 -0.004373 0.000000 -0.014032 0.000000
# 2 -0.006169 0.017935 -0.003201 0.000000 0.006039 0.000000
# 3 -0.004373 -0.003201 0.010109 0.000000 0.001132 0.000000
# 4 0.000000 0.000000 0.000000 0.063883 0.000000 0.003475
# 5 -0.014032 0.006039 0.001132 0.000000 0.058707 0.000000
# 6 0.000000 0.000000 0.000000 0.003475 0.000000 0.060464
#
#
# Mechanical properties :
#
#
# Convention : Reuss Voigt Hill
#
# Bulk Modulus (GPa) = 58.80066 67.14218 62.97142
# Shear Modulus (GPa) = 19.17911 22.94138 21.06024
#
# Velocity S-wave (km/s) = 3.38651 3.70380 3.54870
# Velocity P-wave (km/s) = 7.10296 7.64458 7.37874
#
# Compressibility (1/GPa) = 0.01700661
#
# Stress axis : x y z
#
# Youngs Moduli (GPa) = 60.79659 55.75571 98.92630
#
# Poissons Ratio (x) = 0.34394 0.43265
# Poissons Ratio (y) = 0.37504 0.31663
# Poissons Ratio (z) = 0.26589 0.17845
#
# Static dielectric constant tensor:
#      x y z
#    x 1.556110 0.000000 -0.013130 
#    y 0.000000 1.577060 0.000000 
#    z -0.013130 0.000000 1.543190 
# 
# From -- ./inp_files/13280.got.cif
#   From: 2010.05.17/outbox.cif.g08.bks.cpg/sg11_7_cif.got.tgz:13280.got - 2010.06.03 12:22:45.
