data_PCOD9158362
_publ_section_title
;
Structure prediction by ZEFSAII (Michael W. Deem and Ramdas Pophale) SiO2 
 PCOD9158362
Probable space group: P 21/M
;
_chemical_formula_sum "Si O2"
_cell_formula_units_Z 24
_cell_length_a 7.639272
_cell_length_b 14.243676
_cell_length_c 10.843939
_cell_angle_alpha 90.000000
_cell_angle_beta 124.614828
_cell_angle_gamma 90.000000
_cell_volume 971.080781
_symmetry_space_group_name_H-M "P 21/M"
_symmetry_group_IT_number 11
_symmetry_cell_setting 'monoclinic'
loop_
_space_group_symop_operation_xyz
x,y,z
-x,1/2+y,-z
-x,-y,-z
x,1/2-y,z
loop_
_atom_site_type_symbol
_atom_site_label
_atom_site_fract_x
_atom_site_fract_y
_atom_site_fract_z
Si Si1 0.951257 0.358386 0.713443
Si Si2 0.070057 0.142180 0.399682
Si Si3 0.354841 0.980190 0.562825
Si Si4 0.678696 0.651228 0.762937
Si Si5 0.265617 0.535656 0.877409
Si Si6 0.086910 0.605458 0.043134
O O1 0.014673 0.250000 0.721309
O O2 0.806881 0.398859 0.546156
O O3 0.816995 0.365544 0.788598
O O4 0.128659 0.438351 0.810032
O O5 0.058390 0.250000 0.435223
O O6 0.195579 0.141052 0.317023
O O7 0.842665 0.095328 0.277624
O O8 0.217142 0.072025 0.538941
O O9 0.528219 0.937297 0.724259
O O10 0.500000 0.000000 0.500000
O O11 0.558305 0.750000 0.710482
O O12 0.864343 0.657543 0.935939
O O13 0.500000 0.500000 0.000000
O O14 0.226397 0.607640 0.977018
O O15 0.000000 0.500000 0.000000
#
# Coordination Sequence:
#
# PCOD9158362 Si02
#       6
#     4   4   4   4   4   4
#     4  10  19  31  48  74 103 126 156 205 252 288
#     4   8  15  26  41  62  89 119 154 194 234 276
#     4   9  16  27  43  68  98 124 155 199 244 290
#     4   9  15  25  43  67  93 124 157 191 239 296
#     4   9  18  31  47  69  98 132 166 197 236 290
#     4   9  17  30  46  68  99 127 155 198 246 290
#
# _framework density 24.714731
#
# number of rings (size 3 to 8) (size 9 to 14) (size 15 to 20)
#    0.000    3.000    0.000    4.000    0.000    2.000 
#    0.000    0.000    0.000    0.000    0.000   74.667 
#    0.000   32.000    0.000    0.000    0.000    0.000 
#
# Total GULP energy -133804.466485 kJ/mol
# GULP energy per Si atom -5575.186104 kJ/mol
# Density = 2.465848 g / cm^3
# Si number density = 24.714731 Si / 1000 Ang^3
#
#
#
# Elastic Constant Matrix: (Units=GPa)
#
#
# Indices 1 2 3 4 5 6 
#
# 1 58.6091 21.8988 35.4309 0.0000 6.0846 0.0000
# 2 21.8988 193.6619 57.7235 0.0000 21.2071 0.0000
# 3 35.4309 57.7235 114.9587 0.0000 12.5231 0.0000
# 4 0.0000 0.0000 0.0000 25.3637 0.0000 5.3177
# 5 6.0846 21.2071 12.5231 0.0000 41.9662 0.0000
# 6 0.0000 0.0000 0.0000 5.3177 0.0000 9.6814
#
#
#
# Elastic Compliance Matrix: (Units=1/GPa)
#
#
# Indices 1 2 3 4 5 6 
#
# 1 0.021053 -0.000435 -0.006162 0.000000 -0.000994 0.000000
# 2 -0.000435 0.006291 -0.002775 0.000000 -0.002288 0.000000
# 3 -0.006162 -0.002775 0.012136 0.000000 -0.001326 0.000000
# 4 0.000000 0.000000 0.000000 0.044558 0.000000 -0.024474
# 5 -0.000994 -0.002288 -0.001326 0.000000 0.025524 0.000000
# 6 0.000000 0.000000 0.000000 -0.024474 0.000000 0.116734
#
#
# Mechanical properties :
#
#
# Convention : Reuss Voigt Hill
#
# Bulk Modulus (GPa) = 48.22834 66.37066 57.29950
# Shear Modulus (GPa) = 19.84505 32.21401 26.02953
#
# Velocity S-wave (km/s) = 2.83674 3.61423 3.24882
# Velocity P-wave (km/s) = 5.50325 6.65807 6.10801
#
# Compressibility (1/GPa) = 0.02073469
#
# Stress axis : x y z
#
# Youngs Moduli (GPa) = 47.49914 158.96800 82.40037
#
# Poissons Ratio (x) = 0.06918 0.50774
# Poissons Ratio (y) = 0.02067 0.22869
# Poissons Ratio (z) = 0.29268 0.44119
#
# Static dielectric constant tensor:
#      x y z
#    x 2.148730 0.000000 -0.060820 
#    y 0.000000 2.223770 0.000000 
#    z -0.060820 0.000000 1.937190 
# 
# From -- ./inp_files/47701.got.cif
#   From: 2010.05.17/outbox.cif.g08.bks.cpg/sg11_24_cif.got.tgz:47701.got - 2010.06.03 12:22:45.
