data_PCOD9158770
_publ_section_title
;
Structure prediction by ZEFSAII (Michael W. Deem and Ramdas Pophale) SiO2 
 PCOD9158770
Probable space group: P 21/M
;
_chemical_formula_sum "Si O2"
_cell_formula_units_Z 28
_cell_length_a 8.059651
_cell_length_b 7.584471
_cell_length_c 27.271643
_cell_angle_alpha 90.000000
_cell_angle_beta 141.387902
_cell_angle_gamma 90.000000
_cell_volume 1040.323633
_symmetry_space_group_name_H-M "P 21/M"
_symmetry_group_IT_number 11
_symmetry_cell_setting 'monoclinic'
loop_
_space_group_symop_operation_xyz
x,y,z
-x,1/2+y,-z
-x,-y,-z
x,1/2-y,z
loop_
_atom_site_type_symbol
_atom_site_label
_atom_site_fract_x
_atom_site_fract_y
_atom_site_fract_z
Si Si1 0.435979 0.533862 0.765807
Si Si2 0.273343 0.448791 0.519058
Si Si3 0.145736 0.465080 0.384701
Si Si4 0.353399 0.044616 0.087956
Si Si5 0.511853 0.046236 0.330873
Si Si6 0.939759 0.962004 0.185696
Si Si7 0.798780 0.961055 0.049678
O O1 0.454312 0.750000 0.771235
O O2 0.630956 0.466387 0.853637
O O3 0.471462 0.461988 0.719046
O O4 0.127512 0.489005 0.705037
O O5 0.181402 0.250000 0.498741
O O6 0.132317 0.529099 0.438580
O O7 0.584114 0.460517 0.574846
O O8 0.288261 0.503536 0.579073
O O9 0.170004 0.250000 0.390107
O O10 0.286058 0.250000 0.075625
O O11 0.663782 0.034370 0.142691
O O12 0.193034 0.967454 0.004249
O O13 0.552389 0.250000 0.331199
O O14 0.205314 0.016940 0.275008
O O15 0.920218 0.750000 0.181033
O O16 0.967507 0.026889 0.135131
O O17 0.827438 0.750000 0.053370
O O18 0.500000 0.000000 0.000000
#
# Coordination Sequence:
#
# PCOD9158770 Si02
#       7
#     4   4   4   4   4   4   4
#     4   9  19  34  52  73  98 131 171 208 242 292
#     4  10  20  34  54  80 105 129 162 205 251 299
#     4   9  18  35  57  79 103 131 164 203 248 298
#     4   9  16  31  55  78  99 129 168 207 250 299
#     4  11  22  35  50  70  99 136 174 208 246 294
#     4  10  19  32  50  75 104 131 164 208 255 300
#     4   8  15  27  47  74 101 127 159 203 251 298
#
# _framework density 26.914702999999999
#
# number of rings (size 3 to 8) (size 9 to 14) (size 15 to 20)
#    0.000    2.571    0.000    2.143    0.000    2.857 
#    0.000    3.571    0.000    0.000    0.000    0.000 
#    0.000    0.000    0.000    0.000    0.000    0.000 
#
# Total GULP energy -156535.080859 kJ/mol
# GULP energy per Si atom -5590.538602 kJ/mol
# Density = 2.685344 g / cm^3
# Si number density = 26.914703 Si / 1000 Ang^3
#
#
#
# Elastic Constant Matrix: (Units=GPa)
#
#
# Indices 1 2 3 4 5 6 
#
# 1 100.9292 6.8810 32.4542 0.0000 -26.4347 0.0000
# 2 6.8810 83.8019 16.0128 0.0000 -4.6946 0.0000
# 3 32.4542 16.0128 208.3354 0.0000 -14.4590 0.0000
# 4 0.0000 0.0000 0.0000 17.7755 0.0000 -2.6776
# 5 -26.4347 -4.6946 -14.4590 0.0000 59.5312 0.0000
# 6 0.0000 0.0000 0.0000 -2.6776 0.0000 15.2176
#
#
#
# Elastic Compliance Matrix: (Units=1/GPa)
#
#
# Indices 1 2 3 4 5 6 
#
# 1 0.011658 -0.000411 -0.001452 0.000000 0.004792 0.000000
# 2 -0.000411 0.012158 -0.000830 0.000000 0.000574 0.000000
# 3 -0.001452 -0.000830 0.005127 0.000000 0.000535 0.000000
# 4 0.000000 0.000000 0.000000 0.057789 0.000000 0.010168
# 5 0.004792 0.000574 0.000535 0.000000 0.019101 0.000000
# 6 0.000000 0.000000 0.000000 0.010168 0.000000 0.067502
#
#
# Mechanical properties :
#
#
# Convention : Reuss Voigt Hill
#
# Bulk Modulus (GPa) = 42.45392 55.97362 49.21377
# Shear Modulus (GPa) = 26.79909 41.01943 33.90926
#
# Velocity S-wave (km/s) = 3.15890 3.90815 3.55333
# Velocity P-wave (km/s) = 5.39561 6.41924 5.92956
#
# Compressibility (1/GPa) = 0.02355495
#
# Stress axis : x y z
#
# Youngs Moduli (GPa) = 85.77946 82.25345 195.04239
#
# Poissons Ratio (x) = 0.03384 0.28318
# Poissons Ratio (y) = 0.03529 0.16198
# Poissons Ratio (z) = 0.12454 0.06831
#
# Static dielectric constant tensor:
#      x y z
#    x 2.251460 0.000000 -0.074610 
#    y 0.000000 1.954710 0.000000 
#    z -0.074610 0.000000 2.109590 
# 
# From -- ./inp_files/24062.got.cif
#   From: 2010.05.17/outbox.cif.g08.bks.cpg/sg11_13_cif.got.tgz:24062.got - 2010.06.03 12:22:45.
