data_PCOD9158010
_publ_section_title
;
Structure prediction by ZEFSAII (Michael W. Deem and Ramdas Pophale) SiO2 
 PCOD9158010
Probable space group: P 21/M
;
_chemical_formula_sum "Si O2"
_cell_formula_units_Z 28
_cell_length_a 14.065041
_cell_length_b 7.569176
_cell_length_c 13.679350
_cell_angle_alpha 90.000000
_cell_angle_beta 120.838728
_cell_angle_gamma 90.000000
_cell_volume 1250.411123
_symmetry_space_group_name_H-M "P 21/M"
_symmetry_group_IT_number 11
_symmetry_cell_setting 'monoclinic'
loop_
_space_group_symop_operation_xyz
x,y,z
-x,1/2+y,-z
-x,-y,-z
x,1/2-y,z
loop_
_atom_site_type_symbol
_atom_site_label
_atom_site_fract_x
_atom_site_fract_y
_atom_site_fract_z
Si Si1 0.867528 0.960060 0.218438
Si Si2 0.868648 0.961299 0.433557
Si Si3 0.873886 0.962380 0.650719
Si Si4 0.565173 0.046607 0.183205
Si Si5 0.552795 0.467111 0.387180
Si Si6 0.672875 0.952403 0.651197
Si Si7 0.648645 0.042674 0.020887
O O1 0.861534 0.750000 0.220256
O O2 0.831345 0.030689 0.307649
O O3 0.780122 0.020379 0.091323
O O4 0.995621 0.005666 0.268100
O O5 0.851585 0.750000 0.425331
O O6 0.836282 0.032270 0.523478
O O7 0.000000 0.000000 0.500000
O O8 0.859838 0.750000 0.640697
O O9 0.793716 0.031760 0.693904
O O10 0.599938 0.250000 0.202493
O O11 0.596596 0.971568 0.304958
O O12 0.610609 0.966028 0.106824
O O13 0.431635 0.041484 0.101023
O O14 0.555454 0.250000 0.393011
O O15 0.424752 0.526837 0.333120
O O16 0.618317 0.540867 0.513982
O O17 0.687689 0.750000 0.690966
O O18 0.623475 0.250000 0.004823
#
# Coordination Sequence:
#
# PCOD9158010 Si02
#       7
#     4   4   4   4   4   4   4
#     4  10  19  30  46  69  97 129 161 197 241 287
#     4   8  15  26  39  59  88 122 156 186 221 269
#     4   9  17  30  46  67  97 130 162 196 234 280
#     4   9  19  35  52  71  97 128 161 201 245 287
#     4   9  18  33  51  73 100 129 161 199 243 287
#     4   9  18  31  50  75 101 130 163 197 237 285
#     4  10  20  33  50  73  97 126 163 201 243 291
#
# _framework density 22.392634000000001
#
# number of rings (size 3 to 8) (size 9 to 14) (size 15 to 20)
#    0.000    2.857    0.000    0.857    2.000    2.286 
#    0.000    0.000    0.000    0.857    0.000    0.000 
#    0.000    0.000    0.000    0.000    0.000    0.000 
#
# Total GULP energy -156101.609806 kJ/mol
# GULP energy per Si atom -5575.057493 kJ/mol
# Density = 2.234167 g / cm^3
# Si number density = 22.392634 Si / 1000 Ang^3
#
#
#
# Elastic Constant Matrix: (Units=GPa)
#
#
# Indices 1 2 3 4 5 6 
#
# 1 72.0647 3.8164 -1.5843 0.0000 14.4517 0.0000
# 2 3.8164 75.0845 -8.6109 0.0000 0.8708 0.0000
# 3 -1.5843 -8.6109 58.5331 0.0000 16.0857 0.0000
# 4 0.0000 0.0000 0.0000 16.0597 0.0000 7.1065
# 5 14.4517 0.8708 16.0857 0.0000 36.5780 0.0000
# 6 0.0000 0.0000 0.0000 7.1065 0.0000 11.8989
#
#
#
# Elastic Compliance Matrix: (Units=1/GPa)
#
#
# Indices 1 2 3 4 5 6 
#
# 1 0.015368 -0.000436 0.002295 0.000000 -0.007071 0.000000
# 2 -0.000436 0.013619 0.002313 0.000000 -0.001169 0.000000
# 3 0.002295 0.002313 0.020191 0.000000 -0.009841 0.000000
# 4 0.000000 0.000000 0.000000 0.084636 0.000000 -0.050548
# 5 -0.007071 -0.001169 -0.009841 0.000000 0.034488 0.000000
# 6 0.000000 0.000000 0.000000 -0.050548 0.000000 0.114231
#
#
# Mechanical properties :
#
#
# Convention : Reuss Voigt Hill
#
# Bulk Modulus (GPa) = 17.38448 21.43609 19.41028
# Shear Modulus (GPa) = 17.04372 27.04471 22.04422
#
# Velocity S-wave (km/s) = 2.76185 3.47904 3.14098
# Velocity P-wave (km/s) = 4.23684 5.07266 4.67347
#
# Compressibility (1/GPa) = 0.05752257
#
# Stress axis : x y z
#
# Youngs Moduli (GPa) = 65.07073 73.42512 49.52639
#
# Poissons Ratio (x) = 0.03201 -0.11366
# Poissons Ratio (y) = 0.02837 -0.11456
# Poissons Ratio (z) = -0.14933 -0.16984
#
# Static dielectric constant tensor:
#      x y z
#    x 1.878390 0.000000 0.002490 
#    y 0.000000 1.809420 0.000000 
#    z 0.002490 0.000000 1.818350 
# 
# From -- ./inp_files/51789.got.cif
#   From: 2010.05.17/outbox.cif.g08.bks.cpg/sg11_26_cif.got.tgz:51789.got - 2010.06.03 12:22:45.
