data_PCOD9158610
_publ_section_title
;
Structure prediction by ZEFSAII (Michael W. Deem and Ramdas Pophale) SiO2 
 PCOD9158610
Probable space group: P 21/M
;
_chemical_formula_sum "Si O2"
_cell_formula_units_Z 32
_cell_length_a 5.465031
_cell_length_b 29.205377
_cell_length_c 11.100455
_cell_angle_alpha 90.000000
_cell_angle_beta 113.815484
_cell_angle_gamma 90.000000
_cell_volume 1620.863318
_symmetry_space_group_name_H-M "P 21/M"
_symmetry_group_IT_number 11
_symmetry_cell_setting 'monoclinic'
loop_
_space_group_symop_operation_xyz
x,y,z
-x,1/2+y,-z
-x,-y,-z
x,1/2-y,z
loop_
_atom_site_type_symbol
_atom_site_label
_atom_site_fract_x
_atom_site_fract_y
_atom_site_fract_z
Si Si1 0.946290 0.300198 0.549535
Si Si2 0.723279 0.351819 0.278586
Si Si3 0.026291 0.975753 0.377642
Si Si4 0.214134 0.196376 0.266986
Si Si5 0.471872 0.176519 0.580788
Si Si6 0.483252 0.927023 0.338480
Si Si7 0.262710 0.971893 0.082874
Si Si8 0.698943 0.454327 0.181084
O O1 0.891192 0.250000 0.482908
O O2 0.852128 0.338976 0.435267
O O3 0.769885 0.304963 0.632899
O O4 0.259553 0.304764 0.632915
O O5 0.428569 0.329388 0.224992
O O6 0.707071 0.405786 0.248692
O O7 0.928423 0.328526 0.224935
O O8 0.319597 0.955981 0.407201
O O9 0.775293 0.940347 0.340884
O O10 0.000000 0.000000 0.500000
O O11 0.956650 0.014939 0.265714
O O12 0.188979 0.250000 0.233470
O O13 0.345506 0.191853 0.427138
O O14 0.484993 0.122641 0.599546
O O15 0.274530 0.932890 0.185961
O O16 0.462470 0.011235 0.171239
O O17 0.343053 0.950122 0.970579
O O18 0.000000 0.000000 0.000000
#
# Coordination Sequence:
#
# PCOD9158610 Si02
#       8
#     4   4   4   4   4   4   4   4
#     4  10  19  35  55  82 119 152 174 223 295 359
#     4  10  20  31  55  83 110 138 194 227 270 346
#     4  11  24  36  54  81 123 151 180 231 303 346
#     4  10  20  34  53  81 119 150 171 222 294 359
#     4  10  19  31  53  80 111 143 187 222 267 345
#     4  11  23  38  56  82 110 159 194 236 279 323
#     4  10  21  43  59  74 115 158 210 244 275 332
#     4  10  23  37  59  85 106 162 198 243 285 331
#
# _framework density 19.742566
#
# number of rings (size 3 to 8) (size 9 to 14) (size 15 to 20)
#    0.000    1.750    1.250    4.875    8.750    0.000 
#    0.000    0.000    0.000    0.000    0.000    9.625 
#    0.000    0.000    0.000    0.000    0.000    0.000 
#
# Total GULP energy -178170.156198 kJ/mol
# GULP energy per Si atom -5567.817381 kJ/mol
# Density = 1.969763 g / cm^3
# Si number density = 19.742566 Si / 1000 Ang^3
#
#
#
# Elastic Constant Matrix: (Units=GPa)
#
#
# Indices 1 2 3 4 5 6 
#
# 1 139.1357 29.6675 -1.8150 0.0000 -11.0879 0.0000
# 2 29.6675 129.1827 17.0786 0.0000 -1.6833 0.0000
# 3 -1.8150 17.0786 26.7470 0.0000 -5.3558 0.0000
# 4 0.0000 0.0000 0.0000 11.7030 0.0000 4.1199
# 5 -11.0879 -1.6833 -5.3558 0.0000 18.3040 0.0000
# 6 0.0000 0.0000 0.0000 4.1199 0.0000 24.2009
#
#
#
# Elastic Compliance Matrix: (Units=1/GPa)
#
#
# Indices 1 2 3 4 5 6 
#
# 1 0.008147 -0.002206 0.003090 0.000000 0.005637 0.000000
# 2 -0.002206 0.009065 -0.006414 0.000000 -0.002380 0.000000
# 3 0.003090 -0.006414 0.044560 0.000000 0.014320 0.000000
# 4 0.000000 0.000000 0.000000 0.090895 0.000000 -0.015474
# 5 0.005637 -0.002380 0.014320 0.000000 0.062019 0.000000
# 6 0.000000 0.000000 0.000000 -0.015474 0.000000 0.043955
#
#
# Mechanical properties :
#
#
# Convention : Reuss Voigt Hill
#
# Bulk Modulus (GPa) = 19.71933 42.76973 31.24453
# Shear Modulus (GPa) = 17.44562 27.51720 22.48141
#
# Velocity S-wave (km/s) = 2.97586 3.73741 3.37816
# Velocity P-wave (km/s) = 4.67093 6.35099 5.57461
#
# Compressibility (1/GPa) = 0.05071167
#
# Stress axis : x y z
#
# Youngs Moduli (GPa) = 122.74263 110.31927 22.44158
#
# Poissons Ratio (x) = 0.24338 -0.06935
# Poissons Ratio (y) = 0.27079 0.14394
# Poissons Ratio (z) = -0.37930 0.70760
#
# Static dielectric constant tensor:
#      x y z
#    x 1.868050 0.000000 -0.022810 
#    y 0.000000 1.720210 0.000000 
#    z -0.022810 0.000000 1.721930 
# 
# From -- ./inp_files/30257.got.cif
#   From: 2010.05.17/outbox.cif.g08.bks.cpg/sg11_16_cif.got.tgz:30257.got - 2010.06.03 12:22:45.
