data_PCOD9158114
_publ_section_title
;
Structure prediction by ZEFSAII (Michael W. Deem and Ramdas Pophale) SiO2 
 PCOD9158114
Probable space group: P 21/M
;
_chemical_formula_sum "Si O2"
_cell_formula_units_Z 32
_cell_length_a 23.091909
_cell_length_b 8.483527
_cell_length_c 15.543854
_cell_angle_alpha 90.000000
_cell_angle_beta 31.208626
_cell_angle_gamma 90.000000
_cell_volume 1577.812308
_symmetry_space_group_name_H-M "P 21/M"
_symmetry_group_IT_number 11
_symmetry_cell_setting 'monoclinic'
loop_
_space_group_symop_operation_xyz
x,y,z
-x,1/2+y,-z
-x,-y,-z
x,1/2-y,z
loop_
_atom_site_type_symbol
_atom_site_label
_atom_site_fract_x
_atom_site_fract_y
_atom_site_fract_z
Si Si1 0.831845 0.932971 0.660601
Si Si2 0.455736 0.927091 0.801359
Si Si3 0.139407 0.440320 0.561281
Si Si4 0.597592 0.427972 0.931256
Si Si5 0.698625 0.435815 0.505803
Si Si6 0.787251 0.938341 0.907917
Si Si7 0.902249 0.063047 0.931655
Si Si8 0.874913 0.935441 0.145762
O O1 0.864261 0.750000 0.625831
O O2 0.884976 0.000671 0.505309
O O3 0.702003 0.954819 0.800877
O O4 0.835822 0.998451 0.753147
O O5 0.446770 0.750000 0.776517
O O6 0.578408 0.996365 0.630975
O O7 0.345339 0.025155 0.917172
O O8 0.445671 0.916918 0.916972
O O9 0.145834 0.250000 0.547886
O O10 0.250304 0.498889 0.468986
O O11 0.032627 0.481673 0.754983
O O12 0.630315 0.250000 0.861978
O O13 0.500000 0.500000 0.000000
O O14 0.688610 0.250000 0.527467
O O15 0.788149 0.481046 0.319131
O O16 0.803509 0.750000 0.890188
O O17 0.845622 0.021725 0.913388
O O18 0.896056 0.250000 0.955858
O O19 0.849002 0.971497 0.079010
O O20 0.872739 0.750000 0.166702
O O21 0.000000 0.000000 0.000000
#
# Coordination Sequence:
#
# PCOD9158114 Si02
#       8
#     4   4   4   4   4   4   4   4
#     4   9  19  35  54  79 114 158 202 247 295 346
#     4  10  21  38  58  82 116 158 201 245 299 357
#     4  10  21  37  58  86 122 161 203 250 302 355
#     4  10  19  30  48  75 109 151 196 244 296 351
#     4  12  24  38  61  93 125 156 196 247 305 361
#     4  10  21  39  61  86 120 161 208 253 296 351
#     4  11  23  40  63  89 120 160 203 247 300 359
#     4  12  24  42  66  93 123 155 194 242 300 359
#
# _framework density 20.281245999999999
#
# number of rings (size 3 to 8) (size 9 to 14) (size 15 to 20)
#    0.000    1.500    1.250    4.500    0.000    6.500 
#    0.000    0.625    0.000    0.000    0.000    0.000 
#    0.000    0.000    0.000    0.000    0.000    0.000 
#
# Total GULP energy -178642.302112 kJ/mol
# GULP energy per Si atom -5582.571941 kJ/mol
# Density = 2.023508 g / cm^3
# Si number density = 20.281246 Si / 1000 Ang^3
#
#
#
# Elastic Constant Matrix: (Units=GPa)
#
#
# Indices 1 2 3 4 5 6 
#
# 1 62.9416 -11.0507 0.2347 0.0000 17.3737 0.0000
# 2 -11.0507 37.7442 -3.0651 0.0000 -1.5559 0.0000
# 3 0.2347 -3.0651 70.8582 0.0000 10.7119 0.0000
# 4 0.0000 0.0000 0.0000 18.4612 0.0000 -7.9647
# 5 17.3737 -1.5559 10.7119 0.0000 23.1273 0.0000
# 6 0.0000 0.0000 0.0000 -7.9647 0.0000 14.7735
#
#
#
# Elastic Compliance Matrix: (Units=1/GPa)
#
#
# Indices 1 2 3 4 5 6 
#
# 1 0.021638 0.005854 0.002773 0.000000 -0.017146 0.000000
# 2 0.005854 0.028210 0.001698 0.000000 -0.003286 0.000000
# 3 0.002773 0.001698 0.015564 0.000000 -0.009178 0.000000
# 4 0.000000 0.000000 0.000000 0.070585 0.000000 0.038054
# 5 -0.017146 -0.003286 -0.009178 0.000000 0.060149 0.000000
# 6 0.000000 0.000000 0.000000 0.038054 0.000000 0.088204
#
#
# Mechanical properties :
#
#
# Convention : Reuss Voigt Hill
#
# Bulk Modulus (GPa) = 11.61956 15.97577 13.79767
# Shear Modulus (GPa) = 17.10051 23.63408 20.36729
#
# Velocity S-wave (km/s) = 2.90689 3.41738 3.17242
# Velocity P-wave (km/s) = 4.12411 4.84412 4.49854
#
# Compressibility (1/GPa) = 0.08606175
#
# Stress axis : x y z
#
# Youngs Moduli (GPa) = 46.21549 35.44798 64.24897
#
# Poissons Ratio (x) = -0.20750 -0.17819
# Poissons Ratio (y) = -0.27052 -0.10907
# Poissons Ratio (z) = -0.12818 -0.06018
#
# Static dielectric constant tensor:
#      x y z
#    x 1.619020 0.000000 0.124590 
#    y 0.000000 1.720410 0.000000 
#    z 0.124590 0.000000 1.650330 
# 
# From -- ./inp_files/55519.got.cif
#   From: 2010.05.17/outbox.cif.g08.bks.cpg/sg11_28_cif.got.tgz:55519.got - 2010.06.03 12:22:45.
