data_PCOD9158915
_publ_section_title
;
Structure prediction by ZEFSAII (Michael W. Deem and Ramdas Pophale) SiO2 
 PCOD9158915
Probable space group: P 21/M
;
_chemical_formula_sum "Si O2"
_cell_formula_units_Z 32
_cell_length_a 28.520646
_cell_length_b 10.561732
_cell_length_c 12.797764
_cell_angle_alpha 90.000000
_cell_angle_beta 27.650854
_cell_angle_gamma 90.000000
_cell_volume 1789.055098
_symmetry_space_group_name_H-M "P 21/M"
_symmetry_group_IT_number 11
_symmetry_cell_setting 'monoclinic'
loop_
_space_group_symop_operation_xyz
x,y,z
-x,1/2+y,-z
-x,-y,-z
x,1/2-y,z
loop_
_atom_site_type_symbol
_atom_site_label
_atom_site_fract_x
_atom_site_fract_y
_atom_site_fract_z
Si Si1 0.593542 0.602623 0.673088
Si Si2 0.203474 0.111174 0.855221
Si Si3 0.950800 0.886732 0.374220
Si Si4 0.621182 0.103197 0.981007
Si Si5 0.296787 0.892659 0.409488
Si Si6 0.082744 0.529403 0.924639
Si Si7 0.808927 0.100024 0.723696
Si Si8 0.859516 0.392357 0.866210
O O1 0.579701 0.750000 0.738111
O O2 0.682733 0.607555 0.412076
O O3 0.634756 0.503399 0.676539
O O4 0.488766 0.552369 0.831528
O O5 0.180451 0.250000 0.944177
O O6 0.130441 0.084935 0.899620
O O7 0.188609 0.000669 0.967752
O O8 0.897595 0.750000 0.479396
O O9 0.022803 0.894119 0.333693
O O10 0.880076 0.008473 0.516197
O O11 0.024860 0.891694 0.128158
O O12 0.600404 0.250000 0.046612
O O13 0.689594 0.097236 0.741634
O O14 0.693639 0.056850 0.929928
O O15 0.330260 0.750000 0.373210
O O16 0.181780 0.909713 0.675774
O O17 0.000000 0.500000 0.000000
O O18 0.818403 0.250000 0.677489
O O19 0.839123 0.087587 0.784897
O O20 0.822717 0.250000 0.966276
#
# Coordination Sequence:
#
# PCOD9158915 Si02
#       8
#     4   4   4   4   4   4   4   4
#     4   9  18  34  53  74 101 133 166 203 249 300
#     4   9  19  33  52  76 100 131 170 206 245 297
#     4  10  20  33  49  73 104 135 164 204 254 298
#     4   9  18  33  53  75 100 130 167 209 251 294
#     4  10  19  32  52  76 101 134 171 206 244 293
#     4  10  20  33  50  75 106 137 169 206 247 295
#     4  10  20  35  54  75  98 130 171 210 249 300
#     4   9  19  35  54  74  99 132 168 206 251 299
#
# _framework density 17.886537000000001
#
# number of rings (size 3 to 8) (size 9 to 14) (size 15 to 20)
#    0.000    2.500    0.000    1.875    0.000    6.500 
#    0.000    4.375    0.000    0.000    0.000    0.000 
#    0.000    0.000    0.000    0.000    0.000    0.000 
#
# Total GULP energy -178151.287442 kJ/mol
# GULP energy per Si atom -5567.227733 kJ/mol
# Density = 1.784583 g / cm^3
# Si number density = 17.886537 Si / 1000 Ang^3
#
#
#
# Elastic Constant Matrix: (Units=GPa)
#
#
# Indices 1 2 3 4 5 6 
#
# 1 84.6345 34.5756 39.0951 0.0000 -25.9234 0.0000
# 2 34.5756 101.6971 33.8130 0.0000 -1.5230 0.0000
# 3 39.0951 33.8130 55.6940 0.0000 -14.7846 0.0000
# 4 0.0000 0.0000 0.0000 15.9674 0.0000 3.5369
# 5 -25.9234 -1.5230 -14.7846 0.0000 19.7217 0.0000
# 6 0.0000 0.0000 0.0000 3.5369 0.0000 12.1486
#
#
#
# Elastic Compliance Matrix: (Units=1/GPa)
#
#
# Indices 1 2 3 4 5 6 
#
# 1 0.026567 -0.006218 -0.007155 0.000000 0.029078 0.000000
# 2 -0.006218 0.014333 -0.007757 0.000000 -0.012881 0.000000
# 3 -0.007155 -0.007757 0.031250 0.000000 0.013423 0.000000
# 4 0.000000 0.000000 0.000000 0.066945 0.000000 -0.019490
# 5 0.029078 -0.012881 0.013423 0.000000 0.097995 0.000000
# 6 0.000000 0.000000 0.000000 -0.019490 0.000000 0.087989
#
#
# Mechanical properties :
#
#
# Convention : Reuss Voigt Hill
#
# Bulk Modulus (GPa) = 33.45464 50.77702 42.11583
# Shear Modulus (GPa) = 13.25193 18.53700 15.89447
#
# Velocity S-wave (km/s) = 2.72488 3.22276 2.98422
# Velocity P-wave (km/s) = 5.35204 6.50371 5.95578
#
# Compressibility (1/GPa) = 0.02989122
#
# Stress axis : x y z
#
# Youngs Moduli (GPa) = 37.64008 69.76773 31.99949
#
# Poissons Ratio (x) = 0.43382 0.22896
# Poissons Ratio (y) = 0.23405 0.24821
# Poissons Ratio (z) = 0.26932 0.54117
#
# Static dielectric constant tensor:
#      x y z
#    x 1.618990 0.000000 -0.014200 
#    y 0.000000 1.635460 0.000000 
#    z -0.014200 0.000000 1.613620 
# 
# From -- ./inp_files/44758.got.cif
#   From: 2010.05.17/outbox.cif.g08.bks.cpg/sg11_23_cif.got.tgz:44758.got - 2010.06.03 12:22:45.
