data_PCOD9158621
_publ_section_title
;
Structure prediction by ZEFSAII (Michael W. Deem and Ramdas Pophale) SiO2 
 PCOD9158621
Probable space group: P 21/M
;
_chemical_formula_sum "Si O2"
_cell_formula_units_Z 32
_cell_length_a 20.515061
_cell_length_b 8.849705
_cell_length_c 12.437674
_cell_angle_alpha 90.000000
_cell_angle_beta 125.991277
_cell_angle_gamma 90.000000
_cell_volume 1827.033251
_symmetry_space_group_name_H-M "P 21/M"
_symmetry_group_IT_number 11
_symmetry_cell_setting 'monoclinic'
loop_
_space_group_symop_operation_xyz
x,y,z
-x,1/2+y,-z
-x,-y,-z
x,1/2-y,z
loop_
_atom_site_type_symbol
_atom_site_label
_atom_site_fract_x
_atom_site_fract_y
_atom_site_fract_z
Si Si1 0.258293 0.930761 0.168727
Si Si2 0.788041 0.431627 0.636883
Si Si3 0.469994 0.570552 0.858585
Si Si4 0.972401 0.431795 0.859875
Si Si5 0.615106 0.071262 0.883673
Si Si6 0.128095 0.430487 0.884106
Si Si7 0.764944 0.070744 0.190836
Si Si8 0.295060 0.429758 0.651159
O O1 0.243560 0.750000 0.140780
O O2 0.255541 0.964542 0.291874
O O3 0.341123 0.964210 0.186536
O O4 0.187490 0.017221 0.037706
O O5 0.784720 0.250000 0.616503
O O6 0.881622 0.476014 0.742251
O O7 0.747408 0.514396 0.498299
O O8 0.463804 0.750000 0.863811
O O9 0.537157 0.524614 0.836534
O O10 0.383589 0.502550 0.745878
O O11 0.500000 0.500000 0.000000
O O12 0.973370 0.250000 0.871591
O O13 0.038198 0.473107 0.833505
O O14 0.000000 0.500000 0.000000
O O15 0.595402 0.250000 0.867492
O O16 0.684024 0.044558 0.041017
O O17 0.132894 0.250000 0.876399
O O18 0.161833 0.509653 0.810210
O O19 0.772142 0.250000 0.213909
O O20 0.754233 0.987778 0.293009
O O21 0.301629 0.250000 0.660229
#
# Coordination Sequence:
#
# PCOD9158621 Si02
#       8
#     4   4   4   4   4   4   4   4
#     4   9  18  34  57  82 114 154 191 229 283 340
#     4  10  21  39  59  82 116 157 195 233 286 348
#     4  12  23  37  59  86 115 150 190 234 283 339
#     4  10  20  34  57  86 117 152 193 241 285 335
#     4   9  18  33  56  86 114 143 187 238 282 330
#     4  10  19  31  53  87 119 146 187 241 286 332
#     4  10  20  36  58  82 113 152 189 231 286 345
#     4  12  25  40  59  84 115 150 190 240 291 344
#
# _framework density 17.514731999999999
#
# number of rings (size 3 to 8) (size 9 to 14) (size 15 to 20)
#    0.000    1.750    2.500    3.750    0.000    3.500 
#    0.000    1.250    0.000    0.000    0.000    0.000 
#    0.000    0.000    0.000    0.000    0.000    0.000 
#
# Total GULP energy -178711.051320 kJ/mol
# GULP energy per Si atom -5584.720354 kJ/mol
# Density = 1.747487 g / cm^3
# Si number density = 17.514732 Si / 1000 Ang^3
#
#
#
# Elastic Constant Matrix: (Units=GPa)
#
#
# Indices 1 2 3 4 5 6 
#
# 1 153.2924 69.9644 79.6139 0.0000 -12.0246 0.0000
# 2 69.9644 87.7274 61.8257 0.0000 -8.3852 0.0000
# 3 79.6139 61.8257 112.9313 0.0000 -5.3111 0.0000
# 4 0.0000 0.0000 0.0000 27.4862 0.0000 -2.0326
# 5 -12.0246 -8.3852 -5.3111 0.0000 23.5896 0.0000
# 6 0.0000 0.0000 0.0000 -2.0326 0.0000 27.7412
#
#
#
# Elastic Compliance Matrix: (Units=1/GPa)
#
#
# Indices 1 2 3 4 5 6 
#
# 1 0.012066 -0.005606 -0.005298 0.000000 0.002965 0.000000
# 2 -0.005606 0.021618 -0.007738 0.000000 0.003085 0.000000
# 3 -0.005298 -0.007738 0.016747 0.000000 -0.001681 0.000000
# 4 0.000000 0.000000 0.000000 0.036580 0.000000 0.002680
# 5 0.002965 0.003085 -0.001681 0.000000 0.044621 0.000000
# 6 0.000000 0.000000 0.000000 0.002680 0.000000 0.036244
#
#
# Mechanical properties :
#
#
# Convention : Reuss Voigt Hill
#
# Bulk Modulus (GPa) = 76.05908 86.30657 81.18283
# Shear Modulus (GPa) = 23.86155 25.26653 24.56404
#
# Velocity S-wave (km/s) = 3.69503 3.80226 3.74903
# Velocity P-wave (km/s) = 7.85649 8.28612 8.07416
#
# Compressibility (1/GPa) = 0.01314767
#
# Stress axis : x y z
#
# Youngs Moduli (GPa) = 82.87607 46.25802 59.71227
#
# Poissons Ratio (x) = 0.25932 0.31635
# Poissons Ratio (y) = 0.46460 0.46204
# Poissons Ratio (z) = 0.43907 0.35794
#
# Static dielectric constant tensor:
#      x y z
#    x 1.613960 0.000000 -0.006570 
#    y 0.000000 1.583000 0.000000 
#    z -0.006570 0.000000 1.557300 
# 
# From -- ./inp_files/42936.got.cif
#   From: 2010.05.17/outbox.cif.g08.bks.cpg/sg11_22_cif.got.tgz:42936.got - 2010.06.03 12:22:45.
