data_PCOD9158948
_publ_section_title
;
Structure prediction by ZEFSAII (Michael W. Deem and Ramdas Pophale) SiO2 
 PCOD9158948
Probable space group: P 21/M
;
_chemical_formula_sum "Si O2"
_cell_formula_units_Z 32
_cell_length_a 14.495663
_cell_length_b 8.940945
_cell_length_c 14.429283
_cell_angle_alpha 90.000000
_cell_angle_beta 92.490143
_cell_angle_gamma 90.000000
_cell_volume 1868.340229
_symmetry_space_group_name_H-M "P 21/M"
_symmetry_group_IT_number 11
_symmetry_cell_setting 'monoclinic'
loop_
_space_group_symop_operation_xyz
x,y,z
-x,1/2+y,-z
-x,-y,-z
x,1/2-y,z
loop_
_atom_site_type_symbol
_atom_site_label
_atom_site_fract_x
_atom_site_fract_y
_atom_site_fract_z
Si Si1 0.667812 0.572548 0.703325
Si Si2 0.481192 0.569524 0.599482
Si Si3 0.727637 0.429043 0.366695
Si Si4 0.864487 0.072186 0.214482
Si Si5 0.818743 0.926608 0.548052
Si Si6 0.959154 0.074397 0.688502
Si Si7 0.900817 0.927975 0.019061
Si Si8 0.194186 0.575185 0.155831
O O1 0.669198 0.750000 0.724134
O O2 0.564703 0.525865 0.671207
O O3 0.733370 0.550506 0.616082
O O4 0.714682 0.483093 0.788596
O O5 0.500000 0.500000 0.500000
O O6 0.484516 0.750000 0.591568
O O7 0.379345 0.526435 0.629173
O O8 0.733371 0.250000 0.382657
O O9 0.772471 0.459545 0.269133
O O10 0.786824 0.509178 0.448775
O O11 0.872463 0.250000 0.199547
O O12 0.869474 0.988108 0.117334
O O13 0.950041 0.016317 0.280630
O O14 0.837124 0.750000 0.543283
O O15 0.905787 0.010038 0.597260
O O16 0.979529 0.250000 0.677849
O O17 0.888304 0.058373 0.772175
O O18 0.909862 0.750000 0.021151
O O19 0.832214 0.980842 0.935205
O O20 0.000000 0.000000 0.000000
O O21 0.200820 0.750000 0.132734
#
# Coordination Sequence:
#
# PCOD9158948 Si02
#       8
#     4   4   4   4   4   4   4   4
#     4   9  18  32  52  81 112 142 178 224 274 320
#     4  10  19  34  56  82 111 143 183 226 272 321
#     4  10  22  37  54  78 111 149 185 225 274 324
#     4  11  23  38  55  78 110 147 185 226 271 323
#     4  10  19  32  52  78 109 146 185 226 269 320
#     4  10  20  34  53  77 108 146 185 224 268 322
#     4  12  23  37  59  84 110 142 179 225 272 323
#     4  10  20  34  55  83 111 140 177 224 273 322
#
# _framework density 17.127500999999999
#
# number of rings (size 3 to 8) (size 9 to 14) (size 15 to 20)
#    0.000    1.750    2.500    2.625    0.000    3.500 
#    0.000    0.000    0.000    0.750    0.000    0.000 
#    0.000    0.000    0.000    0.000    0.000    0.000 
#
# Total GULP energy -178743.735619 kJ/mol
# GULP energy per Si atom -5585.741738 kJ/mol
# Density = 1.708852 g / cm^3
# Si number density = 17.127501 Si / 1000 Ang^3
#
#
#
# Elastic Constant Matrix: (Units=GPa)
#
#
# Indices 1 2 3 4 5 6 
#
# 1 97.9128 51.8890 62.9278 0.0000 7.6541 0.0000
# 2 51.8890 86.6039 64.1511 0.0000 -2.0578 0.0000
# 3 62.9278 64.1511 103.7996 0.0000 5.9991 0.0000
# 4 0.0000 0.0000 0.0000 31.4939 0.0000 6.2324
# 5 7.6541 -2.0578 5.9991 0.0000 21.9121 0.0000
# 6 0.0000 0.0000 0.0000 6.2324 0.0000 20.4372
#
#
#
# Elastic Compliance Matrix: (Units=1/GPa)
#
#
# Indices 1 2 3 4 5 6 
#
# 1 0.018297 -0.005669 -0.007304 0.000000 -0.004924 0.000000
# 2 -0.005669 0.023776 -0.011685 0.000000 0.007412 0.000000
# 3 -0.007304 -0.011685 0.021541 0.000000 -0.004443 0.000000
# 4 0.000000 0.000000 0.000000 0.033791 0.000000 -0.010305
# 5 -0.004924 0.007412 -0.004443 0.000000 0.049270 0.000000
# 6 0.000000 0.000000 0.000000 -0.010305 0.000000 0.052073
#
#
# Mechanical properties :
#
#
# Convention : Reuss Voigt Hill
#
# Bulk Modulus (GPa) = 69.95091 71.80577 70.87834
# Shear Modulus (GPa) = 19.77618 22.05850 20.91734
#
# Velocity S-wave (km/s) = 3.40169 3.59263 3.49846
# Velocity P-wave (km/s) = 7.50724 7.69575 7.60208
#
# Compressibility (1/GPa) = 0.01429574
#
# Stress axis : x y z
#
# Youngs Moduli (GPa) = 54.65475 42.05997 46.42380
#
# Poissons Ratio (x) = 0.23845 0.33908
# Poissons Ratio (y) = 0.30985 0.54248
# Poissons Ratio (z) = 0.39920 0.49149
#
# Static dielectric constant tensor:
#      x y z
#    x 1.579530 0.000000 -0.006900 
#    y 0.000000 1.577250 0.000000 
#    z -0.006900 0.000000 1.559780 
# 
# From -- ./inp_files/38073.got.cif
#   From: 2010.05.17/outbox.cif.g08.bks.cpg/sg11_20_cif.got.tgz:38073.got - 2010.06.03 12:22:45.
