data_PCOD9158919
_publ_section_title
;
Structure prediction by ZEFSAII (Michael W. Deem and Ramdas Pophale) SiO2 
 PCOD9158919
Probable space group: P 21/M
;
_chemical_formula_sum "Si O2"
_cell_formula_units_Z 32
_cell_length_a 15.371129
_cell_length_b 8.716430
_cell_length_c 31.544646
_cell_angle_alpha 90.000000
_cell_angle_beta 151.660445
_cell_angle_gamma 90.000000
_cell_volume 2006.252522
_symmetry_space_group_name_H-M "P 21/M"
_symmetry_group_IT_number 11
_symmetry_cell_setting 'monoclinic'
loop_
_space_group_symop_operation_xyz
x,y,z
-x,1/2+y,-z
-x,-y,-z
x,1/2-y,z
loop_
_atom_site_type_symbol
_atom_site_label
_atom_site_fract_x
_atom_site_fract_y
_atom_site_fract_z
Si Si1 0.690945 0.433534 0.806331
Si Si2 0.678157 0.433054 0.130388
Si Si3 0.957450 0.431839 0.412870
Si Si4 0.646284 0.566481 0.881226
Si Si5 0.750424 0.932959 0.071310
Si Si6 0.723172 0.566641 0.388696
Si Si7 0.057983 0.932509 0.926444
Si Si8 0.731568 0.931920 0.243885
O O1 0.717990 0.250000 0.818080
O O2 0.684741 0.493515 0.851910
O O3 0.491382 0.467192 0.700888
O O4 0.855744 0.513360 0.852373
O O5 0.701752 0.250000 0.141409
O O6 0.764351 0.502546 0.124764
O O7 0.751539 0.507713 0.204751
O O8 0.459127 0.464652 0.033563
O O9 0.946460 0.250000 0.400700
O O10 0.813683 0.478711 0.388043
O O11 0.899367 0.520352 0.345921
O O12 0.155591 0.469253 0.517965
O O13 0.647112 0.750000 0.878675
O O14 0.449835 0.510091 0.814056
O O15 0.800450 0.511100 0.980178
O O16 0.776193 0.750000 0.081953
O O17 0.884584 0.012499 0.095624
O O18 0.743273 0.750000 0.389214
O O19 0.074891 0.750000 0.937209
O O20 0.705923 0.750000 0.233241
#
# Coordination Sequence:
#
# PCOD9158919 Si02
#       8
#     4   4   4   4   4   4   4   4
#     4  11  22  37  54  74 103 139 179 219 258 305
#     4  10  20  34  54  77 104 135 170 212 259 308
#     4  10  19  32  52  76 103 134 171 214 260 310
#     4  12  23  36  51  73 103 139 180 219 256 302
#     4  10  20  35  54  76 103 135 172 214 259 304
#     4   9  19  34  52  74 101 135 173 215 261 306
#     4  12  24  37  53  74 103 141 180 217 256 303
#     4  12  22  33  51  77 107 141 174 210 258 311
#
# _framework density 15.950136000000001
#
# number of rings (size 3 to 8) (size 9 to 14) (size 15 to 20)
#    0.000    1.250    2.500    5.250    0.000    2.000 
#    0.000    0.000    0.000    0.000    0.000    0.875 
#    0.000    0.000    0.000    0.000    0.000    0.000 
#
# Total GULP energy -178824.228466 kJ/mol
# GULP energy per Si atom -5588.257140 kJ/mol
# Density = 1.591383 g / cm^3
# Si number density = 15.950136 Si / 1000 Ang^3
#
#
#
# Elastic Constant Matrix: (Units=GPa)
#
#
# Indices 1 2 3 4 5 6 
#
# 1 90.9805 23.6688 49.0869 0.0000 -9.2015 0.0000
# 2 23.6688 60.7461 29.7836 0.0000 -7.6331 0.0000
# 3 49.0869 29.7836 76.5113 0.0000 -12.9010 0.0000
# 4 0.0000 0.0000 0.0000 22.6433 0.0000 -2.6990
# 5 -9.2015 -7.6331 -12.9010 0.0000 22.3184 0.0000
# 6 0.0000 0.0000 0.0000 -2.6990 0.0000 29.1944
#
#
#
# Elastic Compliance Matrix: (Units=1/GPa)
#
#
# Indices 1 2 3 4 5 6 
#
# 1 0.016937 -0.001541 -0.010169 0.000000 0.000578 0.000000
# 2 -0.001541 0.020626 -0.006602 0.000000 0.002603 0.000000
# 3 -0.010169 -0.006602 0.023352 0.000000 0.007048 0.000000
# 4 0.000000 0.000000 0.000000 0.044655 0.000000 0.004128
# 5 0.000578 0.002603 0.007048 0.000000 0.050009 0.000000
# 6 0.000000 0.000000 0.000000 0.004128 0.000000 0.034635
#
#
# Mechanical properties :
#
#
# Convention : Reuss Voigt Hill
#
# Bulk Modulus (GPa) = 41.16495 48.14628 44.65562
# Shear Modulus (GPa) = 21.28246 23.21113 22.24680
#
# Velocity S-wave (km/s) = 3.65679 3.81889 3.73872
# Velocity P-wave (km/s) = 6.61014 7.04956 6.83338
#
# Compressibility (1/GPa) = 0.02429251
#
# Stress axis : x y z
#
# Youngs Moduli (GPa) = 59.04162 48.48206 42.82226
#
# Poissons Ratio (x) = 0.07470 0.43546
# Poissons Ratio (y) = 0.09098 0.28270
# Poissons Ratio (z) = 0.60040 0.32006
#
# Static dielectric constant tensor:
#      x y z
#    x 1.504370 0.000000 -0.006280 
#    y 0.000000 1.529410 0.000000 
#    z -0.006280 0.000000 1.534910 
# 
# From -- ./inp_files/73308.got.cif
#   From: 2010.05.17/outbox.cif.g08.bks.cpg/sg11_37_cif.got.tgz:73308.got - 2010.06.03 12:22:45.
