data_PCOD9158021
_publ_section_title
;
Structure prediction by ZEFSAII (Michael W. Deem and Ramdas Pophale) SiO2 
 PCOD9158021
Probable space group: P 21/M
;
_chemical_formula_sum "Si O2"
_cell_formula_units_Z 28
_cell_length_a 12.257141
_cell_length_b 7.626600
_cell_length_c 15.816196
_cell_angle_alpha 90.000000
_cell_angle_beta 61.400977
_cell_angle_gamma 90.000000
_cell_volume 1298.112470
_symmetry_space_group_name_H-M "P 21/M"
_symmetry_group_IT_number 11
_symmetry_cell_setting 'monoclinic'
loop_
_space_group_symop_operation_xyz
x,y,z
-x,1/2+y,-z
-x,-y,-z
x,1/2-y,z
loop_
_atom_site_type_symbol
_atom_site_label
_atom_site_fract_x
_atom_site_fract_y
_atom_site_fract_z
Si Si1 0.622189 0.040205 0.007468
Si Si2 0.640406 0.460325 0.189363
Si Si3 0.630123 0.460077 0.683509
Si Si4 0.078683 0.539054 0.885224
Si Si5 0.874069 0.462028 0.493347
Si Si6 0.762553 0.037066 0.799676
Si Si7 0.035169 0.546352 0.713696
O O1 0.634170 0.250000 0.009724
O O2 0.621462 0.967856 0.101397
O O3 0.730415 0.975659 0.905791
O O4 0.500000 0.000000 0.000000
O O5 0.648914 0.250000 0.183691
O O6 0.512219 0.497369 0.286079
O O7 0.777350 0.521955 0.164671
O O8 0.637688 0.250000 0.680965
O O9 0.746225 0.524312 0.584481
O O10 0.662337 0.520906 0.767287
O O11 0.077501 0.750000 0.883242
O O12 0.032205 0.472578 0.810386
O O13 0.000000 0.500000 0.000000
O O14 0.867814 0.250000 0.492344
O O15 0.883764 0.529746 0.393125
O O16 0.000000 0.500000 0.500000
O O17 0.765571 0.250000 0.797820
O O18 0.896893 0.967517 0.728048
O O19 0.071247 0.750000 0.708966
#
# Coordination Sequence:
#
# PCOD9158021 Si02
#       7
#     4   4   4   4   4   4   4
#     4  10  19  30  46  71 102 135 169 212 266 322
#     4  10  21  36  54  76 108 146 183 227 276 327
#     4  10  20  34  53  79 111 144 179 224 277 328
#     4  10  22  41  61  83 111 147 189 232 276 327
#     4  10  20  35  55  82 114 147 183 228 279 332
#     4  10  19  32  51  78 111 143 177 223 275 327
#     4  10  21  36  57  82 109 144 186 229 276 329
#
# _framework density 21.569780000000002
#
# number of rings (size 3 to 8) (size 9 to 14) (size 15 to 20)
#    0.000    2.000    2.857    0.857    0.000    4.000 
#    0.000    0.714    0.000    0.000    0.000    0.000 
#    0.000    0.000    0.000    0.000    0.000    0.000 
#
# Total GULP energy -156089.367201 kJ/mol
# GULP energy per Si atom -5574.620257 kJ/mol
# Density = 2.152069 g / cm^3
# Si number density = 21.569780 Si / 1000 Ang^3
#
#
#
# Elastic Constant Matrix: (Units=GPa)
#
#
# Indices 1 2 3 4 5 6 
#
# 1 109.2322 -3.4399 53.4270 0.0000 -15.3496 0.0000
# 2 -3.4399 43.7056 8.1629 0.0000 2.0566 0.0000
# 3 53.4270 8.1629 154.0091 0.0000 -17.6431 0.0000
# 4 0.0000 0.0000 0.0000 14.1643 0.0000 -5.9955
# 5 -15.3496 2.0566 -17.6431 0.0000 36.5175 0.0000
# 6 0.0000 0.0000 0.0000 -5.9955 0.0000 17.6274
#
#
#
# Elastic Compliance Matrix: (Units=1/GPa)
#
#
# Indices 1 2 3 4 5 6 
#
# 1 0.011424 0.001453 -0.003704 0.000000 0.002930 0.000000
# 2 0.001453 0.023433 -0.001934 0.000000 -0.001644 0.000000
# 3 -0.003704 -0.001934 0.008167 0.000000 0.002498 0.000000
# 4 0.000000 0.000000 0.000000 0.082474 0.000000 0.028051
# 5 0.002930 -0.001644 0.002498 0.000000 0.029915 0.000000
# 6 0.000000 0.000000 0.000000 0.028051 0.000000 0.066271
#
#
# Mechanical properties :
#
#
# Convention : Reuss Voigt Hill
#
# Bulk Modulus (GPa) = 28.85752 47.02744 37.94248
# Shear Modulus (GPa) = 20.69480 30.24829 25.47155
#
# Velocity S-wave (km/s) = 3.10084 3.74885 3.44014
# Velocity P-wave (km/s) = 5.12132 6.37090 5.77998
#
# Compressibility (1/GPa) = 0.03465301
#
# Stress axis : x y z
#
# Youngs Moduli (GPa) = 87.53291 42.67423 122.44571
#
# Poissons Ratio (x) = -0.06201 0.45360
# Poissons Ratio (y) = -0.12720 0.23686
# Poissons Ratio (z) = 0.32426 0.08255
#
# Static dielectric constant tensor:
#      x y z
#    x 1.780690 0.000000 -0.013390 
#    y 0.000000 1.808360 0.000000 
#    z -0.013390 0.000000 1.853780 
# 
# From -- ./inp_files/37676.got.cif
#   From: 2010.05.17/outbox.cif.g08.bks.cpg/sg11_19_cif.got.tgz:37676.got - 2010.06.03 12:22:45.
