data_PCOD9158744
_publ_section_title
;
Structure prediction by ZEFSAII (Michael W. Deem and Ramdas Pophale) SiO2 
 PCOD9158744
Probable space group: P 21/M
;
_chemical_formula_sum "Si O2"
_cell_formula_units_Z 32
_cell_length_a 12.598767
_cell_length_b 7.431671
_cell_length_c 22.639762
_cell_angle_alpha 90.000000
_cell_angle_beta 45.008227
_cell_angle_gamma 90.000000
_cell_volume 1499.110787
_symmetry_space_group_name_H-M "P 21/M"
_symmetry_group_IT_number 11
_symmetry_cell_setting 'monoclinic'
loop_
_space_group_symop_operation_xyz
x,y,z
-x,1/2+y,-z
-x,-y,-z
x,1/2-y,z
loop_
_atom_site_type_symbol
_atom_site_label
_atom_site_fract_x
_atom_site_fract_y
_atom_site_fract_z
Si Si1 0.106874 0.965355 0.902620
Si Si2 0.371148 0.469910 0.213224
Si Si3 0.439792 0.970151 0.753338
Si Si4 0.729387 0.032018 0.426139
Si Si5 0.450389 0.540741 0.615753
Si Si6 0.937337 0.529869 0.723436
Si Si7 0.929914 0.956519 0.860597
Si Si8 0.594216 0.463658 0.022201
O O1 0.112985 0.750000 0.894430
O O2 0.277919 0.025852 0.842668
O O3 0.034836 0.037309 0.870092
O O4 0.000000 0.000000 0.000000
O O5 0.369447 0.250000 0.212875
O O6 0.427747 0.527672 0.255153
O O7 0.207689 0.529941 0.256014
O O8 0.495180 0.526681 0.116244
O O9 0.444594 0.750000 0.751002
O O10 0.449121 0.034095 0.682151
O O11 0.723816 0.250000 0.427725
O O12 0.663385 0.966588 0.388987
O O13 0.901275 0.977028 0.365569
O O14 0.614118 0.971693 0.521709
O O15 0.408591 0.750000 0.638475
O O16 0.931778 0.750000 0.726308
O O17 0.929409 0.466938 0.794724
O O18 0.980435 0.750000 0.833130
O O19 0.759681 0.957268 0.951071
O O20 0.614384 0.250000 0.020407
O O21 0.500000 0.500000 0.000000
#
# Coordination Sequence:
#
# PCOD9158744 Si02
#       8
#     4   4   4   4   4   4   4   4
#     4  10  20  33  50  72 101 133 167 208 249 295
#     4   9  17  29  48  71  96 127 166 206 236 282
#     4   9  17  31  50  72  97 131 169 199 239 292
#     4   9  17  30  51  74  96 122 155 199 248 295
#     4   9  17  31  51  74  96 121 157 200 244 292
#     4   9  16  29  48  71  95 123 163 203 241 290
#     4  10  19  32  50  72  98 129 168 210 250 292
#     4  11  20  32  50  73 101 133 169 208 247 292
#
# _framework density 21.345987000000001
#
# number of rings (size 3 to 8) (size 9 to 14) (size 15 to 20)
#    0.000    2.500    1.250    1.875    0.000    4.500 
#    0.000    1.875    0.000    4.500    0.000    0.000 
#    0.000    0.000    0.000    0.000    0.000    0.000 
#
# Total GULP energy -178714.984466 kJ/mol
# GULP energy per Si atom -5584.843265 kJ/mol
# Density = 2.129740 g / cm^3
# Si number density = 21.345987 Si / 1000 Ang^3
#
#
#
# Elastic Constant Matrix: (Units=GPa)
#
#
# Indices 1 2 3 4 5 6 
#
# 1 150.6647 -0.9074 64.0521 0.0000 -0.3805 0.0000
# 2 -0.9074 67.4437 -7.0585 0.0000 3.5247 0.0000
# 3 64.0521 -7.0585 99.9672 0.0000 4.5575 0.0000
# 4 0.0000 0.0000 0.0000 17.4841 0.0000 -4.9377
# 5 -0.3805 3.5247 4.5575 0.0000 36.0777 0.0000
# 6 0.0000 0.0000 0.0000 -4.9377 0.0000 1.6504
#
#
#
# Elastic Compliance Matrix: (Units=1/GPa)
#
#
# Indices 1 2 3 4 5 6 
#
# 1 0.009167 -0.000547 -0.005953 0.000000 0.000902 0.000000
# 2 -0.000547 0.015063 0.001490 0.000000 -0.001666 0.000000
# 3 -0.005953 0.001490 0.014013 0.000000 -0.001979 0.000000
# 4 0.000000 0.000000 0.000000 0.368745 0.000000 1.103188
# 5 0.000902 -0.001666 -0.001979 0.000000 0.028140 0.000000
# 6 0.000000 0.000000 0.000000 1.103188 0.000000 3.906352
#
#
# Mechanical properties :
#
#
# Convention : Reuss Voigt Hill
#
# Bulk Modulus (GPa) = 35.43289 47.80531 41.61910
# Shear Modulus (GPa) = 1.14655 28.50843 14.82749
#
# Velocity S-wave (km/s) = 0.73368 3.65847 2.63844
# Velocity P-wave (km/s) = 4.16570 6.34744 5.36857
#
# Compressibility (1/GPa) = 0.02822236
#
# Stress axis : x y z
#
# Youngs Moduli (GPa) = 109.08408 66.38877 71.36093
#
# Poissons Ratio (x) = 0.03631 0.42485
# Poissons Ratio (y) = 0.05966 -0.10632
# Poissons Ratio (z) = 0.64943 -0.09891
#
# Static dielectric constant tensor:
#      x y z
#    x 1.755310 0.000000 0.007940 
#    y 0.000000 1.870920 0.000000 
#    z 0.007940 0.000000 1.731990 
# 
# From -- ./inp_files/64391.got.cif
#   From: 2010.05.17/outbox.cif.g08.bks.cpg/sg11_33_cif.got.tgz:64391.got - 2010.06.03 12:22:45.
