data_PCOD9158479
_publ_section_title
;
Structure prediction by ZEFSAII (Michael W. Deem and Ramdas Pophale) SiO2 
 PCOD9158479
Probable space group: P 21/M
;
_chemical_formula_sum "Si O2"
_cell_formula_units_Z 32
_cell_length_a 18.110002
_cell_length_b 8.548795
_cell_length_c 24.977350
_cell_angle_alpha 90.000000
_cell_angle_beta 152.951517
_cell_angle_gamma 90.000000
_cell_volume 1758.478331
_symmetry_space_group_name_H-M "P 21/M"
_symmetry_group_IT_number 11
_symmetry_cell_setting 'monoclinic'
loop_
_space_group_symop_operation_xyz
x,y,z
-x,1/2+y,-z
-x,-y,-z
x,1/2-y,z
loop_
_atom_site_type_symbol
_atom_site_label
_atom_site_fract_x
_atom_site_fract_y
_atom_site_fract_z
Si Si1 0.073628 0.060948 0.298327
Si Si2 0.758846 0.061225 0.788768
Si Si3 0.959846 0.938697 0.112609
Si Si4 0.986032 0.940477 0.622005
Si Si5 0.162183 0.937748 0.633814
Si Si6 0.691984 0.563314 0.857760
Si Si7 0.555440 0.938664 0.478268
Si Si8 0.661012 0.563139 0.348727
O O1 0.072486 0.250000 0.297202
O O2 0.002748 0.007068 0.309560
O O3 0.262290 0.009303 0.416971
O O4 0.983920 0.002880 0.187467
O O5 0.764649 0.250000 0.796741
O O6 0.890138 0.013181 0.828987
O O7 0.580544 0.013948 0.652393
O O8 0.782692 0.989628 0.862431
O O9 0.962518 0.750000 0.116844
O O10 0.796379 0.988468 0.976612
O O11 0.982489 0.750000 0.619984
O O12 0.813504 0.990289 0.484127
O O13 0.131359 0.985717 0.675514
O O14 0.167146 0.750000 0.634408
O O15 0.305843 0.005009 0.690415
O O16 0.000000 0.000000 0.500000
O O17 0.683188 0.750000 0.852808
O O18 0.511375 0.495260 0.742092
O O19 0.555490 0.750000 0.479641
O O20 0.500000 0.000000 0.500000
O O21 0.663218 0.750000 0.350849
#
# Coordination Sequence:
#
# PCOD9158479 Si02
#       8
#     4   4   4   4   4   4   4   4
#     4  10  19  32  52  76 101 135 175 208 246 306
#     4  10  20  36  55  73 100 135 171 213 265 311
#     4  10  22  38  52  70 100 137 173 217 265 301
#     4   8  16  31  52  79 108 135 163 202 253 304
#     4   9  16  29  51  79 111 141 169 205 254 309
#     4  11  23  36  52  75 101 131 175 221 259 305
#     4  10  19  31  50  74 102 134 167 206 252 302
#     4  10  19  34  55  78 108 139 168 208 261 312
#
# _framework density 18.197552000000002
#
# number of rings (size 3 to 8) (size 9 to 14) (size 15 to 20)
#    0.000    2.250    1.250    3.000    0.000    4.000 
#    0.000    5.000    0.000    0.750    0.000    0.000 
#    0.000    0.000    0.000    0.000    0.000    0.000 
#
# Total GULP energy -178493.958791 kJ/mol
# GULP energy per Si atom -5577.936212 kJ/mol
# Density = 1.815613 g / cm^3
# Si number density = 18.197552 Si / 1000 Ang^3
#
#
#
# Elastic Constant Matrix: (Units=GPa)
#
#
# Indices 1 2 3 4 5 6 
#
# 1 139.5884 18.0722 33.2127 0.0000 -27.0558 0.0000
# 2 18.0722 18.1906 13.9575 0.0000 -5.0788 0.0000
# 3 33.2127 13.9575 61.3759 0.0000 -20.4296 0.0000
# 4 0.0000 0.0000 0.0000 19.8581 0.0000 -1.4478
# 5 -27.0558 -5.0788 -20.4296 0.0000 22.8392 0.0000
# 6 0.0000 0.0000 0.0000 -1.4478 0.0000 28.1700
#
#
#
# Elastic Compliance Matrix: (Units=1/GPa)
#
#
# Indices 1 2 3 4 5 6 
#
# 1 0.010114 -0.006799 -0.000629 0.000000 0.009906 0.000000
# 2 -0.006799 0.071217 -0.014134 0.000000 -0.004861 0.000000
# 3 -0.000629 -0.014134 0.026420 0.000000 0.019744 0.000000
# 4 0.000000 0.000000 0.000000 0.050547 0.000000 0.002598
# 5 0.009906 -0.004861 0.019744 0.000000 0.072100 0.000000
# 6 0.000000 0.000000 0.000000 0.002598 0.000000 0.035632
#
#
# Mechanical properties :
#
#
# Convention : Reuss Voigt Hill
#
# Bulk Modulus (GPa) = 15.47396 38.84886 27.16141
# Shear Modulus (GPa) = 15.11960 24.43430 19.77695
#
# Velocity S-wave (km/s) = 2.88559 3.66830 3.30023
# Velocity P-wave (km/s) = 4.42989 6.27189 5.42957
#
# Compressibility (1/GPa) = 0.06462471
#
# Stress axis : x y z
#
# Youngs Moduli (GPa) = 98.87197 14.04167 37.85033
#
# Poissons Ratio (x) = 0.09548 0.02382
# Poissons Ratio (y) = 0.67228 0.53498
# Poissons Ratio (z) = 0.06223 0.19847
#
# Static dielectric constant tensor:
#      x y z
#    x 1.641130 0.000000 -0.007900 
#    y 0.000000 1.618870 0.000000 
#    z -0.007900 0.000000 1.617140 
# 
# From -- ./inp_files/69463.got.cif
#   From: 2010.05.17/outbox.cif.g08.bks.cpg/sg11_35_cif.got.tgz:69463.got - 2010.06.03 12:22:45.
