data_PCOD9158291
_publ_section_title
;
Structure prediction by ZEFSAII (Michael W. Deem and Ramdas Pophale) SiO2 
 PCOD9158291
Probable space group: P 21/M
;
_chemical_formula_sum "Si O2"
_cell_formula_units_Z 32
_cell_length_a 21.044812
_cell_length_b 8.848710
_cell_length_c 15.231812
_cell_angle_alpha 90.000000
_cell_angle_beta 42.555505
_cell_angle_gamma 90.000000
_cell_volume 1918.309242
_symmetry_space_group_name_H-M "P 21/M"
_symmetry_group_IT_number 11
_symmetry_cell_setting 'monoclinic'
loop_
_space_group_symop_operation_xyz
x,y,z
-x,1/2+y,-z
-x,-y,-z
x,1/2-y,z
loop_
_atom_site_type_symbol
_atom_site_label
_atom_site_fract_x
_atom_site_fract_y
_atom_site_fract_z
Si Si1 0.327865 0.930113 0.993422
Si Si2 0.802076 0.568814 0.723472
Si Si3 0.508399 0.430468 0.893164
Si Si4 0.722755 0.070963 0.628962
Si Si5 0.821557 0.923426 0.972477
Si Si6 0.028501 0.423008 0.341420
Si Si7 0.978254 0.069013 0.927798
Si Si8 0.879296 0.571006 0.373010
O O1 0.331869 0.750000 0.985728
O O2 0.429417 0.999282 0.910721
O O3 0.272475 0.995161 0.965621
O O4 0.265471 0.983430 0.139908
O O5 0.793474 0.750000 0.743814
O O6 0.768939 0.518971 0.662424
O O7 0.909277 0.527639 0.638786
O O8 0.494661 0.250000 0.914542
O O9 0.611751 0.458985 0.748273
O O10 0.500000 0.500000 0.000000
O O11 0.736365 0.250000 0.626714
O O12 0.781168 0.014990 0.485462
O O13 0.802307 0.750000 0.015806
O O14 0.892595 0.921332 0.816516
O O15 0.880728 0.006474 0.987395
O O16 0.994886 0.250000 0.387285
O O17 0.946844 0.526032 0.385988
O O18 0.974194 0.250000 0.936105
O O19 0.060997 0.028277 0.774164
O O20 0.000000 0.000000 0.000000
O O21 0.864172 0.750000 0.388399
#
# Coordination Sequence:
#
# PCOD9158291 Si02
#       8
#     4   4   4   4   4   4   4   4
#     4  11  20  31  49  73 102 136 174 219 264 307
#     4  10  19  31  48  68  94 131 174 217 258 299
#     4  11  22  35  51  72  97 133 180 228 269 306
#     4  11  23  35  49  69  96 132 175 218 262 306
#     4   9  17  31  51  76 105 136 169 210 255 302
#     4   8  16  30  47  67  93 129 169 207 249 295
#     4  10  20  35  57  85 111 137 168 204 251 311
#     4  10  21  35  51  72 100 133 167 206 252 304
#
# _framework density 16.681356000000001
#
# number of rings (size 3 to 8) (size 9 to 14) (size 15 to 20)
#    0.000    2.000    1.250    4.125    0.000    7.000 
#    0.000    0.000    0.000    0.000    0.000    0.875 
#    0.000    0.000    0.000    0.000    0.000    0.000 
#
# Total GULP energy -178581.007472 kJ/mol
# GULP energy per Si atom -5580.656484 kJ/mol
# Density = 1.664339 g / cm^3
# Si number density = 16.681356 Si / 1000 Ang^3
#
#
#
# Elastic Constant Matrix: (Units=GPa)
#
#
# Indices 1 2 3 4 5 6 
#
# 1 130.4471 61.4270 59.6056 0.0000 -10.4844 0.0000
# 2 61.4270 95.6455 50.6380 0.0000 -14.0766 0.0000
# 3 59.6056 50.6380 73.1888 0.0000 -17.4426 0.0000
# 4 0.0000 0.0000 0.0000 22.0391 0.0000 -2.6917
# 5 -10.4844 -14.0766 -17.4426 0.0000 22.9043 0.0000
# 6 0.0000 0.0000 0.0000 -2.6917 0.0000 30.4877
#
#
#
# Elastic Compliance Matrix: (Units=1/GPa)
#
#
# Indices 1 2 3 4 5 6 
#
# 1 0.013486 -0.004597 -0.008558 0.000000 -0.003169 0.000000
# 2 -0.004597 0.018125 -0.008116 0.000000 0.002854 0.000000
# 3 -0.008558 -0.008116 0.029476 0.000000 0.013542 0.000000
# 4 0.000000 0.000000 0.000000 0.045869 0.000000 0.004050
# 5 -0.003169 0.002854 0.013542 0.000000 0.054276 0.000000
# 6 0.000000 0.000000 0.000000 0.004050 0.000000 0.033158
#
#
# Mechanical properties :
#
#
# Convention : Reuss Voigt Hill
#
# Bulk Modulus (GPa) = 53.92482 71.40251 62.66366
# Shear Modulus (GPa) = 20.56658 23.59360 22.08009
#
# Velocity S-wave (km/s) = 3.51509 3.76489 3.64213
# Velocity P-wave (km/s) = 6.99078 7.86104 7.43865
#
# Compressibility (1/GPa) = 0.01854434
#
# Stress axis : x y z
#
# Youngs Moduli (GPa) = 74.14858 55.17381 33.92597
#
# Poissons Ratio (x) = 0.25363 0.29035
# Poissons Ratio (y) = 0.34085 0.27535
# Poissons Ratio (z) = 0.63459 0.44780
#
# Static dielectric constant tensor:
#      x y z
#    x 1.559760 0.000000 -0.009790 
#    y 0.000000 1.554990 0.000000 
#    z -0.009790 0.000000 1.587030 
# 
# From -- ./inp_files/54250.got.cif
#   From: 2010.05.17/outbox.cif.g08.bks.cpg/sg11_28_cif.got.tgz:54250.got - 2010.06.03 12:22:45.
