data_PCOD9158594
_publ_section_title
;
Structure prediction by ZEFSAII (Michael W. Deem and Ramdas Pophale) SiO2 
 PCOD9158594
Probable space group: P 21/M
;
_chemical_formula_sum "Si O2"
_cell_formula_units_Z 20
_cell_length_a 12.409439
_cell_length_b 8.871922
_cell_length_c 12.781238
_cell_angle_alpha 90.000000
_cell_angle_beta 57.949598
_cell_angle_gamma 90.000000
_cell_volume 1192.681025
_symmetry_space_group_name_H-M "P 21/M"
_symmetry_group_IT_number 11
_symmetry_cell_setting 'monoclinic'
loop_
_space_group_symop_operation_xyz
x,y,z
-x,1/2+y,-z
-x,-y,-z
x,1/2-y,z
loop_
_atom_site_type_symbol
_atom_site_label
_atom_site_fract_x
_atom_site_fract_y
_atom_site_fract_z
Si Si1 0.639093 0.429806 0.939446
Si Si2 0.882513 0.071630 0.424869
Si Si3 0.819969 0.928357 0.672370
Si Si4 0.822380 0.570726 0.009206
Si Si5 0.908087 0.570789 0.195218
O O1 0.633007 0.250000 0.944077
O O2 0.726311 0.485866 0.798352
O O3 0.500000 0.500000 0.000000
O O4 0.708339 0.490920 0.007886
O O5 0.858299 0.250000 0.438522
O O6 0.034426 0.049024 0.364274
O O7 0.814959 0.991927 0.557371
O O8 0.850920 0.999901 0.329381
O O9 0.793905 0.750000 0.688106
O O10 0.818874 0.750000 0.991084
O O11 0.826922 0.545506 0.131644
O O12 0.955016 0.505331 0.896610
O O13 0.925862 0.750000 0.198972
#
# Coordination Sequence:
#
# PCOD9158594 Si02
#       5
#     4   4   4   4   4
#     4  12  24  38  57  78 107 144 183 223 266 316
#     4  10  19  31  52  79 111 143 174 219 269 320
#     4  10  20  34  52  77 109 141 179 221 266 318
#     4  10  20  34  51  77 109 141 180 220 265 318
#     4  10  19  31  52  79 110 143 174 218 270 319
#
# _framework density 16.768944000000001
#
# number of rings (size 3 to 8) (size 9 to 14) (size 15 to 20)
#    0.000    1.600    2.000    4.200    0.000    4.000 
#    0.000    0.000    0.000    1.200    0.000    0.000 
#    0.000    0.000    0.000    0.000    0.000    0.000 
#
# Total GULP energy -111706.488874 kJ/mol
# GULP energy per Si atom -5585.324444 kJ/mol
# Density = 1.673078 g / cm^3
# Si number density = 16.768944 Si / 1000 Ang^3
#
#
#
# Elastic Constant Matrix: (Units=GPa)
#
#
# Indices 1 2 3 4 5 6 
#
# 1 104.8675 76.0723 51.8244 0.0000 12.8454 0.0000
# 2 76.0723 134.0037 65.7704 0.0000 12.5336 0.0000
# 3 51.8244 65.7704 73.2157 0.0000 27.0678 0.0000
# 4 0.0000 0.0000 0.0000 32.6730 0.0000 4.0030
# 5 12.8454 12.5336 27.0678 0.0000 29.2475 0.0000
# 6 0.0000 0.0000 0.0000 4.0030 0.0000 26.6894
#
#
#
# Elastic Compliance Matrix: (Units=1/GPa)
#
#
# Indices 1 2 3 4 5 6 
#
# 1 0.017732 -0.006718 -0.007147 0.000000 0.001705 0.000000
# 2 -0.006718 0.017315 -0.013903 0.000000 0.008398 0.000000
# 3 -0.007147 -0.013903 0.042325 0.000000 -0.030074 0.000000
# 4 0.000000 0.000000 0.000000 0.031179 0.000000 -0.004676
# 5 0.001705 0.008398 -0.030074 0.000000 0.057676 0.000000
# 6 0.000000 0.000000 0.000000 -0.004676 0.000000 0.038169
#
#
# Mechanical properties :
#
#
# Convention : Reuss Voigt Hill
#
# Bulk Modulus (GPa) = 45.79808 77.71347 61.75578
# Shear Modulus (GPa) = 18.71173 25.61663 22.16418
#
# Velocity S-wave (km/s) = 3.34407 3.91272 3.63952
# Velocity P-wave (km/s) = 6.50238 8.17660 7.38707
#
# Compressibility (1/GPa) = 0.02183498
#
# Stress axis : x y z
#
# Youngs Moduli (GPa) = 56.39414 57.75421 23.62665
#
# Poissons Ratio (x) = 0.38800 0.16886
# Poissons Ratio (y) = 0.37886 0.32849
# Poissons Ratio (z) = 0.40305 0.80298
#
# Static dielectric constant tensor:
#      x y z
#    x 1.554010 0.000000 0.026120 
#    y 0.000000 1.554460 0.000000 
#    z 0.026120 0.000000 1.553730 
# 
# From -- ./inp_files/33406.got.cif
#   From: 2010.05.17/outbox.cif.g08.bks.cpg/sg11_17_cif.got.tgz:33406.got - 2010.06.03 12:22:45.
