data_PCOD9158742
_publ_section_title
;
Structure prediction by ZEFSAII (Michael W. Deem and Ramdas Pophale) SiO2 
 PCOD9158742
Probable space group: P 21/M
;
_chemical_formula_sum "Si O2"
_cell_formula_units_Z 24
_cell_length_a 27.364544
_cell_length_b 8.226692
_cell_length_c 11.913621
_cell_angle_alpha 90.000000
_cell_angle_beta 149.829855
_cell_angle_gamma 90.000000
_cell_volume 1347.886706
_symmetry_space_group_name_H-M "P 21/M"
_symmetry_group_IT_number 11
_symmetry_cell_setting 'monoclinic'
loop_
_space_group_symop_operation_xyz
x,y,z
-x,1/2+y,-z
-x,-y,-z
x,1/2-y,z
loop_
_atom_site_type_symbol
_atom_site_label
_atom_site_fract_x
_atom_site_fract_y
_atom_site_fract_z
Si Si1 0.383716 0.553376 0.891872
Si Si2 0.397143 0.065617 0.261175
Si Si3 0.402048 0.945151 0.671847
Si Si4 0.728647 0.057643 0.794279
Si Si5 0.754218 0.435776 0.197259
Si Si6 0.890141 0.941539 0.268460
O O1 0.378959 0.750000 0.884643
O O2 0.383783 0.495922 0.762665
O O3 0.288064 0.494865 0.769837
O O4 0.490441 0.505172 0.151249
O O5 0.399973 0.250000 0.223160
O O6 0.500000 0.000000 0.500000
O O7 0.332698 0.054501 0.244262
O O8 0.344850 0.946176 0.071386
O O9 0.408585 0.750000 0.688867
O O10 0.312979 0.983817 0.411305
O O11 0.707128 0.250000 0.769337
O O12 0.836986 0.027904 0.056845
O O13 0.786414 0.250000 0.276156
O O14 0.831334 0.521061 0.267851
O O15 0.887009 0.750000 0.243016
O O16 0.000000 0.000000 0.500000
#
# Coordination Sequence:
#
# PCOD9158742 Si02
#       6
#     4   4   4   4   4   4
#     4   9  18  31  48  72 103 138 171 202 236 279
#     4  11  20  29  42  64  96 129 162 199 242 290
#     4   9  18  31  48  72 103 138 171 202 236 279
#     4  10  19  32  50  72  98 127 162 201 244 293
#     4  10  19  32  50  72  98 127 162 201 244 293
#     4  11  22  37  56  76  98 123 158 203 254 304
#
# _framework density 17.80565
#
# number of rings (size 3 to 8) (size 9 to 14) (size 15 to 20)
#    0.000    2.000    0.000    7.000    0.000    5.333 
#    0.000    0.000    0.000    1.000    0.000    0.000 
#    0.000    0.000    0.000    0.000    0.000    0.000 
#
# Total GULP energy -133647.443743 kJ/mol
# GULP energy per Si atom -5568.643489 kJ/mol
# Density = 1.776512 g / cm^3
# Si number density = 17.805650 Si / 1000 Ang^3
#
#
#
# Elastic Constant Matrix: (Units=GPa)
#
#
# Indices 1 2 3 4 5 6 
#
# 1 81.0603 7.1089 38.1911 0.0000 1.5833 0.0000
# 2 7.1089 48.2527 5.9049 0.0000 -0.2934 0.0000
# 3 38.1911 5.9049 107.4675 0.0000 5.2619 0.0000
# 4 0.0000 0.0000 0.0000 21.3671 0.0000 2.7878
# 5 1.5833 -0.2934 5.2619 0.0000 23.0139 0.0000
# 6 0.0000 0.0000 0.0000 2.7878 0.0000 19.8004
#
#
#
# Elastic Compliance Matrix: (Units=1/GPa)
#
#
# Indices 1 2 3 4 5 6 
#
# 1 0.014934 -0.001559 -0.005229 0.000000 0.000148 0.000000
# 2 -0.001559 0.021034 -0.000627 0.000000 0.000519 0.000000
# 3 -0.005229 -0.000627 0.011307 0.000000 -0.002234 0.000000
# 4 0.000000 0.000000 0.000000 0.047677 0.000000 -0.006713
# 5 0.000148 0.000519 -0.002234 0.000000 0.043959 0.000000
# 6 0.000000 0.000000 0.000000 -0.006713 0.000000 0.051449
#
#
# Mechanical properties :
#
#
# Convention : Reuss Voigt Hill
#
# Bulk Modulus (GPa) = 30.82164 37.68779 34.25471
# Shear Modulus (GPa) = 23.14764 25.20797 24.17780
#
# Velocity S-wave (km/s) = 3.60949 3.76670 3.68893
# Velocity P-wave (km/s) = 5.89227 6.33479 6.11753
#
# Compressibility (1/GPa) = 0.03244473
#
# Stress axis : x y z
#
# Youngs Moduli (GPa) = 66.96213 47.54246 88.44022
#
# Poissons Ratio (x) = 0.07414 0.46242
# Poissons Ratio (y) = 0.10442 0.05545
# Poissons Ratio (z) = 0.35012 0.02981
#
# Static dielectric constant tensor:
#      x y z
#    x 1.671780 0.000000 -0.045750 
#    y 0.000000 1.614650 0.000000 
#    z -0.045750 0.000000 1.526090 
# 
# From -- ./inp_files/44553.got.cif
#   From: 2010.05.17/outbox.cif.g08.bks.cpg/sg11_23_cif.got.tgz:44553.got - 2010.06.03 12:22:45.
