data_PCOD9158406
_publ_section_title
;
Structure prediction by ZEFSAII (Michael W. Deem and Ramdas Pophale) SiO2 
 PCOD9158406
Probable space group: P 21/M
;
_chemical_formula_sum "Si O2"
_cell_formula_units_Z 32
_cell_length_a 18.266479
_cell_length_b 7.633136
_cell_length_c 25.092065
_cell_angle_alpha 90.000000
_cell_angle_beta 25.633618
_cell_angle_gamma 90.000000
_cell_volume 1513.546050
_symmetry_space_group_name_H-M "P 21/M"
_symmetry_group_IT_number 11
_symmetry_cell_setting 'monoclinic'
loop_
_space_group_symop_operation_xyz
x,y,z
-x,1/2+y,-z
-x,-y,-z
x,1/2-y,z
loop_
_atom_site_type_symbol
_atom_site_label
_atom_site_fract_x
_atom_site_fract_y
_atom_site_fract_z
Si Si1 0.406303 0.961239 0.918479
Si Si2 0.225323 0.539849 0.545013
Si Si3 0.411486 0.453480 0.681104
Si Si4 0.298373 0.962146 0.871508
Si Si5 0.872903 0.453089 0.505026
Si Si6 0.929401 0.535905 0.148112
Si Si7 0.042966 0.960613 0.189994
Si Si8 0.219982 0.956057 0.317948
O O1 0.405667 0.750000 0.918704
O O2 0.384100 0.016852 0.871068
O O3 0.585051 0.019591 0.824184
O O4 0.237656 0.022045 0.059806
O O5 0.243904 0.750000 0.528213
O O6 0.402881 0.470269 0.451693
O O7 0.192317 0.468543 0.507262
O O8 0.067916 0.509045 0.686763
O O9 0.414916 0.250000 0.662379
O O10 0.383781 0.464256 0.762823
O O11 0.244483 0.530494 0.763122
O O12 0.305436 0.750000 0.864285
O O13 0.100712 0.015712 0.004699
O O14 0.820420 0.250000 0.540057
O O15 0.076578 0.461894 0.374956
O O16 0.806614 0.529816 0.604434
O O17 0.928706 0.750000 0.147211
O O18 0.954863 0.481194 0.192652
O O19 0.048964 0.750000 0.183838
O O20 0.181319 0.750000 0.344341
#
# Coordination Sequence:
#
# PCOD9158406 Si02
#       8
#     4   4   4   4   4   4   4   4
#     4   9  18  33  52  73 100 133 164 200 250 296
#     4  10  21  35  50  71 100 133 167 204 248 291
#     4  10  19  31  49  73 102 133 163 202 254 299
#     4   9  17  30  49  74 102 131 165 201 241 296
#     4   9  19  35  51  72 107 138 156 190 247 298
#     4   8  16  32  51  71  99 133 165 203 251 294
#     4   9  19  36  54  70  94 133 175 208 241 287
#     4  10  19  32  55  83 103 124 161 200 237 293
#
# _framework density 21.142402000000001
#
# number of rings (size 3 to 8) (size 9 to 14) (size 15 to 20)
#    0.000    2.750    0.000    3.000    0.000    4.000 
#    0.000    3.125    0.000    0.000    0.000    0.000 
#    0.000    0.000    0.000    0.000    0.000    0.000 
#
# Total GULP energy -178575.467444 kJ/mol
# GULP energy per Si atom -5580.483358 kJ/mol
# Density = 2.109428 g / cm^3
# Si number density = 21.142402 Si / 1000 Ang^3
#
#
#
# Elastic Constant Matrix: (Units=GPa)
#
#
# Indices 1 2 3 4 5 6 
#
# 1 32.6846 -5.2867 31.9711 0.0000 -17.8811 0.0000
# 2 -5.2867 42.2983 -5.6575 0.0000 -0.5388 0.0000
# 3 31.9711 -5.6575 85.4257 0.0000 -24.3261 0.0000
# 4 0.0000 0.0000 0.0000 17.0307 0.0000 6.7504
# 5 -17.8811 -0.5388 -24.3261 0.0000 30.3224 0.0000
# 6 0.0000 0.0000 0.0000 6.7504 0.0000 11.0792
#
#
#
# Elastic Compliance Matrix: (Units=1/GPa)
#
#
# Indices 1 2 3 4 5 6 
#
# 1 0.058659 0.005589 -0.015170 0.000000 0.022520 0.000000
# 2 0.005589 0.024498 0.000769 0.000000 0.004348 0.000000
# 3 -0.015170 0.000769 0.019300 0.000000 0.006551 0.000000
# 4 0.000000 0.000000 0.000000 0.077413 0.000000 -0.047167
# 5 0.022520 0.004348 0.006551 0.000000 0.051592 0.000000
# 6 0.000000 0.000000 0.000000 -0.047167 0.000000 0.118998
#
#
# Mechanical properties :
#
#
# Convention : Reuss Voigt Hill
#
# Bulk Modulus (GPa) = 11.78788 22.49583 17.14185
# Shear Modulus (GPa) = 12.61471 20.97858 16.79665
#
# Velocity S-wave (km/s) = 2.44530 3.15342 2.82166
# Velocity P-wave (km/s) = 3.68242 4.89101 4.32910
#
# Compressibility (1/GPa) = 0.08483292
#
# Stress axis : x y z
#
# Youngs Moduli (GPa) = 17.04766 40.81896 51.81306
#
# Poissons Ratio (x) = -0.22815 0.78603
# Poissons Ratio (y) = -0.09529 -0.03983
# Poissons Ratio (z) = 0.25862 -0.03138
#
# Static dielectric constant tensor:
#      x y z
#    x 1.754930 0.000000 -0.028910 
#    y 0.000000 1.788760 0.000000 
#    z -0.028910 0.000000 1.767140 
# 
# From -- ./inp_files/72067.got.cif
#   From: 2010.05.17/outbox.cif.g08.bks.cpg/sg11_37_cif.got.tgz:72067.got - 2010.06.03 12:22:45.
