data_PCOD9158818
_publ_section_title
;
Structure prediction by ZEFSAII (Michael W. Deem and Ramdas Pophale) SiO2 
 PCOD9158818
Probable space group: P 21/M
;
_chemical_formula_sum "Si O2"
_cell_formula_units_Z 32
_cell_length_a 15.938162
_cell_length_b 8.722225
_cell_length_c 15.898525
_cell_angle_alpha 90.000000
_cell_angle_beta 56.758383
_cell_angle_gamma 90.000000
_cell_volume 1848.497712
_symmetry_space_group_name_H-M "P 21/M"
_symmetry_group_IT_number 11
_symmetry_cell_setting 'monoclinic'
loop_
_space_group_symop_operation_xyz
x,y,z
-x,1/2+y,-z
-x,-y,-z
x,1/2-y,z
loop_
_atom_site_type_symbol
_atom_site_label
_atom_site_fract_x
_atom_site_fract_y
_atom_site_fract_z
Si Si1 0.588892 0.933480 0.138161
Si Si2 0.650775 0.565301 0.449544
Si Si3 0.135516 0.435045 0.590509
Si Si4 0.452093 0.932895 0.657247
Si Si5 0.815099 0.565274 0.624612
Si Si6 0.624789 0.434657 0.815011
Si Si7 0.734121 0.066502 0.926512
Si Si8 0.924408 0.933422 0.736251
O O1 0.594323 0.750000 0.131472
O O2 0.487285 0.984709 0.145562
O O3 0.577828 0.987340 0.239878
O O4 0.683584 0.003814 0.038241
O O5 0.647362 0.750000 0.440505
O O6 0.761084 0.522366 0.420294
O O7 0.618077 0.486338 0.381030
O O8 0.565457 0.526369 0.565468
O O9 0.127736 0.250000 0.596052
O O10 0.144606 0.485104 0.487941
O O11 0.036351 0.505566 0.685187
O O12 0.447020 0.750000 0.670039
O O13 0.809312 0.750000 0.627108
O O14 0.705033 0.500776 0.705087
O O15 0.885104 0.518561 0.664538
O O16 0.628206 0.250000 0.809392
O O17 0.663690 0.482097 0.885936
O O18 0.737849 0.250000 0.925967
O O19 0.843719 0.001170 0.845381
O O20 0.922194 0.750000 0.741476
#
# Coordination Sequence:
#
# PCOD9158818 Si02
#       8
#     4   4   4   4   4   4   4   4
#     4  11  21  33  51  76 104 133 168 209 252 298
#     4   9  19  35  54  77 105 134 165 205 251 298
#     4  10  19  32  51  74 101 135 172 208 250 298
#     4  10  20  35  55  78 104 134 166 202 249 303
#     4   9  18  31  48  72 104 138 170 207 249 295
#     4   9  19  32  48  73 104 136 169 207 249 295
#     4  10  20  35  52  71  99 136 175 211 249 294
#     4  10  20  33  49  72 102 136 173 212 252 292
#
# _framework density 17.311354000000001
#
# number of rings (size 3 to 8) (size 9 to 14) (size 15 to 20)
#    0.000    2.250    0.000    3.000    0.000    4.500 
#    0.000    0.000    0.000    0.750    0.000    0.000 
#    0.000    0.000    0.000    0.000    0.000    0.000 
#
# Total GULP energy -178650.072225 kJ/mol
# GULP energy per Si atom -5582.814757 kJ/mol
# Density = 1.727195 g / cm^3
# Si number density = 17.311354 Si / 1000 Ang^3
#
#
#
# Elastic Constant Matrix: (Units=GPa)
#
#
# Indices 1 2 3 4 5 6 
#
# 1 100.0223 34.9445 69.1135 0.0000 -26.3294 0.0000
# 2 34.9445 31.4335 39.4570 0.0000 -7.7271 0.0000
# 3 69.1135 39.4570 138.1530 0.0000 -18.4694 0.0000
# 4 0.0000 0.0000 0.0000 27.9256 0.0000 -5.0843
# 5 -26.3294 -7.7271 -18.4694 0.0000 20.9487 0.0000
# 6 0.0000 0.0000 0.0000 -5.0843 0.0000 22.8597
#
#
#
# Elastic Compliance Matrix: (Units=1/GPa)
#
#
# Indices 1 2 3 4 5 6 
#
# 1 0.024269 -0.015826 -0.004901 0.000000 0.020343 0.000000
# 2 -0.015826 0.060727 -0.010306 0.000000 -0.006578 0.000000
# 3 -0.004901 -0.010306 0.012812 0.000000 0.001334 0.000000
# 4 0.000000 0.000000 0.000000 0.037321 0.000000 0.008301
# 5 0.020343 -0.006578 0.001334 0.000000 0.072055 0.000000
# 6 0.000000 0.000000 0.000000 0.008301 0.000000 0.045591
#
#
# Mechanical properties :
#
#
# Convention : Reuss Voigt Hill
#
# Bulk Modulus (GPa) = 27.97921 61.84875 44.91398
# Shear Modulus (GPa) = 15.30204 22.75305 19.02755
#
# Velocity S-wave (km/s) = 2.97632 3.62932 3.31892
# Velocity P-wave (km/s) = 5.29233 7.30530 6.37872
#
# Compressibility (1/GPa) = 0.03574083
#
# Stress axis : x y z
#
# Youngs Moduli (GPa) = 41.20541 16.46723 78.05219
#
# Poissons Ratio (x) = 0.26062 0.38254
# Poissons Ratio (y) = 0.65214 0.80438
# Poissons Ratio (z) = 0.20195 0.16971
#
# Static dielectric constant tensor:
#      x y z
#    x 1.579700 0.000000 0.000790 
#    y 0.000000 1.575240 0.000000 
#    z 0.000790 0.000000 1.568260 
# 
# From -- ./inp_files/51620.got.cif
#   From: 2010.05.17/outbox.cif.g08.bks.cpg/sg11_26_cif.got.tgz:51620.got - 2010.06.03 12:22:45.
