data_PCOD9158092
_publ_section_title
;
Structure prediction by ZEFSAII (Michael W. Deem and Ramdas Pophale) SiO2 
 PCOD9158092
Probable space group: P 21/M
;
_chemical_formula_sum "Si O2"
_cell_formula_units_Z 32
_cell_length_a 32.350480
_cell_length_b 7.523111
_cell_length_c 11.820029
_cell_angle_alpha 90.000000
_cell_angle_beta 147.311054
_cell_angle_gamma 90.000000
_cell_volume 1553.650018
_symmetry_space_group_name_H-M "P 21/M"
_symmetry_group_IT_number 11
_symmetry_cell_setting 'monoclinic'
loop_
_space_group_symop_operation_xyz
x,y,z
-x,1/2+y,-z
-x,-y,-z
x,1/2-y,z
loop_
_atom_site_type_symbol
_atom_site_label
_atom_site_fract_x
_atom_site_fract_y
_atom_site_fract_z
Si Si1 0.885296 0.454372 0.717697
Si Si2 0.791318 0.464461 0.158718
Si Si3 0.577062 0.959435 0.030046
Si Si4 0.051431 0.535200 0.370574
Si Si5 0.116186 0.959965 0.034580
Si Si6 0.275565 0.459892 0.756877
Si Si7 0.745895 0.468069 0.805141
Si Si8 0.592661 0.465405 0.327718
O O1 0.054521 0.750000 0.374650
O O2 0.932270 0.532438 0.720156
O O3 0.889257 0.537323 0.851019
O O4 0.797341 0.456345 0.473857
O O5 0.793607 0.250000 0.160706
O O6 0.877371 0.525281 0.388912
O O7 0.737702 0.514853 0.140477
O O8 0.762246 0.527017 0.970550
O O9 0.571320 0.750000 0.991525
O O10 0.490601 0.031528 0.822963
O O11 0.644175 0.031635 0.105185
O O12 0.601395 0.981029 0.216889
O O13 0.088879 0.750000 0.212938
O O14 0.966915 0.481943 0.212553
O O15 0.131514 0.750000 0.083312
O O16 0.185521 0.029048 0.118792
O O17 0.271854 0.250000 0.723203
O O18 0.746226 0.250000 0.806555
O O19 0.664349 0.524275 0.567201
O O20 0.591183 0.250000 0.325752
#
# Coordination Sequence:
#
# PCOD9158092 Si02
#       8
#     4   4   4   4   4   4   4   4
#     4   9  18  32  49  71  99 127 157 194 235 284
#     4   9  19  36  52  66  91 127 166 203 235 274
#     4   9  18  31  49  77 107 127 149 191 241 283
#     4   9  18  31  46  66  94 127 159 196 241 282
#     4  10  19  30  48  73  96 121 158 200 239 284
#     4  10  19  31  49  73  99 126 158 196 239 283
#     4   9  18  33  52  71  92 124 166 204 233 271
#     4   9  17  32  54  75  98 130 161 188 228 285
#
# _framework density 20.596658999999999
#
# number of rings (size 3 to 8) (size 9 to 14) (size 15 to 20)
#    0.000    2.750    0.000    2.250    0.000    5.000 
#    0.000    2.500    0.000    0.000    0.000    0.000 
#    0.000    0.000    0.000    0.000    0.000    0.000 
#
# Total GULP energy -178587.366646 kJ/mol
# GULP energy per Si atom -5580.855208 kJ/mol
# Density = 2.054978 g / cm^3
# Si number density = 20.596659 Si / 1000 Ang^3
#
#
#
# Elastic Constant Matrix: (Units=GPa)
#
#
# Indices 1 2 3 4 5 6 
#
# 1 84.2554 -8.3911 99.0283 0.0000 11.7428 0.0000
# 2 -8.3911 52.3143 -7.4458 0.0000 0.6201 0.0000
# 3 99.0283 -7.4458 147.8235 0.0000 9.3770 0.0000
# 4 0.0000 0.0000 0.0000 5.0220 0.0000 0.2709
# 5 11.7428 0.6201 9.3770 0.0000 25.7347 0.0000
# 6 0.0000 0.0000 0.0000 0.2709 0.0000 7.6144
#
#
#
# Elastic Compliance Matrix: (Units=1/GPa)
#
#
# Indices 1 2 3 4 5 6 
#
# 1 0.060703 0.004259 -0.039603 0.000000 -0.013371 0.000000
# 2 0.004259 0.019570 -0.001755 0.000000 -0.001775 0.000000
# 3 -0.039603 -0.001755 0.032816 0.000000 0.006156 0.000000
# 4 0.000000 0.000000 0.000000 0.199506 0.000000 -0.007098
# 5 -0.013371 -0.001775 0.006156 0.000000 0.042759 0.000000
# 6 0.000000 0.000000 0.000000 -0.007098 0.000000 0.131582
#
#
# Mechanical properties :
#
#
# Convention : Reuss Voigt Hill
#
# Bulk Modulus (GPa) = 25.71266 50.08623 37.89944
# Shear Modulus (GPa) = 8.70932 21.08768 14.89850
#
# Velocity S-wave (km/s) = 2.05857 3.20322 2.69243
# Velocity P-wave (km/s) = 4.26160 6.16857 5.30153
#
# Compressibility (1/GPa) = 0.03889135
#
# Stress axis : x y z
#
# Youngs Moduli (GPa) = 16.47371 51.09962 30.47283
#
# Poissons Ratio (x) = -0.21761 1.20680
# Poissons Ratio (y) = -0.07015 0.05347
# Poissons Ratio (z) = 0.65240 0.08966
#
# Static dielectric constant tensor:
#      x y z
#    x 1.724380 0.000000 0.014950 
#    y 0.000000 1.757550 0.000000 
#    z 0.014950 0.000000 1.723590 
# 
# From -- ./inp_files/45348.got.cif
#   From: 2010.05.17/outbox.cif.g08.bks.cpg/sg11_23_cif.got.tgz:45348.got - 2010.06.03 12:22:45.
