data_PCOD9158351
_publ_section_title
;
Structure prediction by ZEFSAII (Michael W. Deem and Ramdas Pophale) SiO2 
 PCOD9158351
Probable space group: P 21/M
;
_chemical_formula_sum "Si O2"
_cell_formula_units_Z 28
_cell_length_a 12.667455
_cell_length_b 8.508088
_cell_length_c 19.568395
_cell_angle_alpha 90.000000
_cell_angle_beta 130.808407
_cell_angle_gamma 90.000000
_cell_volume 1596.300242
_symmetry_space_group_name_H-M "P 21/M"
_symmetry_group_IT_number 11
_symmetry_cell_setting 'monoclinic'
loop_
_space_group_symop_operation_xyz
x,y,z
-x,1/2+y,-z
-x,-y,-z
x,1/2-y,z
loop_
_atom_site_type_symbol
_atom_site_label
_atom_site_fract_x
_atom_site_fract_y
_atom_site_fract_z
Si Si1 0.920252 0.940032 0.305203
Si Si2 0.676147 0.936578 0.303685
Si Si3 0.591820 0.936145 0.751188
Si Si4 0.397930 0.561357 0.397051
Si Si5 0.874274 0.437594 0.493368
Si Si6 0.102012 0.561521 0.101263
Si Si7 0.077627 0.558426 0.245652
O O1 0.905824 0.750000 0.298968
O O2 0.786690 0.996184 0.292735
O O3 0.065255 0.972245 0.406705
O O4 0.954479 0.996322 0.243806
O O5 0.662902 0.750000 0.290590
O O6 0.526424 0.015291 0.244764
O O7 0.743608 0.975639 0.406192
O O8 0.595149 0.750000 0.745346
O O9 0.562664 0.007095 0.663139
O O10 0.740852 0.999189 0.838888
O O11 0.500000 0.500000 0.500000
O O12 0.401256 0.750000 0.400602
O O13 0.234583 0.510897 0.334987
O O14 0.855799 0.250000 0.478971
O O15 0.000000 0.500000 0.500000
O O16 0.104744 0.750000 0.100979
O O17 0.056313 0.510907 0.158322
O O18 0.000000 0.500000 0.000000
O O19 0.077547 0.750000 0.247852
#
# Coordination Sequence:
#
# PCOD9158351 Si02
#       7
#     4   4   4   4   4   4   4
#     4   8  15  28  47  71 101 137 175 214 257 306
#     4  10  19  31  48  72 104 138 177 222 263 309
#     4  11  22  36  54  76 105 140 180 220 264 317
#     4  10  20  33  50  74 107 143 180 220 266 315
#     4   9  16  26  42  64  95 137 182 217 249 294
#     4  10  20  37  61  84 106 130 166 217 271 328
#     4   8  16  31  51  76 103 134 171 211 259 316
#
# _framework density 17.540561
#
# number of rings (size 3 to 8) (size 9 to 14) (size 15 to 20)
#    0.000    2.571    0.000    4.714    2.000    0.000 
#    0.000    0.000    0.000   18.000    0.000    0.000 
#    0.000    0.000    0.000    0.000    0.000    0.000 
#
# Total GULP energy -155934.844983 kJ/mol
# GULP energy per Si atom -5569.101607 kJ/mol
# Density = 1.750064 g / cm^3
# Si number density = 17.540561 Si / 1000 Ang^3
#
#
#
# Elastic Constant Matrix: (Units=GPa)
#
#
# Indices 1 2 3 4 5 6 
#
# 1 142.7810 22.9969 67.2134 0.0000 0.9025 0.0000
# 2 22.9969 50.0835 31.6065 0.0000 -1.5747 0.0000
# 3 67.2134 31.6065 121.6692 0.0000 -1.3513 0.0000
# 4 0.0000 0.0000 0.0000 27.2483 0.0000 3.7016
# 5 0.9025 -1.5747 -1.3513 0.0000 14.0790 0.0000
# 6 0.0000 0.0000 0.0000 3.7016 0.0000 15.5070
#
#
#
# Elastic Compliance Matrix: (Units=1/GPa)
#
#
# Indices 1 2 3 4 5 6 
#
# 1 0.009553 -0.001299 -0.004953 0.000000 -0.001233 0.000000
# 2 -0.001299 0.024119 -0.005523 0.000000 0.002251 0.000000
# 3 -0.004953 -0.005523 0.012400 0.000000 0.000890 0.000000
# 4 0.000000 0.000000 0.000000 0.037930 0.000000 -0.009054
# 5 -0.001233 0.002251 0.000890 0.000000 0.071444 0.000000
# 6 0.000000 0.000000 0.000000 -0.009054 0.000000 0.066648
#
#
# Mechanical properties :
#
#
# Convention : Reuss Voigt Hill
#
# Bulk Modulus (GPa) = 44.40274 62.01859 53.21066
# Shear Modulus (GPa) = 19.75108 24.21466 21.98287
#
# Velocity S-wave (km/s) = 3.35927 3.71953 3.54398
# Velocity P-wave (km/s) = 6.35732 7.34034 6.86644
#
# Compressibility (1/GPa) = 0.02252113
#
# Stress axis : x y z
#
# Youngs Moduli (GPa) = 104.68459 41.46062 80.64561
#
# Poissons Ratio (x) = 0.05386 0.39946
# Poissons Ratio (y) = 0.13600 0.44540
# Poissons Ratio (z) = 0.51853 0.22898
#
# Static dielectric constant tensor:
#      x y z
#    x 1.613670 0.000000 -0.008440 
#    y 0.000000 1.590140 0.000000 
#    z -0.008440 0.000000 1.601600 
# 
# From -- ./inp_files/64270.got.cif
#   From: 2010.05.17/outbox.cif.g08.bks.cpg/sg11_33_cif.got.tgz:64270.got - 2010.06.03 12:22:45.
