data_PCOD9158884
_publ_section_title
;
Structure prediction by ZEFSAII (Michael W. Deem and Ramdas Pophale) SiO2 
 PCOD9158884
Probable space group: P 21/M
;
_chemical_formula_sum "Si O2"
_cell_formula_units_Z 32
_cell_length_a 11.999771
_cell_length_b 15.347984
_cell_length_c 13.267617
_cell_angle_alpha 90.000000
_cell_angle_beta 135.085420
_cell_angle_gamma 90.000000
_cell_volume 1725.256950
_symmetry_space_group_name_H-M "P 21/M"
_symmetry_group_IT_number 11
_symmetry_cell_setting 'monoclinic'
loop_
_space_group_symop_operation_xyz
x,y,z
-x,1/2+y,-z
-x,-y,-z
x,1/2-y,z
loop_
_atom_site_type_symbol
_atom_site_label
_atom_site_fract_x
_atom_site_fract_y
_atom_site_fract_z
Si Si1 0.002645 0.346713 0.318109
Si Si2 0.068704 0.025854 0.652237
Si Si3 0.896133 0.098146 0.867035
Si Si4 0.870471 0.604642 0.816932
Si Si5 0.180182 0.652543 0.400333
Si Si6 0.486921 0.399329 0.458177
Si Si7 0.573484 0.150539 0.733864
Si Si8 0.274494 0.351805 0.664796
O O1 0.931180 0.250000 0.287308
O O2 0.068039 0.353458 0.246704
O O3 0.147756 0.353931 0.491055
O O4 0.900771 0.434030 0.272608
O O5 0.213557 0.088826 0.716982
O O6 0.933407 0.082598 0.620275
O O7 0.000000 0.000000 0.500000
O O8 0.864922 0.152149 0.746638
O O9 0.737185 0.099745 0.832328
O O10 0.913370 0.998507 0.841891
O O11 0.038171 0.133858 0.024817
O O12 0.682602 0.615930 0.699227
O O13 0.160830 0.750000 0.430122
O O14 0.364185 0.624806 0.515957
O O15 0.500000 0.500000 0.500000
O O16 0.502695 0.350354 0.575182
O O17 0.610177 0.250000 0.784476
O O18 0.440033 0.117272 0.723871
O O19 0.287150 0.250000 0.701906
#
# Coordination Sequence:
#
# PCOD9158884 Si02
#       8
#     4   4   4   4   4   4   4   4
#     4  10  19  32  51  79 108 139 184 230 274 326
#     4  10  20  34  55  79 110 144 181 235 285 318
#     4  10  21  34  53  82 118 149 180 222 275 341
#     4  11  20  33  54  83 113 149 188 218 276 342
#     4  11  22  37  55  85 118 148 183 227 281 333
#     4  11  18  31  55  81 113 147 180 226 282 328
#     4  10  19  33  52  81 112 143 183 228 274 326
#     4   9  18  31  54  82 105 139 189 232 268 323
#
# _framework density 18.547962999999999
#
# number of rings (size 3 to 8) (size 9 to 14) (size 15 to 20)
#    0.000    1.750    5.000    1.875    1.750    2.000 
#    0.000    0.000    0.000    0.750    6.500    0.000 
#    0.000    0.000    0.000    0.000    0.000    0.000 
#
# Total GULP energy -178397.753325 kJ/mol
# GULP energy per Si atom -5574.929791 kJ/mol
# Density = 1.850575 g / cm^3
# Si number density = 18.547963 Si / 1000 Ang^3
#
#
#
# Elastic Constant Matrix: (Units=GPa)
#
#
# Indices 1 2 3 4 5 6 
#
# 1 112.9461 46.6001 24.2097 0.0000 13.7758 0.0000
# 2 46.6001 110.6781 5.9007 0.0000 2.7361 0.0000
# 3 24.2097 5.9007 87.0945 0.0000 9.7698 0.0000
# 4 0.0000 0.0000 0.0000 7.0740 0.0000 -1.6190
# 5 13.7758 2.7361 9.7698 0.0000 15.2123 0.0000
# 6 0.0000 0.0000 0.0000 -1.6190 0.0000 26.2520
#
#
#
# Elastic Compliance Matrix: (Units=1/GPa)
#
#
# Indices 1 2 3 4 5 6 
#
# 1 0.012426 -0.004897 -0.002111 0.000000 -0.009016 0.000000
# 2 -0.004897 0.011023 0.000366 0.000000 0.002217 0.000000
# 3 -0.002111 0.000366 0.012756 0.000000 -0.006346 0.000000
# 4 0.000000 0.000000 0.000000 0.143386 0.000000 0.008843
# 5 -0.009016 0.002217 -0.006346 0.000000 0.077578 0.000000
# 6 0.000000 0.000000 0.000000 0.008843 0.000000 0.038638
#
#
# Mechanical properties :
#
#
# Convention : Reuss Voigt Hill
#
# Bulk Modulus (GPa) = 43.62857 51.57108 47.59983
# Shear Modulus (GPa) = 15.78629 25.30821 20.54725
#
# Velocity S-wave (km/s) = 2.92054 3.69789 3.33196
# Velocity P-wave (km/s) = 5.91150 6.78948 6.36564
#
# Compressibility (1/GPa) = 0.02292076
#
# Stress axis : x y z
#
# Youngs Moduli (GPa) = 80.47506 90.72309 78.39635
#
# Poissons Ratio (x) = 0.44423 0.16549
# Poissons Ratio (y) = 0.39405 -0.02866
# Poissons Ratio (z) = 0.16988 -0.03317
#
# Static dielectric constant tensor:
#      x y z
#    x 1.640140 0.000000 0.009340 
#    y 0.000000 1.476400 0.000000 
#    z 0.009340 0.000000 1.637020 
# 
# From -- ./inp_files/50410.got.cif
#   From: 2010.05.17/outbox.cif.g08.bks.cpg/sg11_26_cif.got.tgz:50410.got - 2010.06.03 12:22:45.
