data_PCOD9158542
_publ_section_title
;
Structure prediction by ZEFSAII (Michael W. Deem and Ramdas Pophale) SiO2 
 PCOD9158542
Probable space group: P 21/M
;
_chemical_formula_sum "Si O2"
_cell_formula_units_Z 32
_cell_length_a 13.641113
_cell_length_b 13.152031
_cell_length_c 14.798729
_cell_angle_alpha 90.000000
_cell_angle_beta 43.627623
_cell_angle_gamma 90.000000
_cell_volume 1831.877261
_symmetry_space_group_name_H-M "P 21/M"
_symmetry_group_IT_number 11
_symmetry_cell_setting 'monoclinic'
loop_
_space_group_symop_operation_xyz
x,y,z
-x,1/2+y,-z
-x,-y,-z
x,1/2-y,z
loop_
_atom_site_type_symbol
_atom_site_label
_atom_site_fract_x
_atom_site_fract_y
_atom_site_fract_z
Si Si1 0.276047 0.484513 0.965937
Si Si2 0.609129 0.367478 0.254594
Si Si3 0.677234 0.521241 0.574763
Si Si4 0.996375 0.523644 0.395922
Si Si5 0.269965 0.632749 0.138790
Si Si6 0.975094 0.866876 0.781914
Si Si7 0.692671 0.134984 0.405681
Si Si8 0.437055 0.867424 0.206896
O O1 0.293737 0.553471 0.865444
O O2 0.402156 0.402290 0.883842
O O3 0.297409 0.560248 0.036172
O O4 0.128191 0.428248 0.082628
O O5 0.640222 0.250000 0.211231
O O6 0.446480 0.395594 0.338589
O O7 0.632239 0.380346 0.346142
O O8 0.838597 0.560154 0.472279
O O9 0.650125 0.452189 0.504199
O O10 0.658125 0.442956 0.670297
O O11 0.000000 0.500000 0.500000
O O12 0.121108 0.600606 0.284640
O O13 0.023950 0.423396 0.315819
O O14 0.264331 0.750000 0.114320
O O15 0.391081 0.621020 0.133723
O O16 0.929086 0.750000 0.803605
O O17 0.135996 0.868220 0.710408
O O18 0.652372 0.250000 0.462962
O O19 0.414348 0.750000 0.247247
#
# Coordination Sequence:
#
# PCOD9158542 Si02
#       8
#     4   4   4   4   4   4   4   4
#     4  10  20  34  51  71 103 132 170 213 249 298
#     4  10  21  35  52  74 102 138 173 209 255 305
#     4  10  19  33  54  76 105 131 166 211 253 303
#     4  10  19  33  51  75 105 131 164 206 250 304
#     4  10  20  33  50  70  98 136 170 201 245 297
#     4   9  19  34  54  77 101 132 169 215 257 297
#     4   9  18  34  55  78 102 130 168 211 259 307
#     4  10  19  31  51  74  98 131 166 206 250 297
#
# _framework density 17.468419999999998
#
# number of rings (size 3 to 8) (size 9 to 14) (size 15 to 20)
#    0.000    2.250    1.250    1.875    0.000    2.000 
#    0.000    0.000    0.000    0.750    0.000    0.000 
#    0.000    0.000    0.000    0.000    0.000    0.000 
#
# Total GULP energy -178449.656629 kJ/mol
# GULP energy per Si atom -5576.551770 kJ/mol
# Density = 1.742866 g / cm^3
# Si number density = 17.468420 Si / 1000 Ang^3
#
#
#
# Elastic Constant Matrix: (Units=GPa)
#
#
# Indices 1 2 3 4 5 6 
#
# 1 37.6262 10.9608 -7.8760 0.0000 7.6538 0.0000
# 2 10.9608 49.1165 -7.7494 0.0000 -2.0030 0.0000
# 3 -7.8760 -7.7494 32.2459 0.0000 -1.1146 0.0000
# 4 0.0000 0.0000 0.0000 6.9125 0.0000 13.3059
# 5 7.6538 -2.0030 -1.1146 0.0000 18.1550 0.0000
# 6 0.0000 0.0000 0.0000 13.3059 0.0000 8.0633
#
#
#
# Elastic Compliance Matrix: (Units=1/GPa)
#
#
# Indices 1 2 3 4 5 6 
#
# 1 0.032713 -0.006960 0.005827 0.000000 -0.014201 0.000000
# 2 -0.006960 0.022771 0.003969 0.000000 0.005690 0.000000
# 3 0.005827 0.003969 0.033390 0.000000 0.000031 0.000000
# 4 0.000000 0.000000 0.000000 -0.066469 0.000000 0.109686
# 5 -0.014201 0.005690 0.000031 0.000000 0.061698 0.000000
# 6 0.000000 0.000000 0.000000 0.109686 0.000000 -0.056983
#
#
# Mechanical properties :
#
#
# Convention : Reuss Voigt Hill
#
# Bulk Modulus (GPa) = 10.57692 12.18438 11.38065
# Shear Modulus (GPa) = 94.40457 14.86972 54.63715
#
# Velocity S-wave (km/s) = 7.35937 2.92076 5.59871
# Velocity P-wave (km/s) = 8.84770 4.28540 6.95149
#
# Compressibility (1/GPa) = 0.09454548
#
# Stress axis : x y z
#
# Youngs Moduli (GPa) = 30.56876 43.91507 29.94930
#
# Poissons Ratio (x) = 0.30565 -0.17450
# Poissons Ratio (y) = 0.21276 -0.11887
# Poissons Ratio (z) = -0.17811 -0.17431
#
# Static dielectric constant tensor:
#      x y z
#    x 1.574350 0.000000 -0.004370 
#    y 0.000000 1.581510 0.000000 
#    z -0.004370 0.000000 1.591820 
# 
# From -- ./inp_files/38913.got.cif
#   From: 2010.05.17/outbox.cif.g08.bks.cpg/sg11_20_cif.got.tgz:38913.got - 2010.06.03 12:22:45.
