data_PCOD9158487
_publ_section_title
;
Structure prediction by ZEFSAII (Michael W. Deem and Ramdas Pophale) SiO2 
 PCOD9158487
Probable space group: P 21/M
;
_chemical_formula_sum "Si O2"
_cell_formula_units_Z 28
_cell_length_a 21.728971
_cell_length_b 7.385678
_cell_length_c 23.929090
_cell_angle_alpha 90.000000
_cell_angle_beta 160.860090
_cell_angle_gamma 90.000000
_cell_volume 1259.114966
_symmetry_space_group_name_H-M "P 21/M"
_symmetry_group_IT_number 11
_symmetry_cell_setting 'monoclinic'
loop_
_space_group_symop_operation_xyz
x,y,z
-x,1/2+y,-z
-x,-y,-z
x,1/2-y,z
loop_
_atom_site_type_symbol
_atom_site_label
_atom_site_fract_x
_atom_site_fract_y
_atom_site_fract_z
Si Si1 0.027207 0.528260 0.142425
Si Si2 0.150804 0.966349 0.580696
Si Si3 0.468607 0.033419 0.038803
Si Si4 0.205158 0.971439 0.411890
Si Si5 0.619835 0.544622 0.770822
Si Si6 0.676216 0.464860 0.691746
Si Si7 0.950137 0.528477 0.296019
O O1 0.024748 0.750000 0.139182
O O2 0.139921 0.472959 0.294272
O O3 0.139627 0.471164 0.183575
O O4 0.812839 0.463867 0.959305
O O5 0.169042 0.750000 0.590676
O O6 0.352928 0.037467 0.773656
O O7 0.067389 0.032830 0.450719
O O8 0.000000 0.000000 0.500000
O O9 0.465825 0.250000 0.043648
O O10 0.264591 0.966530 0.882557
O O11 0.500000 0.000000 0.000000
O O12 0.212215 0.750000 0.417054
O O13 0.415187 0.036356 0.605807
O O14 0.055609 0.025574 0.330181
O O15 0.612517 0.750000 0.786697
O O16 0.644777 0.549510 0.725128
O O17 0.500000 0.500000 0.500000
O O18 0.691109 0.250000 0.713294
O O19 0.947434 0.750000 0.294525
#
# Coordination Sequence:
#
# PCOD9158487 Si02
#       7
#     4   4   4   4   4   4   4
#     4   9  18  31  50  77 104 131 168 209 253 301
#     4  10  19  31  50  76 101 129 165 204 252 302
#     4  10  19  31  50  75 101 129 163 203 250 300
#     4   9  17  31  50  74 104 135 166 207 253 299
#     4  10  19  33  54  77 103 134 169 209 256 303
#     4  11  20  33  53  78 106 135 172 215 257 300
#     4   9  18  31  48  74 106 132 164 209 251 298
#
# _framework density 22.237841
#
# number of rings (size 3 to 8) (size 9 to 14) (size 15 to 20)
#    0.000    2.286    2.857    0.857    0.000    1.143 
#    0.000    6.429    0.000    1.714    0.000    2.000 
#    0.000    0.000    0.000    0.000    0.000    0.000 
#
# Total GULP energy -156476.116582 kJ/mol
# GULP energy per Si atom -5588.432735 kJ/mol
# Density = 2.218723 g / cm^3
# Si number density = 22.237841 Si / 1000 Ang^3
#
#
#
# Elastic Constant Matrix: (Units=GPa)
#
#
# Indices 1 2 3 4 5 6 
#
# 1 83.2799 -5.5369 35.6169 0.0000 33.0691 0.0000
# 2 -5.5369 83.9753 4.0877 0.0000 2.0836 0.0000
# 3 35.6169 4.0877 187.5865 0.0000 32.5521 0.0000
# 4 0.0000 0.0000 0.0000 0.0034 0.0000 0.4113
# 5 33.0691 2.0836 32.5521 0.0000 38.8529 0.0000
# 6 0.0000 0.0000 0.0000 0.4113 0.0000 15.3531
#
#
#
# Elastic Compliance Matrix: (Units=1/GPa)
#
#
# Indices 1 2 3 4 5 6 
#
# 1 0.018489 0.001638 -0.000936 0.000000 -0.015040 0.000000
# 2 0.001638 0.012074 -0.000257 0.000000 -0.001826 0.000000
# 3 -0.000936 -0.000257 0.006288 0.000000 -0.004457 0.000000
# 4 0.000000 0.000000 0.000000********** 0.000000 3.515572
# 5 -0.015040 -0.001826 -0.004457 0.000000 0.042372 0.000000
# 6 0.000000 0.000000 0.000000 3.515572 0.000000 -0.029039
#
#
# Mechanical properties :
#
#
# Convention : Reuss Voigt Hill
#
# Bulk Modulus (GPa) = 26.49717 47.01968 36.75843
# Shear Modulus (GPa) = -0.03812 32.22014 16.09101
#
# Velocity S-wave (km/s) = -0.13106 3.81056 2.69288
# Velocity P-wave (km/s) = 3.45229 6.36792 5.12195
#
# Compressibility (1/GPa) = 0.03773988
#
# Stress axis : x y z
#
# Youngs Moduli (GPa) = 54.08535 82.82201 159.03962
#
# Poissons Ratio (x) = -0.13565 0.14890
# Poissons Ratio (y) = -0.08858 0.04091
# Poissons Ratio (z) = 0.05064 0.02130
#
# Static dielectric constant tensor:
#      x y z
#    x 1.746350 0.000000 0.008200 
#    y 0.000000 1.980380 0.000000 
#    z 0.008200 0.000000 1.813590 
# 
# From -- ./inp_files/66689.got.cif
#   From: 2010.05.17/outbox.cif.g08.bks.cpg/sg11_34_cif.got.tgz:66689.got - 2010.06.03 12:22:45.
