data_PCOD9158513
_publ_section_title
;
Structure prediction by ZEFSAII (Michael W. Deem and Ramdas Pophale) SiO2 
 PCOD9158513
Probable space group: P 21/M
;
_chemical_formula_sum "Si O2"
_cell_formula_units_Z 28
_cell_length_a 10.908533
_cell_length_b 11.385863
_cell_length_c 12.206348
_cell_angle_alpha 90.000000
_cell_angle_beta 90.670951
_cell_angle_gamma 90.000000
_cell_volume 1515.961852
_symmetry_space_group_name_H-M "P 21/M"
_symmetry_group_IT_number 11
_symmetry_cell_setting 'monoclinic'
loop_
_space_group_symop_operation_xyz
x,y,z
-x,1/2+y,-z
-x,-y,-z
x,1/2-y,z
loop_
_atom_site_type_symbol
_atom_site_label
_atom_site_fract_x
_atom_site_fract_y
_atom_site_fract_z
Si Si1 0.491021 0.492217 0.197178
Si Si2 0.901622 0.608281 0.483636
Si Si3 0.382773 0.620932 0.001103
Si Si4 0.825376 0.947647 0.069901
Si Si5 0.965848 0.881518 0.861487
Si Si6 0.713623 0.620533 0.288617
Si Si7 0.750881 0.610838 0.701792
O O1 0.457302 0.598548 0.113443
O O2 0.602303 0.528992 0.277257
O O3 0.373255 0.453061 0.264409
O O4 0.534969 0.396285 0.107270
O O5 0.943697 0.750000 0.486613
O O6 0.825280 0.590667 0.370868
O O7 0.801559 0.597351 0.579882
O O8 0.000000 0.500000 0.500000
O O9 0.327541 0.750000 0.000589
O O10 0.280294 0.520880 0.992046
O O11 0.915374 0.039725 0.129114
O O12 0.765080 0.875440 0.165813
O O13 0.904001 0.880795 0.980620
O O14 0.996720 0.750000 0.826173
O O15 0.862993 0.930780 0.779448
O O16 0.668224 0.750000 0.321121
O O17 0.733725 0.750000 0.723249
#
# Coordination Sequence:
#
# PCOD9158513 Si02
#       7
#     4   4   4   4   4   4   4
#     4  10  20  34  52  80 109 148 188 226 277 339
#     4  10  22  42  65  87 114 150 193 240 289 343
#     4  10  19  32  50  76 112 147 185 230 275 332
#     4  10  19  32  51  77 108 142 181 226 276 338
#     4  10  19  31  50  76 106 140 178 224 278 331
#     4  10  21  37  57  80 110 147 185 231 286 339
#     4  10  20  36  57  80 111 149 188 234 284 338
#
# _framework density 18.470120999999999
#
# number of rings (size 3 to 8) (size 9 to 14) (size 15 to 20)
#    0.000    2.000    1.429    2.571    0.000    0.571 
#    0.000    5.000    0.000    0.000    0.000    0.000 
#    0.000    0.000    0.000    0.000    0.000    0.000 
#
# Total GULP energy -155991.996894 kJ/mol
# GULP energy per Si atom -5571.142746 kJ/mol
# Density = 1.842808 g / cm^3
# Si number density = 18.470121 Si / 1000 Ang^3
#
#
#
# Elastic Constant Matrix: (Units=GPa)
#
#
# Indices 1 2 3 4 5 6 
#
# 1 74.0232 30.9595 12.9589 0.0000 6.8365 0.0000
# 2 30.9595 74.5704 17.3927 0.0000 10.8078 0.0000
# 3 12.9589 17.3927 57.5020 0.0000 11.1206 0.0000
# 4 0.0000 0.0000 0.0000 13.8204 0.0000 9.3805
# 5 6.8365 10.8078 11.1206 0.0000 31.7305 0.0000
# 6 0.0000 0.0000 0.0000 9.3805 0.0000 -4.8430
#
#
#
# Elastic Compliance Matrix: (Units=1/GPa)
#
#
# Indices 1 2 3 4 5 6 
#
# 1 0.016534 -0.006362 -0.001643 0.000000 -0.000819 0.000000
# 2 -0.006362 0.017277 -0.003131 0.000000 -0.003417 0.000000
# 3 -0.001643 -0.003131 0.019774 0.000000 -0.005509 0.000000
# 4 0.000000 0.000000 0.000000 0.031260 0.000000 0.060548
# 5 -0.000819 -0.003417 -0.005509 0.000000 0.034787 0.000000
# 6 0.000000 0.000000 0.000000 0.060548 0.000000 -0.089207
#
#
# Mechanical properties :
#
#
# Convention : Reuss Voigt Hill
#
# Bulk Modulus (GPa) = 31.93784 36.52420 34.23102
# Shear Modulus (GPa) = 79.19590 17.79388 48.49489
#
# Velocity S-wave (km/s) = 6.55522 3.10722 5.12961
# Velocity P-wave (km/s) = 8.63850 5.71758 7.32511
#
# Compressibility (1/GPa) = 0.03131082
#
# Stress axis : x y z
#
# Youngs Moduli (GPa) = 60.48297 57.88014 50.57235
#
# Poissons Ratio (x) = 0.36825 0.08310
# Poissons Ratio (y) = 0.38481 0.15835
# Poissons Ratio (z) = 0.09939 0.18124
#
# Static dielectric constant tensor:
#      x y z
#    x 1.628690 0.000000 0.011800 
#    y 0.000000 1.608030 0.000000 
#    z 0.011800 0.000000 1.644680 
# 
# From -- ./inp_files/34405.got.cif
#   From: 2010.05.17/outbox.cif.g08.bks.cpg/sg11_18_cif.got.tgz:34405.got - 2010.06.03 12:22:45.
