data_PCOD9158083
_publ_section_title
;
Structure prediction by ZEFSAII (Michael W. Deem and Ramdas Pophale) SiO2 
 PCOD9158083
Probable space group: P 21/M
;
_chemical_formula_sum "Si O2"
_cell_formula_units_Z 28
_cell_length_a 9.107374
_cell_length_b 15.049663
_cell_length_c 9.875685
_cell_angle_alpha 90.000000
_cell_angle_beta 106.039698
_cell_angle_gamma 90.000000
_cell_volume 1300.895515
_symmetry_space_group_name_H-M "P 21/M"
_symmetry_group_IT_number 11
_symmetry_cell_setting 'monoclinic'
loop_
_space_group_symop_operation_xyz
x,y,z
-x,1/2+y,-z
-x,-y,-z
x,1/2-y,z
loop_
_atom_site_type_symbol
_atom_site_label
_atom_site_fract_x
_atom_site_fract_y
_atom_site_fract_z
Si Si1 0.506141 0.351874 0.740635
Si Si2 0.739456 0.349898 0.176689
Si Si3 0.205734 0.432394 0.588589
Si Si4 0.596132 0.647511 0.971813
Si Si5 0.853464 0.351099 0.802594
Si Si6 0.860850 0.973460 0.111051
Si Si7 0.891693 0.124615 0.500328
O O1 0.507735 0.250000 0.692766
O O2 0.380586 0.404271 0.621661
O O3 0.446476 0.351895 0.879651
O O4 0.680894 0.381484 0.787846
O O5 0.738023 0.250000 0.118431
O O6 0.835038 0.420491 0.112757
O O7 0.802357 0.345188 0.344929
O O8 0.562537 0.380381 0.138329
O O9 0.173981 0.449671 0.739764
O O10 0.159014 0.521527 0.500622
O O11 0.072085 0.364219 0.515501
O O12 0.635396 0.750000 0.944631
O O13 0.733195 0.578183 0.991233
O O14 0.883060 0.250000 0.863775
O O15 0.861589 0.340921 0.641625
O O16 0.977202 0.426197 0.874727
#
# Coordination Sequence:
#
# PCOD9158083 Si02
#       7
#     4   4   4   4   4   4   4
#     4   9  18  31  48  71  96 124 159 197 234 273
#     4  10  19  30  48  72  97 124 155 194 236 282
#     4   8  16  30  48  69  92 122 158 193 231 276
#     4   9  17  31  51  72  94 123 158 193 232 280
#     4  10  19  31  49  72  97 123 155 199 241 274
#     4   9  17  31  50  72  94 120 160 201 234 271
#     4   9  17  30  48  71  95 121 154 192 236 281
#
# _framework density 21.523634999999999
#
# number of rings (size 3 to 8) (size 9 to 14) (size 15 to 20)
#    0.000    2.857    0.000    2.143    0.000    4.571 
#    0.000    0.714    0.000    1.714    0.000   15.000 
#    0.000    0.000    0.000    0.000    0.000    0.000 
#
# Total GULP energy -156101.502256 kJ/mol
# GULP energy per Si atom -5575.053652 kJ/mol
# Density = 2.147465 g / cm^3
# Si number density = 21.523635 Si / 1000 Ang^3
#
#
#
# Elastic Constant Matrix: (Units=GPa)
#
#
# Indices 1 2 3 4 5 6 
#
# 1 120.4255 58.1629 14.1174 0.0000 35.4394 0.0000
# 2 58.1629 80.0284 13.8255 0.0000 25.5969 0.0000
# 3 14.1174 13.8255 58.7230 0.0000 22.4056 0.0000
# 4 0.0000 0.0000 0.0000 27.1644 0.0000 18.1691
# 5 35.4394 25.5969 22.4056 0.0000 37.3948 0.0000
# 6 0.0000 0.0000 0.0000 18.1691 0.0000 27.0818
#
#
#
# Elastic Compliance Matrix: (Units=1/GPa)
#
#
# Indices 1 2 3 4 5 6 
#
# 1 0.014799 -0.007977 0.002059 0.000000 -0.009798 0.000000
# 2 -0.007977 0.020311 -0.000576 0.000000 -0.005998 0.000000
# 3 0.002059 -0.000576 0.022380 0.000000 -0.014966 0.000000
# 4 0.000000 0.000000 0.000000 0.066779 0.000000 -0.044802
# 5 -0.009798 -0.005998 -0.014966 0.000000 0.049100 0.000000
# 6 0.000000 0.000000 0.000000 -0.044802 0.000000 0.066983
#
#
# Mechanical properties :
#
#
# Convention : Reuss Voigt Hill
#
# Bulk Modulus (GPa) = 22.47094 47.93206 35.20150
# Shear Modulus (GPa) = 18.64458 29.86627 24.25542
#
# Velocity S-wave (km/s) = 2.94638 3.72910 3.36061
# Velocity P-wave (km/s) = 4.69443 6.39213 5.60790
#
# Compressibility (1/GPa) = 0.04450192
#
# Stress axis : x y z
#
# Youngs Moduli (GPa) = 67.57313 49.23397 44.68257
#
# Poissons Ratio (x) = 0.39275 -0.09199
# Poissons Ratio (y) = 0.53905 0.02572
# Poissons Ratio (z) = -0.13912 0.02834
#
# Static dielectric constant tensor:
#      x y z
#    x 1.804550 0.000000 0.020030 
#    y 0.000000 1.852240 0.000000 
#    z 0.020030 0.000000 1.779480 
# 
# From -- ./inp_files/17956.got.cif
#   From: 2010.05.17/outbox.cif.g08.bks.cpg/sg11_9_cif.got.tgz:17956.got - 2010.06.03 12:22:45.
