data_PCOD9158203
_publ_section_title
;
Structure prediction by ZEFSAII (Michael W. Deem and Ramdas Pophale) SiO2 
 PCOD9158203
Probable space group: P 21/M
;
_chemical_formula_sum "Si O2"
_cell_formula_units_Z 28
_cell_length_a 17.793264
_cell_length_b 11.898632
_cell_length_c 22.014475
_cell_angle_alpha 90.000000
_cell_angle_beta 17.325320
_cell_angle_gamma 90.000000
_cell_volume 1387.972852
_symmetry_space_group_name_H-M "P 21/M"
_symmetry_group_IT_number 11
_symmetry_cell_setting 'monoclinic'
loop_
_space_group_symop_operation_xyz
x,y,z
-x,1/2+y,-z
-x,-y,-z
x,1/2-y,z
loop_
_atom_site_type_symbol
_atom_site_label
_atom_site_fract_x
_atom_site_fract_y
_atom_site_fract_z
Si Si1 0.283376 0.879420 0.582060
Si Si2 0.351185 0.957423 0.773236
Si Si3 0.906977 0.374254 0.142747
Si Si4 0.123613 0.125687 0.401940
Si Si5 0.340718 0.461388 0.350970
Si Si6 0.299966 0.380688 0.003879
Si Si7 0.861150 0.620113 0.744233
O O1 0.348401 0.750000 0.518712
O O2 0.468416 0.959509 0.403636
O O3 0.282255 0.895319 0.655516
O O4 0.994091 0.898334 0.785124
O O5 0.231132 0.877264 0.815418
O O6 0.514908 0.911282 0.702557
O O7 0.121367 0.031773 0.976585
O O8 0.017664 0.250000 0.068284
O O9 0.986163 0.250000 0.506269
O O10 0.271459 0.124465 0.351049
O O11 0.253034 0.121662 0.235569
O O12 0.000000 0.000000 0.500000
O O13 0.096159 0.533901 0.560810
O O14 0.525089 0.548318 0.174655
O O15 0.358087 0.250000 0.950390
O O16 0.321884 0.408485 0.058676
O O17 0.947179 0.750000 0.690144
#
# Coordination Sequence:
#
# PCOD9158203 Si02
#       7
#     4   4   4   4   4   4   4
#     4  10  19  33  54  78 106 138 180 232 279 329
#     4  11  21  34  55  78 105 143 178 226 280 334
#     4  10  22  37  52  76 106 139 185 230 276 334
#     4   9  20  38  60  86 118 154 192 235 283 337
#     4  11  20  32  55  81 109 143 182 227 280 339
#     4  10  19  30  52  84 110 139 183 233 281 335
#     4   9  18  34  54  79 110 143 181 228 278 331
#
# _framework density 20.173304999999999
#
# number of rings (size 3 to 8) (size 9 to 14) (size 15 to 20)
#    0.000    2.000    2.857    1.286    0.000    2.857 
#    0.000    0.000    0.000    4.286    0.000    0.000 
#    0.000    0.000    0.000    0.000    0.000    0.000 
#
# Total GULP energy -156019.268646 kJ/mol
# GULP energy per Si atom -5572.116737 kJ/mol
# Density = 2.012739 g / cm^3
# Si number density = 20.173305 Si / 1000 Ang^3
#
#
#
# Elastic Constant Matrix: (Units=GPa)
#
#
# Indices 1 2 3 4 5 6 
#
# 1 127.1943 7.0794 -4.1124 0.0000 11.7552 0.0000
# 2 7.0794 70.2004 11.9338 0.0000 -0.7778 0.0000
# 3 -4.1124 11.9338 33.9621 0.0000 9.2789 0.0000
# 4 0.0000 0.0000 0.0000 16.1472 0.0000 -0.5863
# 5 11.7552 -0.7778 9.2789 0.0000 30.0481 0.0000
# 6 0.0000 0.0000 0.0000 -0.5863 0.0000 27.0182
#
#
#
# Elastic Compliance Matrix: (Units=1/GPa)
#
#
# Indices 1 2 3 4 5 6 
#
# 1 0.008403 -0.001338 0.002616 0.000000 -0.004130 0.000000
# 2 -0.001338 0.015500 -0.006401 0.000000 0.002901 0.000000
# 3 0.002616 -0.006401 0.035315 0.000000 -0.012094 0.000000
# 4 0.000000 0.000000 0.000000 0.061979 0.000000 0.001345
# 5 -0.004130 0.002901 -0.012094 0.000000 0.038705 0.000000
# 6 0.000000 0.000000 0.000000 0.001345 0.000000 0.037041
#
#
# Mechanical properties :
#
#
# Convention : Reuss Voigt Hill
#
# Bulk Modulus (GPa) = 20.42005 29.01761 24.71883
# Shear Modulus (GPa) = 22.36996 29.07309 25.72153
#
# Velocity S-wave (km/s) = 3.33361 3.80039 3.57463
# Velocity P-wave (km/s) = 4.99616 5.80281 5.41453
#
# Compressibility (1/GPa) = 0.04897147
#
# Stress axis : x y z
#
# Youngs Moduli (GPa) = 119.00963 64.51542 28.31656
#
# Poissons Ratio (x) = 0.08631 -0.07407
# Poissons Ratio (y) = 0.15921 0.18126
# Poissons Ratio (z) = -0.31131 0.41298
#
# Static dielectric constant tensor:
#      x y z
#    x 1.799920 0.000000 -0.020060 
#    y 0.000000 1.708380 0.000000 
#    z -0.020060 0.000000 1.687600 
# 
# From -- ./inp_files/61522.got.cif
#   From: 2010.05.17/outbox.cif.g08.bks.cpg/sg11_31_cif.got.tgz:61522.got - 2010.06.03 12:22:45.
