data_PCOD9158951
_publ_section_title
;
Structure prediction by ZEFSAII (Michael W. Deem and Ramdas Pophale) SiO2 
 PCOD9158951
Probable space group: P 21/M
;
_chemical_formula_sum "Si O2"
_cell_formula_units_Z 32
_cell_length_a 12.681085
_cell_length_b 8.219217
_cell_length_c 20.884357
_cell_angle_alpha 90.000000
_cell_angle_beta 53.717922
_cell_angle_gamma 90.000000
_cell_volume 1754.705033
_symmetry_space_group_name_H-M "P 21/M"
_symmetry_group_IT_number 11
_symmetry_cell_setting 'monoclinic'
loop_
_space_group_symop_operation_xyz
x,y,z
-x,1/2+y,-z
-x,-y,-z
x,1/2-y,z
loop_
_atom_site_type_symbol
_atom_site_label
_atom_site_fract_x
_atom_site_fract_y
_atom_site_fract_z
Si Si1 0.356478 0.443586 0.029740
Si Si2 0.388715 0.946128 0.877633
Si Si3 0.318247 0.946241 0.763870
Si Si4 0.355503 0.446938 0.530817
Si Si5 0.852805 0.943802 0.289674
Si Si6 0.316075 0.448305 0.264792
Si Si7 0.613337 0.551744 0.622277
Si Si8 0.853582 0.553521 0.791032
O O1 0.355563 0.250000 0.034531
O O2 0.245145 0.506293 0.118039
O O3 0.500000 0.500000 0.000000
O O4 0.335019 0.492543 0.963999
O O5 0.387177 0.750000 0.879513
O O6 0.315418 0.999376 0.839098
O O7 0.541233 0.994926 0.814307
O O8 0.316043 0.750000 0.764110
O O9 0.460855 0.996438 0.685157
O O10 0.205669 0.007764 0.758027
O O11 0.500000 0.500000 0.500000
O O12 0.352575 0.250000 0.532180
O O13 0.247634 0.507342 0.619840
O O14 0.334157 0.502645 0.465252
O O15 0.853292 0.750000 0.293675
O O16 0.998667 0.004265 0.249035
O O17 0.314365 0.250000 0.266187
O O18 0.312481 0.502526 0.340004
O O19 0.204133 0.503728 0.256546
O O20 0.614999 0.750000 0.621932
O O21 0.847889 0.750000 0.792793
#
# Coordination Sequence:
#
# PCOD9158951 Si02
#       8
#     4   4   4   4   4   4   4   4
#     4  11  21  34  55  82 109 138 176 223 267 313
#     4   9  17  32  55  83 108 131 172 223 266 314
#     4   9  17  32  56  79 103 140 178 212 260 323
#     4  10  19  32  52  79 107 136 174 219 262 311
#     4  11  23  35  50  77 113 143 173 220 269 311
#     4   8  14  29  52  77 102 132 173 214 252 305
#     4   8  14  27  52  79 101 131 171 214 258 305
#     4  10  21  37  55  74 103 143 183 213 251 321
#
# _framework density 18.236684
#
# number of rings (size 3 to 8) (size 9 to 14) (size 15 to 20)
#    0.000    2.500    2.500    2.250    0.000    2.000 
#    0.000    1.250    0.000    0.750    0.000    0.000 
#    0.000    0.000    0.000    0.000    0.000    0.000 
#
# Total GULP energy -178438.695294 kJ/mol
# GULP energy per Si atom -5576.209228 kJ/mol
# Density = 1.819518 g / cm^3
# Si number density = 18.236684 Si / 1000 Ang^3
#
#
#
# Elastic Constant Matrix: (Units=GPa)
#
#
# Indices 1 2 3 4 5 6 
#
# 1 183.8649 16.1747 97.1861 0.0000 16.7746 0.0000
# 2 16.1747 10.7753 13.9749 0.0000 2.5637 0.0000
# 3 97.1861 13.9749 123.7938 0.0000 13.9871 0.0000
# 4 0.0000 0.0000 0.0000 16.9086 0.0000 2.5371
# 5 16.7746 2.5637 13.9871 0.0000 31.6478 0.0000
# 6 0.0000 0.0000 0.0000 2.5371 0.0000 18.4615
#
#
#
# Elastic Compliance Matrix: (Units=1/GPa)
#
#
# Indices 1 2 3 4 5 6 
#
# 1 0.009642 -0.005275 -0.006784 0.000000 -0.001685 0.000000
# 2 -0.005275 0.111990 -0.008202 0.000000 -0.002651 0.000000
# 3 -0.006784 -0.008202 0.014576 0.000000 -0.002182 0.000000
# 4 0.000000 0.000000 0.000000 0.060387 0.000000 -0.008299
# 5 -0.001685 -0.002651 -0.002182 0.000000 0.033670 0.000000
# 6 0.000000 0.000000 0.000000 -0.008299 0.000000 0.055307
#
#
# Mechanical properties :
#
#
# Convention : Reuss Voigt Hill
#
# Bulk Modulus (GPa) = 10.45064 63.67837 37.06451
# Shear Modulus (GPa) = 13.96685 26.14347 20.05516
#
# Velocity S-wave (km/s) = 2.77043 3.79035 3.31979
# Velocity P-wave (km/s) = 3.99709 7.35862 5.92140
#
# Compressibility (1/GPa) = 0.09568790
#
# Stress axis : x y z
#
# Youngs Moduli (GPa) = 103.70854 8.92933 68.60462
#
# Poissons Ratio (x) = 0.04710 0.46542
# Poissons Ratio (y) = 0.54703 0.56269
# Poissons Ratio (z) = 0.70356 0.07324
#
# Static dielectric constant tensor:
#      x y z
#    x 1.619380 0.000000 0.031830 
#    y 0.000000 1.644530 0.000000 
#    z 0.031830 0.000000 1.632350 
# 
# From -- ./inp_files/64366.got.cif
#   From: 2010.05.17/outbox.cif.g08.bks.cpg/sg11_33_cif.got.tgz:64366.got - 2010.06.03 12:22:45.
