data_PCOD9158739
_publ_section_title
;
Structure prediction by ZEFSAII (Michael W. Deem and Ramdas Pophale) SiO2 
 PCOD9158739
Probable space group: P 21/M
;
_chemical_formula_sum "Si O2"
_cell_formula_units_Z 28
_cell_length_a 20.116274
_cell_length_b 7.887369
_cell_length_c 14.966874
_cell_angle_alpha 90.000000
_cell_angle_beta 40.949062
_cell_angle_gamma 90.000000
_cell_volume 1556.356776
_symmetry_space_group_name_H-M "P 21/M"
_symmetry_group_IT_number 11
_symmetry_cell_setting 'monoclinic'
loop_
_space_group_symop_operation_xyz
x,y,z
-x,1/2+y,-z
-x,-y,-z
x,1/2-y,z
loop_
_atom_site_type_symbol
_atom_site_label
_atom_site_fract_x
_atom_site_fract_y
_atom_site_fract_z
Si Si1 0.384332 0.544659 0.017117
Si Si2 0.108694 0.950802 0.001337
Si Si3 0.296174 0.953138 0.922134
Si Si4 0.117783 0.047926 0.791860
Si Si5 0.691798 0.044735 0.519290
Si Si6 0.620606 0.046340 0.780257
Si Si7 0.494418 0.047434 0.609529
O O1 0.380153 0.750000 0.021597
O O2 0.322385 0.481149 0.994494
O O3 0.501953 0.494660 0.886751
O O4 0.350933 0.483441 0.149483
O O5 0.102401 0.750000 0.025301
O O6 0.194060 0.022745 0.980392
O O7 0.142641 0.974583 0.864260
O O8 0.993668 0.018675 0.123375
O O9 0.284905 0.750000 0.941028
O O10 0.392466 0.983794 0.760474
O O11 0.110197 0.250000 0.810604
O O12 0.205362 0.008179 0.633168
O O13 0.688693 0.250000 0.523149
O O14 0.680535 0.983394 0.632768
O O15 0.594029 0.985044 0.561673
O O16 0.630553 0.250000 0.771817
O O17 0.493521 0.250000 0.616986
O O18 0.500000 0.000000 0.500000
#
# Coordination Sequence:
#
# PCOD9158739 Si02
#       7
#     4   4   4   4   4   4   4
#     4   9  17  29  49  73  95 122 159 196 231 282
#     4   9  19  35  51  69  96 126 157 198 244 283
#     4  10  19  32  50  72  97 125 156 193 240 289
#     4  10  20  33  51  72  92 122 166 205 234 275
#     4  10  20  33  48  67  97 131 157 190 239 285
#     4   9  17  31  48  69  97 127 157 192 236 282
#     4  11  22  33  45  67  99 131 158 190 235 285
#
# _framework density 17.990732000000001
#
# number of rings (size 3 to 8) (size 9 to 14) (size 15 to 20)
#    0.000    2.286    1.429    1.714    0.000    6.286 
#    0.000    0.000    0.000    0.857    0.000    0.000 
#    0.000    0.000    0.000    0.000    0.000    0.429 
#
# Total GULP energy -156188.384809 kJ/mol
# GULP energy per Si atom -5578.156600 kJ/mol
# Density = 1.794978 g / cm^3
# Si number density = 17.990732 Si / 1000 Ang^3
#
#
#
# Elastic Constant Matrix: (Units=GPa)
#
#
# Indices 1 2 3 4 5 6 
#
# 1 171.9168 0.2763 74.8524 0.0000 11.0631 0.0000
# 2 0.2763 14.0205 -10.4005 0.0000 -2.2519 0.0000
# 3 74.8524 -10.4005 89.1544 0.0000 6.5086 0.0000
# 4 0.0000 0.0000 0.0000 13.8537 0.0000 -1.1998
# 5 11.0631 -2.2519 6.5086 0.0000 20.7777 0.0000
# 6 0.0000 0.0000 0.0000 -1.1998 0.0000 13.3181
#
#
#
# Elastic Compliance Matrix: (Units=1/GPa)
#
#
# Indices 1 2 3 4 5 6 
#
# 1 0.009946 -0.007379 -0.008972 0.000000 -0.003285 0.000000
# 2 -0.007379 0.084230 0.015421 0.000000 0.008227 0.000000
# 3 -0.008972 0.015421 0.020547 0.000000 0.000012 0.000000
# 4 0.000000 0.000000 0.000000 0.072750 0.000000 0.006554
# 5 -0.003285 0.008227 0.000012 0.000000 0.050766 0.000000
# 6 0.000000 0.000000 0.000000 0.006554 0.000000 0.075676
#
#
# Mechanical properties :
#
#
# Convention : Reuss Voigt Hill
#
# Bulk Modulus (GPa) = 8.86024 44.94979 26.90501
# Shear Modulus (GPa) = 14.14838 23.61414 18.88126
#
# Velocity S-wave (km/s) = 2.80737 3.62687 3.24311
# Velocity P-wave (km/s) = 3.92989 6.52519 5.38620
#
# Compressibility (1/GPa) = 0.11286373
#
# Stress axis : x y z
#
# Youngs Moduli (GPa) = 100.53983 11.87221 48.66882
#
# Poissons Ratio (x) = 0.08760 0.43664
# Poissons Ratio (y) = 0.74188 -0.75051
# Poissons Ratio (z) = 0.90201 -0.18308
#
# Static dielectric constant tensor:
#      x y z
#    x 1.643640 0.000000 0.005580 
#    y 0.000000 1.652250 0.000000 
#    z 0.005580 0.000000 1.586770 
# 
# From -- ./inp_files/37083.got.cif
#   From: 2010.05.17/outbox.cif.g08.bks.cpg/sg11_19_cif.got.tgz:37083.got - 2010.06.03 12:22:45.
