data_PCOD9158471
_publ_section_title
;
Structure prediction by ZEFSAII (Michael W. Deem and Ramdas Pophale) SiO2 
 PCOD9158471
Probable space group: P 21/M
;
_chemical_formula_sum "Si O2"
_cell_formula_units_Z 28
_cell_length_a 6.436962
_cell_length_b 13.711529
_cell_length_c 17.496305
_cell_angle_alpha 90.000000
_cell_angle_beta 71.171760
_cell_angle_gamma 90.000000
_cell_volume 1461.602722
_symmetry_space_group_name_H-M "P 21/M"
_symmetry_group_IT_number 11
_symmetry_cell_setting 'monoclinic'
loop_
_space_group_symop_operation_xyz
x,y,z
-x,1/2+y,-z
-x,-y,-z
x,1/2-y,z
loop_
_atom_site_type_symbol
_atom_site_label
_atom_site_fract_x
_atom_site_fract_y
_atom_site_fract_z
Si Si1 0.740051 0.531029 0.940940
Si Si2 0.075880 0.138295 0.937386
Si Si3 0.508571 0.638941 0.223149
Si Si4 0.192153 0.465849 0.236314
Si Si5 0.988568 0.862464 0.442307
Si Si6 0.290894 0.051918 0.393850
Si Si7 0.270389 0.465103 0.661022
O O1 0.739718 0.572881 0.854796
O O2 0.894092 0.434875 0.925918
O O3 0.500000 0.500000 0.000000
O O4 0.855295 0.604933 0.986068
O O5 0.000541 0.250000 0.943945
O O6 0.297848 0.129869 0.861654
O O7 0.440681 0.750000 0.237693
O O8 0.304331 0.572538 0.225108
O O9 0.613336 0.599760 0.288665
O O10 0.277746 0.419584 0.305714
O O11 0.932348 0.477693 0.276928
O O12 0.056528 0.750000 0.425628
O O13 0.827975 0.897817 0.393501
O O14 0.180237 0.943959 0.416900
O O15 0.853806 0.878251 0.536502
O O16 0.542199 0.039501 0.389373
#
# Coordination Sequence:
#
# PCOD9158471 Si02
#       7
#     4   4   4   4   4   4   4
#     4  11  21  37  59  81 111 151 190 228 279 331
#     4  10  22  36  54  82 112 142 185 233 279 333
#     4  10  19  31  49  80 112 138 176 227 278 332
#     4  10  20  34  53  80 107 147 182 225 275 328
#     4  10  20  36  56  80 108 144 183 220 271 330
#     4   9  21  36  54  80 113 142 179 229 273 322
#     4  10  19  33  53  78 110 143 177 224 277 329
#
# _framework density 19.157053000000001
#
# number of rings (size 3 to 8) (size 9 to 14) (size 15 to 20)
#    0.000    2.000    2.857    0.857    0.000    7.429 
#    0.000    0.714    0.000    2.571    0.000    0.000 
#    0.000    0.000    0.000    0.000    0.000    0.000 
#
# Total GULP energy -156229.542708 kJ/mol
# GULP energy per Si atom -5579.626525 kJ/mol
# Density = 1.911345 g / cm^3
# Si number density = 19.157053 Si / 1000 Ang^3
#
#
#
# Elastic Constant Matrix: (Units=GPa)
#
#
# Indices 1 2 3 4 5 6 
#
# 1 69.3197 1.7138 7.6375 0.0000 -17.1890 0.0000
# 2 1.7138 26.0298 2.7367 0.0000 -5.9151 0.0000
# 3 7.6375 2.7367 107.5621 0.0000 0.7450 0.0000
# 4 0.0000 0.0000 0.0000 12.5550 0.0000 -5.1839
# 5 -17.1890 -5.9151 0.7450 0.0000 28.6344 0.0000
# 6 0.0000 0.0000 0.0000 -5.1839 0.0000 12.9961
#
#
#
# Elastic Compliance Matrix: (Units=1/GPa)
#
#
# Indices 1 2 3 4 5 6 
#
# 1 0.017175 0.001427 -0.001330 0.000000 0.010640 0.000000
# 2 0.001427 0.040555 -0.001197 0.000000 0.009265 0.000000
# 3 -0.001330 -0.001197 0.009431 0.000000 -0.001291 0.000000
# 4 0.000000 0.000000 0.000000 0.095354 0.000000 0.038035
# 5 0.010640 0.009265 -0.001291 0.000000 0.043257 0.000000
# 6 0.000000 0.000000 0.000000 0.038035 0.000000 0.092118
#
#
# Mechanical properties :
#
#
# Convention : Reuss Voigt Hill
#
# Bulk Modulus (GPa) = 15.39395 25.23198 20.31296
# Shear Modulus (GPa) = 15.54032 23.55867 19.54949
#
# Velocity S-wave (km/s) = 2.85126 3.51060 3.19797
# Velocity P-wave (km/s) = 4.34657 5.44354 4.92569
#
# Compressibility (1/GPa) = 0.06496060
#
# Stress axis : x y z
#
# Youngs Moduli (GPa) = 58.22287 24.65799 106.03594
#
# Poissons Ratio (x) = -0.03518 0.14098
# Poissons Ratio (y) = -0.08307 0.12696
# Poissons Ratio (z) = 0.07741 0.02952
#
# Static dielectric constant tensor:
#      x y z
#    x 1.654220 0.000000 0.000320 
#    y 0.000000 1.636240 0.000000 
#    z 0.000320 0.000000 1.727210 
# 
# From -- ./inp_files/7872.got.cif
#   From: 2010.05.17/outbox.cif.g08.bks.cpg/sg11_4_cif.got.tgz:7872.got - 2010.06.03 12:22:45.
