data_PCOD9158960
_publ_section_title
;
Structure prediction by ZEFSAII (Michael W. Deem and Ramdas Pophale) SiO2 
 PCOD9158960
Probable space group: P 21/M
;
_chemical_formula_sum "Si O2"
_cell_formula_units_Z 32
_cell_length_a 21.795780
_cell_length_b 8.235686
_cell_length_c 16.976891
_cell_angle_alpha 90.000000
_cell_angle_beta 152.009262
_cell_angle_gamma 90.000000
_cell_volume 1430.235604
_symmetry_space_group_name_H-M "P 21/M"
_symmetry_group_IT_number 11
_symmetry_cell_setting 'monoclinic'
loop_
_space_group_symop_operation_xyz
x,y,z
-x,1/2+y,-z
-x,-y,-z
x,1/2-y,z
loop_
_atom_site_type_symbol
_atom_site_label
_atom_site_fract_x
_atom_site_fract_y
_atom_site_fract_z
Si Si1 0.079324 0.062673 0.495709
Si Si2 0.207672 0.552841 0.850194
Si Si3 0.170237 0.553509 0.992196
Si Si4 0.103018 0.940415 0.347159
Si Si5 0.647622 0.445414 0.659152
Si Si6 0.499696 0.556743 0.180214
Si Si7 0.661225 0.446116 0.498077
Si Si8 0.362960 0.938325 0.810593
O O1 0.073425 0.250000 0.510430
O O2 0.931799 0.991954 0.344337
O O3 0.090934 0.041185 0.413934
O O4 0.222901 0.999793 0.682900
O O5 0.205357 0.750000 0.839176
O O6 0.205455 0.515513 0.941348
O O7 0.353567 0.498960 0.990954
O O8 0.157179 0.750000 0.981082
O O9 0.270621 0.498376 0.172766
O O10 0.032637 0.468422 0.850924
O O11 0.119351 0.750000 0.387239
O O12 0.217364 0.992440 0.418955
O O13 0.500000 0.500000 0.500000
O O14 0.655202 0.250000 0.668208
O O15 0.687189 0.500694 0.616438
O O16 0.505247 0.750000 0.174342
O O17 0.534528 0.518010 0.310213
O O18 0.610759 0.475802 0.251743
O O19 0.648792 0.250000 0.483339
O O20 0.358768 0.750000 0.819897
O O21 0.500000 0.000000 0.000000
#
# Coordination Sequence:
#
# PCOD9158960 Si02
#       8
#     4   4   4   4   4   4   4   4
#     4  10  19  37  62  88 118 154 193 235 283 339
#     4   8  17  33  57  86 115 149 194 241 284 335
#     4   9  18  34  53  75 109 150 194 242 289 338
#     4  10  19  32  52  79 111 147 189 237 288 343
#     4  10  21  36  52  73 106 149 192 244 300 349
#     4  11  21  37  62  90 117 152 195 237 285 346
#     4  10  21  35  52  78 114 149 188 243 295 340
#     4  12  25  42  63  91 122 153 190 234 283 341
#
# _framework density 22.373937000000002
#
# number of rings (size 3 to 8) (size 9 to 14) (size 15 to 20)
#    0.000    2.000    1.250    3.750    0.000    3.000 
#    0.000    8.125    0.000    0.000    0.000    0.000 
#    0.000    0.000    0.000    0.000    0.000    0.000 
#
# Total GULP energy -178659.537827 kJ/mol
# GULP energy per Si atom -5583.110557 kJ/mol
# Density = 2.232301 g / cm^3
# Si number density = 22.373937 Si / 1000 Ang^3
#
#
#
# Elastic Constant Matrix: (Units=GPa)
#
#
# Indices 1 2 3 4 5 6 
#
# 1 81.5368 8.6841 42.5359 0.0000 19.1016 0.0000
# 2 8.6841 34.1118 23.5438 0.0000 6.2907 0.0000
# 3 42.5359 23.5438 173.6672 0.0000 15.1924 0.0000
# 4 0.0000 0.0000 0.0000 34.9657 0.0000 0.5712
# 5 19.1016 6.2907 15.1924 0.0000 47.3976 0.0000
# 6 0.0000 0.0000 0.0000 0.5712 0.0000 17.8009
#
#
#
# Elastic Compliance Matrix: (Units=1/GPa)
#
#
# Indices 1 2 3 4 5 6 
#
# 1 0.015172 -0.000748 -0.003178 0.000000 -0.004997 0.000000
# 2 -0.000748 0.032790 -0.004021 0.000000 -0.002762 0.000000
# 3 -0.003178 -0.004021 0.007122 0.000000 -0.000469 0.000000
# 4 0.000000 0.000000 0.000000 0.028614 0.000000 -0.000918
# 5 -0.004997 -0.002762 -0.000469 0.000000 0.023629 0.000000
# 6 0.000000 0.000000 0.000000 -0.000918 0.000000 0.056206
#
#
# Mechanical properties :
#
#
# Convention : Reuss Voigt Hill
#
# Bulk Modulus (GPa) = 25.51488 48.76037 37.13763
# Shear Modulus (GPa) = 25.97528 34.33630 30.15579
#
# Velocity S-wave (km/s) = 3.41099 3.92172 3.67523
# Velocity P-wave (km/s) = 5.19054 6.50747 5.88595
#
# Compressibility (1/GPa) = 0.03919282
#
# Stress axis : x y z
#
# Youngs Moduli (GPa) = 65.90935 30.49710 140.40036
#
# Poissons Ratio (x) = 0.02281 0.44614
# Poissons Ratio (y) = 0.04929 0.56448
# Poissons Ratio (z) = 0.20943 0.12261
#
# Static dielectric constant tensor:
#      x y z
#    x 1.820440 0.000000 -0.059850 
#    y 0.000000 1.773520 0.000000 
#    z -0.059850 0.000000 1.879060 
# 
# From -- ./inp_files/67260.got.cif
#   From: 2010.05.17/outbox.cif.g08.bks.cpg/sg11_34_cif.got.tgz:67260.got - 2010.06.03 12:22:45.
