data_PCOD9158180
_publ_section_title
;
Structure prediction by ZEFSAII (Michael W. Deem and Ramdas Pophale) SiO2 
 PCOD9158180
Probable space group: P 21/M
;
_chemical_formula_sum "Si O2"
_cell_formula_units_Z 28
_cell_length_a 18.897372
_cell_length_b 14.215476
_cell_length_c 9.329488
_cell_angle_alpha 90.000000
_cell_angle_beta 30.566944
_cell_angle_gamma 90.000000
_cell_volume 1274.529213
_symmetry_space_group_name_H-M "P 21/M"
_symmetry_group_IT_number 11
_symmetry_cell_setting 'monoclinic'
loop_
_space_group_symop_operation_xyz
x,y,z
-x,1/2+y,-z
-x,-y,-z
x,1/2-y,z
loop_
_atom_site_type_symbol
_atom_site_label
_atom_site_fract_x
_atom_site_fract_y
_atom_site_fract_z
Si Si1 0.357908 0.364207 0.986487
Si Si2 0.333595 0.444481 0.343028
Si Si3 0.500817 0.360811 0.293709
Si Si4 0.233103 0.854028 0.614183
Si Si5 0.055363 0.405828 0.974534
Si Si6 0.362188 0.637625 0.672075
Si Si7 0.792887 0.639538 0.023478
O O1 0.357354 0.250000 0.000691
O O2 0.346930 0.411982 0.158026
O O3 0.503126 0.390722 0.656114
O O4 0.233880 0.389326 0.092769
O O5 0.464710 0.414963 0.211918
O O6 0.301600 0.555322 0.419717
O O7 0.201023 0.387108 0.640493
O O8 0.523429 0.250000 0.221494
O O9 0.619390 0.398043 0.197304
O O10 0.358704 0.368603 0.635900
O O11 0.302227 0.750000 0.478114
O O12 0.237666 0.879062 0.777368
O O13 0.078280 0.843860 0.823898
O O14 0.095790 0.411149 0.070585
O O15 0.000000 0.500000 0.000000
O O16 0.370135 0.750000 0.677371
O O17 0.828873 0.750000 0.964333
#
# Coordination Sequence:
#
# PCOD9158180 Si02
#       7
#     4   4   4   4   4   4   4
#     4   9  17  30  50  76 100 119 152 209 257 285
#     4  10  19  30  50  80  99 118 162 214 254 276
#     4   8  14  27  48  73  99 123 155 203 247 285
#     4  10  20  33  48  66  98 139 169 192 229 299
#     4   9  18  32  49  71  93 120 164 205 238 282
#     4   8  16  31  49  70  97 133 167 190 234 302
#     4   8  14  27  48  70  93 124 156 189 240 295
#
# _framework density 21.968896999999998
#
# number of rings (size 3 to 8) (size 9 to 14) (size 15 to 20)
#    0.000    3.143    0.000    2.571    0.000    2.857 
#    0.000    2.857    0.000    1.714    0.000   23.000 
#    0.000    0.000    0.000    0.000    0.000    0.000 
#
# Total GULP energy -156067.586734 kJ/mol
# GULP energy per Si atom -5573.842383 kJ/mol
# Density = 2.191889 g / cm^3
# Si number density = 21.968897 Si / 1000 Ang^3
#
#
#
# Elastic Constant Matrix: (Units=GPa)
#
#
# Indices 1 2 3 4 5 6 
#
# 1 210.2295 58.3081 42.4803 0.0000 25.1831 0.0000
# 2 58.3081 112.9199 11.7624 0.0000 13.2199 0.0000
# 3 42.4803 11.7624 33.6163 0.0000 10.0236 0.0000
# 4 0.0000 0.0000 0.0000 7.6919 0.0000 21.4910
# 5 25.1831 13.2199 10.0236 0.0000 26.6204 0.0000
# 6 0.0000 0.0000 0.0000 21.4910 0.0000 -56.9357
#
#
#
# Elastic Compliance Matrix: (Units=1/GPa)
#
#
# Indices 1 2 3 4 5 6 
#
# 1 0.007357 -0.002688 -0.007524 0.000000 -0.002792 0.000000
# 2 -0.002688 0.010523 0.000580 0.000000 -0.002901 0.000000
# 3 -0.007524 0.000580 0.041697 0.000000 -0.008871 0.000000
# 4 0.000000 0.000000 0.000000 0.063275 0.000000 0.023884
# 5 -0.002792 -0.002901 -0.008871 0.000000 0.044987 0.000000
# 6 0.000000 0.000000 0.000000 0.023884 0.000000 -0.008548
#
#
# Mechanical properties :
#
#
# Convention : Reuss Voigt Hill
#
# Bulk Modulus (GPa) = 24.80556 64.65194 44.72875
# Shear Modulus (GPa) = 26.04249 11.75631 18.89940
#
# Velocity S-wave (km/s) = 3.44674 2.31581 2.93624
# Velocity P-wave (km/s) = 5.21111 6.05338 5.64797
#
# Compressibility (1/GPa) = 0.04031354
#
# Stress axis : x y z
#
# Youngs Moduli (GPa) = 135.92330 95.02776 23.98233
#
# Poissons Ratio (x) = 0.25547 0.18044
# Poissons Ratio (y) = 0.36541 -0.01391
# Poissons Ratio (z) = 1.02267 -0.05514
#
# Static dielectric constant tensor:
#      x y z
#    x 1.868400 0.000000 -0.030900 
#    y 0.000000 1.876420 0.000000 
#    z -0.030900 0.000000 1.810700 
# 
# From -- ./inp_files/21962.got.cif
#   From: 2010.05.17/outbox.cif.g08.bks.cpg/sg11_11_cif.got.tgz:21962.got - 2010.06.03 12:22:45.
