data_PCOD9158808
_publ_section_title
;
Structure prediction by ZEFSAII (Michael W. Deem and Ramdas Pophale) SiO2 
 PCOD9158808
Probable space group: P 21/M
;
_chemical_formula_sum "Si O2"
_cell_formula_units_Z 28
_cell_length_a 14.187465
_cell_length_b 10.076248
_cell_length_c 21.147447
_cell_angle_alpha 90.000000
_cell_angle_beta 27.383314
_cell_angle_gamma 90.000000
_cell_volume 1390.477355
_symmetry_space_group_name_H-M "P 21/M"
_symmetry_group_IT_number 11
_symmetry_cell_setting 'monoclinic'
loop_
_space_group_symop_operation_xyz
x,y,z
-x,1/2+y,-z
-x,-y,-z
x,1/2-y,z
loop_
_atom_site_type_symbol
_atom_site_label
_atom_site_fract_x
_atom_site_fract_y
_atom_site_fract_z
Si Si1 0.290628 0.600263 0.846039
Si Si2 0.261431 0.029777 0.401362
Si Si3 0.793421 0.100310 0.696423
Si Si4 0.720742 0.594464 0.261586
Si Si5 0.861480 0.092105 0.928710
Si Si6 0.877786 0.411310 0.782822
Si Si7 0.746388 0.399686 0.466219
O O1 0.206911 0.750000 0.887996
O O2 0.537146 0.608090 0.698989
O O3 0.230253 0.501177 0.826266
O O4 0.229743 0.542884 0.950951
O O5 0.283510 0.987638 0.315460
O O6 0.259166 0.909750 0.453567
O O7 0.041930 0.099092 0.540224
O O8 0.717433 0.250000 0.734401
O O9 0.757908 0.054771 0.789650
O O10 0.734964 0.750000 0.234695
O O11 0.483869 0.572452 0.420698
O O12 0.893190 0.571867 0.211652
O O13 0.822066 0.250000 0.953983
O O14 0.785091 0.047219 0.905707
O O15 0.905898 0.250000 0.765578
O O16 0.092466 0.489206 0.649967
O O17 0.805825 0.250000 0.412340
#
# Coordination Sequence:
#
# PCOD9158808 Si02
#       7
#     4   4   4   4   4   4   4
#     4  10  19  32  51  73  96 123 159 198 234 278
#     4   9  17  28  46  72  96 119 151 196 243 281
#     4   9  16  28  47  69  92 121 156 193 235 283
#     4   9  18  32  50  72  97 125 157 194 240 284
#     4   9  18  33  50  68  96 132 161 191 234 279
#     4   9  18  32  49  69  95 128 164 195 228 279
#     4   9  17  29  46  69  97 124 153 196 244 282
#
# _framework density 20.136970000000002
#
# number of rings (size 3 to 8) (size 9 to 14) (size 15 to 20)
#    0.000    2.857    0.000    1.286    0.000    4.571 
#    0.000    2.857    0.000    0.000    0.000    0.000 
#    0.000    0.000    0.000    0.000    0.000    0.000 
#
# Total GULP energy -155884.898532 kJ/mol
# GULP energy per Si atom -5567.317805 kJ/mol
# Density = 2.009114 g / cm^3
# Si number density = 20.136970 Si / 1000 Ang^3
#
#
#
# Elastic Constant Matrix: (Units=GPa)
#
#
# Indices 1 2 3 4 5 6 
#
# 1 71.5118 14.4906 6.6116 0.0000 25.8499 0.0000
# 2 14.4906 37.0631 2.6573 0.0000 7.9842 0.0000
# 3 6.6116 2.6573 15.2446 0.0000 6.1375 0.0000
# 4 0.0000 0.0000 0.0000 11.0328 0.0000 2.9137
# 5 25.8499 7.9842 6.1375 0.0000 37.8913 0.0000
# 6 0.0000 0.0000 0.0000 2.9137 0.0000 10.9668
#
#
#
# Elastic Compliance Matrix: (Units=1/GPa)
#
#
# Indices 1 2 3 4 5 6 
#
# 1 0.019508 -0.004876 -0.002852 0.000000 -0.011819 0.000000
# 2 -0.004876 0.029588 -0.002002 0.000000 -0.002583 0.000000
# 3 -0.002852 -0.002002 0.070850 0.000000 -0.009108 0.000000
# 4 0.000000 0.000000 0.000000 0.097479 0.000000 -0.025899
# 5 -0.011819 -0.002583 -0.009108 0.000000 0.036474 0.000000
# 6 0.000000 0.000000 0.000000 -0.025899 0.000000 0.098065
#
#
# Mechanical properties :
#
#
# Convention : Reuss Voigt Hill
#
# Bulk Modulus (GPa) = 9.95188 19.03760 14.49474
# Shear Modulus (GPa) = 12.34810 18.64884 15.49847
#
# Velocity S-wave (km/s) = 2.47899 3.04649 2.77727
# Velocity P-wave (km/s) = 3.62583 4.67433 4.18306
#
# Compressibility (1/GPa) = 0.10048357
#
# Stress axis : x y z
#
# Youngs Moduli (GPa) = 51.26158 33.79789 14.11427
#
# Poissons Ratio (x) = 0.16481 0.04026
# Poissons Ratio (y) = 0.24997 0.02826
# Poissons Ratio (z) = 0.14621 0.06768
#
# Static dielectric constant tensor:
#      x y z
#    x 1.727940 0.000000 0.020110 
#    y 0.000000 1.698970 0.000000 
#    z 0.020110 0.000000 1.753890 
# 
# From -- ./inp_files/43029.got.cif
#   From: 2010.05.17/outbox.cif.g08.bks.cpg/sg11_22_cif.got.tgz:43029.got - 2010.06.03 12:22:45.
