data_PCOD9158288
_publ_section_title
;
Structure prediction by ZEFSAII (Michael W. Deem and Ramdas Pophale) SiO2 
 PCOD9158288
Probable space group: P 21/M
;
_chemical_formula_sum "Si O2"
_cell_formula_units_Z 32
_cell_length_a 22.945031
_cell_length_b 7.566095
_cell_length_c 31.332431
_cell_angle_alpha 90.000000
_cell_angle_beta 161.521287
_cell_angle_gamma 90.000000
_cell_volume 1724.044399
_symmetry_space_group_name_H-M "P 21/M"
_symmetry_group_IT_number 11
_symmetry_cell_setting 'monoclinic'
loop_
_space_group_symop_operation_xyz
x,y,z
-x,1/2+y,-z
-x,-y,-z
x,1/2-y,z
loop_
_atom_site_type_symbol
_atom_site_label
_atom_site_fract_x
_atom_site_fract_y
_atom_site_fract_z
Si Si1 0.212456 0.461355 0.795376
Si Si2 0.345351 0.039825 0.357786
Si Si3 0.086038 0.965601 0.349278
Si Si4 0.495722 0.033528 0.370430
Si Si5 0.927029 0.955850 0.075168
Si Si6 0.166965 0.462353 0.083674
Si Si7 0.497686 0.038751 0.065452
Si Si8 0.795293 0.966315 0.073963
O O1 0.210889 0.250000 0.797510
O O2 0.296231 0.500219 0.807137
O O3 0.017492 0.521506 0.678962
O O4 0.361623 0.530420 0.933569
O O5 0.321482 0.250000 0.338547
O O6 0.413705 0.976472 0.359000
O O7 0.500000 0.000000 0.500000
O O8 0.147435 0.963627 0.232179
O O9 0.090333 0.750000 0.351782
O O10 0.294857 0.026195 0.489936
O O11 0.956355 0.017642 0.219277
O O12 0.497547 0.250000 0.371961
O O13 0.355913 0.975524 0.236455
O O14 0.872620 0.750000 0.036328
O O15 0.837466 0.032030 0.055853
O O16 0.872967 0.032820 0.991504
O O17 0.177342 0.250000 0.088009
O O18 0.000000 0.500000 0.000000
O O19 0.483123 0.250000 0.055411
O O20 0.400395 0.978751 0.041469
O O21 0.799405 0.750000 0.075827
#
# Coordination Sequence:
#
# PCOD9158288 Si02
#       8
#     4   4   4   4   4   4   4   4
#     4   8  13  21  36  58  80 105 137 171 207 250
#     4  11  21  32  47  66  91 119 148 180 220 271
#     4   8  13  23  40  60  84 112 142 175 212 260
#     4   9  17  29  45  64  86 115 148 182 221 263
#     4  10  19  31  48  67  88 115 150 189 224 261
#     4  10  19  32  49  67  86 112 149 192 229 264
#     4   8  13  22  37  56  81 111 138 166 206 258
#     4   8  14  25  41  62  86 114 145 175 213 263
#
# _framework density 18.561008000000001
#
# number of rings (size 3 to 8) (size 9 to 14) (size 15 to 20)
#    0.000    3.000    1.250    2.625    0.000    2.000 
#    0.000    0.625    0.000    7.500    0.000    0.875 
#    0.000    0.000    0.000    0.000    0.000    0.000 
#
# Total GULP energy -178254.701831 kJ/mol
# GULP energy per Si atom -5570.459432 kJ/mol
# Density = 1.851876 g / cm^3
# Si number density = 18.561008 Si / 1000 Ang^3
#
#
#
# Elastic Constant Matrix: (Units=GPa)
#
#
# Indices 1 2 3 4 5 6 
#
# 1 187.5263 5.3400 75.8209 0.0000 23.3589 0.0000
# 2 5.3400 42.1425 1.8103 0.0000 1.1722 0.0000
# 3 75.8209 1.8103 44.0937 0.0000 0.1885 0.0000
# 4 0.0000 0.0000 0.0000 9.7249 0.0000 6.3792
# 5 23.3589 1.1722 0.1885 0.0000 34.0567 0.0000
# 6 0.0000 0.0000 0.0000 6.3792 0.0000 10.2969
#
#
#
# Elastic Compliance Matrix: (Units=1/GPa)
#
#
# Indices 1 2 3 4 5 6 
#
# 1 0.024085 -0.000825 -0.041312 0.000000 -0.016262 0.000000
# 2 -0.000825 0.023822 0.000442 0.000000 -0.000257 0.000000
# 3 -0.041312 0.000442 0.093579 0.000000 0.027802 0.000000
# 4 0.000000 0.000000 0.000000 0.173226 0.000000 -0.107318
# 5 -0.016262 -0.000257 0.027802 0.000000 0.040372 0.000000
# 6 0.000000 0.000000 0.000000 -0.107318 0.000000 0.163604
#
#
# Mechanical properties :
#
#
# Convention : Reuss Voigt Hill
#
# Bulk Modulus (GPa) = 17.21299 48.85611 33.03455
# Shear Modulus (GPa) = 8.04580 23.53511 15.79045
#
# Velocity S-wave (km/s) = 2.08427 3.56474 2.91990
# Velocity P-wave (km/s) = 3.88409 6.58196 5.40409
#
# Compressibility (1/GPa) = 0.05809564
#
# Stress axis : x y z
#
# Youngs Moduli (GPa) = 41.51961 41.97848 10.68614
#
# Poissons Ratio (x) = 0.03463 0.44146
# Poissons Ratio (y) = 0.03425 -0.00472
# Poissons Ratio (z) = 1.71525 -0.01853
#
# Static dielectric constant tensor:
#      x y z
#    x 1.678300 0.000000 0.026040 
#    y 0.000000 1.715370 0.000000 
#    z 0.026040 0.000000 1.614870 
# 
# From -- ./inp_files/40695.got.cif
#   From: 2010.05.17/outbox.cif.g08.bks.cpg/sg11_21_cif.got.tgz:40695.got - 2010.06.03 12:22:45.
