data_PCOD9158346
_publ_section_title
;
Structure prediction by ZEFSAII (Michael W. Deem and Ramdas Pophale) SiO2 
 PCOD9158346
Probable space group: P 21/M
;
_chemical_formula_sum "Si O2"
_cell_formula_units_Z 24
_cell_length_a 25.521697
_cell_length_b 7.426587
_cell_length_c 5.067316
_cell_angle_alpha 90.000000
_cell_angle_beta 101.808753
_cell_angle_gamma 90.000000
_cell_volume 940.127602
_symmetry_space_group_name_H-M "P 21/M"
_symmetry_group_IT_number 11
_symmetry_cell_setting 'monoclinic'
loop_
_space_group_symop_operation_xyz
x,y,z
-x,1/2+y,-z
-x,-y,-z
x,1/2-y,z
loop_
_atom_site_type_symbol
_atom_site_label
_atom_site_fract_x
_atom_site_fract_y
_atom_site_fract_z
Si Si1 0.058535 0.035270 0.447358
Si Si2 0.512169 0.750000 0.980698
Si Si3 0.607390 0.549603 0.314483
Si Si4 0.231785 0.030731 0.359772
Si Si5 0.881765 0.529661 0.989474
Si Si6 0.559031 0.250000 0.594201
Si Si7 0.293509 0.468767 0.925240
O O1 0.064364 0.250000 0.441457
O O2 0.102042 0.968083 0.703713
O O3 0.072432 0.970754 0.169600
O O4 0.000000 0.000000 0.500000
O O5 0.552569 0.588414 0.099446
O O6 0.464063 0.750000 0.139809
O O7 0.492161 0.750000 0.660997
O O8 0.625036 0.750000 0.426599
O O9 0.593076 0.422136 0.540185
O O10 0.651819 0.475640 0.161130
O O11 0.230650 0.250000 0.359844
O O12 0.246907 0.977837 0.671004
O O13 0.174979 0.971851 0.186383
O O14 0.277725 0.972088 0.200932
O O15 0.880266 0.750000 0.998255
O O16 0.295441 0.250000 0.935857
#
# Coordination Sequence:
#
# PCOD9158346 Si02
#       7
#     4   2   4   4   4   2   4
#     4  10  19  31  48  72 102 133 170 209 252 301
#     4  10  24  38  60  80 118 142 190 226 275 330
#     4   9  22  38  58  85 112 145 186 232 273 336
#     4   9  16  27  49  72 103 129 165 213 263 306
#     4   9  17  29  46  74 101 130 169 213 252 303
#     4  12  22  42  56  84 110 156 180 228 279 330
#     4   9  17  30  45  76 101 130 165 211 261 310
#
# _framework density 25.528451
#
# number of rings (size 3 to 8) (size 9 to 14) (size 15 to 20)
#    0.500    2.000    0.000    2.500    0.000    6.667 
#    0.000    0.000    0.000    0.000   13.000    0.000 
#    0.000    0.000    0.000    0.000    0.000    0.000 
#
# Total GULP energy -134333.413034 kJ/mol
# GULP energy per Si atom -5597.225543 kJ/mol
# Density = 2.547035 g / cm^3
# Si number density = 25.528451 Si / 1000 Ang^3
#
#
#
# Elastic Constant Matrix: (Units=GPa)
#
#
# Indices 1 2 3 4 5 6 
#
# 1 76.3169 -1.9174 -12.3909 0.0000 -2.5562 0.0000
# 2 -1.9174 89.9067 11.4139 0.0000 -5.4489 0.0000
# 3 -12.3909 11.4139 91.2717 0.0000 -1.5104 0.0000
# 4 0.0000 0.0000 0.0000 5.7717 0.0000 -11.3832
# 5 -2.5562 -5.4489 -1.5104 0.0000 38.3230 0.0000
# 6 0.0000 0.0000 0.0000 -11.3832 0.0000 6.4655
#
#
#
# Elastic Compliance Matrix: (Units=1/GPa)
#
#
# Indices 1 2 3 4 5 6 
#
# 1 0.013436 0.000114 0.001826 0.000000 0.000984 0.000000
# 2 0.000114 0.011396 -0.001384 0.000000 0.001573 0.000000
# 3 0.001826 -0.001384 0.011383 0.000000 0.000374 0.000000
# 4 0.000000 0.000000 0.000000 -0.070078 0.000000 -0.123380
# 5 0.000984 0.001573 0.000374 0.000000 0.026398 0.000000
# 6 0.000000 0.000000 0.000000 -0.123380 0.000000 -0.062558
#
#
# Mechanical properties :
#
#
# Convention : Reuss Voigt Hill
#
# Bulk Modulus (GPa) = 26.78907 27.96739 27.37823
# Shear Modulus (GPa) = -85.18779 27.47135 -28.85822
#
# Velocity S-wave (km/s) = -5.78292 3.28397 -3.36584
# Velocity P-wave (km/s) = 5.83721 5.03571 2.08741
#
# Compressibility (1/GPa) = 0.03732865
#
# Stress axis : x y z
#
# Youngs Moduli (GPa) = 74.42931 87.74940 87.84724
#
# Poissons Ratio (x) = -0.01004 -0.16041
# Poissons Ratio (y) = -0.00851 0.12154
# Poissons Ratio (z) = -0.13591 0.12141
#
# Static dielectric constant tensor:
#      x y z
#    x 2.001530 0.000000 0.019720 
#    y 0.000000 2.087040 0.000000 
#    z 0.019720 0.000000 1.935370 
# 
# From -- ./inp_files/9251.got.cif
#   From: 2010.05.17/outbox.cif.g08.bks.cpg/sg11_5_cif.got.tgz:9251.got - 2010.06.03 12:22:45.
