data_PCOD9158000
_publ_section_title
;
Structure prediction by ZEFSAII (Michael W. Deem and Ramdas Pophale) SiO2 
 PCOD9158000
Probable space group: P 21/M
;
_chemical_formula_sum "Si O2"
_cell_formula_units_Z 32
_cell_length_a 10.942336
_cell_length_b 9.104595
_cell_length_c 21.541509
_cell_angle_alpha 90.000000
_cell_angle_beta 116.821299
_cell_angle_gamma 90.000000
_cell_volume 1915.204681
_symmetry_space_group_name_H-M "P 21/M"
_symmetry_group_IT_number 11
_symmetry_cell_setting 'monoclinic'
loop_
_space_group_symop_operation_xyz
x,y,z
-x,1/2+y,-z
-x,-y,-z
x,1/2-y,z
loop_
_atom_site_type_symbol
_atom_site_label
_atom_site_fract_x
_atom_site_fract_y
_atom_site_fract_z
Si Si1 0.099750 0.580420 0.381290
Si Si2 0.143595 0.425936 0.513500
Si Si3 0.035580 0.422102 0.244536
Si Si4 0.784701 0.922475 0.968995
Si Si5 0.227755 0.419477 0.664045
Si Si6 0.712607 0.079132 0.201091
Si Si7 0.988355 0.923599 0.900380
Si Si8 0.492728 0.925029 0.065646
O O1 0.140431 0.750000 0.392171
O O2 0.174862 0.490751 0.453044
O O3 0.110760 0.512165 0.315485
O O4 0.936155 0.574143 0.359475
O O5 0.126952 0.250000 0.506603
O O6 0.242489 0.457796 0.594671
O O7 0.000000 0.500000 0.500000
O O8 0.069934 0.250000 0.259244
O O9 0.871755 0.435571 0.217997
O O10 0.060139 0.468088 0.179206
O O11 0.755418 0.750000 0.971827
O O12 0.870998 0.938833 0.925306
O O13 0.647192 0.015997 0.936104
O O14 0.882436 0.983987 0.045940
O O15 0.269719 0.250000 0.683329
O O16 0.296944 0.524136 0.730083
O O17 0.674321 0.250000 0.186595
O O18 0.618941 0.981013 0.135706
O O19 0.026568 0.750000 0.906085
O O20 0.492507 0.750000 0.059987
O O21 0.500000 0.000000 0.000000
#
# Coordination Sequence:
#
# PCOD9158000 Si02
#       8
#     4   4   4   4   4   4   4   4
#     4   9  16  24  36  57  85 116 151 187 222 264
#     4   9  15  23  36  54  80 114 150 185 221 264
#     4   9  17  29  45  65  91 122 153 186 226 270
#     4  10  20  34  52  73  95 120 153 191 231 275
#     4   8  15  26  38  55  82 117 153 186 222 265
#     4  10  19  30  46  68  93 121 154 190 228 273
#     4   9  18  33  52  72  95 123 154 189 229 274
#     4  12  24  37  52  69  93 122 154 192 233 277
#
# _framework density 16.708397999999999
#
# number of rings (size 3 to 8) (size 9 to 14) (size 15 to 20)
#    0.000    2.500    0.000    4.125    0.000    6.000 
#    0.000    0.000    0.000    0.000    0.000    0.000 
#    0.000    1.000    0.000    3.000    0.000    4.875 
#
# Total GULP energy -178360.186239 kJ/mol
# GULP energy per Si atom -5573.755820 kJ/mol
# Density = 1.667037 g / cm^3
# Si number density = 16.708398 Si / 1000 Ang^3
#
#
#
# Elastic Constant Matrix: (Units=GPa)
#
#
# Indices 1 2 3 4 5 6 
#
# 1 10.8033 19.7453 13.0360 0.0000 -5.3127 0.0000
# 2 19.7453 105.6847 61.4980 0.0000 -8.1103 0.0000
# 3 13.0360 61.4980 122.7950 0.0000 -30.3541 0.0000
# 4 0.0000 0.0000 0.0000 34.5421 0.0000 -1.6924
# 5 -5.3127 -8.1103 -30.3541 0.0000 19.5933 0.0000
# 6 0.0000 0.0000 0.0000 -1.6924 0.0000 16.5574
#
#
#
# Elastic Compliance Matrix: (Units=1/GPa)
#
#
# Indices 1 2 3 4 5 6 
#
# 1 0.163702 -0.033429 0.011207 0.000000 0.047912 0.000000
# 2 -0.033429 0.020966 -0.011420 0.000000 -0.018078 0.000000
# 3 0.011207 -0.011420 0.019862 0.000000 0.029082 0.000000
# 4 0.000000 0.000000 0.000000 0.029096 0.000000 0.002974
# 5 0.047912 -0.018078 0.029082 0.000000 0.101601 0.000000
# 6 0.000000 0.000000 0.000000 0.002974 0.000000 0.060700
#
#
# Mechanical properties :
#
#
# Convention : Reuss Voigt Hill
#
# Bulk Modulus (GPa) = 7.28620 47.53793 27.41206
# Shear Modulus (GPa) = 9.82396 23.80546 16.81471
#
# Velocity S-wave (km/s) = 2.42743 3.77869 3.17576
# Velocity P-wave (km/s) = 3.49669 6.89575 5.46709
#
# Compressibility (1/GPa) = 0.13724576
#
# Stress axis : x y z
#
# Youngs Moduli (GPa) = 6.10865 47.69713 50.34726
#
# Poissons Ratio (x) = 1.59448 -0.56423
# Poissons Ratio (y) = 0.20421 0.57495
# Poissons Ratio (z) = -0.06846 0.54469
#
# Static dielectric constant tensor:
#      x y z
#    x 1.558490 0.000000 -0.024500 
#    y 0.000000 1.573280 0.000000 
#    z -0.024500 0.000000 1.580310 
# 
# From -- ./inp_files/64195.got.cif
#   From: 2010.05.17/outbox.cif.g08.bks.cpg/sg11_33_cif.got.tgz:64195.got - 2010.06.03 12:22:45.
