data_PCOD9158971
_publ_section_title
;
Structure prediction by ZEFSAII (Michael W. Deem and Ramdas Pophale) SiO2 
 PCOD9158971
Probable space group: P 21/M
;
_chemical_formula_sum "Si O2"
_cell_formula_units_Z 20
_cell_length_a 27.116715
_cell_length_b 8.270222
_cell_length_c 9.358375
_cell_angle_alpha 90.000000
_cell_angle_beta 149.913636
_cell_angle_gamma 90.000000
_cell_volume 1052.098911
_symmetry_space_group_name_H-M "P 21/M"
_symmetry_group_IT_number 11
_symmetry_cell_setting 'monoclinic'
loop_
_space_group_symop_operation_xyz
x,y,z
-x,1/2+y,-z
-x,-y,-z
x,1/2-y,z
loop_
_atom_site_type_symbol
_atom_site_label
_atom_site_fract_x
_atom_site_fract_y
_atom_site_fract_z
Si Si1 0.713664 0.554226 0.370255
Si Si2 0.905471 0.942893 0.350915
Si Si3 0.095825 0.445856 0.326188
Si Si4 0.284818 0.556078 0.296636
Si Si5 0.499274 0.944953 0.833245
O O1 0.714374 0.750000 0.371972
O O2 0.805123 0.497587 0.505155
O O3 0.724778 0.499355 0.562477
O O4 0.605736 0.500178 0.043109
O O5 0.908464 0.750000 0.363567
O O6 0.908233 0.004307 0.520713
O O7 0.000000 0.000000 0.500000
O O8 0.805653 0.993784 0.022158
O O9 0.097670 0.250000 0.332064
O O10 0.000000 0.500000 0.000000
O O11 0.283233 0.750000 0.291396
O O12 0.392610 0.499825 0.510046
O O13 0.498966 0.750000 0.826648
O O14 0.500000 0.000000 0.000000
#
# Coordination Sequence:
#
# PCOD9158971 Si02
#       5
#     4   4   4   4   4
#     4   9  17  33  55  77 102 136 172 210 253 297
#     4  11  23  38  54  75 102 134 170 210 254 304
#     4  10  22  37  54  75 100 130 168 211 256 303
#     4  10  19  32  52  80 108 135 168 208 249 297
#     4   8  15  28  49  75 103 133 168 205 245 293
#
# _framework density 19.009619000000001
#
# number of rings (size 3 to 8) (size 9 to 14) (size 15 to 20)
#    0.000    2.400    0.000    2.400    0.000    6.400 
#    0.000    1.000    0.000    0.000    0.000    0.000 
#    0.000    0.000    0.000    0.000    0.000    0.000 
#
# Total GULP energy -111514.270758 kJ/mol
# GULP energy per Si atom -5575.713538 kJ/mol
# Density = 1.896635 g / cm^3
# Si number density = 19.009619 Si / 1000 Ang^3
#
#
#
# Elastic Constant Matrix: (Units=GPa)
#
#
# Indices 1 2 3 4 5 6 
#
# 1 152.3448 19.8088 110.3649 0.0000 28.8338 0.0000
# 2 19.8088 16.1277 19.1741 0.0000 5.3305 0.0000
# 3 110.3649 19.1741 205.2319 0.0000 31.7225 0.0000
# 4 0.0000 0.0000 0.0000 27.3930 0.0000 1.1386
# 5 28.8338 5.3305 31.7225 0.0000 37.2543 0.0000
# 6 0.0000 0.0000 0.0000 1.1386 0.0000 19.0977
#
#
#
# Elastic Compliance Matrix: (Units=1/GPa)
#
#
# Indices 1 2 3 4 5 6 
#
# 1 0.011984 -0.007308 -0.005170 0.000000 -0.003827 0.000000
# 2 -0.007308 0.075061 -0.002645 0.000000 -0.002832 0.000000
# 3 -0.005170 -0.002645 0.008318 0.000000 -0.002703 0.000000
# 4 0.000000 0.000000 0.000000 0.036596 0.000000 -0.002182
# 5 -0.003827 -0.002832 -0.002703 0.000000 0.032511 0.000000
# 6 0.000000 0.000000 0.000000 -0.002182 0.000000 0.052492
#
#
# Mechanical properties :
#
#
# Convention : Reuss Voigt Hill
#
# Bulk Modulus (GPa) = 15.35701 74.71109 45.03405
# Shear Modulus (GPa) = 18.59323 31.70612 25.14967
#
# Velocity S-wave (km/s) = 3.13085 4.08842 3.64125
# Velocity P-wave (km/s) = 4.60062 7.85328 6.43582
#
# Compressibility (1/GPa) = 0.06511685
#
# Stress axis : x y z
#
# Youngs Moduli (GPa) = 83.44333 13.32244 120.22475
#
# Poissons Ratio (x) = 0.09736 0.62159
# Poissons Ratio (y) = 0.60977 0.31803
# Poissons Ratio (z) = 0.43142 0.03524
#
# Static dielectric constant tensor:
#      x y z
#    x 1.675040 0.000000 0.045770 
#    y 0.000000 1.668540 0.000000 
#    z 0.045770 0.000000 1.664860 
# 
# From -- ./inp_files/20171.got.cif
#   From: 2010.05.17/outbox.cif.g08.bks.cpg/sg11_11_cif.got.tgz:20171.got - 2010.06.03 12:22:45.
