data_PCOD9158525
_publ_section_title
;
Structure prediction by ZEFSAII (Michael W. Deem and Ramdas Pophale) SiO2 
 PCOD9158525
Probable space group: P 21/M
;
_chemical_formula_sum "Si O2"
_cell_formula_units_Z 26
_cell_length_a 21.808296
_cell_length_b 9.674394
_cell_length_c 14.851452
_cell_angle_alpha 90.000000
_cell_angle_beta 159.638440
_cell_angle_gamma 90.000000
_cell_volume 1090.241478
_symmetry_space_group_name_H-M "P 21/M"
_symmetry_group_IT_number 11
_symmetry_cell_setting 'monoclinic'
loop_
_space_group_symop_operation_xyz
x,y,z
-x,1/2+y,-z
-x,-y,-z
x,1/2-y,z
loop_
_atom_site_type_symbol
_atom_site_label
_atom_site_fract_x
_atom_site_fract_y
_atom_site_fract_z
Si Si1 0.007156 0.250000 0.489819
Si Si2 0.239099 0.591942 0.256207
Si Si3 0.285057 0.409044 0.150920
Si Si4 0.414008 0.908404 0.959114
Si Si5 0.812142 0.593415 0.646425
Si Si6 0.138381 0.901009 0.442554
Si Si7 0.748300 0.996433 0.091706
O O1 0.138541 0.369333 0.714249
O O2 0.877082 0.371114 0.266791
O O3 0.298078 0.750000 0.346300
O O4 0.260503 0.501533 0.374654
O O5 0.318858 0.513625 0.279725
O O6 0.025701 0.596225 0.949770
O O7 0.338350 0.250000 0.242877
O O8 0.333978 0.460728 0.118851
O O9 0.070484 0.406256 0.848442
O O10 0.475106 0.750000 0.040213
O O11 0.209789 0.904828 0.642193
O O12 0.401913 0.968360 0.041393
O O13 0.500000 0.000000 0.000000
O O14 0.749482 0.750000 0.566944
O O15 0.784176 0.522798 0.511346
O O16 0.194092 0.750000 0.481940
#
# Coordination Sequence:
#
# PCOD9158525 Si02
#       7
#     2   4   4   4   4   4   4
#     4  10  20  32  56  78 106 136 174 224 276 322
#     4   9  17  27  43  70 104 139 170 207 264 323
#     4  10  19  31  50  77 107 139 173 220 273 323
#     4  11  25  41  55  75 107 147 190 230 268 316
#     4   9  16  28  44  69 101 136 172 212 259 321
#     4   9  18  33  51  72 101 137 179 220 266 316
#     4  11  21  36  53  80 108 142 179 225 275 329
#
# _framework density 23.847926999999999
#
# number of rings (size 3 to 8) (size 9 to 14) (size 15 to 20)
#    0.000    2.154    1.538    2.769    4.308    4.308 
#    5.538    0.000    0.000    0.000    0.000    1.077 
#    0.000    0.000    0.000    0.000    0.000    0.000 
#
# Total GULP energy -144941.460159 kJ/mol
# GULP energy per Si atom -5574.671545 kJ/mol
# Density = 2.379365 g / cm^3
# Si number density = 23.847927 Si / 1000 Ang^3
#
#
#
# Elastic Constant Matrix: (Units=GPa)
#
#
# Indices 1 2 3 4 5 6 
#
# 1 168.0506 102.5162 19.1251 0.0000 -13.2707 0.0000
# 2 102.5162 246.4456 19.9838 0.0000 -10.2259 0.0000
# 3 19.1251 19.9838 60.5629 0.0000 -5.4675 0.0000
# 4 0.0000 0.0000 0.0000 14.7354 0.0000 -12.7327
# 5 -13.2707 -10.2259 -5.4675 0.0000 39.1766 0.0000
# 6 0.0000 0.0000 0.0000 -12.7327 0.0000 14.6854
#
#
#
# Elastic Compliance Matrix: (Units=1/GPa)
#
#
# Indices 1 2 3 4 5 6 
#
# 1 0.008218 -0.003235 -0.001370 0.000000 0.001748 0.000000
# 2 -0.003235 0.005475 -0.000764 0.000000 0.000227 0.000000
# 3 -0.001370 -0.000764 0.017355 0.000000 0.001759 0.000000
# 4 0.000000 0.000000 0.000000 0.270584 0.000000 0.234605
# 5 0.001748 0.000227 0.001759 0.000000 0.026422 0.000000
# 6 0.000000 0.000000 0.000000 0.234605 0.000000 0.271505
#
#
# Mechanical properties :
#
#
# Convention : Reuss Voigt Hill
#
# Bulk Modulus (GPa) = 49.23808 84.25660 66.74734
# Shear Modulus (GPa) = 8.10284 35.94840 22.02562
#
# Velocity S-wave (km/s) = 1.84529 3.88674 3.04235
# Velocity P-wave (km/s) = 5.02311 7.45317 6.35537
#
# Compressibility (1/GPa) = 0.02030948
#
# Stress axis : x y z
#
# Youngs Moduli (GPa) = 121.68546 182.65790 57.61901
#
# Poissons Ratio (x) = 0.59087 0.07893
# Poissons Ratio (y) = 0.39363 0.04405
# Poissons Ratio (z) = 0.16670 0.13964
#
# Static dielectric constant tensor:
#      x y z
#    x 1.889470 0.000000 0.064070 
#    y 0.000000 1.842760 0.000000 
#    z 0.064070 0.000000 1.988960 
# 
# From -- ./inp_files/26092.got.cif
#   From: 2010.05.17/outbox.cif.g08.bks.cpg/sg11_14_cif.got.tgz:26092.got - 2010.06.03 12:22:45.
