data_PCOD9158383
_publ_section_title
;
Structure prediction by ZEFSAII (Michael W. Deem and Ramdas Pophale) SiO2 
 PCOD9158383
Probable space group: P 21/M
;
_chemical_formula_sum "Si O2"
_cell_formula_units_Z 20
_cell_length_a 26.458458
_cell_length_b 7.764292
_cell_length_c 5.373425
_cell_angle_alpha 90.000000
_cell_angle_beta 59.488339
_cell_angle_gamma 90.000000
_cell_volume 951.011772
_symmetry_space_group_name_H-M "P 21/M"
_symmetry_group_IT_number 11
_symmetry_cell_setting 'monoclinic'
loop_
_space_group_symop_operation_xyz
x,y,z
-x,1/2+y,-z
-x,-y,-z
x,1/2-y,z
loop_
_atom_site_type_symbol
_atom_site_label
_atom_site_fract_x
_atom_site_fract_y
_atom_site_fract_z
Si Si1 0.230662 0.538414 0.173558
Si Si2 0.169633 0.547934 0.826131
Si Si3 0.964765 0.547212 0.838087
Si Si4 0.568483 0.457164 0.828963
Si Si5 0.366844 0.539273 0.832717
O O1 0.228536 0.750000 0.178907
O O2 0.197744 0.476260 0.503574
O O3 0.197682 0.476273 0.008421
O O4 0.298770 0.489069 0.003084
O O5 0.184898 0.750000 0.788007
O O6 0.099677 0.534083 0.000841
O O7 0.956132 0.750000 0.859671
O O8 0.000000 0.500000 0.500000
O O9 0.000000 0.500000 0.000000
O O10 0.573967 0.250000 0.815269
O O11 0.600198 0.519915 0.498954
O O12 0.500000 0.500000 0.000000
O O13 0.600143 0.519913 0.000661
O O14 0.368122 0.750000 0.829506
#
# Coordination Sequence:
#
# PCOD9158383 Si02
#       5
#     4   4   4   4   4
#     4   9  17  30  52  79 105 134 175 222 268 321
#     4  10  19  33  55  82 109 139 177 225 276 329
#     4  12  25  42  63  88 120 157 196 239 286 342
#     4  10  19  31  49  71  99 132 171 216 264 315
#     4   9  17  30  49  74 100 132 173 218 262 311
#
# _framework density 21.030232999999999
#
# number of rings (size 3 to 8) (size 9 to 14) (size 15 to 20)
#    0.000    2.000    0.000    4.800    0.000    6.400 
#    0.000    0.000    0.000    7.200    0.000    0.000 
#    0.000    0.000    0.000    0.000    0.000    0.000 
#
# Total GULP energy -111783.467451 kJ/mol
# GULP energy per Si atom -5589.173373 kJ/mol
# Density = 2.098237 g / cm^3
# Si number density = 21.030233 Si / 1000 Ang^3
#
#
#
# Elastic Constant Matrix: (Units=GPa)
#
#
# Indices 1 2 3 4 5 6 
#
# 1 230.3985 -14.5917 139.6551 0.0000 18.5991 0.0000
# 2 -14.5917 27.9974 -8.9919 0.0000 14.2877 0.0000
# 3 139.6551 -8.9919 245.1514 0.0000 16.5881 0.0000
# 4 0.0000 0.0000 0.0000 12.9837 0.0000 -10.6788
# 5 18.5991 14.2877 16.5881 0.0000 44.0721 0.0000
# 6 0.0000 0.0000 0.0000 -10.6788 0.0000 17.2256
#
#
#
# Elastic Compliance Matrix: (Units=1/GPa)
#
#
# Indices 1 2 3 4 5 6 
#
# 1 0.007053 0.003963 -0.003678 0.000000 -0.002877 0.000000
# 2 0.003963 0.046669 0.000607 0.000000 -0.017030 0.000000
# 3 -0.003678 0.000607 0.006264 0.000000 -0.001002 0.000000
# 4 0.000000 0.000000 0.000000 0.157147 0.000000 0.097422
# 5 -0.002877 -0.017030 -0.001002 0.000000 0.029802 0.000000
# 6 0.000000 0.000000 0.000000 0.097422 0.000000 0.118449
#
#
# Mechanical properties :
#
#
# Convention : Reuss Voigt Hill
#
# Bulk Modulus (GPa) = 16.18939 81.74335 48.96637
# Shear Modulus (GPa) = 13.01438 40.68798 26.85118
#
# Velocity S-wave (km/s) = 2.49035 4.40334 3.57710
# Velocity P-wave (km/s) = 3.99800 8.05024 6.35572
#
# Compressibility (1/GPa) = 0.06176883
#
# Stress axis : x y z
#
# Youngs Moduli (GPa) = 141.78892 21.42770 159.63539
#
# Poissons Ratio (x) = -0.08491 0.58709
# Poissons Ratio (y) = -0.56186 -0.09685
# Poissons Ratio (z) = 0.52146 -0.01300
#
# Static dielectric constant tensor:
#      x y z
#    x 1.691370 0.000000 0.068290 
#    y 0.000000 1.777230 0.000000 
#    z 0.068290 0.000000 1.718720 
# 
# From -- ./inp_files/8476.got.cif
#   From: 2010.05.17/outbox.cif.g08.bks.cpg/sg11_5_cif.got.tgz:8476.got - 2010.06.03 12:22:45.
