data_PCOD9158475
_publ_section_title
;
Structure prediction by ZEFSAII (Michael W. Deem and Ramdas Pophale) SiO2 
 PCOD9158475
Probable space group: P 21/M
;
_chemical_formula_sum "Si O2"
_cell_formula_units_Z 32
_cell_length_a 16.947897
_cell_length_b 7.333113
_cell_length_c 21.927538
_cell_angle_alpha 90.000000
_cell_angle_beta 28.021966
_cell_angle_gamma 90.000000
_cell_volume 1280.313579
_symmetry_space_group_name_H-M "P 21/M"
_symmetry_group_IT_number 11
_symmetry_cell_setting 'monoclinic'
loop_
_space_group_symop_operation_xyz
x,y,z
-x,1/2+y,-z
-x,-y,-z
x,1/2-y,z
loop_
_atom_site_type_symbol
_atom_site_label
_atom_site_fract_x
_atom_site_fract_y
_atom_site_fract_z
Si Si1 0.154366 0.472195 0.209934
Si Si2 0.820774 0.472324 0.496350
Si Si3 0.667270 0.536199 0.348454
Si Si4 0.496308 0.469880 0.921490
Si Si5 0.010606 0.462406 0.178527
Si Si6 0.666028 0.970740 0.099556
Si Si7 0.488551 0.472996 0.668376
Si Si8 0.197791 0.966845 0.357564
O O1 0.159989 0.250000 0.209006
O O2 0.062149 0.532839 0.209796
O O3 0.012635 0.534232 0.355018
O O4 0.350561 0.533708 0.068844
O O5 0.826983 0.250000 0.492664
O O6 0.686099 0.524886 0.536537
O O7 0.747147 0.529132 0.612234
O O8 0.500000 0.500000 0.500000
O O9 0.695073 0.750000 0.322380
O O10 0.623162 0.461599 0.311628
O O11 0.824460 0.472161 0.280467
O O12 0.498080 0.250000 0.926587
O O13 0.418002 0.514896 0.908093
O O14 0.688018 0.537307 0.776799
O O15 0.050468 0.250000 0.158094
O O16 0.142037 0.531913 0.039007
O O17 0.653082 0.750000 0.112246
O O18 0.588857 0.034975 0.215041
O O19 0.488895 0.250000 0.665729
O O20 0.221239 0.750000 0.339311
O O21 0.000000 0.000000 0.500000
#
# Coordination Sequence:
#
# PCOD9158475 Si02
#       8
#     4   4   4   4   4   4   4   4
#     4   8  14  25  47  75  95 119 161 205 229 259
#     4   9  15  26  46  71  94 117 157 202 232 266
#     4  11  22  33  46  65  94 129 163 202 245 285
#     4   8  13  25  45  70  96 121 154 193 233 272
#     4   9  17  30  49  72  98 123 153 196 245 286
#     4   8  13  25  47  73  94 117 154 199 236 272
#     4   9  16  27  46  71  94 119 159 204 236 268
#     4  10  19  31  50  73  96 122 151 190 237 284
#
# _framework density 24.993879
#
# number of rings (size 3 to 8) (size 9 to 14) (size 15 to 20)
#    0.000    3.000    1.250    2.625    0.000    2.500 
#    0.000    0.625    0.000    7.500    0.000    0.000 
#    0.000    0.000    0.000    0.000    0.000    0.000 
#
# Total GULP energy -178507.609000 kJ/mol
# GULP energy per Si atom -5578.362781 kJ/mol
# Density = 2.493699 g / cm^3
# Si number density = 24.993879 Si / 1000 Ang^3
#
#
#
# Elastic Constant Matrix: (Units=GPa)
#
#
# Indices 1 2 3 4 5 6 
#
# 1 64.8164 2.4742 40.4099 0.0000 0.8060 0.0000
# 2 2.4742 93.3570 -3.4472 0.0000 6.6182 0.0000
# 3 40.4099 -3.4472 205.3197 0.0000 9.4082 0.0000
# 4 0.0000 0.0000 0.0000 5.0304 0.0000 -9.8129
# 5 0.8060 6.6182 9.4082 0.0000 51.0354 0.0000
# 6 0.0000 0.0000 0.0000 -9.8129 0.0000 5.1119
#
#
#
# Elastic Compliance Matrix: (Units=1/GPa)
#
#
# Indices 1 2 3 4 5 6 
#
# 1 0.017629 -0.000628 -0.003501 0.000000 0.000448 0.000000
# 2 -0.000628 0.010846 0.000373 0.000000 -0.001465 0.000000
# 3 -0.003501 0.000373 0.005613 0.000000 -0.001028 0.000000
# 4 0.000000 0.000000 0.000000 -0.072429 0.000000 -0.139036
# 5 0.000448 -0.001465 -0.001028 0.000000 0.019967 0.000000
# 6 0.000000 0.000000 0.000000 -0.139036 0.000000 -0.071274
#
#
# Mechanical properties :
#
#
# Convention : Reuss Voigt Hill
#
# Bulk Modulus (GPa) = 37.62857 49.15187 43.39022
# Shear Modulus (GPa) = -68.23385 33.83928 -17.19728
#
# Velocity S-wave (km/s) = -5.23063 3.68353 -2.62594
# Velocity P-wave (km/s) = 4.62510 6.14813 2.86426
#
# Compressibility (1/GPa) = 0.02657555
#
# Stress axis : x y z
#
# Youngs Moduli (GPa) = 56.72418 92.20104 178.16390
#
# Poissons Ratio (x) = 0.05793 0.62371
# Poissons Ratio (y) = 0.03564 -0.06644
# Poissons Ratio (z) = 0.19858 -0.03438
#
# Static dielectric constant tensor:
#      x y z
#    x 2.024310 0.000000 -0.011010 
#    y 0.000000 1.979690 0.000000 
#    z -0.011010 0.000000 2.030010 
# 
# From -- ./inp_files/72061.got.cif
#   From: 2010.05.17/outbox.cif.g08.bks.cpg/sg11_37_cif.got.tgz:72061.got - 2010.06.03 12:22:45.
