data_PCOD9158852
_publ_section_title
;
Structure prediction by ZEFSAII (Michael W. Deem and Ramdas Pophale) SiO2 
 PCOD9158852
Probable space group: P 21/M
;
_chemical_formula_sum "Si O2"
_cell_formula_units_Z 28
_cell_length_a 16.414529
_cell_length_b 8.262083
_cell_length_c 19.817144
_cell_angle_alpha 90.000000
_cell_angle_beta 33.520103
_cell_angle_gamma 90.000000
_cell_volume 1484.152992
_symmetry_space_group_name_H-M "P 21/M"
_symmetry_group_IT_number 11
_symmetry_cell_setting 'monoclinic'
loop_
_space_group_symop_operation_xyz
x,y,z
-x,1/2+y,-z
-x,-y,-z
x,1/2-y,z
loop_
_atom_site_type_symbol
_atom_site_label
_atom_site_fract_x
_atom_site_fract_y
_atom_site_fract_z
Si Si1 0.144841 0.557615 0.837352
Si Si2 0.864747 0.560488 0.389187
Si Si3 0.046229 0.554386 0.393331
Si Si4 0.656861 0.554313 0.420442
Si Si5 0.821633 0.434689 0.043689
Si Si6 0.668768 0.444564 0.886238
Si Si7 0.859759 0.935014 0.875791
O O1 0.108958 0.750000 0.865842
O O2 0.233229 0.521339 0.709720
O O3 0.997314 0.452276 0.934509
O O4 0.235659 0.516063 0.842821
O O5 0.840176 0.750000 0.418725
O O6 0.717910 0.499409 0.452103
O O7 0.933009 0.493813 0.412387
O O8 0.998163 0.541110 0.242879
O O9 0.042463 0.750000 0.394692
O O10 0.212887 0.507289 0.254279
O O11 0.000000 0.500000 0.500000
O O12 0.500000 0.500000 0.500000
O O13 0.663918 0.750000 0.414673
O O14 0.779813 0.250000 0.059058
O O15 0.797279 0.535583 0.993473
O O16 0.673099 0.250000 0.887200
O O17 0.737224 0.520101 0.906290
O O18 0.500000 0.500000 0.000000
O O19 0.907093 0.750000 0.836642
#
# Coordination Sequence:
#
# PCOD9158852 Si02
#       7
#     4   4   4   4   4   4   4
#     4  10  20  33  51  76 104 135 177 222 267 318
#     4   9  19  36  55  77 107 144 184 229 278 332
#     4   9  19  36  59  86 114 145 186 232 283 343
#     4  11  22  36  55  75 106 147 187 232 280 329
#     4  10  19  32  51  76 107 139 171 217 270 317
#     4  10  21  38  58  83 116 150 187 233 286 342
#     4  11  20  31  54  83 109 141 184 228 270 329
#
# _framework density 18.86598
#
# number of rings (size 3 to 8) (size 9 to 14) (size 15 to 20)
#    0.000    2.000    1.429    3.857    0.000    5.143 
#    0.000    1.429    0.000    5.143    0.000    0.000 
#    0.000    0.000    0.000    0.000    0.000    0.000 
#
# Total GULP energy -155924.292566 kJ/mol
# GULP energy per Si atom -5568.724734 kJ/mol
# Density = 1.882304 g / cm^3
# Si number density = 18.865980 Si / 1000 Ang^3
#
#
#
# Elastic Constant Matrix: (Units=GPa)
#
#
# Indices 1 2 3 4 5 6 
#
# 1 133.9485 6.0034 63.8377 0.0000 12.6250 0.0000
# 2 6.0034 26.9307 6.7988 0.0000 10.3462 0.0000
# 3 63.8377 6.7988 61.5639 0.0000 14.7990 0.0000
# 4 0.0000 0.0000 0.0000 26.7152 0.0000 2.9829
# 5 12.6250 10.3462 14.7990 0.0000 33.4964 0.0000
# 6 0.0000 0.0000 0.0000 2.9829 0.0000 27.7133
#
#
#
# Elastic Compliance Matrix: (Units=1/GPa)
#
#
# Indices 1 2 3 4 5 6 
#
# 1 0.014814 0.000160 -0.015691 0.000000 0.001300 0.000000
# 2 0.000160 0.042294 -0.001881 0.000000 -0.012293 0.000000
# 3 -0.015691 -0.001881 0.034863 0.000000 -0.008907 0.000000
# 4 0.000000 0.000000 0.000000 0.037887 0.000000 -0.004078
# 5 0.001300 -0.012293 -0.008907 0.000000 0.037096 0.000000
# 6 0.000000 0.000000 0.000000 -0.004078 0.000000 0.036523
#
#
# Mechanical properties :
#
#
# Convention : Reuss Voigt Hill
#
# Bulk Modulus (GPa) = 17.49922 41.74700 29.62311
# Shear Modulus (GPa) = 19.42861 27.30520 23.36690
#
# Velocity S-wave (km/s) = 3.21257 3.80850 3.52316
# Velocity P-wave (km/s) = 4.80171 6.44327 5.68209
#
# Compressibility (1/GPa) = 0.05714542
#
# Stress axis : x y z
#
# Youngs Moduli (GPa) = 67.50314 23.64387 28.68361
#
# Poissons Ratio (x) = -0.00378 0.45008
# Poissons Ratio (y) = -0.01078 0.05397
# Poissons Ratio (z) = 1.05921 0.04448
#
# Static dielectric constant tensor:
#      x y z
#    x 1.708370 0.000000 0.017590 
#    y 0.000000 1.690010 0.000000 
#    z 0.017590 0.000000 1.642740 
# 
# From -- ./inp_files/53282.got.cif
#   From: 2010.05.17/outbox.cif.g08.bks.cpg/sg11_27_cif.got.tgz:53282.got - 2010.06.03 12:22:45.
