data_PCOD9158445
_publ_section_title
;
Structure prediction by ZEFSAII (Michael W. Deem and Ramdas Pophale) SiO2 
 PCOD9158445
Probable space group: P 21/M
;
_chemical_formula_sum "Si O2"
_cell_formula_units_Z 32
_cell_length_a 5.036200
_cell_length_b 13.720416
_cell_length_c 25.325603
_cell_angle_alpha 90.000000
_cell_angle_beta 74.119029
_cell_angle_gamma 90.000000
_cell_volume 1683.175397
_symmetry_space_group_name_H-M "P 21/M"
_symmetry_group_IT_number 11
_symmetry_cell_setting 'monoclinic'
loop_
_space_group_symop_operation_xyz
x,y,z
-x,1/2+y,-z
-x,-y,-z
x,1/2-y,z
loop_
_atom_site_type_symbol
_atom_site_label
_atom_site_fract_x
_atom_site_fract_y
_atom_site_fract_z
Si Si1 0.312576 0.043543 0.433172
Si Si2 0.509313 0.523245 0.938101
Si Si3 0.252204 0.865414 0.511997
Si Si4 0.950139 0.143212 0.091448
Si Si5 0.784339 0.057598 0.828915
Si Si6 0.369503 0.012712 0.687946
Si Si7 0.830658 0.359925 0.717129
Si Si8 0.675861 0.059729 0.199957
O O1 0.486070 0.104387 0.466858
O O2 0.021922 0.098041 0.442656
O O3 0.262440 0.935083 0.459869
O O4 0.486280 0.031687 0.370759
O O5 0.219242 0.564076 0.933115
O O6 0.622315 0.437334 0.893198
O O7 0.738171 0.607722 0.918673
O O8 0.500000 0.500000 0.000000
O O9 0.246148 0.750000 0.501783
O O10 0.935550 0.250000 0.068203
O O11 0.804314 0.142248 0.156641
O O12 0.781554 0.137767 0.783314
O O13 0.619355 0.970049 0.807860
O O14 0.101523 0.028199 0.821506
O O15 0.564545 0.096294 0.702646
O O16 0.079820 0.065273 0.692153
O O17 0.337396 0.933461 0.736553
O O18 0.891435 0.250000 0.696937
#
# Coordination Sequence:
#
# PCOD9158445 Si02
#       8
#     4   4   4   4   4   4   4   4
#     4  10  21  37  58  82 109 143 180 223 266 310
#     4  10  19  33  53  72  96 135 170 201 252 307
#     4  10  21  38  57  79 110 147 182 216 264 318
#     4  10  19  33  51  74 100 126 165 213 251 291
#     4   8  16  30  47  67  94 130 162 192 243 309
#     4  10  19  34  53  76 105 135 172 214 258 310
#     4  10  19  31  49  75 105 136 171 215 263 309
#     4   8  16  30  50  69  94 128 156 192 250 306
#
# _framework density 19.011685
#
# number of rings (size 3 to 8) (size 9 to 14) (size 15 to 20)
#    0.000    2.500    0.000    2.250    0.000    1.000 
#    0.000    2.500    0.000    0.000    0.000    0.000 
#    0.000    0.000    0.000    0.000    0.000    0.000 
#
# Total GULP energy -178267.313009 kJ/mol
# GULP energy per Si atom -5570.853532 kJ/mol
# Density = 1.896841 g / cm^3
# Si number density = 19.011685 Si / 1000 Ang^3
#
#
#
# Elastic Constant Matrix: (Units=GPa)
#
#
# Indices 1 2 3 4 5 6 
#
# 1 64.9091 3.4130 -21.3758 0.0000 -5.0430 0.0000
# 2 3.4130 66.8844 6.1986 0.0000 -0.7332 0.0000
# 3 -21.3758 6.1986 75.5457 0.0000 -10.9875 0.0000
# 4 0.0000 0.0000 0.0000 6.5020 0.0000 0.1379
# 5 -5.0430 -0.7332 -10.9875 0.0000 21.7886 0.0000
# 6 0.0000 0.0000 0.0000 0.1379 0.0000 12.2026
#
#
#
# Elastic Compliance Matrix: (Units=1/GPa)
#
#
# Indices 1 2 3 4 5 6 
#
# 1 0.018130 -0.001430 0.006314 0.000000 0.007332 0.000000
# 2 -0.001430 0.015179 -0.001752 0.000000 -0.000704 0.000000
# 3 0.006314 -0.001752 0.016588 0.000000 0.009767 0.000000
# 4 0.000000 0.000000 0.000000 0.153835 0.000000 -0.001738
# 5 0.007332 -0.000704 0.009767 0.000000 0.052494 0.000000
# 6 0.000000 0.000000 0.000000 -0.001738 0.000000 0.081970
#
#
# Mechanical properties :
#
#
# Convention : Reuss Voigt Hill
#
# Bulk Modulus (GPa) = 17.80642 20.42344 19.11493
# Shear Modulus (GPa) = 14.25911 22.70554 18.48232
#
# Velocity S-wave (km/s) = 2.74162 3.45960 3.12132
# Velocity P-wave (km/s) = 4.40549 5.16956 4.80274
#
# Compressibility (1/GPa) = 0.05615952
#
# Stress axis : x y z
#
# Youngs Moduli (GPa) = 55.15660 65.88128 60.28522
#
# Poissons Ratio (x) = 0.09420 -0.38062
# Poissons Ratio (y) = 0.07887 0.10564
# Poissons Ratio (z) = -0.34824 0.11545
#
# Static dielectric constant tensor:
#      x y z
#    x 1.646660 0.000000 -0.004540 
#    y 0.000000 1.640450 0.000000 
#    z -0.004540 0.000000 1.691910 
# 
# From -- ./inp_files/67620.got.cif
#   From: 2010.05.17/outbox.cif.g08.bks.cpg/sg11_34_cif.got.tgz:67620.got - 2010.06.03 12:22:45.
