data_PCOD9158422
_publ_section_title
;
Structure prediction by ZEFSAII (Michael W. Deem and Ramdas Pophale) SiO2 
 PCOD9158422
Probable space group: P 21/M
;
_chemical_formula_sum "Si O2"
_cell_formula_units_Z 32
_cell_length_a 18.266765
_cell_length_b 9.167624
_cell_length_c 11.779205
_cell_angle_alpha 90.000000
_cell_angle_beta 87.305499
_cell_angle_gamma 90.000000
_cell_volume 1970.398142
_symmetry_space_group_name_H-M "P 21/M"
_symmetry_group_IT_number 11
_symmetry_cell_setting 'monoclinic'
loop_
_space_group_symop_operation_xyz
x,y,z
-x,1/2+y,-z
-x,-y,-z
x,1/2-y,z
loop_
_atom_site_type_symbol
_atom_site_label
_atom_site_fract_x
_atom_site_fract_y
_atom_site_fract_z
Si Si1 0.416741 0.582539 0.129371
Si Si2 0.920078 0.075337 0.508358
Si Si3 0.985658 0.075594 0.119860
Si Si4 0.712370 0.575483 0.161966
Si Si5 0.437891 0.917780 0.853706
Si Si6 0.125908 0.424787 0.263721
Si Si7 0.731733 0.575544 0.895827
Si Si8 0.844131 0.075207 0.273375
O O1 0.415592 0.750000 0.167350
O O2 0.484982 0.495371 0.176715
O O3 0.338858 0.504775 0.150377
O O4 0.429654 0.582772 0.991799
O O5 0.929488 0.250000 0.515407
O O6 0.875947 0.043847 0.395841
O O7 0.876791 0.012140 0.619198
O O8 0.000000 0.000000 0.500000
O O9 0.985771 0.250000 0.104742
O O10 0.051244 0.040940 0.201697
O O11 0.908430 0.033454 0.180629
O O12 0.000000 0.000000 0.000000
O O13 0.709243 0.750000 0.171190
O O14 0.632178 0.506369 0.185077
O O15 0.771112 0.508208 0.243318
O O16 0.736269 0.538714 0.029784
O O17 0.436996 0.750000 0.815927
O O18 0.126811 0.250000 0.285403
O O19 0.194825 0.460278 0.178383
O O20 0.720339 0.750000 0.890441
O O21 0.832562 0.250000 0.266074
#
# Coordination Sequence:
#
# PCOD9158422 Si02
#       8
#     4   4   4   4   4   4   4   4
#     4   9  16  26  43  68  99 133 171 206 237 287
#     4  11  22  38  57  74  94 125 168 215 258 301
#     4  10  20  34  50  71 100 131 163 201 247 299
#     4  10  19  31  49  74 102 133 169 204 244 297
#     4   9  16  27  44  67  99 136 168 200 245 292
#     4  10  20  36  53  72 100 131 166 210 255 296
#     4   9  18  31  48  71 104 137 164 202 251 298
#     4  10  21  36  51  69  98 130 162 206 256 297
#
# _framework density 16.240371
#
# number of rings (size 3 to 8) (size 9 to 14) (size 15 to 20)
#    0.000    2.250    1.250    2.250    0.000    7.000 
#    0.000    0.000    0.000    0.000    0.000    0.875 
#    0.000    0.000    0.000    0.000    0.000    0.000 
#
# Total GULP energy -178507.209876 kJ/mol
# GULP energy per Si atom -5578.350309 kJ/mol
# Density = 1.620341 g / cm^3
# Si number density = 16.240371 Si / 1000 Ang^3
#
#
#
# Elastic Constant Matrix: (Units=GPa)
#
#
# Indices 1 2 3 4 5 6 
#
# 1 114.1435 53.0431 23.3891 0.0000 29.1040 0.0000
# 2 53.0431 59.8206 32.0804 0.0000 18.6235 0.0000
# 3 23.3891 32.0804 59.7941 0.0000 20.4494 0.0000
# 4 0.0000 0.0000 0.0000 24.8123 0.0000 1.5291
# 5 29.1040 18.6235 20.4494 0.0000 16.2886 0.0000
# 6 0.0000 0.0000 0.0000 1.5291 0.0000 29.1062
#
#
#
# Elastic Compliance Matrix: (Units=1/GPa)
#
#
# Indices 1 2 3 4 5 6 
#
# 1 0.023611 -0.015035 0.012933 0.000000 -0.041235 0.000000
# 2 -0.015035 0.037114 -0.015257 0.000000 0.003583 0.000000
# 3 0.012933 -0.015257 0.038181 0.000000 -0.053599 0.000000
# 4 0.000000 0.000000 0.000000 0.040434 0.000000 -0.002124
# 5 -0.041235 0.003583 -0.053599 0.000000 0.198263 0.000000
# 6 0.000000 0.000000 0.000000 -0.002124 0.000000 0.034468
#
#
# Mechanical properties :
#
#
# Convention : Reuss Voigt Hill
#
# Bulk Modulus (GPa) = 15.57884 50.08705 32.83295
# Shear Modulus (GPa) = 11.67716 22.39113 17.03414
#
# Velocity S-wave (km/s) = 2.68436 3.71716 3.24215
# Velocity P-wave (km/s) = 4.38420 7.02361 5.85458
#
# Compressibility (1/GPa) = 0.06418963
#
# Stress axis : x y z
#
# Youngs Moduli (GPa) = 42.35226 26.94390 26.19077
#
# Poissons Ratio (x) = 0.40509 -0.33872
# Poissons Ratio (y) = 0.63675 0.39959
# Poissons Ratio (z) = -0.54773 0.41108
#
# Static dielectric constant tensor:
#      x y z
#    x 1.530700 0.000000 0.000170 
#    y 0.000000 1.541050 0.000000 
#    z 0.000170 0.000000 1.521730 
# 
# From -- ./inp_files/40717.got.cif
#   From: 2010.05.17/outbox.cif.g08.bks.cpg/sg11_21_cif.got.tgz:40717.got - 2010.06.03 12:22:45.
