data_PCOD9158566
_publ_section_title
;
Structure prediction by ZEFSAII (Michael W. Deem and Ramdas Pophale) SiO2 
 PCOD9158566
Probable space group: P 21/M
;
_chemical_formula_sum "Si O2"
_cell_formula_units_Z 32
_cell_length_a 22.797715
_cell_length_b 16.301522
_cell_length_c 24.883672
_cell_angle_alpha 90.000000
_cell_angle_beta 11.401143
_cell_angle_gamma 90.000000
_cell_volume 1828.057514
_symmetry_space_group_name_H-M "P 21/M"
_symmetry_group_IT_number 11
_symmetry_cell_setting 'monoclinic'
loop_
_space_group_symop_operation_xyz
x,y,z
-x,1/2+y,-z
-x,-y,-z
x,1/2-y,z
loop_
_atom_site_type_symbol
_atom_site_label
_atom_site_fract_x
_atom_site_fract_y
_atom_site_fract_z
Si Si1 0.600250 0.054735 0.279563
Si Si2 0.455411 0.429300 0.584264
Si Si3 0.019036 0.847554 0.821083
Si Si4 0.575264 0.153986 0.845098
Si Si5 0.946301 0.063475 0.419421
Si Si6 0.185419 0.545420 0.287246
Si Si7 0.824199 0.845798 0.259337
Si Si8 0.364547 0.925431 0.415180
O O1 0.412338 0.114558 0.487046
O O2 0.703002 0.977592 0.224707
O O3 0.400960 0.011734 0.413460
O O4 0.874003 0.102460 0.008423
O O5 0.500000 0.500000 0.500000
O O6 0.755991 0.392070 0.339291
O O7 0.283252 0.360063 0.705861
O O8 0.017410 0.750000 0.831513
O O9 0.153041 0.869360 0.642218
O O10 0.689295 0.883942 0.121296
O O11 0.538495 0.250000 0.871197
O O12 0.766795 0.115726 0.624815
O O13 0.739006 0.133017 0.754781
O O14 0.259179 0.108627 0.129054
O O15 0.767341 0.061367 0.525087
O O16 0.016452 0.974774 0.383696
O O17 0.000000 0.500000 0.500000
O O18 0.500000 0.500000 0.000000
O O19 0.863188 0.750000 0.234752
#
# Coordination Sequence:
#
# PCOD9158566 Si02
#       8
#     4   4   4   4   4   4   4   4
#     4  10  21  37  53  76 105 136 170 210 258 313
#     4   9  19  36  55  75 100 133 171 209 256 317
#     4  11  23  36  51  76 108 137 168 214 264 308
#     4  10  19  31  51  78 107 131 161 210 256 288
#     4  10  20  33  52  75 100 137 177 202 236 298
#     4   8  16  31  48  71  99 128 162 200 238 281
#     4  11  21  35  57  80 100 127 169 223 271 310
#     4  11  22  37  54  73 103 145 178 206 248 307
#
# _framework density 17.504919999999998
#
# number of rings (size 3 to 8) (size 9 to 14) (size 15 to 20)
#    0.000    2.000    0.000    4.875    0.000    6.000 
#    0.000    6.250    0.000    1.500    0.000    0.000 
#    0.000    0.000    0.000    0.000    0.000    0.000 
#
# Total GULP energy -178437.759890 kJ/mol
# GULP energy per Si atom -5576.179997 kJ/mol
# Density = 1.746508 g / cm^3
# Si number density = 17.504920 Si / 1000 Ang^3
#
#
#
# Elastic Constant Matrix: (Units=GPa)
#
#
# Indices 1 2 3 4 5 6 
#
# 1 122.9306 52.7669 32.0809 0.0000 -9.4928 0.0000
# 2 52.7669 63.8467 25.6786 0.0000 -10.8930 0.0000
# 3 32.0809 25.6786 88.3110 0.0000 19.3865 0.0000
# 4 0.0000 0.0000 0.0000 19.5951 0.0000 2.8352
# 5 -9.4928 -10.8930 19.3865 0.0000 33.4515 0.0000
# 6 0.0000 0.0000 0.0000 2.8352 0.0000 14.1889
#
#
#
# Elastic Compliance Matrix: (Units=1/GPa)
#
#
# Indices 1 2 3 4 5 6 
#
# 1 0.012951 -0.009385 -0.002419 0.000000 0.002021 0.000000
# 2 -0.009385 0.028069 -0.007074 0.000000 0.010577 0.000000
# 3 -0.002419 -0.007074 0.017090 0.000000 -0.012894 0.000000
# 4 0.000000 0.000000 0.000000 0.052552 0.000000 -0.010501
# 5 0.002021 0.010577 -0.012894 0.000000 0.041384 0.000000
# 6 0.000000 0.000000 0.000000 -0.010501 0.000000 0.072576
#
#
# Mechanical properties :
#
#
# Convention : Reuss Voigt Hill
#
# Bulk Modulus (GPa) = 49.13488 55.12679 52.13083
# Shear Modulus (GPa) = 18.57606 24.41793 21.49700
#
# Velocity S-wave (km/s) = 3.26113 3.73891 3.50816
# Velocity P-wave (km/s) = 6.50462 7.08518 6.80110
#
# Compressibility (1/GPa) = 0.02035214
#
# Stress axis : x y z
#
# Youngs Moduli (GPa) = 77.21604 35.62667 58.51354
#
# Poissons Ratio (x) = 0.33437 0.14155
# Poissons Ratio (y) = 0.72471 0.41393
# Poissons Ratio (z) = 0.18680 0.25203
#
# Static dielectric constant tensor:
#      x y z
#    x 1.617010 0.000000 -0.003450 
#    y 0.000000 1.591260 0.000000 
#    z -0.003450 0.000000 1.604080 
# 
# From -- ./inp_files/72338.got.cif
#   From: 2010.05.17/outbox.cif.g08.bks.cpg/sg11_37_cif.got.tgz:72338.got - 2010.06.03 12:22:45.
