data_PCOD9158101
_publ_section_title
;
Structure prediction by ZEFSAII (Michael W. Deem and Ramdas Pophale) SiO2 
 PCOD9158101
Probable space group: P 21/M
;
_chemical_formula_sum "Si O2"
_cell_formula_units_Z 24
_cell_length_a 20.149094
_cell_length_b 8.909275
_cell_length_c 15.542654
_cell_angle_alpha 90.000000
_cell_angle_beta 30.389958
_cell_angle_gamma 90.000000
_cell_volume 1411.473723
_symmetry_space_group_name_H-M "P 21/M"
_symmetry_group_IT_number 11
_symmetry_cell_setting 'monoclinic'
loop_
_space_group_symop_operation_xyz
x,y,z
-x,1/2+y,-z
-x,-y,-z
x,1/2-y,z
loop_
_atom_site_type_symbol
_atom_site_label
_atom_site_fract_x
_atom_site_fract_y
_atom_site_fract_z
Si Si1 0.680602 0.423186 0.732856
Si Si2 0.718671 0.069156 0.500142
Si Si3 0.367270 0.421763 0.042470
Si Si4 0.138563 0.429924 0.819079
Si Si5 0.363549 0.571256 0.684191
Si Si6 0.566838 0.073544 0.200758
O O1 0.715654 0.250000 0.709338
O O2 0.743167 0.473531 0.572624
O O3 0.703380 0.517097 0.793377
O O4 0.523596 0.426867 0.889388
O O5 0.724893 0.250000 0.486823
O O6 0.815277 0.991415 0.325265
O O7 0.570669 0.016238 0.643278
O O8 0.332361 0.250000 0.064447
O O9 0.353896 0.518923 0.971355
O O10 0.134166 0.250000 0.823839
O O11 0.247082 0.489414 0.764856
O O12 0.000000 0.500000 0.000000
O O13 0.500000 0.500000 0.500000
O O14 0.361494 0.750000 0.668002
O O15 0.359345 0.551002 0.791833
O O16 0.535758 0.250000 0.227146
#
# Coordination Sequence:
#
# PCOD9158101 Si02
#       6
#     4   4   4   4   4   4
#     4   8  15  26  41  64  96 133 168 208 258 311
#     4  10  19  32  51  74 102 136 176 219 264 316
#     4   9  16  25  40  65  98 134 169 211 258 307
#     4  12  25  40  57  78 107 143 181 225 271 319
#     4  11  22  36  56  81 108 141 181 223 268 320
#     4  10  19  30  48  74 104 138 174 214 263 315
#
# _framework density 17.003504
#
# number of rings (size 3 to 8) (size 9 to 14) (size 15 to 20)
#    0.000    2.000    1.667    4.500    0.000    6.667 
#    0.000    0.000    0.000    0.000    0.000    1.167 
#    0.000    0.000    0.000    0.000    0.000    0.000 
#
# Total GULP energy -133870.079372 kJ/mol
# GULP energy per Si atom -5577.919974 kJ/mol
# Density = 1.696480 g / cm^3
# Si number density = 17.003504 Si / 1000 Ang^3
#
#
#
# Elastic Constant Matrix: (Units=GPa)
#
#
# Indices 1 2 3 4 5 6 
#
# 1 91.8867 63.8156 67.2200 0.0000 30.3355 0.0000
# 2 63.8156 117.2014 56.8562 0.0000 21.8414 0.0000
# 3 67.2200 56.8562 98.8079 0.0000 20.8851 0.0000
# 4 0.0000 0.0000 0.0000 25.6338 0.0000 7.4535
# 5 30.3355 21.8414 20.8851 0.0000 32.4296 0.0000
# 6 0.0000 0.0000 0.0000 7.4535 0.0000 28.1628
#
#
#
# Elastic Compliance Matrix: (Units=1/GPa)
#
#
# Indices 1 2 3 4 5 6 
#
# 1 0.031066 -0.007468 -0.013611 0.000000 -0.015265 0.000000
# 2 -0.007468 0.014135 -0.002914 0.000000 -0.000658 0.000000
# 3 -0.013611 -0.002914 0.020780 0.000000 0.001312 0.000000
# 4 0.000000 0.000000 0.000000 0.042263 0.000000 -0.011185
# 5 -0.015265 -0.000658 0.001312 0.000000 0.044713 0.000000
# 6 0.000000 0.000000 0.000000 -0.011185 0.000000 0.038468
#
#
# Mechanical properties :
#
#
# Convention : Reuss Voigt Hill
#
# Bulk Modulus (GPa) = 55.57079 75.96439 65.76759
# Shear Modulus (GPa) = 20.37425 25.24551 22.80988
#
# Velocity S-wave (km/s) = 3.46531 3.85739 3.66660
# Velocity P-wave (km/s) = 6.98313 8.03816 7.52915
#
# Compressibility (1/GPa) = 0.01799507
#
# Stress axis : x y z
#
# Youngs Moduli (GPa) = 32.18975 70.74826 48.12390
#
# Poissons Ratio (x) = 0.52832 0.65501
# Poissons Ratio (y) = 0.24038 0.14024
# Poissons Ratio (z) = 0.43813 0.20616
#
# Static dielectric constant tensor:
#      x y z
#    x 1.581940 0.000000 0.032550 
#    y 0.000000 1.571840 0.000000 
#    z 0.032550 0.000000 1.564460 
# 
# From -- ./inp_files/51487.got.cif
#   From: 2010.05.17/outbox.cif.g08.bks.cpg/sg11_26_cif.got.tgz:51487.got - 2010.06.03 12:22:45.
