data_PCOD9158461
_publ_section_title
;
Structure prediction by ZEFSAII (Michael W. Deem and Ramdas Pophale) SiO2 
 PCOD9158461
Probable space group: P 21/M
;
_chemical_formula_sum "Si O2"
_cell_formula_units_Z 28
_cell_length_a 14.664628
_cell_length_b 8.579614
_cell_length_c 11.066034
_cell_angle_alpha 90.000000
_cell_angle_beta 79.652938
_cell_angle_gamma 90.000000
_cell_volume 1369.651815
_symmetry_space_group_name_H-M "P 21/M"
_symmetry_group_IT_number 11
_symmetry_cell_setting 'monoclinic'
loop_
_space_group_symop_operation_xyz
x,y,z
-x,1/2+y,-z
-x,-y,-z
x,1/2-y,z
loop_
_atom_site_type_symbol
_atom_site_label
_atom_site_fract_x
_atom_site_fract_y
_atom_site_fract_z
Si Si1 0.557858 0.562528 0.599285
Si Si2 0.611501 0.065799 0.204127
Si Si3 0.797067 0.433221 0.289234
Si Si4 0.104040 0.437100 0.973849
Si Si5 0.772530 0.561890 0.550015
Si Si6 0.601343 0.570090 0.962585
Si Si7 0.786879 0.559318 0.811081
O O1 0.500000 0.500000 0.500000
O O2 0.559321 0.750000 0.592576
O O3 0.491861 0.523790 0.728605
O O4 0.664072 0.509829 0.577936
O O5 0.613754 0.250000 0.169426
O O6 0.686787 0.045080 0.291242
O O7 0.641912 0.958168 0.086689
O O8 0.816764 0.250000 0.284162
O O9 0.818090 0.501086 0.416166
O O10 0.847469 0.506526 0.161322
O O11 0.104704 0.250000 0.974848
O O12 0.154434 0.491489 0.086325
O O13 0.000000 0.500000 0.000000
O O14 0.772783 0.750000 0.545647
O O15 0.816187 0.513582 0.668674
O O16 0.590056 0.750000 0.935564
O O17 0.500000 0.500000 0.000000
O O18 0.680392 0.505660 0.856195
O O19 0.785759 0.750000 0.814156
#
# Coordination Sequence:
#
# PCOD9158461 Si02
#       7
#     4   4   4   4   4   4   4
#     4  10  19  31  49  76 117 163 208 250 293 345
#     4  10  20  34  52  78 116 158 204 253 296 346
#     4  11  22  38  61  90 123 156 197 250 302 359
#     4  11  23  44  71  97 121 153 200 253 315 378
#     4  10  20  36  59  85 119 165 207 247 300 360
#     4  11  21  35  55  82 118 161 206 249 300 357
#     4   9  20  39  62  87 121 159 201 251 305 365
#
# _framework density 20.443152999999999
#
# number of rings (size 3 to 8) (size 9 to 14) (size 15 to 20)
#    0.000    1.714    2.857    2.143    0.000    3.429 
#    0.000    5.000    0.000    0.000    0.000    0.000 
#    0.000    0.000    0.000    0.000    0.000    0.000 
#
# Total GULP energy -156234.996378 kJ/mol
# GULP energy per Si atom -5579.821299 kJ/mol
# Density = 2.039662 g / cm^3
# Si number density = 20.443153 Si / 1000 Ang^3
#
#
#
# Elastic Constant Matrix: (Units=GPa)
#
#
# Indices 1 2 3 4 5 6 
#
# 1 90.4360 23.6388 61.3638 0.0000 5.2200 0.0000
# 2 23.6388 20.1771 33.0405 0.0000 1.8683 0.0000
# 3 61.3638 33.0405 171.7307 0.0000 21.4570 0.0000
# 4 0.0000 0.0000 0.0000 24.7365 0.0000 -2.1559
# 5 5.2200 1.8683 21.4570 0.0000 25.8241 0.0000
# 6 0.0000 0.0000 0.0000 -2.1559 0.0000 22.5853
#
#
#
# Elastic Compliance Matrix: (Units=1/GPa)
#
#
# Indices 1 2 3 4 5 6 
#
# 1 0.017133 -0.014606 -0.003360 0.000000 0.000385 0.000000
# 2 -0.014606 0.085983 -0.012180 0.000000 0.006852 0.000000
# 3 -0.003360 -0.012180 0.010235 0.000000 -0.006944 0.000000
# 4 0.000000 0.000000 0.000000 0.040765 0.000000 0.003891
# 5 0.000385 0.006852 -0.006944 0.000000 0.043919 0.000000
# 6 0.000000 0.000000 0.000000 0.003891 0.000000 0.044648
#
#
# Mechanical properties :
#
#
# Convention : Reuss Voigt Hill
#
# Bulk Modulus (GPa) = 18.84692 57.60334 38.22513
# Shear Modulus (GPa) = 15.59274 25.58256 20.58765
#
# Velocity S-wave (km/s) = 2.76476 3.54135 3.17688
# Velocity P-wave (km/s) = 4.40807 6.70523 5.67411
#
# Compressibility (1/GPa) = 0.05305907
#
# Stress axis : x y z
#
# Youngs Moduli (GPa) = 58.36670 11.63015 97.70710
#
# Poissons Ratio (x) = 0.16987 0.32830
# Poissons Ratio (y) = 0.85250 1.19007
# Poissons Ratio (z) = 0.19612 0.14166
#
# Static dielectric constant tensor:
#      x y z
#    x 1.758590 0.000000 0.033900 
#    y 0.000000 1.714350 0.000000 
#    z 0.033900 0.000000 1.780270 
# 
# From -- ./inp_files/37462.got.cif
#   From: 2010.05.17/outbox.cif.g08.bks.cpg/sg11_19_cif.got.tgz:37462.got - 2010.06.03 12:22:45.
