data_PCOD9158091
_publ_section_title
;
Structure prediction by ZEFSAII (Michael W. Deem and Ramdas Pophale) SiO2 
 PCOD9158091
Probable space group: P 21/M
;
_chemical_formula_sum "Si O2"
_cell_formula_units_Z 24
_cell_length_a 6.859735
_cell_length_b 15.061515
_cell_length_c 14.142164
_cell_angle_alpha 90.000000
_cell_angle_beta 42.188698
_cell_angle_gamma 90.000000
_cell_volume 981.264370
_symmetry_space_group_name_H-M "P 21/M"
_symmetry_group_IT_number 11
_symmetry_cell_setting 'monoclinic'
loop_
_space_group_symop_operation_xyz
x,y,z
-x,1/2+y,-z
-x,-y,-z
x,1/2-y,z
loop_
_atom_site_type_symbol
_atom_site_label
_atom_site_fract_x
_atom_site_fract_y
_atom_site_fract_z
Si Si1 0.685063 0.592176 0.938166
Si Si2 0.044617 0.533242 0.651092
Si Si3 0.166446 0.656563 0.239603
Si Si4 0.732006 0.144930 0.160668
Si Si5 0.497441 0.992806 0.343343
Si Si6 0.882867 0.846867 0.143193
O O1 0.822602 0.600014 0.783371
O O2 0.975230 0.602449 0.898005
O O3 0.500000 0.500000 0.000000
O O4 0.464991 0.654287 0.073420
O O5 0.287118 0.517020 0.646366
O O6 0.221739 0.551723 0.492524
O O7 0.893820 0.437141 0.689756
O O8 0.136584 0.750000 0.303668
O O9 0.937465 0.657612 0.235139
O O10 0.705187 0.250000 0.191826
O O11 0.473503 0.085361 0.295322
O O12 0.816379 0.135927 0.019889
O O13 0.656756 0.925290 0.215152
O O14 0.782474 0.750000 0.146331
#
# Coordination Sequence:
#
# PCOD9158091 Si02
#       6
#     4   4   4   4   4   4
#     4   9  17  30  47  67  91 120 153 193 235 277
#     4   8  16  28  43  66  93 117 151 191 232 282
#     4   9  16  28  47  67  89 120 156 195 238 282
#     4  10  19  30  48  73  96 121 158 199 237 281
#     4   9  16  29  46  66  94 123 150 192 240 278
#     4   9  18  31  48  70  93 123 162 199 238 283
#
# _framework density 24.45824
#
# number of rings (size 3 to 8) (size 9 to 14) (size 15 to 20)
#    0.000    3.000    0.000    2.000    0.000    0.667 
#    0.000    9.167    0.000    9.000    0.000    9.333 
#    0.000    0.000    0.000    0.000    0.000    0.000 
#
# Total GULP energy -133750.990344 kJ/mol
# GULP energy per Si atom -5572.957931 kJ/mol
# Density = 2.440257 g / cm^3
# Si number density = 24.458240 Si / 1000 Ang^3
#
#
#
# Elastic Constant Matrix: (Units=GPa)
#
#
# Indices 1 2 3 4 5 6 
#
# 1 62.0414 -22.1443 -17.0538 0.0000 4.5002 0.0000
# 2 -22.1443 100.9534 44.4442 0.0000 0.1527 0.0000
# 3 -17.0538 44.4442 134.9283 0.0000 -0.7083 0.0000
# 4 0.0000 0.0000 0.0000 21.7751 0.0000 7.3172
# 5 4.5002 0.1527 -0.7083 0.0000 26.5101 0.0000
# 6 0.0000 0.0000 0.0000 7.3172 0.0000 4.7063
#
#
#
# Elastic Compliance Matrix: (Units=1/GPa)
#
#
# Indices 1 2 3 4 5 6 
#
# 1 0.017869 0.003435 0.001111 0.000000 -0.003023 0.000000
# 2 0.003435 0.012247 -0.003604 0.000000 -0.000750 0.000000
# 3 0.001111 -0.003604 0.008739 0.000000 0.000066 0.000000
# 4 0.000000 0.000000 0.000000 0.096168 0.000000 -0.149519
# 5 -0.003023 -0.000750 0.000066 0.000000 0.038241 0.000000
# 6 0.000000 0.000000 0.000000 -0.149519 0.000000 0.444950
#
#
# Mechanical properties :
#
#
# Convention : Reuss Voigt Hill
#
# Bulk Modulus (GPa) = 24.54603 34.26835 29.40719
# Shear Modulus (GPa) = 7.93766 30.11011 19.02389
#
# Velocity S-wave (km/s) = 1.80345 3.51249 2.79195
# Velocity P-wave (km/s) = 3.79398 5.52191 4.73739
#
# Compressibility (1/GPa) = 0.04073978
#
# Stress axis : x y z
#
# Youngs Moduli (GPa) = 55.96269 81.65469 114.42737
#
# Poissons Ratio (x) = -0.28048 -0.12715
# Poissons Ratio (y) = -0.19223 0.41237
# Poissons Ratio (z) = -0.06218 0.29426
#
# Static dielectric constant tensor:
#      x y z
#    x 2.131920 0.000000 0.001130 
#    y 0.000000 1.973330 0.000000 
#    z 0.001130 0.000000 1.935030 
# 
# From -- ./inp_files/25156.got.cif
#   From: 2010.05.17/outbox.cif.g08.bks.cpg/sg11_13_cif.got.tgz:25156.got - 2010.06.03 12:22:45.
