data_PCOD9158301
_publ_section_title
;
Structure prediction by ZEFSAII (Michael W. Deem and Ramdas Pophale) SiO2 
 PCOD9158301
Probable space group: P 21/M
;
_chemical_formula_sum "Si O2"
_cell_formula_units_Z 32
_cell_length_a 14.819327
_cell_length_b 8.365882
_cell_length_c 28.805216
_cell_angle_alpha 90.000000
_cell_angle_beta 150.589300
_cell_angle_gamma 90.000000
_cell_volume 1753.685095
_symmetry_space_group_name_H-M "P 21/M"
_symmetry_group_IT_number 11
_symmetry_cell_setting 'monoclinic'
loop_
_space_group_symop_operation_xyz
x,y,z
-x,1/2+y,-z
-x,-y,-z
x,1/2-y,z
loop_
_atom_site_type_symbol
_atom_site_label
_atom_site_fract_x
_atom_site_fract_y
_atom_site_fract_z
Si Si1 0.734029 0.943333 0.411593
Si Si2 0.299748 0.944730 0.797958
Si Si3 0.198122 0.060223 0.105332
Si Si4 0.134632 0.556637 0.626360
Si Si5 0.654483 0.437374 0.732102
Si Si6 0.291181 0.943928 0.897087
Si Si7 0.015021 0.561722 0.852736
Si Si8 0.698897 0.559452 0.948943
O O1 0.729871 0.750000 0.409568
O O2 0.553520 0.002865 0.357860
O O3 0.925948 0.994232 0.521021
O O4 0.742276 0.999210 0.361777
O O5 0.297227 0.750000 0.795452
O O6 0.198219 0.999394 0.705708
O O7 0.232071 0.993053 0.818494
O O8 0.512804 0.994078 0.890068
O O9 0.193566 0.250000 0.113082
O O10 0.321003 0.032085 0.114764
O O11 0.266681 0.969313 0.181054
O O12 0.000000 0.000000 0.000000
O O13 0.140677 0.750000 0.628991
O O14 0.642330 0.250000 0.718070
O O15 0.806935 0.503100 0.765198
O O16 0.294304 0.750000 0.900228
O O17 0.145073 0.004017 0.869816
O O18 0.500000 0.000000 0.000000
O O19 0.006996 0.750000 0.843224
O O20 0.126106 0.522707 0.949670
O O21 0.723003 0.750000 0.966060
#
# Coordination Sequence:
#
# PCOD9158301 Si02
#       8
#     4   4   4   4   4   4   4   4
#     4   9  19  34  53  79 107 133 168 210 254 303
#     4   9  17  31  53  76  99 129 166 206 252 309
#     4  11  21  31  46  71 100 132 169 206 245 297
#     4   9  17  33  57  81 103 132 167 208 257 309
#     4  11  22  35  50  69 100 142 175 209 254 303
#     4  10  20  34  52  75 101 132 170 213 258 303
#     4  11  22  33  48  71  98 132 174 213 250 297
#     4  10  19  31  48  69  98 133 164 199 249 303
#
# _framework density 18.24729
#
# number of rings (size 3 to 8) (size 9 to 14) (size 15 to 20)
#    0.000    2.000    2.500    1.875    0.000    3.000 
#    0.000    1.250    0.000    0.750    0.000    0.000 
#    0.000    0.000    0.000    0.000    0.000    0.250 
#
# Total GULP energy -178484.317661 kJ/mol
# GULP energy per Si atom -5577.634927 kJ/mol
# Density = 1.820576 g / cm^3
# Si number density = 18.247290 Si / 1000 Ang^3
#
#
#
# Elastic Constant Matrix: (Units=GPa)
#
#
# Indices 1 2 3 4 5 6 
#
# 1 128.6473 20.6571 49.8638 0.0000 19.3994 0.0000
# 2 20.6571 8.7635 7.8284 0.0000 5.1920 0.0000
# 3 49.8638 7.8284 79.5398 0.0000 11.3045 0.0000
# 4 0.0000 0.0000 0.0000 14.4499 0.0000 2.5269
# 5 19.3994 5.1920 11.3045 0.0000 32.7442 0.0000
# 6 0.0000 0.0000 0.0000 2.5269 0.0000 20.3200
#
#
#
# Elastic Compliance Matrix: (Units=1/GPa)
#
#
# Indices 1 2 3 4 5 6 
#
# 1 0.015215 -0.028837 -0.006382 0.000000 -0.002238 0.000000
# 2 -0.028837 0.188728 0.001396 0.000000 -0.013323 0.000000
# 3 -0.006382 0.001396 0.016752 0.000000 -0.002224 0.000000
# 4 0.000000 0.000000 0.000000 0.070743 0.000000 -0.008797
# 5 -0.002238 -0.013323 -0.002224 0.000000 0.034746 0.000000
# 6 0.000000 0.000000 0.000000 -0.008797 0.000000 0.050307
#
#
# Mechanical properties :
#
#
# Convention : Reuss Voigt Hill
#
# Bulk Modulus (GPa) = 6.53379 41.51659 24.02519
# Shear Modulus (GPa) = 10.09792 22.74291 16.42042
#
# Velocity S-wave (km/s) = 2.35498 3.53423 3.00306
# Velocity P-wave (km/s) = 3.31407 6.28140 5.02190
#
# Compressibility (1/GPa) = 0.15305042
#
# Stress axis : x y z
#
# Youngs Moduli (GPa) = 65.72595 5.29863 59.69521
#
# Poissons Ratio (x) = 0.15279 0.38097
# Poissons Ratio (y) = 1.89532 -0.08336
# Poissons Ratio (z) = 0.41946 -0.00740
#
# Static dielectric constant tensor:
#      x y z
#    x 1.671900 0.000000 0.026260 
#    y 0.000000 1.632830 0.000000 
#    z 0.026260 0.000000 1.614410 
# 
# From -- ./inp_files/51254.got.cif
#   From: 2010.05.17/outbox.cif.g08.bks.cpg/sg11_26_cif.got.tgz:51254.got - 2010.06.03 12:22:45.
