data_PCOD9158885
_publ_section_title
;
Structure prediction by ZEFSAII (Michael W. Deem and Ramdas Pophale) SiO2 
 PCOD9158885
Probable space group: P 21/M
;
_chemical_formula_sum "Si O2"
_cell_formula_units_Z 32
_cell_length_a 12.720862
_cell_length_b 15.289824
_cell_length_c 18.433737
_cell_angle_alpha 90.000000
_cell_angle_beta 28.376137
_cell_angle_gamma 90.000000
_cell_volume 1703.968933
_symmetry_space_group_name_H-M "P 21/M"
_symmetry_group_IT_number 11
_symmetry_cell_setting 'monoclinic'
loop_
_space_group_symop_operation_xyz
x,y,z
-x,1/2+y,-z
-x,-y,-z
x,1/2-y,z
loop_
_atom_site_type_symbol
_atom_site_label
_atom_site_fract_x
_atom_site_fract_y
_atom_site_fract_z
Si Si1 0.483066 0.019708 0.892834
Si Si2 0.908423 0.151544 0.354559
Si Si3 0.130025 0.348136 0.060574
Si Si4 0.855367 0.480290 0.768740
Si Si5 0.550831 0.563075 0.401635
Si Si6 0.380560 0.848455 0.882434
Si Si7 0.806573 0.436918 0.145891
Si Si8 0.058217 0.151864 0.751188
O O1 0.338200 0.086053 0.932526
O O2 0.708479 0.054853 0.791527
O O3 0.524165 0.928688 0.826232
O O4 0.319271 0.999997 0.060239
O O5 0.923503 0.250000 0.375704
O O6 0.656793 0.122600 0.492933
O O7 0.027031 0.071314 0.323356
O O8 0.032717 0.152655 0.201140
O O9 0.197301 0.250000 0.999925
O O10 0.929599 0.380105 0.132251
O O11 0.026021 0.413943 0.703259
O O12 0.500000 0.500000 0.500000
O O13 0.625088 0.499992 0.291639
O O14 0.755982 0.619882 0.305871
O O15 0.474157 0.750000 0.825062
O O16 0.292390 0.877398 0.857341
O O17 0.168893 0.847341 0.064981
O O18 0.000000 0.500000 0.000000
O O19 0.105637 0.250000 0.697156
#
# Coordination Sequence:
#
# PCOD9158885 Si02
#       8
#     4   4   4   4   4   4   4   4
#     4   9  17  31  51  77 108 142 180 227 275 316
#     4  10  20  34  53  80 110 142 182 227 275 328
#     4  10  19  32  51  79 112 144 181 227 272 322
#     4   9  17  31  51  77 108 142 180 227 275 316
#     4  12  20  35  56  77 111 145 179 223 274 328
#     4  10  20  34  53  80 110 142 182 227 275 328
#     4  12  20  35  56  77 111 145 179 223 274 328
#     4  10  19  32  51  79 112 144 181 227 272 322
#
# _framework density 18.779685000000001
#
# number of rings (size 3 to 8) (size 9 to 14) (size 15 to 20)
#    0.000    1.750    5.000    1.500    0.000    1.000 
#    0.000    5.000    0.000    0.750    0.000    0.000 
#    0.000    0.000    0.000    0.000    0.000    0.000 
#
# Total GULP energy -178390.008644 kJ/mol
# GULP energy per Si atom -5574.687770 kJ/mol
# Density = 1.873694 g / cm^3
# Si number density = 18.779685 Si / 1000 Ang^3
#
#
#
# Elastic Constant Matrix: (Units=GPa)
#
#
# Indices 1 2 3 4 5 6 
#
# 1 63.0487 32.5800 1.2144 0.0000 -22.3924 0.0000
# 2 32.5800 129.5493 16.4704 0.0000 -8.1698 0.0000
# 3 1.2144 16.4704 19.6343 0.0000 0.3482 0.0000
# 4 0.0000 0.0000 0.0000 14.6696 0.0000 2.4669
# 5 -22.3924 -8.1698 0.3482 0.0000 20.4113 0.0000
# 6 0.0000 0.0000 0.0000 2.4669 0.0000 9.8117
#
#
#
# Elastic Compliance Matrix: (Units=1/GPa)
#
#
# Indices 1 2 3 4 5 6 
#
# 1 0.029468 -0.005847 0.002551 0.000000 0.029944 0.000000
# 2 -0.005847 0.010071 -0.008046 0.000000 -0.002246 0.000000
# 3 0.002551 -0.008046 0.057548 0.000000 -0.001404 0.000000
# 4 0.000000 0.000000 0.000000 0.071178 0.000000 -0.017896
# 5 0.029944 -0.002246 -0.001404 0.000000 0.080968 0.000000
# 6 0.000000 0.000000 0.000000 -0.017896 0.000000 0.106418
#
#
# Mechanical properties :
#
#
# Convention : Reuss Voigt Hill
#
# Bulk Modulus (GPa) = 13.44050 34.75131 24.09591
# Shear Modulus (GPa) = 12.40275 19.77635 16.08955
#
# Velocity S-wave (km/s) = 2.57268 3.24863 2.93021
# Velocity P-wave (km/s) = 3.99967 5.71107 4.93020
#
# Compressibility (1/GPa) = 0.07440198
#
# Stress axis : x y z
#
# Youngs Moduli (GPa) = 33.93526 99.29701 17.37677
#
# Poissons Ratio (x) = 0.58056 -0.04432
# Poissons Ratio (y) = 0.19841 0.13982
# Poissons Ratio (z) = -0.08656 0.79899
#
# Static dielectric constant tensor:
#      x y z
#    x 1.654840 0.000000 -0.005310 
#    y 0.000000 1.646720 0.000000 
#    z -0.005310 0.000000 1.644420 
# 
# From -- ./inp_files/41635.got.cif
#   From: 2010.05.17/outbox.cif.g08.bks.cpg/sg11_21_cif.got.tgz:41635.got - 2010.06.03 12:22:45.
