data_PCOD9158936
_publ_section_title
;
Structure prediction by ZEFSAII (Michael W. Deem and Ramdas Pophale) SiO2 
 PCOD9158936
Probable space group: P 21/M
;
_chemical_formula_sum "Si O2"
_cell_formula_units_Z 32
_cell_length_a 25.827589
_cell_length_b 7.817981
_cell_length_c 20.976705
_cell_angle_alpha 90.000000
_cell_angle_beta 23.017291
_cell_angle_gamma 90.000000
_cell_volume 1656.160402
_symmetry_space_group_name_H-M "P 21/M"
_symmetry_group_IT_number 11
_symmetry_cell_setting 'monoclinic'
loop_
_space_group_symop_operation_xyz
x,y,z
-x,1/2+y,-z
-x,-y,-z
x,1/2-y,z
loop_
_atom_site_type_symbol
_atom_site_label
_atom_site_fract_x
_atom_site_fract_y
_atom_site_fract_z
Si Si1 0.855710 0.458131 0.091687
Si Si2 0.148780 0.046546 0.755188
Si Si3 0.572751 0.949914 0.106801
Si Si4 0.847507 0.955604 0.743242
Si Si5 0.140673 0.044071 0.416793
Si Si6 0.583546 0.954943 0.842280
Si Si7 0.426629 0.452715 0.399583
Si Si8 0.586119 0.043865 0.340355
O O1 0.856847 0.250000 0.091305
O O2 0.830000 0.516592 0.193383
O O3 0.735479 0.517145 0.183775
O O4 0.001885 0.521174 0.906716
O O5 0.141746 0.250000 0.751708
O O6 0.277066 0.976428 0.573427
O O7 0.587157 0.750000 0.104472
O O8 0.487858 0.970802 0.138616
O O9 0.496872 0.026808 0.252613
O O10 0.719923 0.021438 0.925826
O O11 0.835855 0.750000 0.753382
O O12 0.843250 0.019357 0.674605
O O13 0.992615 0.996959 0.605676
O O14 0.147704 0.250000 0.406910
O O15 0.265491 0.984709 0.316845
O O16 0.584818 0.750000 0.833866
O O17 0.500000 0.000000 0.000000
O O18 0.414056 0.250000 0.426052
O O19 0.515591 0.523260 0.356680
O O20 0.592434 0.250000 0.328746
O O21 0.500000 0.000000 0.500000
#
# Coordination Sequence:
#
# PCOD9158936 Si02
#       8
#     4   4   4   4   4   4   4   4
#     4   9  17  29  50  78 103 132 172 219 267 313
#     4   9  17  31  50  74 106 138 170 214 265 316
#     4  11  23  39  56  79 112 148 185 226 272 326
#     4   9  18  34  53  78 110 141 178 222 269 319
#     4   9  18  33  54  82 110 137 176 223 270 319
#     4  11  21  36  58  85 114 143 182 227 270 320
#     4  10  21  36  52  74 107 146 181 218 270 327
#     4  10  19  32  52  78 106 134 175 222 264 314
#
# _framework density 19.321801000000001
#
# number of rings (size 3 to 8) (size 9 to 14) (size 15 to 20)
#    0.000    2.250    2.500    0.750    0.000    3.000 
#    0.000    1.250    0.000    3.000    0.000    0.000 
#    0.000    0.000    0.000    0.000    0.000    0.000 
#
# Total GULP energy -178496.159915 kJ/mol
# GULP energy per Si atom -5578.004997 kJ/mol
# Density = 1.927782 g / cm^3
# Si number density = 19.321801 Si / 1000 Ang^3
#
#
#
# Elastic Constant Matrix: (Units=GPa)
#
#
# Indices 1 2 3 4 5 6 
#
# 1 81.6243 -15.7065 72.9747 0.0000 -9.7085 0.0000
# 2 -15.7065 15.3290 -6.5675 0.0000 -4.1000 0.0000
# 3 72.9747 -6.5675 190.6433 0.0000 -21.8672 0.0000
# 4 0.0000 0.0000 0.0000 21.7752 0.0000 2.8855
# 5 -9.7085 -4.1000 -21.8672 0.0000 31.5711 0.0000
# 6 0.0000 0.0000 0.0000 2.8855 0.0000 20.2351
#
#
#
# Elastic Compliance Matrix: (Units=1/GPa)
#
#
# Indices 1 2 3 4 5 6 
#
# 1 0.024369 0.022875 -0.007973 0.000000 0.004942 0.000000
# 2 0.022875 0.091440 -0.003734 0.000000 0.016323 0.000000
# 3 -0.007973 -0.003734 0.008508 0.000000 0.002956 0.000000
# 4 0.000000 0.000000 0.000000 0.046808 0.000000 -0.006675
# 5 0.004942 0.016323 0.002956 0.000000 0.037361 0.000000
# 6 0.000000 0.000000 0.000000 -0.006675 0.000000 0.050371
#
#
# Mechanical properties :
#
#
# Convention : Reuss Voigt Hill
#
# Bulk Modulus (GPa) = 6.81881 43.22200 25.02040
# Shear Modulus (GPa) = 17.51891 30.50936 24.01413
#
# Velocity S-wave (km/s) = 3.01440 3.97799 3.52923
# Velocity P-wave (km/s) = 3.95629 6.59677 5.43919
#
# Compressibility (1/GPa) = 0.14665324
#
# Stress axis : x y z
#
# Youngs Moduli (GPa) = 41.03579 10.93609 117.53916
#
# Poissons Ratio (x) = -0.25016 0.93715
# Poissons Ratio (y) = -0.93869 0.43886
# Poissons Ratio (z) = 0.32718 0.04083
#
# Static dielectric constant tensor:
#      x y z
#    x 1.645070 0.000000 -0.048160 
#    y 0.000000 1.691160 0.000000 
#    z -0.048160 0.000000 1.700040 
# 
# From -- ./inp_files/67015.got.cif
#   From: 2010.05.17/outbox.cif.g08.bks.cpg/sg11_34_cif.got.tgz:67015.got - 2010.06.03 12:22:45.
