data_PCOD9158466
_publ_section_title
;
Structure prediction by ZEFSAII (Michael W. Deem and Ramdas Pophale) SiO2 
 PCOD9158466
Probable space group: P 21/M
;
_chemical_formula_sum "Si O2"
_cell_formula_units_Z 32
_cell_length_a 23.673520
_cell_length_b 8.659613
_cell_length_c 17.447783
_cell_angle_alpha 90.000000
_cell_angle_beta 28.392989
_cell_angle_gamma 90.000000
_cell_volume 1700.854742
_symmetry_space_group_name_H-M "P 21/M"
_symmetry_group_IT_number 11
_symmetry_cell_setting 'monoclinic'
loop_
_space_group_symop_operation_xyz
x,y,z
-x,1/2+y,-z
-x,-y,-z
x,1/2-y,z
loop_
_atom_site_type_symbol
_atom_site_label
_atom_site_fract_x
_atom_site_fract_y
_atom_site_fract_z
Si Si1 0.438130 0.065358 0.235014
Si Si2 0.377164 0.934416 0.739608
Si Si3 0.246813 0.934977 0.580892
Si Si4 0.066075 0.937247 0.670043
Si Si5 0.188951 0.065341 0.080376
Si Si6 0.726878 0.436561 0.694415
Si Si7 0.711802 0.064135 0.889004
Si Si8 0.348726 0.065302 0.608862
O O1 0.429183 0.250000 0.254764
O O2 0.359005 0.985668 0.394814
O O3 0.381211 0.014852 0.222034
O O4 0.576113 0.021874 0.072211
O O5 0.372517 0.750000 0.748782
O O6 0.516130 0.980534 0.575986
O O7 0.327534 0.992777 0.717356
O O8 0.300232 0.003165 0.899625
O O9 0.245641 0.750000 0.588009
O O10 0.131107 0.987061 0.670658
O O11 0.262082 0.007584 0.645957
O O12 0.062435 0.750000 0.676850
O O13 0.154957 0.977747 0.494422
O O14 0.933567 0.992266 0.811700
O O15 0.189413 0.250000 0.077514
O O16 0.201722 0.010132 0.152295
O O17 0.711875 0.250000 0.708163
O O18 0.734004 0.481094 0.774530
O O19 0.721186 0.250000 0.882544
O O20 0.344595 0.250000 0.619824
#
# Coordination Sequence:
#
# PCOD9158466 Si02
#       8
#     4   4   4   4   4   4   4   4
#     4  10  19  31  49  77 110 136 167 215 264 310
#     4  10  21  37  56  80 111 141 167 203 255 309
#     4  10  19  34  56  78 104 140 177 210 255 311
#     4   8  18  36  54  73 100 136 177 221 260 297
#     4  11  22  36  54  75 102 137 178 219 257 301
#     4   9  18  35  55  73 100 138 176 215 263 313
#     4  10  21  34  50  75 106 138 171 214 267 317
#     4  10  20  35  57  85 112 134 165 209 253 303
#
# _framework density 18.814070999999998
#
# number of rings (size 3 to 8) (size 9 to 14) (size 15 to 20)
#    0.000    2.250    0.000    3.750    0.000    6.500 
#    0.000    6.875    0.000    0.000    0.000    0.000 
#    0.000    0.000    0.000    0.000    0.000    0.000 
#
# Total GULP energy -178668.675056 kJ/mol
# GULP energy per Si atom -5583.396096 kJ/mol
# Density = 1.877125 g / cm^3
# Si number density = 18.814071 Si / 1000 Ang^3
#
#
#
# Elastic Constant Matrix: (Units=GPa)
#
#
# Indices 1 2 3 4 5 6 
#
# 1 121.0116 15.7742 16.3430 0.0000 5.5567 0.0000
# 2 15.7742 20.4846 4.1010 0.0000 -3.3623 0.0000
# 3 16.3430 4.1010 18.5016 0.0000 -4.8794 0.0000
# 4 0.0000 0.0000 0.0000 15.3256 0.0000 3.5460
# 5 5.5567 -3.3623 -4.8794 0.0000 16.2436 0.0000
# 6 0.0000 0.0000 0.0000 3.5460 0.0000 34.9516
#
#
#
# Elastic Compliance Matrix: (Units=1/GPa)
#
#
# Indices 1 2 3 4 5 6 
#
# 1 0.011066 -0.007859 -0.010274 0.000000 -0.008499 0.000000
# 2 -0.007859 0.057590 -0.002139 0.000000 0.013967 0.000000
# 3 -0.010274 -0.002139 0.069951 0.000000 0.024084 0.000000
# 4 0.000000 0.000000 0.000000 0.066819 0.000000 -0.006779
# 5 -0.008499 0.013967 0.024084 0.000000 0.074596 0.000000
# 6 0.000000 0.000000 0.000000 -0.006779 0.000000 0.029299
#
#
# Mechanical properties :
#
#
# Convention : Reuss Voigt Hill
#
# Bulk Modulus (GPa) = 10.19773 25.82601 18.01187
# Shear Modulus (GPa) = 13.07009 21.55613 17.31311
#
# Velocity S-wave (km/s) = 2.63857 3.38856 3.03681
# Velocity P-wave (km/s) = 3.83598 5.39134 4.67874
#
# Compressibility (1/GPa) = 0.09806102
#
# Stress axis : x y z
#
# Youngs Moduli (GPa) = 90.36723 17.36411 14.29575
#
# Poissons Ratio (x) = 0.13647 0.14688
# Poissons Ratio (y) = 0.71023 0.03058
# Poissons Ratio (z) = 0.92844 0.03715
#
# Static dielectric constant tensor:
#      x y z
#    x 1.658380 0.000000 -0.007890 
#    y 0.000000 1.633100 0.000000 
#    z -0.007890 0.000000 1.636470 
# 
# From -- ./inp_files/61776.got.cif
#   From: 2010.05.17/outbox.cif.g08.bks.cpg/sg11_31_cif.got.tgz:61776.got - 2010.06.03 12:22:45.
