data_PCOD9158745
_publ_section_title
;
Structure prediction by ZEFSAII (Michael W. Deem and Ramdas Pophale) SiO2 
 PCOD9158745
Probable space group: P 21/M
;
_chemical_formula_sum "Si O2"
_cell_formula_units_Z 32
_cell_length_a 16.381966
_cell_length_b 7.589954
_cell_length_c 12.431732
_cell_angle_alpha 90.000000
_cell_angle_beta 80.422052
_cell_angle_gamma 90.000000
_cell_volume 1524.193871
_symmetry_space_group_name_H-M "P 21/M"
_symmetry_group_IT_number 11
_symmetry_cell_setting 'monoclinic'
loop_
_space_group_symop_operation_xyz
x,y,z
-x,1/2+y,-z
-x,-y,-z
x,1/2-y,z
loop_
_atom_site_type_symbol
_atom_site_label
_atom_site_fract_x
_atom_site_fract_y
_atom_site_fract_z
Si Si1 0.757249 0.537304 0.692089
Si Si2 0.097214 0.461176 0.485401
Si Si3 0.789340 0.459246 0.920958
Si Si4 0.974761 0.038915 0.883328
Si Si5 0.132098 0.036205 0.715653
Si Si6 0.716732 0.458842 0.158978
Si Si7 0.609075 0.537038 0.572019
Si Si8 0.425434 0.540080 0.661760
O O1 0.757476 0.750000 0.689631
O O2 0.845397 0.473557 0.624807
O O3 0.744444 0.484624 0.817860
O O4 0.684285 0.475593 0.629348
O O5 0.104272 0.250000 0.484122
O O6 0.133489 0.523810 0.591878
O O7 0.000000 0.500000 0.500000
O O8 0.798565 0.250000 0.937458
O O9 0.882443 0.532197 0.886977
O O10 0.744671 0.531656 0.037104
O O11 0.972689 0.250000 0.869236
O O12 0.046380 0.973071 0.788585
O O13 0.000000 0.000000 0.000000
O O14 0.132330 0.250000 0.715554
O O15 0.208174 0.980001 0.773260
O O16 0.702820 0.250000 0.147876
O O17 0.634016 0.532783 0.232533
O O18 0.608327 0.750000 0.576374
O O19 0.519219 0.471184 0.631913
O O20 0.616462 0.488673 0.445327
O O21 0.432268 0.750000 0.675768
#
# Coordination Sequence:
#
# PCOD9158745 Si02
#       8
#     4   4   4   4   4   4   4   4
#     4  10  21  36  54  75 102 139 177 211 252 304
#     4  10  21  36  52  74 103 134 170 211 256 303
#     4  10  21  36  52  72 103 140 175 214 255 300
#     4  10  19  32  50  72  99 134 172 210 251 297
#     4  10  20  33  52  76 102 133 171 214 258 304
#     4  10  20  34  52  77 105 133 168 211 260 306
#     4   9  18  35  57  80 106 135 167 208 257 308
#     4   9  18  33  56  83 107 131 165 210 259 311
#
# _framework density 20.994706000000001
#
# number of rings (size 3 to 8) (size 9 to 14) (size 15 to 20)
#    0.000    2.250    1.250    1.500    0.000    5.000 
#    0.000    0.625    0.000    0.000    0.000    0.000 
#    0.000    0.000    0.000    0.000    0.000    0.000 
#
# Total GULP energy -178707.647668 kJ/mol
# GULP energy per Si atom -5584.613990 kJ/mol
# Density = 2.094692 g / cm^3
# Si number density = 20.994706 Si / 1000 Ang^3
#
#
#
# Elastic Constant Matrix: (Units=GPa)
#
#
# Indices 1 2 3 4 5 6 
#
# 1 90.8883 -3.0772 51.9288 0.0000 -13.5287 0.0000
# 2 -3.0772 43.2815 -4.8808 0.0000 -8.9968 0.0000
# 3 51.9288 -4.8808 132.3770 0.0000 -19.2567 0.0000
# 4 0.0000 0.0000 0.0000 18.4158 0.0000 5.0198
# 5 -13.5287 -8.9968 -19.2567 0.0000 35.8524 0.0000
# 6 0.0000 0.0000 0.0000 5.0198 0.0000 14.9780
#
#
#
# Elastic Compliance Matrix: (Units=1/GPa)
#
#
# Indices 1 2 3 4 5 6 
#
# 1 0.014445 0.001047 -0.005203 0.000000 0.002919 0.000000
# 2 0.001047 0.024920 0.001600 0.000000 0.007508 0.000000
# 3 -0.005203 0.001600 0.010226 0.000000 0.003931 0.000000
# 4 0.000000 0.000000 0.000000 0.059761 0.000000 -0.020028
# 5 0.002919 0.007508 0.003931 0.000000 0.032989 0.000000
# 6 0.000000 0.000000 0.000000 -0.020028 0.000000 0.073477
#
#
# Mechanical properties :
#
#
# Convention : Reuss Voigt Hill
#
# Bulk Modulus (GPa) = 22.48233 39.38761 30.93497
# Shear Modulus (GPa) = 21.20828 28.68763 24.94796
#
# Velocity S-wave (km/s) = 3.18177 3.70052 3.45091
# Velocity P-wave (km/s) = 4.92240 6.08769 5.53579
#
# Compressibility (1/GPa) = 0.04447937
#
# Stress axis : x y z
#
# Youngs Moduli (GPa) = 69.22619 40.12816 97.78818
#
# Poissons Ratio (x) = -0.04201 0.50884
# Poissons Ratio (y) = -0.07248 -0.15649
# Poissons Ratio (z) = 0.36021 -0.06422
#
# Static dielectric constant tensor:
#      x y z
#    x 1.756070 0.000000 -0.035360 
#    y 0.000000 1.793680 0.000000 
#    z -0.035360 0.000000 1.739560 
# 
# From -- ./inp_files/38087.got.cif
#   From: 2010.05.17/outbox.cif.g08.bks.cpg/sg11_20_cif.got.tgz:38087.got - 2010.06.03 12:22:45.
