data_PCOD9158385
_publ_section_title
;
Structure prediction by ZEFSAII (Michael W. Deem and Ramdas Pophale) SiO2 
 PCOD9158385
Probable space group: P 21/M
;
_chemical_formula_sum "Si O2"
_cell_formula_units_Z 24
_cell_length_a 5.235953
_cell_length_b 12.932304
_cell_length_c 24.018558
_cell_angle_alpha 90.000000
_cell_angle_beta 115.308180
_cell_angle_gamma 90.000000
_cell_volume 1470.270851
_symmetry_space_group_name_H-M "P 21/M"
_symmetry_group_IT_number 11
_symmetry_cell_setting 'monoclinic'
loop_
_space_group_symop_operation_xyz
x,y,z
-x,1/2+y,-z
-x,-y,-z
x,1/2-y,z
loop_
_atom_site_type_symbol
_atom_site_label
_atom_site_fract_x
_atom_site_fract_y
_atom_site_fract_z
Si Si1 0.610557 0.059987 0.923095
Si Si2 0.585989 0.493733 0.417403
Si Si3 0.241478 0.134084 0.991168
Si Si4 0.628027 0.372203 0.705660
Si Si5 0.287237 0.128014 0.787398
Si Si6 0.832699 0.874447 0.541772
O O1 0.434899 0.117393 0.955024
O O2 0.436947 0.064847 0.850180
O O3 0.917765 0.110914 0.944683
O O4 0.665807 0.946413 0.952987
O O5 0.469575 0.555349 0.353647
O O6 0.349798 0.423249 0.425089
O O7 0.692197 0.578510 0.472539
O O8 0.852514 0.421545 0.427251
O O9 0.267301 0.250000 0.013971
O O10 0.603604 0.250000 0.688182
O O11 0.436392 0.389935 0.742121
O O12 0.954456 0.391946 0.751274
O O13 0.324688 0.250000 0.804626
O O14 0.830332 0.750000 0.541612
#
# Coordination Sequence:
#
# PCOD9158385 Si02
#       6
#     4   4   4   4   4   4
#     4  10  20  32  50  76 100 128 164 202 247 295
#     4  10  20  34  53  77 103 132 165 205 251 294
#     4  10  19  32  51  73 100 130 161 203 248 292
#     4  10  20  33  51  75 102 131 162 201 248 296
#     4  10  19  31  49  72 101 133 162 200 246 293
#     4  10  20  34  54  77 102 132 166 207 250 294
#
# _framework density 16.323523000000002
#
# number of rings (size 3 to 8) (size 9 to 14) (size 15 to 20)
#    0.000    2.000    0.000    4.500    0.000    1.333 
#    0.000    5.000    0.000    6.000    0.000    0.000 
#    0.000    0.000    0.000    0.000    0.000    0.000 
#
# Total GULP energy -133968.040727 kJ/mol
# GULP energy per Si atom -5582.001697 kJ/mol
# Density = 1.628637 g / cm^3
# Si number density = 16.323523 Si / 1000 Ang^3
#
#
#
# Elastic Constant Matrix: (Units=GPa)
#
#
# Indices 1 2 3 4 5 6 
#
# 1 57.1008 15.9932 -15.7537 0.0000 4.6441 0.0000
# 2 15.9932 102.4123 30.3436 0.0000 2.3709 0.0000
# 3 -15.7537 30.3436 57.0034 0.0000 6.0004 0.0000
# 4 0.0000 0.0000 0.0000 1.0907 0.0000 -5.5081
# 5 4.6441 2.3709 6.0004 0.0000 9.9664 0.0000
# 6 0.0000 0.0000 0.0000 -5.5081 0.0000 -9.1130
#
#
#
# Elastic Compliance Matrix: (Units=1/GPa)
#
#
# Indices 1 2 3 4 5 6 
#
# 1 0.024226 -0.007009 0.012213 0.000000 -0.016974 0.000000
# 2 -0.007009 0.013630 -0.009817 0.000000 0.005934 0.000000
# 3 0.012213 -0.009817 0.028290 0.000000 -0.020388 0.000000
# 4 0.000000 0.000000 0.000000 0.226243 0.000000 -0.136748
# 5 -0.016974 0.005934 -0.020388 0.000000 0.119109 0.000000
# 6 0.000000 0.000000 0.000000 -0.136748 0.000000 -0.027079
#
#
# Mechanical properties :
#
#
# Convention : Reuss Voigt Hill
#
# Bulk Modulus (GPa) = 17.56856 30.85365 24.21111
# Shear Modulus (GPa) = 12.11771 12.78439 12.45105
#
# Velocity S-wave (km/s) = 2.72756 2.80159 2.76482
# Velocity P-wave (km/s) = 4.55033 5.42287 5.00565
#
# Compressibility (1/GPa) = 0.05691986
#
# Stress axis : x y z
#
# Youngs Moduli (GPa) = 41.27805 73.36574 35.34827
#
# Poissons Ratio (x) = 0.51421 -0.43170
# Poissons Ratio (y) = 0.28931 0.34702
# Poissons Ratio (z) = -0.50412 0.72025
#
# Static dielectric constant tensor:
#      x y z
#    x 1.552580 0.000000 -0.000520 
#    y 0.000000 1.526070 0.000000 
#    z -0.000520 0.000000 1.511170 
# 
# From -- ./inp_files/7656.got.cif
#   From: 2010.05.17/outbox.cif.g08.bks.cpg/sg11_4_cif.got.tgz:7656.got - 2010.06.03 12:22:45.
