data_PCOD9158727
_publ_section_title
;
Structure prediction by ZEFSAII (Michael W. Deem and Ramdas Pophale) SiO2 
 PCOD9158727
Probable space group: P 21/M
;
_chemical_formula_sum "Si O2"
_cell_formula_units_Z 30
_cell_length_a 22.197915
_cell_length_b 7.761224
_cell_length_c 9.796613
_cell_angle_alpha 90.000000
_cell_angle_beta 133.094020
_cell_angle_gamma 90.000000
_cell_volume 1232.480788
_symmetry_space_group_name_H-M "P 21/M"
_symmetry_group_IT_number 11
_symmetry_cell_setting 'monoclinic'
loop_
_space_group_symop_operation_xyz
x,y,z
-x,1/2+y,-z
-x,-y,-z
x,1/2-y,z
loop_
_atom_site_type_symbol
_atom_site_label
_atom_site_fract_x
_atom_site_fract_y
_atom_site_fract_z
Si Si1 0.762502 0.453243 0.920402
Si Si2 0.773864 0.544430 0.525392
Si Si3 0.068527 0.750000 0.576373
Si Si4 0.902284 0.551934 0.928540
Si Si5 0.471666 0.957340 0.110030
Si Si6 0.368909 0.459053 0.489818
Si Si7 0.977727 0.567119 0.668099
Si Si8 0.285149 0.541450 0.861095
O O1 0.782751 0.250000 0.952506
O O2 0.827279 0.546218 0.923322
O O3 0.672012 0.474697 0.712336
O O4 0.758313 0.519439 0.068200
O O5 0.775542 0.750000 0.547400
O O6 0.856924 0.477144 0.725042
O O7 0.694524 0.482967 0.489142
O O8 0.759260 0.504914 0.346742
O O9 0.050761 0.603460 0.669836
O O10 0.068310 0.598023 0.459632
O O11 0.925384 0.750000 0.945719
O O12 0.977238 0.457766 0.117975
O O13 0.469003 0.750000 0.114822
O O14 0.540627 0.018023 0.324352
O O15 0.379529 0.020957 0.996579
O O16 0.500000 0.000000 0.000000
O O17 0.369243 0.250000 0.485192
O O18 0.930054 0.750000 0.593456
O O19 0.284577 0.750000 0.870691
#
# Coordination Sequence:
#
# PCOD9158727 Si02
#       8
#     4   4   2   4   4   4   4   4
#     4  10  21  34  46  67  96 129 162 204 247 303
#     4   9  18  31  48  69  93 124 160 205 248 296
#     4   8  16  26  44  76 112 138 168 206 246 290
#     4  10  19  32  50  73 102 133 169 205 247 296
#     4  10  19  32  50  70  89 116 154 204 255 311
#     4   9  18  33  49  68  92 116 155 201 255 306
#     4   9  15  27  46  73 109 143 167 205 251 291
#     4  10  21  34  48  67  95 122 160 208 254 300
#
# _framework density 24.341149999999999
#
# number of rings (size 3 to 8) (size 9 to 14) (size 15 to 20)
#    0.400    2.133    2.000    1.600    0.000    4.800 
#    0.000    0.000    0.000    0.000    0.000    0.000 
#    0.000    6.400    0.000    0.400    0.000    0.400 
#
# Total GULP energy -167292.378108 kJ/mol
# GULP energy per Si atom -5576.412604 kJ/mol
# Density = 2.428575 g / cm^3
# Si number density = 24.341150 Si / 1000 Ang^3
#
#
#
# Elastic Constant Matrix: (Units=GPa)
#
#
# Indices 1 2 3 4 5 6 
#
# 1 100.0889 14.5268 56.1222 0.0000 1.3335 0.0000
# 2 14.5268 85.5974 19.2820 0.0000 3.3777 0.0000
# 3 56.1222 19.2820 137.1020 0.0000 -19.9929 0.0000
# 4 0.0000 0.0000 0.0000 38.3184 0.0000 -3.1795
# 5 1.3335 3.3777 -19.9929 0.0000 37.1133 0.0000
# 6 0.0000 0.0000 0.0000 -3.1795 0.0000 13.8295
#
#
#
# Elastic Compliance Matrix: (Units=1/GPa)
#
#
# Indices 1 2 3 4 5 6 
#
# 1 0.013482 -0.000810 -0.005931 0.000000 -0.003606 0.000000
# 2 -0.000810 0.012279 -0.001687 0.000000 -0.001997 0.000000
# 3 -0.005931 -0.001687 0.010866 0.000000 0.006220 0.000000
# 4 0.000000 0.000000 0.000000 0.026605 0.000000 0.006117
# 5 -0.003606 -0.001997 0.006220 0.000000 0.030607 0.000000
# 6 0.000000 0.000000 0.000000 0.006117 0.000000 0.073716
#
#
# Mechanical properties :
#
#
# Convention : Reuss Voigt Hill
#
# Bulk Modulus (GPa) = 50.57554 55.85003 53.21278
# Shear Modulus (GPa) = 26.17816 33.37605 29.77710
#
# Velocity S-wave (km/s) = 3.28299 3.70696 3.50140
# Velocity P-wave (km/s) = 5.93242 6.42780 6.18507
#
# Compressibility (1/GPa) = 0.01977241
#
# Stress axis : x y z
#
# Youngs Moduli (GPa) = 74.17165 81.44148 92.03158
#
# Poissons Ratio (x) = 0.06595 0.54582
# Poissons Ratio (y) = 0.06006 0.15522
# Poissons Ratio (z) = 0.43990 0.13736
#
# Static dielectric constant tensor:
#      x y z
#    x 1.993720 0.000000 0.030130 
#    y 0.000000 1.894060 0.000000 
#    z 0.030130 0.000000 1.937930 
# 
# From -- ./inp_files/28107.got.cif
#   From: 2010.05.17/outbox.cif.g08.bks.cpg/sg11_15_cif.got.tgz:28107.got - 2010.06.03 12:22:45.
