data_PCOD9158684
_publ_section_title
;
Structure prediction by ZEFSAII (Michael W. Deem and Ramdas Pophale) SiO2 
 PCOD9158684
Probable space group: P 21/M
;
_chemical_formula_sum "Si O2"
_cell_formula_units_Z 32
_cell_length_a 21.030901
_cell_length_b 8.942991
_cell_length_c 14.386617
_cell_angle_alpha 90.000000
_cell_angle_beta 46.504907
_cell_angle_gamma 90.000000
_cell_volume 1962.894033
_symmetry_space_group_name_H-M "P 21/M"
_symmetry_group_IT_number 11
_symmetry_cell_setting 'monoclinic'
loop_
_space_group_symop_operation_xyz
x,y,z
-x,1/2+y,-z
-x,-y,-z
x,1/2-y,z
loop_
_atom_site_type_symbol
_atom_site_label
_atom_site_fract_x
_atom_site_fract_y
_atom_site_fract_z
Si Si1 0.641203 0.072482 0.138730
Si Si2 0.093890 0.928369 0.423227
Si Si3 0.674448 0.569735 0.496489
Si Si4 0.624669 0.578849 0.837872
Si Si5 0.255642 0.571742 0.134777
Si Si6 0.472246 0.572811 0.222840
Si Si7 0.797280 0.921048 0.531347
Si Si8 0.402267 0.570839 0.605964
O O1 0.620688 0.250000 0.148474
O O2 0.637651 0.041767 0.251731
O O3 0.565756 0.976668 0.166380
O O4 0.728443 0.043229 0.990335
O O5 0.087085 0.750000 0.426702
O O6 0.164785 0.978374 0.273304
O O7 0.134606 0.978751 0.481049
O O8 0.000000 0.000000 0.500000
O O9 0.667493 0.750000 0.501282
O O10 0.595885 0.503017 0.637351
O O11 0.763431 0.531835 0.463444
O O12 0.659201 0.500805 0.410886
O O13 0.598774 0.750000 0.881815
O O14 0.664844 0.501636 0.887818
O O15 0.550694 0.490765 0.855795
O O16 0.708519 0.580105 0.683017
O O17 0.260629 0.750000 0.144574
O O18 0.461457 0.750000 0.234356
O O19 0.829501 0.750000 0.494936
O O20 0.500000 0.500000 0.500000
O O21 0.409536 0.750000 0.585560
#
# Coordination Sequence:
#
# PCOD9158684 Si02
#       8
#     4   4   4   4   4   4   4   4
#     4  10  21  35  48  64  93 129 167 210 250 283
#     4  10  19  32  54  80 104 127 154 190 236 296
#     4  10  19  32  49  69  98 131 166 212 256 290
#     4   9  17  30  47  66  93 127 161 201 245 286
#     4   9  19  35  51  69  94 127 164 199 237 291
#     4  11  20  29  45  67  91 126 170 208 244 289
#     4   8  16  30  48  71  98 127 158 195 241 289
#     4  11  21  32  49  70  95 130 173 218 256 292
#
# _framework density 16.302458999999999
#
# number of rings (size 3 to 8) (size 9 to 14) (size 15 to 20)
#    0.000    2.250    1.250    3.375    0.000    5.500 
#    0.000    0.000    0.000    0.000    0.000    0.875 
#    0.000    0.000    0.000    0.000    0.000    0.000 
#
# Total GULP energy -178437.952662 kJ/mol
# GULP energy per Si atom -5576.186021 kJ/mol
# Density = 1.626535 g / cm^3
# Si number density = 16.302459 Si / 1000 Ang^3
#
#
#
# Elastic Constant Matrix: (Units=GPa)
#
#
# Indices 1 2 3 4 5 6 
#
# 1 116.7167 55.5545 64.3443 0.0000 11.0539 0.0000
# 2 55.5545 62.2692 42.1193 0.0000 3.0219 0.0000
# 3 64.3443 42.1193 77.0836 0.0000 15.6007 0.0000
# 4 0.0000 0.0000 0.0000 12.6613 0.0000 1.5717
# 5 11.0539 3.0219 15.6007 0.0000 25.1546 0.0000
# 6 0.0000 0.0000 0.0000 1.5717 0.0000 31.3033
#
#
#
# Elastic Compliance Matrix: (Units=1/GPa)
#
#
# Indices 1 2 3 4 5 6 
#
# 1 0.019094 -0.010033 -0.010294 0.000000 -0.000801 0.000000
# 2 -0.010033 0.031672 -0.010353 0.000000 0.007025 0.000000
# 3 -0.010294 -0.010353 0.029795 0.000000 -0.012712 0.000000
# 4 0.000000 0.000000 0.000000 0.079476 0.000000 -0.003990
# 5 -0.000801 0.007025 -0.012712 0.000000 0.047146 0.000000
# 6 0.000000 0.000000 0.000000 -0.003990 0.000000 0.032146
#
#
# Mechanical properties :
#
#
# Convention : Reuss Voigt Hill
#
# Bulk Modulus (GPa) = 52.07919 64.45620 58.26770
# Shear Modulus (GPa) = 16.28181 20.09393 18.18787
#
# Velocity S-wave (km/s) = 3.16370 3.51461 3.34376
# Velocity P-wave (km/s) = 6.73501 7.48956 7.12228
#
# Compressibility (1/GPa) = 0.01920153
#
# Stress axis : x y z
#
# Youngs Moduli (GPa) = 52.37145 31.57317 33.56226
#
# Poissons Ratio (x) = 0.31679 0.34550
# Poissons Ratio (y) = 0.52546 0.34746
# Poissons Ratio (z) = 0.53913 0.32687
#
# Static dielectric constant tensor:
#      x y z
#    x 1.542800 0.000000 0.026430 
#    y 0.000000 1.589460 0.000000 
#    z 0.026430 0.000000 1.575790 
# 
# From -- ./inp_files/51366.got.cif
#   From: 2010.05.17/outbox.cif.g08.bks.cpg/sg11_26_cif.got.tgz:51366.got - 2010.06.03 12:22:45.
