data_PCOD9158859
_publ_section_title
;
Structure prediction by ZEFSAII (Michael W. Deem and Ramdas Pophale) SiO2 
 PCOD9158859
Probable space group: P 21/M
;
_chemical_formula_sum "Si O2"
_cell_formula_units_Z 32
_cell_length_a 24.803284
_cell_length_b 7.692233
_cell_length_c 19.533892
_cell_angle_alpha 90.000000
_cell_angle_beta 156.692347
_cell_angle_gamma 90.000000
_cell_volume 1474.624753
_symmetry_space_group_name_H-M "P 21/M"
_symmetry_group_IT_number 11
_symmetry_cell_setting 'monoclinic'
loop_
_space_group_symop_operation_xyz
x,y,z
-x,1/2+y,-z
-x,-y,-z
x,1/2-y,z
loop_
_atom_site_type_symbol
_atom_site_label
_atom_site_fract_x
_atom_site_fract_y
_atom_site_fract_z
Si Si1 0.826751 0.546227 0.729433
Si Si2 0.877641 0.959975 0.945612
Si Si3 0.400541 0.952022 0.730311
Si Si4 0.175793 0.536429 0.564767
Si Si5 0.459532 0.948328 0.654953
Si Si6 0.915588 0.957098 0.332504
Si Si7 0.342209 0.548727 0.892759
Si Si8 0.403738 0.040301 0.322816
O O1 0.792204 0.750000 0.690791
O O2 0.847940 0.485252 0.832486
O O3 0.700179 0.448186 0.549952
O O4 0.971144 0.522150 0.860540
O O5 0.880634 0.750000 0.949907
O O6 0.749884 0.019894 0.841312
O O7 0.372712 0.750000 0.682074
O O8 0.260445 0.024496 0.597857
O O9 0.461329 0.032829 0.732013
O O10 0.517797 0.958794 0.924158
O O11 0.175519 0.750000 0.565033
O O12 0.264020 0.481224 0.734273
O O13 0.019055 0.482854 0.393571
O O14 0.512221 0.750000 0.722773
O O15 0.535303 0.027311 0.677569
O O16 0.899416 0.750000 0.308066
O O17 0.766959 0.033291 0.172556
O O18 0.000000 0.000000 0.500000
O O19 0.372997 0.750000 0.916959
O O20 0.401286 0.250000 0.316041
O O21 0.500000 0.000000 0.500000
#
# Coordination Sequence:
#
# PCOD9158859 Si02
#       8
#     4   4   4   4   4   4   4   4
#     4  10  19  32  52  76 101 131 164 204 251 298
#     4   9  18  32  51  76 102 128 162 205 249 294
#     4  10  20  35  52  73 101 137 172 208 255 306
#     4   8  16  31  52  76 101 129 171 214 253 299
#     4  10  21  35  53  75 103 135 169 208 255 308
#     4   9  16  29  50  76 102 130 164 210 257 301
#     4  10  19  32  51  77 104 134 171 215 256 299
#     4  10  19  33  53  78 102 129 165 205 249 299
#
# _framework density 21.700437000000001
#
# number of rings (size 3 to 8) (size 9 to 14) (size 15 to 20)
#    0.000    2.500    1.250    2.250    0.000    1.500 
#    0.000    4.375    0.000    7.500    0.000    0.000 
#    0.000    0.000    0.000    0.000    0.000    0.000 
#
# Total GULP energy -178472.457125 kJ/mol
# GULP energy per Si atom -5577.264285 kJ/mol
# Density = 2.165105 g / cm^3
# Si number density = 21.700437 Si / 1000 Ang^3
#
#
#
# Elastic Constant Matrix: (Units=GPa)
#
#
# Indices 1 2 3 4 5 6 
#
# 1 140.7926 5.9634 22.4960 0.0000 34.5086 0.0000
# 2 5.9634 42.3177 -4.4206 0.0000 -0.7050 0.0000
# 3 22.4960 -4.4206 38.1138 0.0000 26.7398 0.0000
# 4 0.0000 0.0000 0.0000 19.3372 0.0000 4.1392
# 5 34.5086 -0.7050 26.7398 0.0000 33.7715 0.0000
# 6 0.0000 0.0000 0.0000 4.1392 0.0000 8.2563
#
#
#
# Elastic Compliance Matrix: (Units=1/GPa)
#
#
# Indices 1 2 3 4 5 6 
#
# 1 0.009671 -0.001304 0.002459 0.000000 -0.011856 0.000000
# 2 -0.001304 0.024317 0.005172 0.000000 -0.002256 0.000000
# 3 0.002459 0.005172 0.060906 0.000000 -0.050629 0.000000
# 4 0.000000 0.000000 0.000000 0.057930 0.000000 -0.029043
# 5 -0.011856 -0.002256 -0.050629 0.000000 0.081766 0.000000
# 6 0.000000 0.000000 0.000000 -0.029043 0.000000 0.135680
#
#
# Mechanical properties :
#
#
# Convention : Reuss Voigt Hill
#
# Bulk Modulus (GPa) = 9.29807 29.92241 19.61024
# Shear Modulus (GPa) = 12.70760 25.41868 19.06314
#
# Velocity S-wave (km/s) = 2.42253 3.42620 2.96711
# Velocity P-wave (km/s) = 3.48122 5.42868 4.56013
#
# Compressibility (1/GPa) = 0.10754916
#
# Stress axis : x y z
#
# Youngs Moduli (GPa) = 103.40255 41.12316 16.41873
#
# Poissons Ratio (x) = 0.05361 -0.04037
# Poissons Ratio (y) = 0.13479 -0.08493
# Poissons Ratio (z) = -0.25422 -0.21271
#
# Static dielectric constant tensor:
#      x y z
#    x 1.873980 0.000000 0.020040 
#    y 0.000000 1.860140 0.000000 
#    z 0.020040 0.000000 1.757810 
# 
# From -- ./inp_files/67174.got.cif
#   From: 2010.05.17/outbox.cif.g08.bks.cpg/sg11_34_cif.got.tgz:67174.got - 2010.06.03 12:22:45.
