data_PCOD9158221
_publ_section_title
;
Structure prediction by ZEFSAII (Michael W. Deem and Ramdas Pophale) SiO2 
 PCOD9158221
Probable space group: P 21/M
;
_chemical_formula_sum "Si O2"
_cell_formula_units_Z 24
_cell_length_a 5.693623
_cell_length_b 16.090043
_cell_length_c 10.598049
_cell_angle_alpha 90.000000
_cell_angle_beta 98.623101
_cell_angle_gamma 90.000000
_cell_volume 959.919063
_symmetry_space_group_name_H-M "P 21/M"
_symmetry_group_IT_number 11
_symmetry_cell_setting 'monoclinic'
loop_
_space_group_symop_operation_xyz
x,y,z
-x,1/2+y,-z
-x,-y,-z
x,1/2-y,z
loop_
_atom_site_type_symbol
_atom_site_label
_atom_site_fract_x
_atom_site_fract_y
_atom_site_fract_z
Si Si1 0.086893 0.345841 0.060272
Si Si2 0.462792 0.628110 0.248586
Si Si3 0.961813 0.872258 0.245333
Si Si4 0.467737 0.050020 0.365219
Si Si5 0.422691 0.906064 0.962184
Si Si6 0.031828 0.950976 0.635510
O O1 0.057743 0.250000 0.091272
O O2 0.069132 0.356036 0.905937
O O3 0.855636 0.394595 0.095515
O O4 0.360496 0.373310 0.106814
O O5 0.226161 0.658072 0.299601
O O6 0.457186 0.528505 0.269177
O O7 0.433691 0.642961 0.096983
O O8 0.728023 0.657792 0.300292
O O9 0.958048 0.970910 0.268368
O O10 0.716294 0.094511 0.356363
O O11 0.214978 0.095078 0.356562
O O12 0.500000 0.000000 0.500000
O O13 0.500000 0.000000 0.000000
O O14 0.000000 0.000000 0.500000
#
# Coordination Sequence:
#
# PCOD9158221 Si02
#       6
#     4   4   4   4   4   4
#     4  10  19  31  46  64  87 118 152 187 229 283
#     4   8  14  23  35  52  75 104 133 163 204 254
#     4   8  14  23  35  52  75 104 136 168 207 254
#     4   8  12  18  29  46  69  98 123 152 193 239
#     4  10  19  31  46  64  87 118 148 183 228 273
#     4   8  12  18  29  46  69  98 128 157 193 239
#
# _framework density 25.002109999999998
#
# number of rings (size 3 to 8) (size 9 to 14) (size 15 to 20)
#    0.000    3.333    0.000    1.000    0.000    0.000 
#    0.000    0.000    0.000    0.000    0.000    0.000 
#    0.000    0.000    0.000  324.000    0.000   40.667 
#
# Total GULP energy -133705.423234 kJ/mol
# GULP energy per Si atom -5571.059301 kJ/mol
# Density = 2.494520 g / cm^3
# Si number density = 25.002110 Si / 1000 Ang^3
#
#
#
# Elastic Constant Matrix: (Units=GPa)
#
#
# Indices 1 2 3 4 5 6 
#
# 1 380.6445 34.1779 14.2169 0.0000 -56.9836 0.0000
# 2 34.1779 90.0048 7.9451 0.0000 -3.6622 0.0000
# 3 14.2169 7.9451 67.8473 0.0000 -15.1516 0.0000
# 4 0.0000 0.0000 0.0000 -10.3688 0.0000 7.1170
# 5 -56.9836 -3.6622 -15.1516 0.0000 33.6922 0.0000
# 6 0.0000 0.0000 0.0000 7.1170 0.0000 -20.9357
#
#
#
# Elastic Compliance Matrix: (Units=1/GPa)
#
#
# Indices 1 2 3 4 5 6 
#
# 1 0.003669 -0.001203 0.000810 0.000000 0.006438 0.000000
# 2 -0.001203 0.011636 -0.001426 0.000000 -0.001410 0.000000
# 3 0.000810 -0.001426 0.016683 0.000000 0.008717 0.000000
# 4 0.000000 0.000000 0.000000 -0.125796 0.000000 -0.042763
# 5 0.006438 -0.001410 0.008717 0.000000 0.044337 0.000000
# 6 0.000000 0.000000 0.000000 -0.042763 0.000000 -0.062303
#
#
# Mechanical properties :
#
#
# Convention : Reuss Voigt Hill
#
# Bulk Modulus (GPa) = 35.27246 72.35292 53.81269
# Shear Modulus (GPa) = -50.66503 32.62133 -9.02185
#
# Velocity S-wave (km/s) = -4.50647 3.61604 -1.90165
# Velocity P-wave (km/s) = 3.59712 6.81439 4.09247
#
# Compressibility (1/GPa) = 0.02835073
#
# Stress axis : x y z
#
# Youngs Moduli (GPa) = 272.57593 85.94267 59.94148
#
# Poissons Ratio (x) = 0.10336 -0.04855
# Poissons Ratio (y) = 0.32782 0.08545
# Poissons Ratio (z) = -0.22076 0.12251
#
# Static dielectric constant tensor:
#      x y z
#    x 2.153350 0.000000 0.043960 
#    y 0.000000 1.892980 0.000000 
#    z 0.043960 0.000000 2.063010 
# 
# From -- ./inp_files/6439.got.cif
#   From: 2010.05.17/outbox.cif.g08.bks.cpg/sg11_4_cif.got.tgz:6439.got - 2010.06.03 12:22:45.
