data_PCOD9158235
_publ_section_title
;
Structure prediction by ZEFSAII (Michael W. Deem and Ramdas Pophale) SiO2 
 PCOD9158235
Probable space group: P 21/M
;
_chemical_formula_sum "Si O2"
_cell_formula_units_Z 32
_cell_length_a 21.299664
_cell_length_b 8.321395
_cell_length_c 24.019315
_cell_angle_alpha 90.000000
_cell_angle_beta 23.665021
_cell_angle_gamma 90.000000
_cell_volume 1708.813396
_symmetry_space_group_name_H-M "P 21/M"
_symmetry_group_IT_number 11
_symmetry_cell_setting 'monoclinic'
loop_
_space_group_symop_operation_xyz
x,y,z
-x,1/2+y,-z
-x,-y,-z
x,1/2-y,z
loop_
_atom_site_type_symbol
_atom_site_label
_atom_site_fract_x
_atom_site_fract_y
_atom_site_fract_z
Si Si1 0.011581 0.556656 0.251569
Si Si2 0.658795 0.555933 0.739224
Si Si3 0.673061 0.444401 0.941658
Si Si4 0.973888 0.553590 0.156203
Si Si5 0.843399 0.057798 0.095541
Si Si6 0.336834 0.441606 0.657688
Si Si7 0.167929 0.057340 0.294008
Si Si8 0.142145 0.941511 0.516939
O O1 0.013792 0.750000 0.247996
O O2 0.987642 0.497262 0.208331
O O3 0.880904 0.504831 0.402097
O O4 0.177702 0.503931 0.142650
O O5 0.662709 0.750000 0.735244
O O6 0.782215 0.496813 0.685881
O O7 0.706916 0.494317 0.639820
O O8 0.488125 0.506164 0.898920
O O9 0.674391 0.250000 0.936576
O O10 0.699780 0.514186 0.858576
O O11 0.971528 0.750000 0.158601
O O12 0.811252 0.500818 0.259414
O O13 0.119651 0.506805 0.997973
O O14 0.836467 0.250000 0.102419
O O15 0.700415 0.993742 0.248564
O O16 0.000000 0.000000 0.000000
O O17 0.500000 0.500000 0.500000
O O18 0.335176 0.250000 0.657525
O O19 0.156024 0.250000 0.307172
O O20 0.006548 0.994448 0.398595
O O21 0.132997 0.750000 0.525921
#
# Coordination Sequence:
#
# PCOD9158235 Si02
#       8
#     4   4   4   4   4   4   4   4
#     4   9  17  34  54  69  89 123 162 198 232 277
#     4  10  19  31  46  68  94 122 155 195 241 290
#     4   9  18  30  48  71  92 115 152 197 240 282
#     4   8  16  31  53  74  93 124 165 196 227 278
#     4   9  16  29  49  74 101 129 162 200 237 281
#     4  10  19  32  50  76 106 133 160 196 242 288
#     4   9  18  31  47  66  92 122 155 193 239 291
#     4  10  20  32  46  68  94 124 159 197 239 285
#
# _framework density 18.726444000000001
#
# number of rings (size 3 to 8) (size 9 to 14) (size 15 to 20)
#    0.000    2.750    0.000    2.625    0.000    1.500 
#    0.000    5.000    0.000    4.500    0.000    0.000 
#    0.000    0.000    0.000    0.000    0.000    0.000 
#
# Total GULP energy -178364.537561 kJ/mol
# GULP energy per Si atom -5573.891799 kJ/mol
# Density = 1.868382 g / cm^3
# Si number density = 18.726444 Si / 1000 Ang^3
#
#
#
# Elastic Constant Matrix: (Units=GPa)
#
#
# Indices 1 2 3 4 5 6 
#
# 1 76.4979 7.4697 39.3521 0.0000 36.4794 0.0000
# 2 7.4697 11.1965 7.6168 0.0000 3.8337 0.0000
# 3 39.3521 7.6168 132.5039 0.0000 37.0792 0.0000
# 4 0.0000 0.0000 0.0000 28.5326 0.0000 5.9346
# 5 36.4794 3.8337 37.0792 0.0000 31.5568 0.0000
# 6 0.0000 0.0000 0.0000 5.9346 0.0000 14.6903
#
#
#
# Elastic Compliance Matrix: (Units=1/GPa)
#
#
# Indices 1 2 3 4 5 6 
#
# 1 0.030076 -0.008950 0.001501 0.000000 -0.035444 0.000000
# 2 -0.008950 0.096809 -0.003741 0.000000 0.002981 0.000000
# 3 0.001501 -0.003741 0.011434 0.000000 -0.014715 0.000000
# 4 0.000000 0.000000 0.000000 0.038263 0.000000 -0.015457
# 5 -0.035444 0.002981 -0.014715 0.000000 0.089590 0.000000
# 6 0.000000 0.000000 0.000000 -0.015457 0.000000 0.074316
#
#
# Mechanical properties :
#
#
# Convention : Reuss Voigt Hill
#
# Bulk Modulus (GPa) = 8.62526 36.56394 22.59460
# Shear Modulus (GPa) = 12.45282 26.00660 19.22971
#
# Velocity S-wave (km/s) = 2.58153 3.73065 3.20796
# Velocity P-wave (km/s) = 3.67446 6.17452 5.08067
#
# Compressibility (1/GPa) = 0.11593851
#
# Stress axis : x y z
#
# Youngs Moduli (GPa) = 33.24882 10.32963 87.45676
#
# Poissons Ratio (x) = 0.09245 -0.13124
# Poissons Ratio (y) = 0.29758 0.32718
# Poissons Ratio (z) = -0.04989 0.03864
#
# Static dielectric constant tensor:
#      x y z
#    x 1.659100 0.000000 0.003420 
#    y 0.000000 1.641110 0.000000 
#    z 0.003420 0.000000 1.664570 
# 
# From -- ./inp_files/27295.got.cif
#   From: 2010.05.17/outbox.cif.g08.bks.cpg/sg11_14_cif.got.tgz:27295.got - 2010.06.03 12:22:45.
