data_PCOD9158627
_publ_section_title
;
Structure prediction by ZEFSAII (Michael W. Deem and Ramdas Pophale) SiO2 
 PCOD9158627
Probable space group: P 21/M
;
_chemical_formula_sum "Si O2"
_cell_formula_units_Z 28
_cell_length_a 21.396986
_cell_length_b 8.951115
_cell_length_c 17.256135
_cell_angle_alpha 90.000000
_cell_angle_beta 24.278904
_cell_angle_gamma 90.000000
_cell_volume 1358.951440
_symmetry_space_group_name_H-M "P 21/M"
_symmetry_group_IT_number 11
_symmetry_cell_setting 'monoclinic'
loop_
_space_group_symop_operation_xyz
x,y,z
-x,1/2+y,-z
-x,-y,-z
x,1/2-y,z
loop_
_atom_site_type_symbol
_atom_site_label
_atom_site_fract_x
_atom_site_fract_y
_atom_site_fract_z
Si Si1 0.868205 0.577661 0.762505
Si Si2 0.050258 0.571585 0.173450
Si Si3 0.610737 0.427719 0.485184
Si Si4 0.151880 0.082075 0.377868
Si Si5 0.447400 0.083183 0.136385
Si Si6 0.302563 0.431390 0.449288
Si Si7 0.726141 0.927654 0.200275
O O1 0.848303 0.750000 0.806610
O O2 0.866646 0.479630 0.841009
O O3 0.772113 0.546919 0.792249
O O4 0.032863 0.541394 0.538734
O O5 0.056311 0.750000 0.161390
O O6 0.872234 0.525701 0.372829
O O7 0.138822 0.497615 0.002193
O O8 0.634388 0.250000 0.462786
O O9 0.654635 0.504710 0.515729
O O10 0.433478 0.454330 0.664333
O O11 0.706565 0.496580 0.306019
O O12 0.083231 0.250000 0.447674
O O13 0.270352 0.097118 0.312332
O O14 0.515897 0.250000 0.062414
O O15 0.427666 0.015874 0.244211
O O16 0.500000 0.000000 0.000000
O O17 0.309586 0.250000 0.441500
O O18 0.745602 0.750000 0.186624
#
# Coordination Sequence:
#
# PCOD9158627 Si02
#       7
#     4   4   4   4   4   4   4
#     4  10  19  31  54  82 108 142 188 238 289 340
#     4  11  22  38  60  87 123 160 198 244 297 350
#     4  10  22  41  65  91 120 154 194 240 295 353
#     4   9  18  35  53  73 107 147 187 235 287 339
#     4  10  21  38  56  78 112 152 195 240 289 344
#     4  10  22  40  61  85 119 160 199 243 296 354
#     4  10  22  41  64  91 121 153 195 242 291 352
#
# _framework density 20.604120999999999
#
# number of rings (size 3 to 8) (size 9 to 14) (size 15 to 20)
#    0.000    2.000    1.429    1.714    0.000    6.286 
#    0.000    4.286    0.000    0.000    0.000    0.000 
#    0.000    0.000    0.000    0.000    0.000    0.000 
#
# Total GULP energy -156074.229993 kJ/mol
# GULP energy per Si atom -5574.079643 kJ/mol
# Density = 2.055723 g / cm^3
# Si number density = 20.604121 Si / 1000 Ang^3
#
#
#
# Elastic Constant Matrix: (Units=GPa)
#
#
# Indices 1 2 3 4 5 6 
#
# 1 88.6489 21.1583 31.4257 0.0000 42.3187 0.0000
# 2 21.1583 43.7673 38.1005 0.0000 17.3913 0.0000
# 3 31.4257 38.1005 130.4038 0.0000 45.6250 0.0000
# 4 0.0000 0.0000 0.0000 32.1516 0.0000 10.4358
# 5 42.3187 17.3913 45.6250 0.0000 31.2581 0.0000
# 6 0.0000 0.0000 0.0000 10.4358 0.0000 32.2469
#
#
#
# Elastic Compliance Matrix: (Units=1/GPa)
#
#
# Indices 1 2 3 4 5 6 
#
# 1 0.060598 -0.007028 0.030217 0.000000 -0.122237 0.000000
# 2 -0.007028 0.032504 -0.009819 0.000000 0.005763 0.000000
# 3 0.030217 -0.009819 0.031998 0.000000 -0.082152 0.000000
# 4 0.000000 0.000000 0.000000 0.034753 0.000000 -0.011247
# 5 -0.122237 0.005763 -0.082152 0.000000 0.314184 0.000000
# 6 0.000000 0.000000 0.000000 -0.011247 0.000000 0.034650
#
#
# Mechanical properties :
#
#
# Convention : Reuss Voigt Hill
#
# Bulk Modulus (GPa) = 6.58588 49.35434 27.97011
# Shear Modulus (GPa) = 9.38858 30.60703 19.99781
#
# Velocity S-wave (km/s) = 2.13695 3.85838 3.11878
# Velocity P-wave (km/s) = 3.04829 6.62231 5.15495
#
# Compressibility (1/GPa) = 0.15183999
#
# Stress axis : x y z
#
# Youngs Moduli (GPa) = 16.50208 30.76585 31.25178
#
# Poissons Ratio (x) = 0.21623 -0.94435
# Poissons Ratio (y) = 0.11598 0.30687
# Poissons Ratio (z) = -0.49865 0.30210
#
# Static dielectric constant tensor:
#      x y z
#    x 1.796460 0.000000 -0.032460 
#    y 0.000000 1.717200 0.000000 
#    z -0.032460 0.000000 1.780680 
# 
# From -- ./inp_files/54452.got.cif
#   From: 2010.05.17/outbox.cif.g08.bks.cpg/sg11_28_cif.got.tgz:54452.got - 2010.06.03 12:22:45.
