data_PCOD9158038
_publ_section_title
;
Structure prediction by ZEFSAII (Michael W. Deem and Ramdas Pophale) SiO2 
 PCOD9158038
Probable space group: P 21/M
;
_chemical_formula_sum "Si O2"
_cell_formula_units_Z 32
_cell_length_a 11.484212
_cell_length_b 10.004374
_cell_length_c 13.116058
_cell_angle_alpha 90.000000
_cell_angle_beta 83.136958
_cell_angle_gamma 90.000000
_cell_volume 1496.137004
_symmetry_space_group_name_H-M "P 21/M"
_symmetry_group_IT_number 11
_symmetry_cell_setting 'monoclinic'
loop_
_space_group_symop_operation_xyz
x,y,z
-x,1/2+y,-z
-x,-y,-z
x,1/2-y,z
loop_
_atom_site_type_symbol
_atom_site_label
_atom_site_fract_x
_atom_site_fract_y
_atom_site_fract_z
Si Si1 0.974970 0.402785 0.652511
Si Si2 0.644582 0.902178 0.814995
Si Si3 0.211433 0.404958 0.415684
Si Si4 0.793020 0.907760 0.260317
Si Si5 0.399097 0.597213 0.468776
Si Si6 0.899772 0.110589 0.099077
Si Si7 0.870344 0.477937 0.877988
Si Si8 0.469870 0.101663 0.753462
O O1 0.963616 0.250000 0.613557
O O2 0.909623 0.519640 0.597681
O O3 0.910971 0.405126 0.770367
O O4 0.110707 0.436542 0.662277
O O5 0.619594 0.750000 0.846285
O O6 0.713299 0.898121 0.698106
O O7 0.739074 0.970599 0.878749
O O8 0.527027 0.989549 0.818040
O O9 0.201225 0.250000 0.452198
O O10 0.283198 0.506683 0.479835
O O11 0.804374 0.750000 0.243171
O O12 0.654946 0.936278 0.283944
O O13 0.835479 0.987261 0.157128
O O14 0.500000 0.500000 0.500000
O O15 0.392197 0.750000 0.512651
O O16 0.437346 0.614894 0.347525
O O17 0.851246 0.250000 0.144279
O O18 0.035459 0.096693 0.116897
O O19 0.887215 0.103896 0.979396
O O20 0.456880 0.250000 0.802152
#
# Coordination Sequence:
#
# PCOD9158038 Si02
#       8
#     4   4   4   4   4   4   4   4
#     4   9  16  28  48  70  93 124 160 196 235 279
#     4   9  17  29  47  69  92 121 156 196 238 278
#     4   9  17  29  46  72 102 125 152 192 235 277
#     4   9  19  34  49  67  94 128 162 195 237 285
#     4  10  19  32  53  78 102 126 153 188 232 280
#     4  10  19  30  47  70  94 123 162 204 244 287
#     4   9  18  29  45  68  97 124 154 200 251 289
#     4   9  19  35  52  70  95 127 158 189 229 282
#
# _framework density 21.388415999999999
#
# number of rings (size 3 to 8) (size 9 to 14) (size 15 to 20)
#    0.000    2.750    0.000    1.500    0.000   11.000 
#    0.000    0.625    0.000    0.750    0.000    0.000 
#    0.000    0.000    0.000    0.000    0.000    0.000 
#
# Total GULP energy -178370.945382 kJ/mol
# GULP energy per Si atom -5574.092043 kJ/mol
# Density = 2.133974 g / cm^3
# Si number density = 21.388416 Si / 1000 Ang^3
#
#
#
# Elastic Constant Matrix: (Units=GPa)
#
#
# Indices 1 2 3 4 5 6 
#
# 1 150.5984 91.3509 17.6707 0.0000 23.1597 0.0000
# 2 91.3509 138.1339 23.9451 0.0000 26.5919 0.0000
# 3 17.6707 23.9451 20.1693 0.0000 4.4836 0.0000
# 4 0.0000 0.0000 0.0000 71.1978 0.0000 85.6178
# 5 23.1597 26.5919 4.4836 0.0000 26.2927 0.0000
# 6 0.0000 0.0000 0.0000 85.6178 0.0000 126.5278
#
#
#
# Elastic Compliance Matrix: (Units=1/GPa)
#
#
# Indices 1 2 3 4 5 6 
#
# 1 0.011299 -0.006670 -0.001318 0.000000 -0.002982 0.000000
# 2 -0.006670 0.014828 -0.010116 0.000000 -0.007396 0.000000
# 3 -0.001318 -0.010116 0.062585 0.000000 0.000719 0.000000
# 4 0.000000 0.000000 0.000000 0.075400 0.000000 -0.051021
# 5 -0.002982 -0.007396 0.000719 0.000000 0.048018 0.000000
# 6 0.000000 0.000000 0.000000 -0.051021 0.000000 0.042428
#
#
# Mechanical properties :
#
#
# Convention : Reuss Voigt Hill
#
# Bulk Modulus (GPa) = 19.04606 63.87058 41.45832
# Shear Modulus (GPa) = 16.21976 56.53265 36.37620
#
# Velocity S-wave (km/s) = 2.75679 5.14673 4.12848
# Velocity P-wave (km/s) = 4.36548 8.07747 6.49241
#
# Compressibility (1/GPa) = 0.05250431
#
# Stress axis : x y z
#
# Youngs Moduli (GPa) = 88.50082 67.44153 15.97837
#
# Poissons Ratio (x) = 0.44983 0.02106
# Poissons Ratio (y) = 0.59029 0.16163
# Poissons Ratio (z) = 0.11665 0.68222
#
# Static dielectric constant tensor:
#      x y z
#    x 1.782100 0.000000 0.003130 
#    y 0.000000 1.778420 0.000000 
#    z 0.003130 0.000000 1.804490 
# 
# From -- ./inp_files/49300.got.cif
#   From: 2010.05.17/outbox.cif.g08.bks.cpg/sg11_25_cif.got.tgz:49300.got - 2010.06.03 12:22:45.
