data_PCOD9158018
_publ_section_title
;
Structure prediction by ZEFSAII (Michael W. Deem and Ramdas Pophale) SiO2 
 PCOD9158018
Probable space group: P 21/M
;
_chemical_formula_sum "Si O2"
_cell_formula_units_Z 32
_cell_length_a 22.297853
_cell_length_b 8.519004
_cell_length_c 22.360775
_cell_angle_alpha 90.000000
_cell_angle_beta 154.834580
_cell_angle_gamma 90.000000
_cell_volume 1806.199859
_symmetry_space_group_name_H-M "P 21/M"
_symmetry_group_IT_number 11
_symmetry_cell_setting 'monoclinic'
loop_
_space_group_symop_operation_xyz
x,y,z
-x,1/2+y,-z
-x,-y,-z
x,1/2-y,z
loop_
_atom_site_type_symbol
_atom_site_label
_atom_site_fract_x
_atom_site_fract_y
_atom_site_fract_z
Si Si1 0.688390 0.060441 0.500396
Si Si2 0.440684 0.559393 0.741883
Si Si3 0.630789 0.438492 0.195787
Si Si4 0.380541 0.437777 0.436117
Si Si5 0.062342 0.437750 0.117871
Si Si6 0.245711 0.938068 0.947102
Si Si7 0.993878 0.562267 0.181742
Si Si8 0.683531 0.059734 0.116964
O O1 0.684923 0.250000 0.498413
O O2 0.624474 0.007193 0.379726
O O3 0.851390 0.010465 0.655376
O O4 0.605713 0.998809 0.483702
O O5 0.444825 0.750000 0.745538
O O6 0.350030 0.507420 0.718498
O O7 0.599801 0.498691 0.894068
O O8 0.639620 0.250000 0.205010
O O9 0.719670 0.490916 0.217590
O O10 0.470565 0.489099 0.036169
O O11 0.500000 0.500000 0.500000
O O12 0.383470 0.250000 0.439187
O O13 0.225208 0.489671 0.273433
O O14 0.059358 0.250000 0.114989
O O15 0.979806 0.498361 0.101723
O O16 0.000000 0.500000 0.000000
O O17 0.245324 0.750000 0.950028
O O18 0.224568 0.984510 0.857963
O O19 0.127019 0.004334 0.883285
O O20 0.992299 0.750000 0.178239
O O21 0.672546 0.250000 0.106905
#
# Coordination Sequence:
#
# PCOD9158018 Si02
#       8
#     4   4   4   4   4   4   4   4
#     4   9  19  35  53  72  96 127 162 198 238 284
#     4   9  17  30  49  73  98 124 159 203 245 286
#     4   8  13  23  41  64  90 121 155 193 239 285
#     4  10  21  36  55  77 100 127 159 194 234 282
#     4  10  21  37  56  78 101 127 160 197 238 284
#     4  10  19  30  46  71 100 128 161 202 244 287
#     4  10  20  35  53  71  95 130 166 199 238 284
#     4   8  14  24  39  62  92 123 155 193 238 285
#
# _framework density 17.716754000000002
#
# number of rings (size 3 to 8) (size 9 to 14) (size 15 to 20)
#    0.000    2.750    0.000    1.500    0.000    4.000 
#    0.000    1.250    0.000    0.750    0.000    0.000 
#    0.000    0.000    0.000    0.000    0.000    1.250 
#
# Total GULP energy -178221.411322 kJ/mol
# GULP energy per Si atom -5569.419104 kJ/mol
# Density = 1.767643 g / cm^3
# Si number density = 17.716754 Si / 1000 Ang^3
#
#
#
# Elastic Constant Matrix: (Units=GPa)
#
#
# Indices 1 2 3 4 5 6 
#
# 1 213.3133 28.5461 80.2951 0.0000 -31.0294 0.0000
# 2 28.5461 17.9612 14.7109 0.0000 -6.3016 0.0000
# 3 80.2951 14.7109 54.8234 0.0000 -23.0669 0.0000
# 4 0.0000 0.0000 0.0000 16.7141 0.0000 -4.0328
# 5 -31.0294 -6.3016 -23.0669 0.0000 27.9325 0.0000
# 6 0.0000 0.0000 0.0000 -4.0328 0.0000 17.8861
#
#
#
# Elastic Compliance Matrix: (Units=1/GPa)
#
#
# Indices 1 2 3 4 5 6 
#
# 1 0.010895 -0.005456 -0.015201 0.000000 -0.001680 0.000000
# 2 -0.005456 0.074094 -0.011352 0.000000 0.001280 0.000000
# 3 -0.015201 -0.011352 0.054199 0.000000 0.025311 0.000000
# 4 0.000000 0.000000 0.000000 0.063272 0.000000 0.014266
# 5 -0.001680 0.001280 0.025311 0.000000 0.055125 0.000000
# 6 0.000000 0.000000 0.000000 0.014266 0.000000 0.059126
#
#
# Mechanical properties :
#
#
# Convention : Reuss Voigt Hill
#
# Bulk Modulus (GPa) = 13.30305 59.24469 36.27387
# Shear Modulus (GPa) = 12.32177 23.34293 17.83235
#
# Velocity S-wave (km/s) = 2.64007 3.63376 3.17602
# Velocity P-wave (km/s) = 4.10102 7.14970 5.82823
#
# Compressibility (1/GPa) = 0.07517071
#
# Stress axis : x y z
#
# Youngs Moduli (GPa) = 91.78161 13.49640 18.45046
#
# Poissons Ratio (x) = 0.07364 0.28046
# Poissons Ratio (y) = 0.50076 0.20946
# Poissons Ratio (z) = 1.39513 0.15322
#
# Static dielectric constant tensor:
#      x y z
#    x 1.636920 0.000000 -0.022030 
#    y 0.000000 1.610470 0.000000 
#    z -0.022030 0.000000 1.591130 
# 
# From -- ./inp_files/66475.got.cif
#   From: 2010.05.17/outbox.cif.g08.bks.cpg/sg11_34_cif.got.tgz:66475.got - 2010.06.03 12:22:45.
