data_PCOD9158629
_publ_section_title
;
Structure prediction by ZEFSAII (Michael W. Deem and Ramdas Pophale) SiO2 
 PCOD9158629
Probable space group: P 21/M
;
_chemical_formula_sum "Si O2"
_cell_formula_units_Z 28
_cell_length_a 10.210498
_cell_length_b 8.085076
_cell_length_c 33.192625
_cell_angle_alpha 90.000000
_cell_angle_beta 32.416359
_cell_angle_gamma 90.000000
_cell_volume 1468.900531
_symmetry_space_group_name_H-M "P 21/M"
_symmetry_group_IT_number 11
_symmetry_cell_setting 'monoclinic'
loop_
_space_group_symop_operation_xyz
x,y,z
-x,1/2+y,-z
-x,-y,-z
x,1/2-y,z
loop_
_atom_site_type_symbol
_atom_site_label
_atom_site_fract_x
_atom_site_fract_y
_atom_site_fract_z
Si Si1 0.459097 0.447081 0.706015
Si Si2 0.011228 0.550147 0.450708
Si Si3 0.700661 0.950336 0.870395
Si Si4 0.147343 0.446422 0.001599
Si Si5 0.507083 0.550706 0.543942
Si Si6 0.012694 0.447392 0.124913
Si Si7 0.175805 0.549743 0.700468
O O1 0.456611 0.250000 0.711817
O O2 0.737859 0.508414 0.635265
O O3 0.260165 0.520291 0.788135
O O4 0.360410 0.490498 0.687173
O O5 0.014159 0.750000 0.447966
O O6 0.000000 0.500000 0.500000
O O7 0.763010 0.488683 0.495269
O O8 0.696414 0.750000 0.872509
O O9 0.799305 0.008696 0.888933
O O10 0.907380 0.003477 0.784536
O O11 0.434310 0.010332 0.927183
O O12 0.121455 0.250000 0.009767
O O13 0.000000 0.500000 0.000000
O O14 0.052129 0.514753 0.069643
O O15 0.500000 0.500000 0.500000
O O16 0.507753 0.750000 0.546249
O O17 0.281738 0.492922 0.630264
O O18 0.048975 0.250000 0.114063
O O19 0.175605 0.750000 0.701301
#
# Coordination Sequence:
#
# PCOD9158629 Si02
#       7
#     4   4   4   4   4   4   4
#     4  10  19  31  54  87 113 136 178 231 275 314
#     4  10  20  34  55  81 110 143 182 227 272 321
#     4   9  18  35  60  85 108 138 181 227 270 322
#     4  11  23  39  58  82 113 147 181 219 270 326
#     4  10  21  37  54  76 110 149 187 227 271 321
#     4   9  20  38  59  82 110 145 182 220 267 328
#     4   9  18  35  57  79 110 147 182 222 271 326
#
# _framework density 19.061878
#
# number of rings (size 3 to 8) (size 9 to 14) (size 15 to 20)
#    0.000    2.286    1.429    2.143    0.000    5.143 
#    2.571    0.000    0.000    0.000    0.000    0.000 
#    0.000    0.000    0.000    0.000    0.000    0.000 
#
# Total GULP energy -156155.092503 kJ/mol
# GULP energy per Si atom -5576.967589 kJ/mol
# Density = 1.901849 g / cm^3
# Si number density = 19.061878 Si / 1000 Ang^3
#
#
#
# Elastic Constant Matrix: (Units=GPa)
#
#
# Indices 1 2 3 4 5 6 
#
# 1 152.8208 13.4677 108.4214 0.0000 7.1423 0.0000
# 2 13.4677 6.9819 14.0816 0.0000 1.2433 0.0000
# 3 108.4214 14.0816 146.0393 0.0000 4.3278 0.0000
# 4 0.0000 0.0000 0.0000 24.3236 0.0000 0.0425
# 5 7.1423 1.2433 4.3278 0.0000 26.2586 0.0000
# 6 0.0000 0.0000 0.0000 0.0425 0.0000 25.3600
#
#
#
# Elastic Compliance Matrix: (Units=1/GPa)
#
#
# Indices 1 2 3 4 5 6 
#
# 1 0.014236 -0.007347 -0.009804 0.000000 -0.001908 0.000000
# 2 -0.007347 0.182429 -0.011998 0.000000 -0.004662 0.000000
# 3 -0.009804 -0.011998 0.015262 0.000000 0.000719 0.000000
# 4 0.000000 0.000000 0.000000 0.041112 0.000000 -0.000069
# 5 -0.001908 -0.004662 0.000719 0.000000 0.038704 0.000000
# 6 0.000000 0.000000 0.000000 -0.000069 0.000000 0.039432
#
#
# Mechanical properties :
#
#
# Convention : Reuss Voigt Hill
#
# Bulk Modulus (GPa) = 6.50920 64.19817 35.35368
# Shear Modulus (GPa) = 11.34606 26.51318 18.92962
#
# Velocity S-wave (km/s) = 2.44237 3.73352 3.15471
# Velocity P-wave (km/s) = 3.37279 7.23447 5.64417
#
# Compressibility (1/GPa) = 0.15362865
#
# Stress axis : x y z
#
# Youngs Moduli (GPa) = 70.24546 5.48160 65.52430
#
# Poissons Ratio (x) = 0.04027 0.64239
# Poissons Ratio (y) = 0.51610 0.78614
# Poissons Ratio (z) = 0.68868 0.06577
#
# Static dielectric constant tensor:
#      x y z
#    x 1.636040 0.000000 0.007470 
#    y 0.000000 1.679390 0.000000 
#    z 0.007470 0.000000 1.687760 
# 
# From -- ./inp_files/72721.got.cif
#   From: 2010.05.17/outbox.cif.g08.bks.cpg/sg11_37_cif.got.tgz:72721.got - 2010.06.03 12:22:45.
