data_PCOD9158473
_publ_section_title
;
Structure prediction by ZEFSAII (Michael W. Deem and Ramdas Pophale) SiO2 
 PCOD9158473
Probable space group: P 21/M
;
_chemical_formula_sum "Si O2"
_cell_formula_units_Z 32
_cell_length_a 16.166071
_cell_length_b 8.935343
_cell_length_c 28.530798
_cell_angle_alpha 90.000000
_cell_angle_beta 152.329297
_cell_angle_gamma 90.000000
_cell_volume 1913.867175
_symmetry_space_group_name_H-M "P 21/M"
_symmetry_group_IT_number 11
_symmetry_cell_setting 'monoclinic'
loop_
_space_group_symop_operation_xyz
x,y,z
-x,1/2+y,-z
-x,-y,-z
x,1/2-y,z
loop_
_atom_site_type_symbol
_atom_site_label
_atom_site_fract_x
_atom_site_fract_y
_atom_site_fract_z
Si Si1 0.297154 0.071170 0.674991
Si Si2 0.307599 0.928976 0.579018
Si Si3 0.708320 0.428853 0.155667
Si Si4 0.687166 0.430302 0.766292
Si Si5 0.940648 0.930329 0.083354
Si Si6 0.295946 0.430423 0.947712
Si Si7 0.710247 0.427942 0.886355
Si Si8 0.936644 0.569689 0.352619
O O1 0.281346 0.250000 0.658947
O O2 0.501990 0.041949 0.792351
O O3 0.166325 0.027515 0.651135
O O4 0.265213 0.988191 0.610081
O O5 0.319457 0.750000 0.586416
O O6 0.143212 0.971228 0.463127
O O7 0.497528 0.997077 0.660108
O O8 0.722346 0.250000 0.161522
O O9 0.745104 0.495686 0.122762
O O10 0.839000 0.495398 0.259984
O O11 0.501465 0.467661 0.063255
O O12 0.667205 0.250000 0.755033
O O13 0.735583 0.470088 0.844564
O O14 0.852960 0.476028 0.817305
O O15 0.936894 0.750000 0.080727
O O16 0.836811 0.979929 0.077802
O O17 0.835876 0.988066 0.985368
O O18 0.285053 0.250000 0.937651
O O19 0.740203 0.250000 0.905498
O O20 0.923978 0.750000 0.341954
#
# Coordination Sequence:
#
# PCOD9158473 Si02
#       8
#     4   4   4   4   4   4   4   4
#     4   9  18  32  48  69 100 134 163 194 237 285
#     4  10  20  32  48  71  97 129 167 203 239 277
#     4  10  20  33  52  77 101 127 157 190 236 292
#     4   9  19  34  48  66  96 132 166 200 241 283
#     4  10  19  31  50  72  94 126 165 200 238 286
#     4   9  19  35  52  73 101 127 154 194 241 287
#     4   9  17  28  44  69 100 130 158 192 236 283
#     4  10  20  33  50  72  99 130 162 198 241 285
#
# _framework density 16.720074
#
# number of rings (size 3 to 8) (size 9 to 14) (size 15 to 20)
#    0.000    2.500    0.000    3.000    0.000    5.000 
#    0.000    0.000    0.000    0.750    0.000    0.000 
#    0.000    0.000    0.000    0.000    0.000    0.000 
#
# Total GULP energy -178528.525374 kJ/mol
# GULP energy per Si atom -5579.016418 kJ/mol
# Density = 1.668202 g / cm^3
# Si number density = 16.720074 Si / 1000 Ang^3
#
#
#
# Elastic Constant Matrix: (Units=GPa)
#
#
# Indices 1 2 3 4 5 6 
#
# 1 116.2069 35.5611 90.0902 0.0000 21.4282 0.0000
# 2 35.5611 21.7865 47.8219 0.0000 2.5421 0.0000
# 3 90.0902 47.8219 146.9606 0.0000 0.4974 0.0000
# 4 0.0000 0.0000 0.0000 28.5961 0.0000 -3.4712
# 5 21.4282 2.5421 0.4974 0.0000 17.0828 0.0000
# 6 0.0000 0.0000 0.0000 -3.4712 0.0000 20.1310
#
#
#
# Elastic Compliance Matrix: (Units=1/GPa)
#
#
# Indices 1 2 3 4 5 6 
#
# 1 0.030296 -0.016973 -0.012930 0.000000 -0.035100 0.000000
# 2 -0.016973 0.179195 -0.047893 0.000000 -0.003980 0.000000
# 3 -0.012930 -0.047893 0.030239 0.000000 0.022466 0.000000
# 4 0.000000 0.000000 0.000000 0.035717 0.000000 0.006159
# 5 -0.035100 -0.003980 0.022466 0.000000 0.102505 0.000000
# 6 0.000000 0.000000 0.000000 0.006159 0.000000 0.050736
#
#
# Mechanical properties :
#
#
# Convention : Reuss Voigt Hill
#
# Bulk Modulus (GPa) = 11.88521 70.21116 41.04819
# Shear Modulus (GPa) = 8.16556 20.59405 14.37981
#
# Velocity S-wave (km/s) = 2.21230 3.51336 2.93581
# Velocity P-wave (km/s) = 3.69452 7.65125 6.00796
#
# Compressibility (1/GPa) = 0.08413820
#
# Stress axis : x y z
#
# Youngs Moduli (GPa) = 33.00771 5.58052 33.06934
#
# Poissons Ratio (x) = 0.09472 0.42759
# Poissons Ratio (y) = 0.56025 1.58378
# Poissons Ratio (z) = 0.42679 0.26727
#
# Static dielectric constant tensor:
#      x y z
#    x 1.557370 0.000000 0.027470 
#    y 0.000000 1.556740 0.000000 
#    z 0.027470 0.000000 1.550180 
# 
# From -- ./inp_files/51614.got.cif
#   From: 2010.05.17/outbox.cif.g08.bks.cpg/sg11_26_cif.got.tgz:51614.got - 2010.06.03 12:22:45.
