data_PCOD9158169
_publ_section_title
;
Structure prediction by ZEFSAII (Michael W. Deem and Ramdas Pophale) SiO2 
 PCOD9158169
Probable space group: P 21/M
;
_chemical_formula_sum "Si O2"
_cell_formula_units_Z 32
_cell_length_a 8.259626
_cell_length_b 11.727468
_cell_length_c 14.693513
_cell_angle_alpha 90.000000
_cell_angle_beta 78.481955
_cell_angle_gamma 90.000000
_cell_volume 1394.617585
_symmetry_space_group_name_H-M "P 21/M"
_symmetry_group_IT_number 11
_symmetry_cell_setting 'monoclinic'
loop_
_space_group_symop_operation_xyz
x,y,z
-x,1/2+y,-z
-x,-y,-z
x,1/2-y,z
loop_
_atom_site_type_symbol
_atom_site_label
_atom_site_fract_x
_atom_site_fract_y
_atom_site_fract_z
Si Si1 0.221008 0.117124 0.711356
Si Si2 0.464873 0.879290 0.105130
Si Si3 0.709270 0.121576 0.492023
Si Si4 0.497394 0.543965 0.642322
Si Si5 0.972486 0.382481 0.594374
Si Si6 0.755550 0.545785 0.745701
Si Si7 0.004153 0.952555 0.855894
Si Si8 0.745835 0.452617 0.031905
O O1 0.231854 0.250000 0.728603
O O2 0.392753 0.053665 0.704133
O O3 0.157492 0.101445 0.612779
O O4 0.088143 0.055467 0.790033
O O5 0.469642 0.750000 0.137600
O O6 0.347488 0.960048 0.178254
O O7 0.643133 0.938266 0.078611
O O8 0.385408 0.881463 0.012091
O O9 0.663117 0.250000 0.528457
O O10 0.611553 0.025741 0.558907
O O11 0.903447 0.108342 0.498435
O O12 0.641230 0.113203 0.397334
O O13 0.618721 0.606978 0.698582
O O14 0.938931 0.250000 0.623701
O O15 0.860299 0.466762 0.665493
O O16 0.886973 0.609667 0.795431
O O17 0.881135 0.003788 0.944736
O O18 0.153816 0.896590 0.895859
#
# Coordination Sequence:
#
# PCOD9158169 Si02
#       8
#     4   4   4   4   4   4   4   4
#     4  10  19  30  50  79 102 123 161 213 261 300
#     4  10  19  32  53  77 100 128 164 209 255 295
#     4   9  18  33  50  69 100 138 167 198 248 304
#     4  10  19  30  50  78 102 128 168 213 250 289
#     4   8  15  28  45  70 101 128 159 200 246 296
#     4   9  17  29  48  73 100 129 164 204 252 294
#     4   9  18  33  49  67 103 137 157 195 249 301
#     4   9  19  33  50  75 102 129 163 198 244 307
#
# _framework density 22.945357999999999
#
# number of rings (size 3 to 8) (size 9 to 14) (size 15 to 20)
#    0.000    2.750    0.000    1.500    0.000    6.500 
#    0.000    3.125    0.000   13.500    0.000    0.000 
#    0.000    0.000    0.000    0.000    0.000    0.000 
#
# Total GULP energy -178270.030681 kJ/mol
# GULP energy per Si atom -5570.938459 kJ/mol
# Density = 2.289313 g / cm^3
# Si number density = 22.945358 Si / 1000 Ang^3
#
#
#
# Elastic Constant Matrix: (Units=GPa)
#
#
# Indices 1 2 3 4 5 6 
#
# 1 143.4622 12.1096 46.6235 0.0000 52.3413 0.0000
# 2 12.1096 53.0514 11.2574 0.0000 -0.9927 0.0000
# 3 46.6235 11.2574 74.6750 0.0000 27.7089 0.0000
# 4 0.0000 0.0000 0.0000 5.7198 0.0000 4.7791
# 5 52.3413 -0.9927 27.7089 0.0000 69.8526 0.0000
# 6 0.0000 0.0000 0.0000 4.7791 0.0000 0.0099
#
#
#
# Elastic Compliance Matrix: (Units=1/GPa)
#
#
# Indices 1 2 3 4 5 6 
#
# 1 0.010817 -0.001726 -0.004077 0.000000 -0.006513 0.000000
# 2 -0.001726 0.019920 -0.002943 0.000000 0.002744 0.000000
# 3 -0.004077 -0.002943 0.017897 0.000000 -0.004086 0.000000
# 4 0.000000 0.000000 0.000000 -0.000434 0.000000 0.209764
# 5 -0.006513 0.002744 -0.004086 0.000000 0.020856 0.000000
# 6 0.000000 0.000000 0.000000 0.209764 0.000000 -0.251055
#
#
# Mechanical properties :
#
#
# Convention : Reuss Voigt Hill
#
# Bulk Modulus (GPa) = 32.11218 45.68553 38.89885
# Shear Modulus (GPa) = -32.44092 28.52967 -1.95562
#
# Velocity S-wave (km/s) = -3.76418 3.52998 -0.92420
# Velocity P-wave (km/s) = 2.20603 6.04716 3.98130
#
# Compressibility (1/GPa) = 0.03114083
#
# Stress axis : x y z
#
# Youngs Moduli (GPa) = 92.44474 50.20194 55.87600
#
# Poissons Ratio (x) = 0.08664 0.22781
# Poissons Ratio (y) = 0.15955 0.16447
# Poissons Ratio (z) = 0.37690 0.14777
#
# Static dielectric constant tensor:
#      x y z
#    x 1.922780 0.000000 0.106570 
#    y 0.000000 1.793180 0.000000 
#    z 0.106570 0.000000 1.925520 
# 
# From -- ./inp_files/47437.got.cif
#   From: 2010.05.17/outbox.cif.g08.bks.cpg/sg11_24_cif.got.tgz:47437.got - 2010.06.03 12:22:45.
