data_PCOD9158879
_publ_section_title
;
Structure prediction by ZEFSAII (Michael W. Deem and Ramdas Pophale) SiO2 
 PCOD9158879
Probable space group: P 21/M
;
_chemical_formula_sum "Si O2"
_cell_formula_units_Z 32
_cell_length_a 14.283107
_cell_length_b 9.462453
_cell_length_c 20.527026
_cell_angle_alpha 90.000000
_cell_angle_beta 36.477415
_cell_angle_gamma 90.000000
_cell_volume 1649.333984
_symmetry_space_group_name_H-M "P 21/M"
_symmetry_group_IT_number 11
_symmetry_cell_setting 'monoclinic'
loop_
_space_group_symop_operation_xyz
x,y,z
-x,1/2+y,-z
-x,-y,-z
x,1/2-y,z
loop_
_atom_site_type_symbol
_atom_site_label
_atom_site_fract_x
_atom_site_fract_y
_atom_site_fract_z
Si Si1 0.368183 0.918719 0.716357
Si Si2 0.428890 0.587059 0.941943
Si Si3 0.176627 0.085896 0.154256
Si Si4 0.052656 0.918793 0.835265
Si Si5 0.303457 0.916494 0.277306
Si Si6 0.193812 0.588396 0.949182
Si Si7 0.336627 0.583746 0.410325
Si Si8 0.973425 0.915261 0.619220
O O1 0.393617 0.750000 0.699008
O O2 0.235238 0.960915 0.738261
O O3 0.284540 0.950488 0.832666
O O4 0.533323 0.997835 0.623153
O O5 0.468069 0.750000 0.935329
O O6 0.581024 0.498782 0.836011
O O7 0.316738 0.585207 0.940549
O O8 0.325269 0.512433 0.055480
O O9 0.220184 0.250000 0.117057
O O10 0.107893 0.075780 0.264619
O O11 0.037152 0.047769 0.181484
O O12 0.048214 0.750000 0.846412
O O13 0.949709 0.989676 0.949646
O O14 0.298534 0.750000 0.265766
O O15 0.363131 0.934920 0.317919
O O16 0.131559 0.985933 0.367640
O O17 0.137948 0.750000 0.973213
O O18 0.350793 0.750000 0.417265
O O19 0.155390 0.542200 0.523338
O O20 0.969244 0.750000 0.600177
#
# Coordination Sequence:
#
# PCOD9158879 Si02
#       8
#     4   4   4   4   4   4   4   4
#     4  10  19  32  51  78 110 142 176 215 266 318
#     4  10  19  33  55  82 113 144 174 216 267 320
#     4   9  19  37  57  78 109 145 182 221 261 312
#     4   9  18  31  51  78 107 141 178 216 260 311
#     4  11  22  36  57  84 109 134 175 225 274 326
#     4   9  17  29  47  75 109 142 173 210 262 317
#     4  10  22  38  56  80 108 140 179 223 270 320
#     4  10  22  40  59  77 103 143 184 223 270 318
#
# _framework density 19.401769999999999
#
# number of rings (size 3 to 8) (size 9 to 14) (size 15 to 20)
#    0.000    2.250    1.250    1.500    0.000    3.500 
#    0.000    0.625    0.000    0.000    0.000    0.000 
#    0.000    0.000    0.000    0.000    0.000    0.000 
#
# Total GULP energy -178690.421591 kJ/mol
# GULP energy per Si atom -5584.075675 kJ/mol
# Density = 1.935761 g / cm^3
# Si number density = 19.401770 Si / 1000 Ang^3
#
#
#
# Elastic Constant Matrix: (Units=GPa)
#
#
# Indices 1 2 3 4 5 6 
#
# 1 50.0975 26.9078 20.5126 0.0000 -25.4705 0.0000
# 2 26.9078 65.5363 54.4747 0.0000 -22.0163 0.0000
# 3 20.5126 54.4747 97.0105 0.0000 -33.8645 0.0000
# 4 0.0000 0.0000 0.0000 33.3542 0.0000 -9.9965
# 5 -25.4705 -22.0163 -33.8645 0.0000 36.4664 0.0000
# 6 0.0000 0.0000 0.0000 -9.9965 0.0000 18.9865
#
#
#
# Elastic Compliance Matrix: (Units=1/GPa)
#
#
# Indices 1 2 3 4 5 6 
#
# 1 0.036834 -0.014018 0.009040 0.000000 0.025660 0.000000
# 2 -0.014018 0.034252 -0.018449 0.000000 -0.006245 0.000000
# 3 0.009040 -0.018449 0.025262 0.000000 0.018635 0.000000
# 4 0.000000 0.000000 0.000000 0.035599 0.000000 0.018743
# 5 0.025660 -0.006245 0.018635 0.000000 0.058880 0.000000
# 6 0.000000 0.000000 0.000000 0.018743 0.000000 0.062537
#
#
# Mechanical properties :
#
#
# Convention : Reuss Voigt Hill
#
# Bulk Modulus (GPa) = 20.20453 46.27052 33.23752
# Shear Modulus (GPa) = 15.78707 25.14470 20.46589
#
# Velocity S-wave (km/s) = 2.85562 3.60391 3.25136
# Velocity P-wave (km/s) = 4.61618 6.42012 5.59138
#
# Compressibility (1/GPa) = 0.04949386
#
# Stress axis : x y z
#
# Youngs Moduli (GPa) = 27.14859 29.19572 39.58570
#
# Poissons Ratio (x) = 0.40925 -0.35786
# Poissons Ratio (y) = 0.38056 0.73033
# Poissons Ratio (z) = -0.24543 0.53864
#
# Static dielectric constant tensor:
#      x y z
#    x 1.715520 0.000000 -0.010940 
#    y 0.000000 1.657150 0.000000 
#    z -0.010940 0.000000 1.660400 
# 
# From -- ./inp_files/55725.got.cif
#   From: 2010.05.17/outbox.cif.g08.bks.cpg/sg11_28_cif.got.tgz:55725.got - 2010.06.03 12:22:45.
