data_PCOD9158851
_publ_section_title
;
Structure prediction by ZEFSAII (Michael W. Deem and Ramdas Pophale) SiO2 
 PCOD9158851
Probable space group: P 21/M
;
_chemical_formula_sum "Si O2"
_cell_formula_units_Z 28
_cell_length_a 21.039266
_cell_length_b 8.891740
_cell_length_c 12.171139
_cell_angle_alpha 90.000000
_cell_angle_beta 54.278114
_cell_angle_gamma 90.000000
_cell_volume 1848.544920
_symmetry_space_group_name_H-M "P 21/M"
_symmetry_group_IT_number 11
_symmetry_cell_setting 'monoclinic'
loop_
_space_group_symop_operation_xyz
x,y,z
-x,1/2+y,-z
-x,-y,-z
x,1/2-y,z
loop_
_atom_site_type_symbol
_atom_site_label
_atom_site_fract_x
_atom_site_fract_y
_atom_site_fract_z
Si Si1 0.774273 0.571030 0.104903
Si Si2 0.916267 0.426774 0.067060
Si Si3 0.764573 0.074030 0.338598
Si Si4 0.413062 0.069022 0.082464
Si Si5 0.650169 0.930486 0.614356
Si Si6 0.350789 0.930754 0.922308
Si Si7 0.499603 0.930671 0.620960
O O1 0.772945 0.750000 0.099782
O O2 0.862826 0.508778 0.029146
O O3 0.735303 0.515258 0.259607
O O4 0.727316 0.495908 0.053670
O O5 0.923316 0.250000 0.035733
O O6 0.858661 0.441832 0.231420
O O7 0.000000 0.500000 0.000000
O O8 0.745804 0.250000 0.344890
O O9 0.725619 0.008083 0.485643
O O10 0.418572 0.250000 0.069134
O O11 0.369096 0.031389 0.240586
O O12 0.500000 0.000000 0.000000
O O13 0.369461 0.001575 0.021290
O O14 0.658298 0.750000 0.598876
O O15 0.575898 0.975638 0.614150
O O16 0.347515 0.750000 0.933203
O O17 0.422715 0.971756 0.768457
O O18 0.500479 0.750000 0.610562
O O19 0.500000 0.000000 0.500000
#
# Coordination Sequence:
#
# PCOD9158851 Si02
#       7
#     4   4   4   4   4   4   4
#     4  10  19  32  51  76 106 137 167 205 253 304
#     4   9  18  32  52  80 109 137 166 201 248 310
#     4   9  19  32  49  76 106 133 166 206 251 303
#     4  11  22  37  53  71  94 133 182 225 264 305
#     4  10  20  35  50  68  97 133 176 217 256 304
#     4  11  21  36  51  70  99 133 175 221 260 302
#     4  10  21  33  46  67  95 129 168 211 256 302
#
# _framework density 15.147048
#
# number of rings (size 3 to 8) (size 9 to 14) (size 15 to 20)
#    0.857    1.143    1.429    3.429    0.000    5.143 
#    0.000    0.000    0.000    0.000    0.000    1.000 
#    0.000    0.000    0.000    0.000    0.000    0.000 
#
# Total GULP energy -156024.511696 kJ/mol
# GULP energy per Si atom -5572.303989 kJ/mol
# Density = 1.511257 g / cm^3
# Si number density = 15.147048 Si / 1000 Ang^3
#
#
#
# Elastic Constant Matrix: (Units=GPa)
#
#
# Indices 1 2 3 4 5 6 
#
# 1 109.6318 55.2786 72.3228 0.0000 2.3310 0.0000
# 2 55.2786 81.0541 53.9261 0.0000 2.7618 0.0000
# 3 72.3228 53.9261 93.5956 0.0000 15.6021 0.0000
# 4 0.0000 0.0000 0.0000 26.5284 0.0000 1.3465
# 5 2.3310 2.7618 15.6021 0.0000 23.6431 0.0000
# 6 0.0000 0.0000 0.0000 1.3465 0.0000 26.1230
#
#
#
# Elastic Compliance Matrix: (Units=1/GPa)
#
#
# Indices 1 2 3 4 5 6 
#
# 1 0.021340 -0.004757 -0.015159 0.000000 0.008455 0.000000
# 2 -0.004757 0.021833 -0.009614 0.000000 0.004263 0.000000
# 3 -0.015159 -0.009614 0.030900 0.000000 -0.017773 0.000000
# 4 0.000000 0.000000 0.000000 0.037794 0.000000 -0.001948
# 5 0.008455 0.004263 -0.017773 0.000000 0.052693 0.000000
# 6 0.000000 0.000000 0.000000 -0.001948 0.000000 0.038381
#
#
# Mechanical properties :
#
#
# Convention : Reuss Voigt Hill
#
# Bulk Modulus (GPa) = 66.60737 71.92630 69.26683
# Shear Modulus (GPa) = 18.72634 22.10917 20.41775
#
# Velocity S-wave (km/s) = 3.51992 3.82466 3.67545
# Velocity P-wave (km/s) = 7.78390 8.19100 7.99004
#
# Compressibility (1/GPa) = 0.01501335
#
# Stress axis : x y z
#
# Youngs Moduli (GPa) = 46.86016 45.80291 32.36291
#
# Poissons Ratio (x) = 0.21788 0.49058
# Poissons Ratio (y) = 0.22290 0.31114
# Poissons Ratio (z) = 0.71033 0.44035
#
# Static dielectric constant tensor:
#      x y z
#    x 1.491670 0.000000 -0.008390 
#    y 0.000000 1.504420 0.000000 
#    z -0.008390 0.000000 1.495490 
# 
# From -- ./inp_files/42143.got.cif
#   From: 2010.05.17/outbox.cif.g08.bks.cpg/sg11_22_cif.got.tgz:42143.got - 2010.06.03 12:22:45.
