data_PCOD9158344
_publ_section_title
;
Structure prediction by ZEFSAII (Michael W. Deem and Ramdas Pophale) SiO2 
 PCOD9158344
Probable space group: P 21/M
;
_chemical_formula_sum "Si O2"
_cell_formula_units_Z 32
_cell_length_a 12.806939
_cell_length_b 8.895812
_cell_length_c 21.749887
_cell_angle_alpha 90.000000
_cell_angle_beta 126.142463
_cell_angle_gamma 90.000000
_cell_volume 2001.054769
_symmetry_space_group_name_H-M "P 21/M"
_symmetry_group_IT_number 11
_symmetry_cell_setting 'monoclinic'
loop_
_space_group_symop_operation_xyz
x,y,z
-x,1/2+y,-z
-x,-y,-z
x,1/2-y,z
loop_
_atom_site_type_symbol
_atom_site_label
_atom_site_fract_x
_atom_site_fract_y
_atom_site_fract_z
Si Si1 0.913724 0.069264 0.916278
Si Si2 0.461808 0.071108 0.082124
Si Si3 0.380319 0.930200 0.496158
Si Si4 0.985486 0.930435 0.184588
Si Si5 0.388333 0.570212 0.182972
Si Si6 0.706932 0.428993 0.081472
Si Si7 0.457571 0.070628 0.334678
Si Si8 0.214217 0.429695 0.340113
O O1 0.920388 0.250000 0.922928
O O2 0.966477 0.025938 0.867341
O O3 0.763474 0.025092 0.869847
O O4 0.000000 0.000000 0.000000
O O5 0.440702 0.250000 0.075295
O O6 0.597894 0.041477 0.095287
O O7 0.455477 0.005503 0.147944
O O8 0.351917 0.993506 0.002241
O O9 0.380203 0.750000 0.489155
O O10 0.417502 0.964277 0.579624
O O11 0.500000 0.000000 0.500000
O O12 0.256117 0.000307 0.420018
O O13 0.988337 0.750000 0.189780
O O14 0.084509 0.000982 0.267573
O O15 0.841489 0.992019 0.142879
O O16 0.394919 0.750000 0.180379
O O17 0.448541 0.516382 0.268020
O O18 0.724484 0.250000 0.082194
O O19 0.455832 0.250000 0.322905
O O20 0.330287 0.035310 0.331805
O O21 0.206195 0.250000 0.342194
#
# Coordination Sequence:
#
# PCOD9158344 Si02
#       8
#     4   4   4   4   4   4   4   4
#     4  10  22  34  45  67  97 132 165 199 243 294
#     4  10  21  37  55  74  98 129 168 214 259 300
#     4   9  17  29  46  69  98 133 170 206 246 296
#     4  11  21  34  51  73 102 135 169 206 252 300
#     4  11  21  33  50  73 101 132 169 208 249 297
#     4  10  21  37  55  75  98 127 169 216 257 299
#     4   9  18  31  47  70 100 135 169 202 246 296
#     4  10  19  31  48  72 101 136 171 206 248 296
#
# _framework density 15.991567
#
# number of rings (size 3 to 8) (size 9 to 14) (size 15 to 20)
#    0.000    2.000    1.250    3.750    0.000    8.000 
#    0.000    0.000    0.000    0.000    0.000    0.875 
#    0.000    0.000    0.000    0.000    0.000    0.000 
#
# Total GULP energy -178577.600190 kJ/mol
# GULP energy per Si atom -5580.550006 kJ/mol
# Density = 1.595517 g / cm^3
# Si number density = 15.991567 Si / 1000 Ang^3
#
#
#
# Elastic Constant Matrix: (Units=GPa)
#
#
# Indices 1 2 3 4 5 6 
#
# 1 49.3454 36.7199 50.6935 0.0000 -3.6030 0.0000
# 2 36.7199 56.6781 59.0793 0.0000 -2.7571 0.0000
# 3 50.6935 59.0793 153.5120 0.0000 -4.1167 0.0000
# 4 0.0000 0.0000 0.0000 34.9372 0.0000 -0.2091
# 5 -3.6030 -2.7571 -4.1167 0.0000 18.3152 0.0000
# 6 0.0000 0.0000 0.0000 -0.2091 0.0000 21.2406
#
#
#
# Elastic Compliance Matrix: (Units=1/GPa)
#
#
# Indices 1 2 3 4 5 6 
#
# 1 0.042143 -0.021237 -0.005641 0.000000 0.003826 0.000000
# 2 -0.021237 0.040230 -0.008470 0.000000 -0.000026 0.000000
# 3 -0.005641 -0.008470 0.011643 0.000000 0.000232 0.000000
# 4 0.000000 0.000000 0.000000 0.028624 0.000000 0.000282
# 5 0.003826 -0.000026 0.000232 0.000000 0.055401 0.000000
# 6 0.000000 0.000000 0.000000 0.000282 0.000000 0.047082
#
#
# Mechanical properties :
#
#
# Convention : Reuss Voigt Hill
#
# Bulk Modulus (GPa) = 42.88252 61.39120 52.13686
# Shear Modulus (GPa) = 16.46938 22.43478 19.45208
#
# Velocity S-wave (km/s) = 3.21265 3.74961 3.49147
# Velocity P-wave (km/s) = 6.37459 7.56434 6.99481
#
# Compressibility (1/GPa) = 0.02331952
#
# Stress axis : x y z
#
# Youngs Moduli (GPa) = 23.72868 24.85694 85.88862
#
# Poissons Ratio (x) = 0.52789 0.48450
# Poissons Ratio (y) = 0.50393 0.72750
# Poissons Ratio (z) = 0.13385 0.21055
#
# Static dielectric constant tensor:
#      x y z
#    x 1.521450 0.000000 0.005010 
#    y 0.000000 1.528290 0.000000 
#    z 0.005010 0.000000 1.542040 
# 
# From -- ./inp_files/42938.got.cif
#   From: 2010.05.17/outbox.cif.g08.bks.cpg/sg11_22_cif.got.tgz:42938.got - 2010.06.03 12:22:45.
