data_PCOD9158677
_publ_section_title
;
Structure prediction by ZEFSAII (Michael W. Deem and Ramdas Pophale) SiO2 
 PCOD9158677
Probable space group: P 21/M
;
_chemical_formula_sum "Si O2"
_cell_formula_units_Z 28
_cell_length_a 22.211160
_cell_length_b 9.061376
_cell_length_c 11.508146
_cell_angle_alpha 90.000000
_cell_angle_beta 131.314974
_cell_angle_gamma 90.000000
_cell_volume 1739.657171
_symmetry_space_group_name_H-M "P 21/M"
_symmetry_group_IT_number 11
_symmetry_cell_setting 'monoclinic'
loop_
_space_group_symop_operation_xyz
x,y,z
-x,1/2+y,-z
-x,-y,-z
x,1/2-y,z
loop_
_atom_site_type_symbol
_atom_site_label
_atom_site_fract_x
_atom_site_fract_y
_atom_site_fract_z
Si Si1 0.426272 0.072840 0.839225
Si Si2 0.766093 0.426030 0.027299
Si Si3 0.262345 0.428720 0.758583
Si Si4 0.070228 0.418877 0.742846
Si Si5 0.530360 0.574180 0.365917
Si Si6 0.911635 0.580713 0.515693
Si Si7 0.622084 0.574754 0.720290
O O1 0.432835 0.250000 0.857107
O O2 0.342017 0.030893 0.790311
O O3 0.432834 0.035151 0.711534
O O4 0.500000 0.000000 0.000000
O O5 0.763689 0.250000 0.028110
O O6 0.740874 0.492934 0.120698
O O7 0.856183 0.483169 0.118973
O O8 0.702998 0.490758 0.855463
O O9 0.260533 0.250000 0.774029
O O10 0.180389 0.467031 0.585573
O O11 0.079121 0.250000 0.791929
O O12 0.077899 0.420722 0.611566
O O13 0.982388 0.482352 0.657412
O O14 0.511950 0.750000 0.343304
O O15 0.590843 0.546690 0.549698
O O16 0.449175 0.485284 0.288180
O O17 0.921265 0.750000 0.566287
O O18 0.632193 0.750000 0.749379
#
# Coordination Sequence:
#
# PCOD9158677 Si02
#       7
#     4   4   4   4   4   4   4
#     4  10  20  33  48  68  93 121 152 185 222 264
#     4  11  20  29  44  67  94 121 152 188 225 267
#     4   9  18  31  46  65  92 124 154 184 223 271
#     4   9  16  26  41  62  89 119 149 182 223 269
#     4   9  19  34  50  68  90 118 153 189 225 267
#     4   8  14  25  40  60  87 118 149 180 218 267
#     4  10  19  32  49  67  90 119 151 189 230 268
#
# _framework density 16.095126
#
# number of rings (size 3 to 8) (size 9 to 14) (size 15 to 20)
#    0.000    2.571    0.000    3.857    0.000    7.429 
#    0.000    0.000    0.000    0.000    0.000    1.000 
#    0.000    0.000    0.000    0.000    0.000    0.000 
#
# Total GULP energy -156086.183638 kJ/mol
# GULP energy per Si atom -5574.506558 kJ/mol
# Density = 1.605849 g / cm^3
# Si number density = 16.095126 Si / 1000 Ang^3
#
#
#
# Elastic Constant Matrix: (Units=GPa)
#
#
# Indices 1 2 3 4 5 6 
#
# 1 87.3146 32.8497 51.5831 0.0000 24.7153 0.0000
# 2 32.8497 68.2183 52.5696 0.0000 17.6152 0.0000
# 3 51.5831 52.5696 88.2702 0.0000 29.7510 0.0000
# 4 0.0000 0.0000 0.0000 27.3110 0.0000 7.8351
# 5 24.7153 17.6152 29.7510 0.0000 27.6709 0.0000
# 6 0.0000 0.0000 0.0000 7.8351 0.0000 19.5901
#
#
#
# Elastic Compliance Matrix: (Units=1/GPa)
#
#
# Indices 1 2 3 4 5 6 
#
# 1 0.018519 -0.001090 -0.007578 0.000000 -0.007700 0.000000
# 2 -0.001090 0.027157 -0.015743 0.000000 0.000611 0.000000
# 3 -0.007578 -0.015743 0.030542 0.000000 -0.016047 0.000000
# 4 0.000000 0.000000 0.000000 0.041361 0.000000 -0.016542
# 5 -0.007700 0.000611 -0.016047 0.000000 0.059880 0.000000
# 6 0.000000 0.000000 0.000000 -0.016542 0.000000 0.057662
#
#
# Mechanical properties :
#
#
# Convention : Reuss Voigt Hill
#
# Bulk Modulus (GPa) = 36.50077 57.53421 47.01749
# Shear Modulus (GPa) = 17.06044 22.03445 19.54744
#
# Velocity S-wave (km/s) = 3.25926 3.70403 3.48874
# Velocity P-wave (km/s) = 6.07380 7.35643 6.74567
#
# Compressibility (1/GPa) = 0.02739668
#
# Stress axis : x y z
#
# Youngs Moduli (GPa) = 53.99793 36.82247 32.74223
#
# Poissons Ratio (x) = 0.04013 0.24812
# Poissons Ratio (y) = 0.05885 0.51546
# Poissons Ratio (z) = 0.40920 0.57969
#
# Static dielectric constant tensor:
#      x y z
#    x 1.532370 0.000000 0.014890 
#    y 0.000000 1.541270 0.000000 
#    z 0.014890 0.000000 1.534680 
# 
# From -- ./inp_files/42591.got.cif
#   From: 2010.05.17/outbox.cif.g08.bks.cpg/sg11_22_cif.got.tgz:42591.got - 2010.06.03 12:22:45.
