data_PCOD9158732
_publ_section_title
;
Structure prediction by ZEFSAII (Michael W. Deem and Ramdas Pophale) SiO2 
 PCOD9158732
Probable space group: P 21/M
;
_chemical_formula_sum "Si O2"
_cell_formula_units_Z 32
_cell_length_a 22.420612
_cell_length_b 9.365705
_cell_length_c 25.738259
_cell_angle_alpha 90.000000
_cell_angle_beta 164.012711
_cell_angle_gamma 90.000000
_cell_volume 1488.569218
_symmetry_space_group_name_H-M "P 21/M"
_symmetry_group_IT_number 11
_symmetry_cell_setting 'monoclinic'
loop_
_space_group_symop_operation_xyz
x,y,z
-x,1/2+y,-z
-x,-y,-z
x,1/2-y,z
loop_
_atom_site_type_symbol
_atom_site_label
_atom_site_fract_x
_atom_site_fract_y
_atom_site_fract_z
Si Si1 0.840385 0.586133 0.779150
Si Si2 0.296734 0.421212 0.493714
Si Si3 0.661929 0.587713 0.223272
Si Si4 0.436008 0.407997 0.113220
Si Si5 0.148912 0.910580 0.469040
Si Si6 0.397127 0.912939 0.337991
Si Si7 0.052906 0.079895 0.870556
Si Si8 0.899055 0.413441 0.337869
O O1 0.908777 0.750000 0.840564
O O2 0.768852 0.519081 0.773840
O O3 0.619211 0.583352 0.558724
O O4 0.015650 0.492276 0.895154
O O5 0.263707 0.250000 0.466689
O O6 0.259004 0.491223 0.517668
O O7 0.523390 0.446895 0.653635
O O8 0.120852 0.501856 0.311366
O O9 0.621926 0.750000 0.173678
O O10 0.467784 0.524010 0.095223
O O11 0.719173 0.486524 0.223126
O O12 0.880445 0.589826 0.442169
O O13 0.375004 0.250000 0.042073
O O14 0.670959 0.395567 0.335747
O O15 0.275229 0.443945 0.025741
O O16 0.099031 0.750000 0.407941
O O17 0.952170 0.991607 0.331986
O O18 0.317477 0.750000 0.273632
O O19 0.015948 0.250000 0.843353
O O20 0.849239 0.250000 0.282953
#
# Coordination Sequence:
#
# PCOD9158732 Si02
#       8
#     4   4   4   4   4   4   4   4
#     4   9  16  26  43  68  94 119 153 197 239 278
#     4  10  20  33  49  72  99 126 159 197 238 284
#     4   9  16  26  44  69  94 122 157 197 238 277
#     4   9  19  33  49  71  98 128 161 196 235 282
#     4  10  19  32  50  72  98 127 160 197 237 282
#     4   8  15  27  43  64  91 121 153 192 236 280
#     4  10  19  32  50  71  97 129 161 194 236 283
#     4   9  16  27  44  67  95 124 156 196 237 277
#
# _framework density 21.497153999999998
#
# number of rings (size 3 to 8) (size 9 to 14) (size 15 to 20)
#    0.000    2.750    0.000    3.000    0.000    8.000 
#    0.000    0.000    0.000    1.500    0.000    0.000 
#    0.000    0.000    0.000    0.000    0.000    0.000 
#
# Total GULP energy -178573.652149 kJ/mol
# GULP energy per Si atom -5580.426630 kJ/mol
# Density = 2.144823 g / cm^3
# Si number density = 21.497154 Si / 1000 Ang^3
#
#
#
# Elastic Constant Matrix: (Units=GPa)
#
#
# Indices 1 2 3 4 5 6 
#
# 1 106.6876 89.9029 19.5875 0.0000 45.1476 0.0000
# 2 89.9029 180.1420 41.3113 0.0000 53.0662 0.0000
# 3 19.5875 41.3113 48.2896 0.0000 4.1717 0.0000
# 4 0.0000 0.0000 0.0000 17.3826 0.0000 30.3857
# 5 45.1476 53.0662 4.1717 0.0000 39.8946 0.0000
# 6 0.0000 0.0000 0.0000 30.3857 0.0000 70.0925
#
#
#
# Elastic Compliance Matrix: (Units=1/GPa)
#
#
# Indices 1 2 3 4 5 6 
#
# 1 0.021396 -0.004841 -0.003030 0.000000 -0.017458 0.000000
# 2 -0.004841 0.013168 -0.008337 0.000000 -0.011166 0.000000
# 3 -0.003030 -0.008337 0.028069 0.000000 0.011583 0.000000
# 4 0.000000 0.000000 0.000000 0.237521 0.000000 -0.102968
# 5 -0.017458 -0.011166 0.011583 0.000000 0.058464 0.000000
# 6 0.000000 0.000000 0.000000 -0.102968 0.000000 0.058904
#
#
# Mechanical properties :
#
#
# Convention : Reuss Voigt Hill
#
# Bulk Modulus (GPa) = 33.09217 70.74697 51.91957
# Shear Modulus (GPa) = 10.86934 37.76178 24.31556
#
# Velocity S-wave (km/s) = 2.25103 4.19572 3.36684
# Velocity P-wave (km/s) = 4.70992 7.51355 6.27044
#
# Compressibility (1/GPa) = 0.03021863
#
# Stress axis : x y z
#
# Youngs Moduli (GPa) = 46.73732 75.94085 35.62660
#
# Poissons Ratio (x) = 0.36761 0.10793
# Poissons Ratio (y) = 0.22624 0.29702
# Poissons Ratio (z) = 0.14159 0.63313
#
# Static dielectric constant tensor:
#      x y z
#    x 1.795470 0.000000 -0.029290 
#    y 0.000000 1.744170 0.000000 
#    z -0.029290 0.000000 1.820640 
# 
# From -- ./inp_files/64241.got.cif
#   From: 2010.05.17/outbox.cif.g08.bks.cpg/sg11_33_cif.got.tgz:64241.got - 2010.06.03 12:22:45.
