data_PCOD9158078
_publ_section_title
;
Structure prediction by ZEFSAII (Michael W. Deem and Ramdas Pophale) SiO2 
 PCOD9158078
Probable space group: P 21/M
;
_chemical_formula_sum "Si O2"
_cell_formula_units_Z 32
_cell_length_a 12.743448
_cell_length_b 9.413546
_cell_length_c 12.020099
_cell_angle_alpha 90.000000
_cell_angle_beta 89.577588
_cell_angle_gamma 90.000000
_cell_volume 1441.904317
_symmetry_space_group_name_H-M "P 21/M"
_symmetry_group_IT_number 11
_symmetry_cell_setting 'monoclinic'
loop_
_space_group_symop_operation_xyz
x,y,z
-x,1/2+y,-z
-x,-y,-z
x,1/2-y,z
loop_
_atom_site_type_symbol
_atom_site_label
_atom_site_fract_x
_atom_site_fract_y
_atom_site_fract_z
Si Si1 0.477186 0.579199 0.674143
Si Si2 0.912160 0.902563 0.047978
Si Si3 0.297463 0.086288 0.097769
Si Si4 0.181571 0.580343 0.292410
Si Si5 0.007634 0.914934 0.613570
Si Si6 0.600497 0.413599 0.099878
Si Si7 0.348859 0.917926 0.469493
Si Si8 0.823120 0.095490 0.222062
O O1 0.485961 0.750000 0.677363
O O2 0.477921 0.531735 0.803087
O O3 0.570747 0.509233 0.604877
O O4 0.374487 0.546047 0.597953
O O5 0.959372 0.750000 0.060399
O O6 0.872545 0.961572 0.163390
O O7 0.811620 0.902119 0.969444
O O8 0.000000 0.000000 0.000000
O O9 0.328171 0.250000 0.126474
O O10 0.261940 0.989075 0.202147
O O11 0.375130 0.011610 0.006633
O O12 0.167609 0.750000 0.272115
O O13 0.073062 0.492510 0.300408
O O14 0.236829 0.562793 0.412836
O O15 0.975678 0.750000 0.601377
O O16 0.128271 0.912375 0.655928
O O17 0.000000 0.000000 0.500000
O O18 0.578136 0.250000 0.065938
O O19 0.704821 0.405083 0.178095
O O20 0.373893 0.750000 0.457483
O O21 0.864984 0.250000 0.180090
#
# Coordination Sequence:
#
# PCOD9158078 Si02
#       8
#     4   4   4   4   4   4   4   4
#     4   9  18  35  61  88 114 142 183 235 286 341
#     4  10  19  30  48  72 100 135 179 228 275 320
#     4  10  21  36  53  79 114 148 187 235 283 334
#     4  11  23  39  60  82 114 155 193 233 280 340
#     4  11  24  39  56  81 114 153 194 235 282 334
#     4   9  18  34  59  85 111 147 189 233 284 339
#     4   9  20  37  59  86 115 148 185 230 287 342
#     4   9  19  34  52  74 104 142 182 224 271 323
#
# _framework density 22.192872999999999
#
# number of rings (size 3 to 8) (size 9 to 14) (size 15 to 20)
#    0.000    2.250    0.000    2.250    1.750    7.000 
#    0.000    0.625    0.000    0.000    0.000    0.000 
#    0.000    0.000    0.000    0.000    0.000    0.000 
#
# Total GULP energy -178448.462625 kJ/mol
# GULP energy per Si atom -5576.514457 kJ/mol
# Density = 2.214236 g / cm^3
# Si number density = 22.192873 Si / 1000 Ang^3
#
#
#
# Elastic Constant Matrix: (Units=GPa)
#
#
# Indices 1 2 3 4 5 6 
#
# 1 55.1830 16.5360 19.0529 0.0000 8.2122 0.0000
# 2 16.5360 114.6961 45.3954 0.0000 -9.7645 0.0000
# 3 19.0529 45.3954 125.0929 0.0000 -2.4347 0.0000
# 4 0.0000 0.0000 0.0000 27.0362 0.0000 -0.8449
# 5 8.2122 -9.7645 -2.4347 0.0000 44.9013 0.0000
# 6 0.0000 0.0000 0.0000 -0.8449 0.0000 22.2958
#
#
#
# Elastic Compliance Matrix: (Units=1/GPa)
#
#
# Indices 1 2 3 4 5 6 
#
# 1 0.020280 -0.002380 -0.002310 0.000000 -0.004352 0.000000
# 2 -0.002380 0.010646 -0.003451 0.000000 0.002563 0.000000
# 3 -0.002310 -0.003451 0.009602 0.000000 0.000193 0.000000
# 4 0.000000 0.000000 0.000000 0.037031 0.000000 0.001403
# 5 -0.004352 0.002563 0.000193 0.000000 0.023635 0.000000
# 6 0.000000 0.000000 0.000000 0.001403 0.000000 0.044905
#
#
# Mechanical properties :
#
#
# Convention : Reuss Voigt Hill
#
# Bulk Modulus (GPa) = 41.24382 50.77118 46.00750
# Shear Modulus (GPa) = 29.33199 33.11250 31.22224
#
# Velocity S-wave (km/s) = 3.63944 3.86687 3.75488
# Velocity P-wave (km/s) = 6.02373 6.54705 6.29083
#
# Compressibility (1/GPa) = 0.02424606
#
# Stress axis : x y z
#
# Youngs Moduli (GPa) = 49.30994 93.93292 104.14568
#
# Poissons Ratio (x) = 0.22357 0.24056
# Poissons Ratio (y) = 0.11736 0.35940
# Poissons Ratio (z) = 0.11390 0.32416
#
# Static dielectric constant tensor:
#      x y z
#    x 1.837110 0.000000 0.057740 
#    y 0.000000 1.790290 0.000000 
#    z 0.057740 0.000000 1.817910 
# 
# From -- ./inp_files/38130.got.cif
#   From: 2010.05.17/outbox.cif.g08.bks.cpg/sg11_20_cif.got.tgz:38130.got - 2010.06.03 12:22:45.
