data_PCOD9158268
_publ_section_title
;
Structure prediction by ZEFSAII (Michael W. Deem and Ramdas Pophale) SiO2 
 PCOD9158268
Probable space group: P 21/M
;
_chemical_formula_sum "Si O2"
_cell_formula_units_Z 32
_cell_length_a 21.892936
_cell_length_b 8.712183
_cell_length_c 31.518986
_cell_angle_alpha 90.000000
_cell_angle_beta 160.504735
_cell_angle_gamma 90.000000
_cell_volume 2006.305784
_symmetry_space_group_name_H-M "P 21/M"
_symmetry_group_IT_number 11
_symmetry_cell_setting 'monoclinic'
loop_
_space_group_symop_operation_xyz
x,y,z
-x,1/2+y,-z
-x,-y,-z
x,1/2-y,z
loop_
_atom_site_type_symbol
_atom_site_label
_atom_site_fract_x
_atom_site_fract_y
_atom_site_fract_z
Si Si1 0.789344 0.433986 0.954814
Si Si2 0.120371 0.065952 0.117517
Si Si3 0.456104 0.433679 0.134360
Si Si4 0.170764 0.565452 0.489234
Si Si5 0.216938 0.064990 0.801272
Si Si6 0.555454 0.066528 0.716557
Si Si7 0.832845 0.933659 0.418015
Si Si8 0.452043 0.065012 0.034588
O O1 0.778073 0.250000 0.953212
O O2 0.707169 0.517307 0.941499
O O3 0.661208 0.471707 0.830069
O O4 0.997970 0.473366 0.078473
O O5 0.127277 0.250000 0.118913
O O6 0.320094 0.997188 0.240240
O O7 0.000000 0.000000 0.000000
O O8 0.480025 0.250000 0.151582
O O9 0.641519 0.511851 0.272531
O O10 0.421197 0.480887 0.062879
O O11 0.176762 0.750000 0.496140
O O12 0.355554 0.505294 0.588671
O O13 0.158408 0.496766 0.528388
O O14 0.989234 0.519046 0.344540
O O15 0.224839 0.250000 0.804704
O O16 0.357496 0.999950 0.858565
O O17 0.295912 0.016155 0.898808
O O18 0.545801 0.250000 0.707735
O O19 0.841018 0.750000 0.423882
O O20 0.000000 0.000000 0.500000
O O21 0.461405 0.250000 0.039543
#
# Coordination Sequence:
#
# PCOD9158268 Si02
#       8
#     4   4   4   4   4   4   4   4
#     4   9  18  31  46  68  99 132 162 197 239 284
#     4   9  17  29  46  67  95 130 166 200 239 287
#     4  11  21  32  50  73  98 130 164 198 241 291
#     4  11  21  33  51  73  97 129 165 200 244 294
#     4   9  19  35  53  72  94 123 162 207 250 290
#     4  10  19  31  47  70 100 132 162 199 242 288
#     4  12  24  36  48  66  98 132 164 200 240 290
#     4   9  19  35  52  72  96 123 161 207 249 288
#
# _framework density 15.949712999999999
#
# number of rings (size 3 to 8) (size 9 to 14) (size 15 to 20)
#    0.000    2.000    1.250    4.125    0.000    6.500 
#    0.000    0.000    0.000    0.000    0.000    0.875 
#    0.000    0.000    0.000    0.000    0.000    0.000 
#
# Total GULP energy -178521.806141 kJ/mol
# GULP energy per Si atom -5578.806442 kJ/mol
# Density = 1.591341 g / cm^3
# Si number density = 15.949713 Si / 1000 Ang^3
#
#
#
# Elastic Constant Matrix: (Units=GPa)
#
#
# Indices 1 2 3 4 5 6 
#
# 1 117.1663 45.0666 86.2405 0.0000 23.5255 0.0000
# 2 45.0666 53.1223 43.9228 0.0000 8.9782 0.0000
# 3 86.2405 43.9228 115.9298 0.0000 20.4889 0.0000
# 4 0.0000 0.0000 0.0000 15.4946 0.0000 12.5529
# 5 23.5255 8.9782 20.4889 0.0000 24.6718 0.0000
# 6 0.0000 0.0000 0.0000 12.5529 0.0000 22.5885
#
#
#
# Elastic Compliance Matrix: (Units=1/GPa)
#
#
# Indices 1 2 3 4 5 6 
#
# 1 0.021809 -0.007136 -0.012076 0.000000 -0.008170 0.000000
# 2 -0.007136 0.029799 -0.006174 0.000000 0.001087 0.000000
# 3 -0.012076 -0.006174 0.020529 0.000000 -0.003287 0.000000
# 4 0.000000 0.000000 0.000000 0.117390 0.000000 -0.065236
# 5 -0.008170 0.001087 -0.003287 0.000000 0.050657 0.000000
# 6 0.000000 0.000000 0.000000 -0.065236 0.000000 0.080524
#
#
# Mechanical properties :
#
#
# Convention : Reuss Voigt Hill
#
# Bulk Modulus (GPa) = 46.80423 70.74203 58.77313
# Shear Modulus (GPa) = 13.20654 19.95020 16.57837
#
# Velocity S-wave (km/s) = 2.88064 3.54053 3.22749
# Velocity P-wave (km/s) = 6.36182 7.82069 7.12867
#
# Compressibility (1/GPa) = 0.02136559
#
# Stress axis : x y z
#
# Youngs Moduli (GPa) = 45.85363 33.55785 48.71092
#
# Poissons Ratio (x) = 0.23947 0.58823
# Poissons Ratio (y) = 0.32721 0.30074
# Poissons Ratio (z) = 0.55372 0.20718
#
# Static dielectric constant tensor:
#      x y z
#    x 1.530280 0.000000 0.007510 
#    y 0.000000 1.532890 0.000000 
#    z 0.007510 0.000000 1.524330 
# 
# From -- ./inp_files/73637.got.cif
#   From: 2010.05.17/outbox.cif.g08.bks.cpg/sg11_37_cif.got.tgz:73637.got - 2010.06.03 12:22:45.
