data_PCOD9158412
_publ_section_title
;
Structure prediction by ZEFSAII (Michael W. Deem and Ramdas Pophale) SiO2 
 PCOD9158412
Probable space group: P 21/M
;
_chemical_formula_sum "Si O2"
_cell_formula_units_Z 28
_cell_length_a 18.054262
_cell_length_b 9.236024
_cell_length_c 16.621389
_cell_angle_alpha 90.000000
_cell_angle_beta 154.464311
_cell_angle_gamma 90.000000
_cell_volume 1194.766827
_symmetry_space_group_name_H-M "P 21/M"
_symmetry_group_IT_number 11
_symmetry_cell_setting 'monoclinic'
loop_
_space_group_symop_operation_xyz
x,y,z
-x,1/2+y,-z
-x,-y,-z
x,1/2-y,z
loop_
_atom_site_type_symbol
_atom_site_label
_atom_site_fract_x
_atom_site_fract_y
_atom_site_fract_z
Si Si1 0.650326 0.079864 0.101143
Si Si2 0.872118 0.077175 0.176287
Si Si3 0.413236 0.914468 0.295821
Si Si4 0.161170 0.917709 0.555730
Si Si5 0.954052 0.415972 0.793902
Si Si6 0.591538 0.412672 0.339492
Si Si7 0.769761 0.915592 0.748685
O O1 0.608139 0.250000 0.052536
O O2 0.806734 0.067379 0.318495
O O3 0.712188 0.026920 0.074521
O O4 0.500000 0.000000 0.000000
O O5 0.865586 0.250000 0.161318
O O6 0.032378 0.029580 0.389443
O O7 0.913430 0.003396 0.131847
O O8 0.350043 0.750000 0.229601
O O9 0.591085 0.913934 0.521974
O O10 0.469203 0.974783 0.264114
O O11 0.284716 0.015134 0.220025
O O12 0.106615 0.750000 0.485727
O O13 0.341632 0.937630 0.685066
O O14 0.007209 0.250000 0.854987
O O15 0.772468 0.415061 0.566569
O O16 0.902285 0.490185 0.826758
O O17 0.519671 0.250000 0.276197
O O18 0.827033 0.750000 0.811397
#
# Coordination Sequence:
#
# PCOD9158412 Si02
#       7
#     4   4   4   4   4   4   4
#     4  10  22  37  52  72  98 126 158 197 241 289
#     4  10  19  31  49  73  97 123 159 200 240 285
#     4   9  15  21  31  50  79 114 150 185 224 272
#     4   9  18  33  51  71  95 125 161 199 239 285
#     4   9  16  26  40  59  85 118 154 191 232 277
#     4   8  14  24  38  56  81 113 149 188 228 271
#     4   9  15  22  33  51  79 115 152 188 227 271
#
# _framework density 23.435534000000001
#
# number of rings (size 3 to 8) (size 9 to 14) (size 15 to 20)
#    0.000    2.857    0.000    3.000    0.000    8.571 
#    0.000    0.000    0.000    0.000    0.000    0.000 
#    0.000    1.143    0.000    3.429    0.000    9.571 
#
# Total GULP energy -156588.839763 kJ/mol
# GULP energy per Si atom -5592.458563 kJ/mol
# Density = 2.338219 g / cm^3
# Si number density = 23.435534 Si / 1000 Ang^3
#
#
#
# Elastic Constant Matrix: (Units=GPa)
#
#
# Indices 1 2 3 4 5 6 
#
# 1 202.3444 85.3555 22.6970 0.0000 17.0766 0.0000
# 2 85.3555 122.9734 23.5609 0.0000 32.1154 0.0000
# 3 22.6970 23.5609 58.6008 0.0000 11.0348 0.0000
# 4 0.0000 0.0000 0.0000 12.7370 0.0000 13.1116
# 5 17.0766 32.1154 11.0348 0.0000 42.3600 0.0000
# 6 0.0000 0.0000 0.0000 13.1116 0.0000 34.1007
#
#
#
# Elastic Compliance Matrix: (Units=1/GPa)
#
#
# Indices 1 2 3 4 5 6 
#
# 1 0.007074 -0.005049 -0.000940 0.000000 0.001221 0.000000
# 2 -0.005049 0.014188 -0.002215 0.000000 -0.008144 0.000000
# 3 -0.000940 -0.002215 0.018857 0.000000 -0.002854 0.000000
# 4 0.000000 0.000000 0.000000 0.129945 0.000000 -0.049963
# 5 0.001221 -0.008144 -0.002854 0.000000 0.030033 0.000000
# 6 0.000000 0.000000 0.000000 -0.049963 0.000000 0.048536
#
#
# Mechanical properties :
#
#
# Convention : Reuss Voigt Hill
#
# Bulk Modulus (GPa) = 42.17542 71.90503 57.04022
# Shear Modulus (GPa) = 18.31882 34.65988 26.48935
#
# Velocity S-wave (km/s) = 2.79887 3.84988 3.36565
# Velocity P-wave (km/s) = 5.33669 7.10709 6.28455
#
# Compressibility (1/GPa) = 0.02371049
#
# Stress axis : x y z
#
# Youngs Moduli (GPa) = 141.35662 70.48408 53.03165
#
# Poissons Ratio (x) = 0.35588 0.04984
# Poissons Ratio (y) = 0.71371 0.11747
# Poissons Ratio (z) = 0.13286 0.15613
#
# Static dielectric constant tensor:
#      x y z
#    x 1.864390 0.000000 -0.051910 
#    y 0.000000 1.800530 0.000000 
#    z -0.051910 0.000000 1.942970 
# 
# From -- ./inp_files/28558.got.cif
#   From: 2010.05.17/outbox.cif.g08.bks.cpg/sg11_15_cif.got.tgz:28558.got - 2010.06.03 12:22:45.
