data_PCOD9158695
_publ_section_title
;
Structure prediction by ZEFSAII (Michael W. Deem and Ramdas Pophale) SiO2 
 PCOD9158695
Probable space group: P 21/M
;
_chemical_formula_sum "Si O2"
_cell_formula_units_Z 32
_cell_length_a 29.443909
_cell_length_b 8.883020
_cell_length_c 9.568628
_cell_angle_alpha 90.000000
_cell_angle_beta 135.015963
_cell_angle_gamma 90.000000
_cell_volume 1769.170742
_symmetry_space_group_name_H-M "P 21/M"
_symmetry_group_IT_number 11
_symmetry_cell_setting 'monoclinic'
loop_
_space_group_symop_operation_xyz
x,y,z
-x,1/2+y,-z
-x,-y,-z
x,1/2-y,z
loop_
_atom_site_type_symbol
_atom_site_label
_atom_site_fract_x
_atom_site_fract_y
_atom_site_fract_z
Si Si1 0.499487 0.069751 0.844345
Si Si2 0.114253 0.929963 0.787365
Si Si3 0.760081 0.070905 0.758933
Si Si4 0.559557 0.931013 0.716160
Si Si5 0.105397 0.568819 0.444253
Si Si6 0.633388 0.570504 0.610526
Si Si7 0.961217 0.569083 0.136617
Si Si8 0.163005 0.429841 0.312366
O O1 0.507106 0.250000 0.867387
O O2 0.430850 0.037534 0.619854
O O3 0.553091 0.000032 0.856507
O O4 0.500000 0.000000 0.000000
O O5 0.104857 0.750000 0.777345
O O6 0.115574 0.970036 0.628158
O O7 0.058652 0.010070 0.754328
O O8 0.181654 0.968242 0.008452
O O9 0.758989 0.250000 0.739956
O O10 0.693728 0.013580 0.677587
O O11 0.779310 0.995415 0.654043
O O12 0.553703 0.750000 0.710415
O O13 0.618994 0.966907 0.742248
O O14 0.500000 0.000000 0.500000
O O15 0.109079 0.750000 0.437313
O O16 0.156077 0.492806 0.452304
O O17 0.032380 0.518569 0.249900
O O18 0.643788 0.750000 0.625180
O O19 0.961942 0.750000 0.140772
O O20 0.903382 0.520230 0.909503
O O21 0.165710 0.250000 0.317401
#
# Coordination Sequence:
#
# PCOD9158695 Si02
#       8
#     4   4   4   4   4   4   4   4
#     4  10  20  34  54  82 114 142 169 206 253 300
#     4   9  19  33  49  71  98 126 160 206 253 298
#     4  10  20  35  54  73  95 130 172 209 248 296
#     4   9  17  31  52  78 107 137 170 208 250 295
#     4  10  19  32  49  71  99 127 160 206 257 306
#     4   9  19  35  55  78 103 134 171 209 246 291
#     4   9  18  31  49  72  96 126 163 203 251 307
#     4  10  20  33  49  71  99 130 166 207 251 303
#
# _framework density 18.087569999999999
#
# number of rings (size 3 to 8) (size 9 to 14) (size 15 to 20)
#    0.000    2.500    0.000    3.000    0.000    5.000 
#    0.000    1.250    0.000    3.000    0.000    0.000 
#    0.000    0.000    0.000    0.000    0.000    0.000 
#
# Total GULP energy -178458.210270 kJ/mol
# GULP energy per Si atom -5576.819071 kJ/mol
# Density = 1.804640 g / cm^3
# Si number density = 18.087570 Si / 1000 Ang^3
#
#
#
# Elastic Constant Matrix: (Units=GPa)
#
#
# Indices 1 2 3 4 5 6 
#
# 1 163.9222 52.2178 34.2080 0.0000 -23.4343 0.0000
# 2 52.2178 31.9359 17.8971 0.0000 -6.1526 0.0000
# 3 34.2080 17.8971 28.4788 0.0000 -18.9588 0.0000
# 4 0.0000 0.0000 0.0000 20.8357 0.0000 -5.5825
# 5 -23.4343 -6.1526 -18.9588 0.0000 31.1631 0.0000
# 6 0.0000 0.0000 0.0000 -5.5825 0.0000 36.0587
#
#
#
# Elastic Compliance Matrix: (Units=1/GPa)
#
#
# Indices 1 2 3 4 5 6 
#
# 1 0.013850 -0.022665 0.002625 0.000000 0.007537 0.000000
# 2 -0.022665 0.090005 -0.048495 0.000000 -0.028777 0.000000
# 3 0.002625 -0.048495 0.096433 0.000000 0.051066 0.000000
# 4 0.000000 0.000000 0.000000 0.050071 0.000000 0.007752
# 5 0.007537 -0.028777 0.051066 0.000000 0.063143 0.000000
# 6 0.000000 0.000000 0.000000 0.007752 0.000000 0.028933
#
#
# Mechanical properties :
#
#
# Convention : Reuss Voigt Hill
#
# Bulk Modulus (GPa) = 15.81852 48.10921 31.96386
# Shear Modulus (GPa) = 9.98843 25.61244 17.80043
#
# Velocity S-wave (km/s) = 2.35250 3.76709 3.14048
# Velocity P-wave (km/s) = 4.01790 6.75107 5.55520
#
# Compressibility (1/GPa) = 0.06321704
#
# Stress axis : x y z
#
# Youngs Moduli (GPa) = 72.20064 11.11046 10.36990
#
# Poissons Ratio (x) = 0.25182 -0.02722
# Poissons Ratio (y) = 1.63644 0.50289
# Poissons Ratio (z) = -0.18950 0.53880
#
# Static dielectric constant tensor:
#      x y z
#    x 1.618410 0.000000 -0.006990 
#    y 0.000000 1.595900 0.000000 
#    z -0.006990 0.000000 1.634860 
# 
# From -- ./inp_files/27417.got.cif
#   From: 2010.05.17/outbox.cif.g08.bks.cpg/sg11_14_cif.got.tgz:27417.got - 2010.06.03 12:22:45.
