data_PCOD9158327
_publ_section_title
;
Structure prediction by ZEFSAII (Michael W. Deem and Ramdas Pophale) SiO2 
 PCOD9158327
Probable space group: P 21/M
;
_chemical_formula_sum "Si O2"
_cell_formula_units_Z 28
_cell_length_a 20.282866
_cell_length_b 8.504591
_cell_length_c 18.730776
_cell_angle_alpha 90.000000
_cell_angle_beta 29.170228
_cell_angle_gamma 90.000000
_cell_volume 1574.814485
_symmetry_space_group_name_H-M "P 21/M"
_symmetry_group_IT_number 11
_symmetry_cell_setting 'monoclinic'
loop_
_space_group_symop_operation_xyz
x,y,z
-x,1/2+y,-z
-x,-y,-z
x,1/2-y,z
loop_
_atom_site_type_symbol
_atom_site_label
_atom_site_fract_x
_atom_site_fract_y
_atom_site_fract_z
Si Si1 0.911479 0.939572 0.189156
Si Si2 0.484725 0.939077 0.594830
Si Si3 0.640437 0.437452 0.716182
Si Si4 0.594782 0.061643 0.974593
Si Si5 0.710021 0.940585 0.495076
Si Si6 0.190444 0.939517 0.862616
Si Si7 0.154592 0.560108 0.350698
O O1 0.909522 0.750000 0.189806
O O2 0.847704 0.988391 0.324354
O O3 0.824453 0.996131 0.203582
O O4 0.062497 0.995136 0.029171
O O5 0.494832 0.750000 0.582131
O O6 0.593926 0.992147 0.549032
O O7 0.333285 0.984388 0.760379
O O8 0.500000 0.000000 0.500000
O O9 0.632829 0.250000 0.728892
O O10 0.490812 0.503127 0.876584
O O11 0.686650 0.489059 0.594431
O O12 0.754257 0.489509 0.666754
O O13 0.593861 0.250000 0.975716
O O14 0.748790 0.012646 0.808332
O O15 0.500000 0.000000 0.000000
O O16 0.706593 0.750000 0.503968
O O17 0.184657 0.750000 0.863693
O O18 0.147818 0.750000 0.357024
O O19 0.000000 0.500000 0.500000
#
# Coordination Sequence:
#
# PCOD9158327 Si02
#       7
#     4   4   4   4   4   4   4
#     4   9  17  30  47  68  94 125 162 204 253 307
#     4  10  19  31  48  71  97 126 166 213 257 303
#     4  10  21  36  53  77 107 140 177 215 258 311
#     4   9  17  32  54  80 108 138 173 209 247 299
#     4  10  20  33  49  70 100 137 172 213 263 313
#     4   9  17  29  47  69  92 121 161 210 258 303
#     4   9  19  34  55  83 109 135 170 210 251 301
#
# _framework density 17.779872000000001
#
# number of rings (size 3 to 8) (size 9 to 14) (size 15 to 20)
#    0.000    2.571    1.429    1.714    0.000    4.571 
#    0.000    1.429    0.000    3.429    0.000    0.000 
#    0.000    0.000    0.000    0.000    0.000    0.000 
#
# Total GULP energy -155914.626454 kJ/mol
# GULP energy per Si atom -5568.379516 kJ/mol
# Density = 1.773940 g / cm^3
# Si number density = 17.779872 Si / 1000 Ang^3
#
#
#
# Elastic Constant Matrix: (Units=GPa)
#
#
# Indices 1 2 3 4 5 6 
#
# 1 61.7061 14.0316 59.6197 0.0000 4.0212 0.0000
# 2 14.0316 17.1568 30.6092 0.0000 0.1043 0.0000
# 3 59.6197 30.6092 173.7663 0.0000 6.7078 0.0000
# 4 0.0000 0.0000 0.0000 27.0364 0.0000 3.7113
# 5 4.0212 0.1043 6.7078 0.0000 31.3161 0.0000
# 6 0.0000 0.0000 0.0000 3.7113 0.0000 23.2355
#
#
#
# Elastic Compliance Matrix: (Units=1/GPa)
#
#
# Indices 1 2 3 4 5 6 
#
# 1 0.024965 -0.007640 -0.007156 0.000000 -0.001647 0.000000
# 2 -0.007640 0.087608 -0.012944 0.000000 0.003462 0.000000
# 3 -0.007156 -0.012944 0.010540 0.000000 -0.001296 0.000000
# 4 0.000000 0.000000 0.000000 0.037816 0.000000 -0.006040
# 5 -0.001647 0.003462 -0.001296 0.000000 0.032410 0.000000
# 6 0.000000 0.000000 0.000000 -0.006040 0.000000 0.044002
#
#
# Mechanical properties :
#
#
# Convention : Reuss Voigt Hill
#
# Bulk Modulus (GPa) = 14.78611 51.23889 33.01250
# Shear Modulus (GPa) = 15.85458 26.20885 21.03172
#
# Velocity S-wave (km/s) = 2.98940 3.84353 3.44305
# Velocity P-wave (km/s) = 4.49996 6.96979 5.86633
#
# Compressibility (1/GPa) = 0.06763106
#
# Stress axis : x y z
#
# Youngs Moduli (GPa) = 40.05674 11.41454 94.87396
#
# Poissons Ratio (x) = 0.08721 0.67892
# Poissons Ratio (y) = 0.30604 1.22809
# Poissons Ratio (z) = 0.28665 0.14776
#
# Static dielectric constant tensor:
#      x y z
#    x 1.577180 0.000000 -0.021200 
#    y 0.000000 1.610120 0.000000 
#    z -0.021200 0.000000 1.663100 
# 
# From -- ./inp_files/61241.got.cif
#   From: 2010.05.17/outbox.cif.g08.bks.cpg/sg11_31_cif.got.tgz:61241.got - 2010.06.03 12:22:45.
