data_PCOD9158149
_publ_section_title
;
Structure prediction by ZEFSAII (Michael W. Deem and Ramdas Pophale) SiO2 
 PCOD9158149
Probable space group: P 21/M
;
_chemical_formula_sum "Si O2"
_cell_formula_units_Z 28
_cell_length_a 19.338658
_cell_length_b 7.654700
_cell_length_c 14.187998
_cell_angle_alpha 90.000000
_cell_angle_beta 145.017139
_cell_angle_gamma 90.000000
_cell_volume 1204.152068
_symmetry_space_group_name_H-M "P 21/M"
_symmetry_group_IT_number 11
_symmetry_cell_setting 'monoclinic'
loop_
_space_group_symop_operation_xyz
x,y,z
-x,1/2+y,-z
-x,-y,-z
x,1/2-y,z
loop_
_atom_site_type_symbol
_atom_site_label
_atom_site_fract_x
_atom_site_fract_y
_atom_site_fract_z
Si Si1 0.794828 0.450634 0.981135
Si Si2 0.729483 0.537590 0.108335
Si Si3 0.303537 0.954191 0.520696
Si Si4 0.529306 0.459089 0.139828
Si Si5 0.949225 0.956151 0.725043
Si Si6 0.107450 0.040952 0.547122
Si Si7 0.471806 0.541865 0.360679
O O1 0.787831 0.250000 0.939783
O O2 0.663462 0.530178 0.811695
O O3 0.803228 0.459204 0.104480
O O4 0.923796 0.528385 0.093884
O O5 0.737266 0.750000 0.112649
O O6 0.776558 0.479561 0.263402
O O7 0.591454 0.482504 0.941169
O O8 0.281121 0.750000 0.506862
O O9 0.354367 0.031138 0.676673
O O10 0.172695 0.028611 0.350780
O O11 0.415162 0.974787 0.574294
O O12 0.535159 0.250000 0.153997
O O13 0.500000 0.500000 0.000000
O O14 0.972211 0.750000 0.738356
O O15 0.917220 0.030221 0.584818
O O16 0.118020 0.250000 0.550567
O O17 0.000000 0.000000 0.500000
O O18 0.500000 0.500000 0.500000
O O19 0.468912 0.750000 0.342187
#
# Coordination Sequence:
#
# PCOD9158149 Si02
#       7
#     4   4   4   4   4   4   4
#     4  10  21  38  62  89 116 153 199 245 298 361
#     4  10  19  32  51  78 114 156 201 250 297 345
#     4  11  23  40  62  92 126 162 206 255 307 366
#     4  10  21  35  53  80 118 162 206 252 299 353
#     4  10  21  38  58  85 125 166 204 251 304 358
#     4  10  19  30  49  77 116 164 210 251 295 349
#     4  11  24  44  71  98 122 154 198 253 316 378
#
# _framework density 23.252877000000002
#
# number of rings (size 3 to 8) (size 9 to 14) (size 15 to 20)
#    0.000    1.714    2.857    1.714    0.000    4.571 
#    0.000    0.714    0.000    0.000    0.000    0.000 
#    0.000    0.000    0.000    0.000    0.000    0.000 
#
# Total GULP energy -156282.749793 kJ/mol
# GULP energy per Si atom -5581.526778 kJ/mol
# Density = 2.319995 g / cm^3
# Si number density = 23.252877 Si / 1000 Ang^3
#
#
#
# Elastic Constant Matrix: (Units=GPa)
#
#
# Indices 1 2 3 4 5 6 
#
# 1 80.9802 -9.7856 64.9211 0.0000 27.4371 0.0000
# 2 -9.7856 54.9875 1.5735 0.0000 6.6733 0.0000
# 3 64.9211 1.5735 141.7741 0.0000 40.4500 0.0000
# 4 0.0000 0.0000 0.0000 11.7274 0.0000 1.1169
# 5 27.4371 6.6733 40.4500 0.0000 47.9317 0.0000
# 6 0.0000 0.0000 0.0000 1.1169 0.0000 27.4939
#
#
#
# Elastic Compliance Matrix: (Units=1/GPa)
#
#
# Indices 1 2 3 4 5 6 
#
# 1 0.021560 0.004812 -0.008184 0.000000 -0.006104 0.000000
# 2 0.004812 0.019625 -0.001127 0.000000 -0.004535 0.000000
# 3 -0.008184 -0.001127 0.012424 0.000000 -0.005643 0.000000
# 4 0.000000 0.000000 0.000000 0.085601 0.000000 -0.003477
# 5 -0.006104 -0.004535 -0.005643 0.000000 0.029751 0.000000
# 6 0.000000 0.000000 0.000000 -0.003477 0.000000 0.036513
#
#
# Mechanical properties :
#
#
# Convention : Reuss Voigt Hill
#
# Bulk Modulus (GPa) = 22.41714 43.46219 32.93967
# Shear Modulus (GPa) = 21.80148 32.16613 26.98381
#
# Velocity S-wave (km/s) = 3.06532 3.72333 3.41023
# Velocity P-wave (km/s) = 4.71060 6.10049 5.45003
#
# Compressibility (1/GPa) = 0.04460873
#
# Stress axis : x y z
#
# Youngs Moduli (GPa) = 46.38288 50.95557 80.49155
#
# Poissons Ratio (x) = -0.24519 0.65877
# Poissons Ratio (y) = -0.22318 0.09073
# Poissons Ratio (z) = 0.37961 0.05744
#
# Static dielectric constant tensor:
#      x y z
#    x 1.898360 0.000000 0.042590 
#    y 0.000000 1.844120 0.000000 
#    z 0.042590 0.000000 2.041850 
# 
# From -- ./inp_files/54638.got.cif
#   From: 2010.05.17/outbox.cif.g08.bks.cpg/sg11_28_cif.got.tgz:54638.got - 2010.06.03 12:22:45.
