data_PCOD9158057
_publ_section_title
;
Structure prediction by ZEFSAII (Michael W. Deem and Ramdas Pophale) SiO2 
 PCOD9158057
Probable space group: P 21/M
;
_chemical_formula_sum "Si O2"
_cell_formula_units_Z 24
_cell_length_a 18.027249
_cell_length_b 7.748113
_cell_length_c 7.909863
_cell_angle_alpha 90.000000
_cell_angle_beta 52.838003
_cell_angle_gamma 90.000000
_cell_volume 880.470794
_symmetry_space_group_name_H-M "P 21/M"
_symmetry_group_IT_number 11
_symmetry_cell_setting 'monoclinic'
loop_
_space_group_symop_operation_xyz
x,y,z
-x,1/2+y,-z
-x,-y,-z
x,1/2-y,z
loop_
_atom_site_type_symbol
_atom_site_label
_atom_site_fract_x
_atom_site_fract_y
_atom_site_fract_z
Si Si1 0.652854 0.553217 0.217317
Si Si2 0.139093 0.460439 0.367123
Si Si3 0.025469 0.953749 0.187612
Si Si4 0.319951 0.447162 0.273526
Si Si5 0.807585 0.450752 0.244965
Si Si6 0.525568 0.452168 0.699959
O O1 0.682274 0.750000 0.143750
O O2 0.741804 0.456523 0.168212
O O3 0.583130 0.549771 0.475926
O O4 0.582193 0.491400 0.166663
O O5 0.138461 0.250000 0.369768
O O6 0.087811 0.521811 0.270650
O O7 0.245967 0.517150 0.238709
O O8 0.074179 0.522737 0.612943
O O9 0.017298 0.750000 0.168306
O O10 0.091773 0.024826 0.947975
O O11 0.344446 0.250000 0.200464
O O12 0.249977 0.449892 0.533408
O O13 0.413479 0.532037 0.214986
O O14 0.813544 0.250000 0.285401
O O15 0.525349 0.250000 0.656046
#
# Coordination Sequence:
#
# PCOD9158057 Si02
#       6
#     4   4   4   4   4   4
#     4   9  16  26  42  65  93 124 156 190 229 274
#     4   9  19  35  52  70  93 123 159 195 233 280
#     4   9  19  35  52  70  93 123 159 195 233 280
#     4  10  19  30  47  72  99 125 155 193 234 276
#     4  10  19  30  47  72  99 125 155 193 234 276
#     4   9  16  26  42  65  93 124 156 190 229 274
#
# _framework density 27.258143
#
# number of rings (size 3 to 8) (size 9 to 14) (size 15 to 20)
#    0.000    2.667    0.000    4.000    0.000    5.333 
#    0.000    0.000    0.000    1.000    0.000    0.000 
#    0.000    0.000    0.000    0.000    0.000    0.000 
#
# Total GULP energy -134256.665049 kJ/mol
# GULP energy per Si atom -5594.027710 kJ/mol
# Density = 2.719610 g / cm^3
# Si number density = 27.258143 Si / 1000 Ang^3
#
#
#
# Elastic Constant Matrix: (Units=GPa)
#
#
# Indices 1 2 3 4 5 6 
#
# 1 178.9017 24.6971 3.9128 0.0000 -17.8867 0.0000
# 2 24.6971 90.1261 6.9568 0.0000 2.1867 0.0000
# 3 3.9128 6.9568 109.6194 0.0000 -21.1736 0.0000
# 4 0.0000 0.0000 0.0000 14.2065 0.0000 6.8631
# 5 -17.8867 2.1867 -21.1736 0.0000 67.9815 0.0000
# 6 0.0000 0.0000 0.0000 6.8631 0.0000 39.6830
#
#
#
# Elastic Compliance Matrix: (Units=1/GPa)
#
#
# Indices 1 2 3 4 5 6 
#
# 1 0.005989 -0.001700 0.000222 0.000000 0.001700 0.000000
# 2 -0.001700 0.011657 -0.000892 0.000000 -0.001100 0.000000
# 3 0.000222 -0.000892 0.009776 0.000000 0.003132 0.000000
# 4 0.000000 0.000000 0.000000 0.076808 0.000000 -0.013284
# 5 0.001700 -0.001100 0.003132 0.000000 0.016168 0.000000
# 6 0.000000 0.000000 0.000000 -0.013284 0.000000 0.027497
#
#
# Mechanical properties :
#
#
# Convention : Reuss Voigt Hill
#
# Bulk Modulus (GPa) = 44.08263 49.97563 47.02913
# Shear Modulus (GPa) = 31.21205 47.24621 39.22913
#
# Velocity S-wave (km/s) = 3.38754 4.16779 3.79776
# Velocity P-wave (km/s) = 5.61319 6.44474 6.04329
#
# Compressibility (1/GPa) = 0.02268467
#
# Stress axis : x y z
#
# Youngs Moduli (GPa) = 166.96212 85.78661 102.29033
#
# Poissons Ratio (x) = 0.14581 -0.02275
# Poissons Ratio (y) = 0.28378 0.09120
# Poissons Ratio (z) = -0.03713 0.07648
#
# Static dielectric constant tensor:
#      x y z
#    x 2.201800 0.000000 0.068010 
#    y 0.000000 2.016140 0.000000 
#    z 0.068010 0.000000 2.268640 
# 
# From -- ./inp_files/25526.got.cif
#   From: 2010.05.17/outbox.cif.g08.bks.cpg/sg11_13_cif.got.tgz:25526.got - 2010.06.03 12:22:45.
