data_PCOD9158463
_publ_section_title
;
Structure prediction by ZEFSAII (Michael W. Deem and Ramdas Pophale) SiO2 
 PCOD9158463
Probable space group: P 21/M
;
_chemical_formula_sum "Si O2"
_cell_formula_units_Z 32
_cell_length_a 21.165056
_cell_length_b 8.210459
_cell_length_c 9.648504
_cell_angle_alpha 90.000000
_cell_angle_beta 94.559721
_cell_angle_gamma 90.000000
_cell_volume 1671.360458
_symmetry_space_group_name_H-M "P 21/M"
_symmetry_group_IT_number 11
_symmetry_cell_setting 'monoclinic'
loop_
_space_group_symop_operation_xyz
x,y,z
-x,1/2+y,-z
-x,-y,-z
x,1/2-y,z
loop_
_atom_site_type_symbol
_atom_site_label
_atom_site_fract_x
_atom_site_fract_y
_atom_site_fract_z
Si Si1 0.506781 0.055008 0.658694
Si Si2 0.890574 0.941350 0.932153
Si Si3 0.367462 0.052872 0.157155
Si Si4 0.436797 0.446417 0.907382
Si Si5 0.895236 0.059606 0.241155
Si Si6 0.968429 0.059250 0.704748
Si Si7 0.844251 0.446479 0.513573
Si Si8 0.234600 0.054188 0.253542
O O1 0.506828 0.250000 0.661236
O O2 0.449958 0.997481 0.752368
O O3 0.500000 0.000000 0.500000
O O4 0.572647 0.996240 0.738315
O O5 0.898848 0.750000 0.903194
O O6 0.823504 0.997594 0.855693
O O7 0.945325 0.035820 0.859248
O O8 0.890594 0.968411 0.095390
O O9 0.365302 0.250000 0.155035
O O10 0.301785 0.991860 0.210236
O O11 0.380935 0.997257 0.000683
O O12 0.433676 0.250000 0.903440
O O13 0.500000 0.500000 0.000000
O O14 0.883352 0.250000 0.214166
O O15 0.849341 0.999301 0.355653
O O16 0.967119 0.036932 0.307490
O O17 0.979376 0.250000 0.679381
O O18 0.908747 0.999826 0.603625
O O19 0.845246 0.250000 0.514528
O O20 0.785566 0.503269 0.595582
O O21 0.236629 0.250000 0.249784
#
# Coordination Sequence:
#
# PCOD9158463 Si02
#       8
#     4   4   4   4   4   4   4   4
#     4  10  19  31  49  77 109 139 165 198 243 290
#     4  10  20  34  50  71  98 128 162 204 248 296
#     4   9  17  33  55  76  97 127 166 208 246 287
#     4   8  15  28  48  72  99 128 161 197 236 278
#     4  11  21  33  49  72  99 127 159 202 253 301
#     4  10  19  33  52  73  95 125 163 204 251 303
#     4   9  20  35  51  71  99 131 163 201 247 297
#     4   9  19  35  55  74  94 125 167 206 244 290
#
# _framework density 19.146079
#
# number of rings (size 3 to 8) (size 9 to 14) (size 15 to 20)
#    0.000    2.500    0.000    2.250    0.000    3.000 
#    0.000    1.250    0.000    3.000    0.000    0.000 
#    0.000    0.000    0.000    0.000    0.000    0.000 
#
# Total GULP energy -178421.841110 kJ/mol
# GULP energy per Si atom -5575.682535 kJ/mol
# Density = 1.910250 g / cm^3
# Si number density = 19.146079 Si / 1000 Ang^3
#
#
#
# Elastic Constant Matrix: (Units=GPa)
#
#
# Indices 1 2 3 4 5 6 
#
# 1 84.1521 2.8819 38.9245 0.0000 -36.1793 0.0000
# 2 2.8819 14.4860 1.7576 0.0000 -2.1241 0.0000
# 3 38.9245 1.7576 120.6868 0.0000 -37.5321 0.0000
# 4 0.0000 0.0000 0.0000 19.8643 0.0000 -2.7960
# 5 -36.1793 -2.1241 -37.5321 0.0000 30.3073 0.0000
# 6 0.0000 0.0000 0.0000 -2.7960 0.0000 19.5629
#
#
#
# Elastic Compliance Matrix: (Units=1/GPa)
#
#
# Indices 1 2 3 4 5 6 
#
# 1 0.024696 -0.000478 0.001951 0.000000 0.031864 0.000000
# 2 -0.000478 0.069808 0.000783 0.000000 0.005292 0.000000
# 3 0.001951 0.000783 0.013639 0.000000 0.019275 0.000000
# 4 0.000000 0.000000 0.000000 0.051375 0.000000 0.007343
# 5 0.031864 0.005292 0.019275 0.000000 0.095273 0.000000
# 6 0.000000 0.000000 0.000000 0.007343 0.000000 0.052167
#
#
# Mechanical properties :
#
#
# Convention : Reuss Voigt Hill
#
# Bulk Modulus (GPa) = 8.87650 34.05034 21.46342
# Shear Modulus (GPa) = 14.70597 25.66428 20.18512
#
# Velocity S-wave (km/s) = 2.77446 3.66518 3.25047
# Velocity P-wave (km/s) = 3.86131 5.97784 5.03211
#
# Compressibility (1/GPa) = 0.11265699
#
# Stress axis : x y z
#
# Youngs Moduli (GPa) = 40.49196 14.32500 73.31658
#
# Poissons Ratio (x) = 0.00684 -0.14304
# Poissons Ratio (y) = 0.01934 -0.05743
# Poissons Ratio (z) = -0.07900 -0.01122
#
# Static dielectric constant tensor:
#      x y z
#    x 1.663810 0.000000 -0.034160 
#    y 0.000000 1.629470 0.000000 
#    z -0.034160 0.000000 1.700630 
# 
# From -- ./inp_files/27291.got.cif
#   From: 2010.05.17/outbox.cif.g08.bks.cpg/sg11_14_cif.got.tgz:27291.got - 2010.06.03 12:22:45.
