data_PCOD9158455
_publ_section_title
;
Structure prediction by ZEFSAII (Michael W. Deem and Ramdas Pophale) SiO2 
 PCOD9158455
Probable space group: P 21/M
;
_chemical_formula_sum "Si O2"
_cell_formula_units_Z 32
_cell_length_a 12.201168
_cell_length_b 8.162185
_cell_length_c 18.377682
_cell_angle_alpha 90.000000
_cell_angle_beta 69.862700
_cell_angle_gamma 90.000000
_cell_volume 1718.320563
_symmetry_space_group_name_H-M "P 21/M"
_symmetry_group_IT_number 11
_symmetry_cell_setting 'monoclinic'
loop_
_space_group_symop_operation_xyz
x,y,z
-x,1/2+y,-z
-x,-y,-z
x,1/2-y,z
loop_
_atom_site_type_symbol
_atom_site_label
_atom_site_fract_x
_atom_site_fract_y
_atom_site_fract_z
Si Si1 0.252139 0.054910 0.358213
Si Si2 0.734441 0.950641 0.147473
Si Si3 0.816338 0.552412 0.968314
Si Si4 0.031663 0.552083 0.312633
Si Si5 0.398707 0.053436 0.078556
Si Si6 0.528391 0.444480 0.778181
Si Si7 0.032467 0.052858 0.832102
Si Si8 0.111464 0.447427 0.522187
O O1 0.242824 0.250000 0.360944
O O2 0.218594 0.994199 0.447348
O O3 0.379225 0.008707 0.301104
O O4 0.152829 0.994711 0.324150
O O5 0.731935 0.750000 0.147646
O O6 0.604375 0.008332 0.196167
O O7 0.837230 0.003312 0.178059
O O8 0.771071 0.002195 0.057555
O O9 0.816627 0.750000 0.969060
O O10 0.723574 0.497448 0.928333
O O11 0.943465 0.493523 0.916322
O O12 0.029579 0.750000 0.311097
O O13 0.015431 0.490124 0.234352
O O14 0.924063 0.495497 0.389037
O O15 0.397377 0.250000 0.083112
O O16 0.423852 0.984871 0.152330
O O17 0.500000 0.000000 0.000000
O O18 0.523769 0.250000 0.771693
O O19 0.035672 0.250000 0.827510
O O20 0.117980 0.250000 0.524444
O O21 0.000000 0.500000 0.500000
#
# Coordination Sequence:
#
# PCOD9158455 Si02
#       8
#     4   4   4   4   4   4   4   4
#     4  10  19  31  49  76 104 130 159 197 245 298
#     4   9  19  36  51  66  93 130 168 206 245 285
#     4  10  20  35  51  69  97 128 159 200 250 291
#     4   9  17  31  51  76 101 128 160 198 245 297
#     4  11  21  34  52  74 100 130 162 200 246 293
#     4  11  21  35  52  70  98 134 168 205 244 288
#     4  10  20  33  52  74  94 122 166 209 243 288
#     4   8  15  28  47  71 101 129 155 191 241 296
#
# _framework density 18.622834000000001
#
# number of rings (size 3 to 8) (size 9 to 14) (size 15 to 20)
#    0.000    2.250    1.250    2.250    0.000    4.000 
#    0.000    1.250    0.000    0.750    0.000    0.000 
#    0.000    0.000    0.000    0.000    0.000    0.750 
#
# Total GULP energy -178462.061012 kJ/mol
# GULP energy per Si atom -5576.939407 kJ/mol
# Density = 1.858045 g / cm^3
# Si number density = 18.622834 Si / 1000 Ang^3
#
#
#
# Elastic Constant Matrix: (Units=GPa)
#
#
# Indices 1 2 3 4 5 6 
#
# 1 90.9402 11.1207 44.5630 0.0000 -19.9910 0.0000
# 2 11.1207 4.3310 9.8416 0.0000 -1.8235 0.0000
# 3 44.5630 9.8416 130.0635 0.0000 -32.7147 0.0000
# 4 0.0000 0.0000 0.0000 20.8934 0.0000 -4.2401
# 5 -19.9910 -1.8235 -32.7147 0.0000 22.1588 0.0000
# 6 0.0000 0.0000 0.0000 -4.2401 0.0000 14.8006
#
#
#
# Elastic Compliance Matrix: (Units=1/GPa)
#
#
# Indices 1 2 3 4 5 6 
#
# 1 0.019451 -0.044636 0.000323 0.000000 0.014352 0.000000
# 2 -0.044636 0.383657 -0.025332 0.000000 -0.046097 0.000000
# 3 0.000323 -0.025332 0.014386 0.000000 0.019446 0.000000
# 4 0.000000 0.000000 0.000000 0.050816 0.000000 0.014558
# 5 0.014352 -0.046097 0.019446 0.000000 0.082992 0.000000
# 6 0.000000 0.000000 0.000000 0.014558 0.000000 0.071736
#
#
# Mechanical properties :
#
#
# Convention : Reuss Voigt Hill
#
# Bulk Modulus (GPa) = 3.59447 39.59836 21.59642
# Shear Modulus (GPa) = 5.84753 22.22452 14.03602
#
# Velocity S-wave (km/s) = 1.77392 3.45831 2.74834
# Velocity P-wave (km/s) = 2.47590 6.10377 4.65758
#
# Compressibility (1/GPa) = 0.27820475
#
# Stress axis : x y z
#
# Youngs Moduli (GPa) = 51.41051 2.60650 69.51281
#
# Poissons Ratio (x) = 0.11634 -0.02245
# Poissons Ratio (y) = 2.29476 1.76087
# Poissons Ratio (z) = -0.01660 0.06603
#
# Static dielectric constant tensor:
#      x y z
#    x 1.633410 0.000000 -0.008040 
#    y 0.000000 1.742060 0.000000 
#    z -0.008040 0.000000 1.672540 
# 
# From -- ./inp_files/61766.got.cif
#   From: 2010.05.17/outbox.cif.g08.bks.cpg/sg11_31_cif.got.tgz:61766.got - 2010.06.03 12:22:45.
