data_PCOD9158002
_publ_section_title
;
Structure prediction by ZEFSAII (Michael W. Deem and Ramdas Pophale) SiO2 
 PCOD9158002
Probable space group: P 21/M
;
_chemical_formula_sum "Si O2"
_cell_formula_units_Z 32
_cell_length_a 28.508755
_cell_length_b 8.981389
_cell_length_c 21.495097
_cell_angle_alpha 90.000000
_cell_angle_beta 159.114091
_cell_angle_gamma 90.000000
_cell_volume 1962.143358
_symmetry_space_group_name_H-M "P 21/M"
_symmetry_group_IT_number 11
_symmetry_cell_setting 'monoclinic'
loop_
_space_group_symop_operation_xyz
x,y,z
-x,1/2+y,-z
-x,-y,-z
x,1/2-y,z
loop_
_atom_site_type_symbol
_atom_site_label
_atom_site_fract_x
_atom_site_fract_y
_atom_site_fract_z
Si Si1 0.789990 0.426924 0.248606
Si Si2 0.300322 0.075691 0.601600
Si Si3 0.996159 0.073729 0.264911
Si Si4 0.037885 0.073038 0.644134
Si Si5 0.919323 0.922777 0.045539
Si Si6 0.479745 0.427391 0.042334
Si Si7 0.770323 0.078249 0.607886
Si Si8 0.862318 0.428866 0.851724
O O1 0.768229 0.250000 0.216142
O O2 0.856918 0.491363 0.269452
O O3 0.896229 0.451652 0.435499
O O4 0.656081 0.510564 0.098274
O O5 0.332099 0.250000 0.646994
O O6 0.151664 0.052671 0.442589
O O7 0.401225 0.978967 0.766162
O O8 0.299962 0.025621 0.529111
O O9 0.972681 0.250000 0.240523
O O10 0.963606 0.992769 0.288799
O O11 0.917140 0.005270 0.108791
O O12 0.061956 0.250000 0.674557
O O13 0.882433 0.750000 0.005147
O O14 0.073809 0.927061 0.216309
O O15 0.839312 0.003132 0.891228
O O16 0.475951 0.250000 0.032246
O O17 0.500000 0.500000 0.000000
O O18 0.728353 0.250000 0.547878
O O19 0.762968 0.037510 0.671725
O O20 0.875603 0.250000 0.871669
O O21 0.000000 0.500000 0.000000
#
# Coordination Sequence:
#
# PCOD9158002 Si02
#       8
#     4   4   4   4   4   4   4   4
#     4  10  21  37  55  74  96 122 155 194 235 280
#     4  10  20  32  47  68  94 125 162 199 236 281
#     4  10  19  30  46  68  95 127 161 197 237 281
#     4  10  20  34  53  74  96 123 155 193 236 281
#     4   9  16  25  38  58  86 119 155 193 232 277
#     4  12  24  37  53  72  97 126 158 195 236 281
#     4   8  15  26  39  57  84 119 155 191 232 276
#     4   9  15  23  36  55  82 116 153 190 229 275
#
# _framework density 16.308696999999999
#
# number of rings (size 3 to 8) (size 9 to 14) (size 15 to 20)
#    0.000    2.250    0.000    4.875    0.000    8.500 
#    0.000    0.000    0.000    0.000    0.000    0.000 
#    0.000    1.000    0.000    3.750    0.000    6.750 
#
# Total GULP energy -178452.564165 kJ/mol
# GULP energy per Si atom -5576.642630 kJ/mol
# Density = 1.627158 g / cm^3
# Si number density = 16.308697 Si / 1000 Ang^3
#
#
#
# Elastic Constant Matrix: (Units=GPa)
#
#
# Indices 1 2 3 4 5 6 
#
# 1 122.0211 68.0242 40.0246 0.0000 -35.0116 0.0000
# 2 68.0242 112.3641 43.6751 0.0000 -18.1575 0.0000
# 3 40.0246 43.6751 39.6379 0.0000 -14.9476 0.0000
# 4 0.0000 0.0000 0.0000 22.8549 0.0000 -6.3726
# 5 -35.0116 -18.1575 -14.9476 0.0000 23.5976 0.0000
# 6 0.0000 0.0000 0.0000 -6.3726 0.0000 32.6274
#
#
#
# Elastic Compliance Matrix: (Units=1/GPa)
#
#
# Indices 1 2 3 4 5 6 
#
# 1 0.019257 -0.006627 -0.004325 0.000000 0.020733 0.000000
# 2 -0.006627 0.017885 -0.015153 0.000000 -0.005668 0.000000
# 3 -0.004325 -0.015153 0.051864 0.000000 0.014776 0.000000
# 4 0.000000 0.000000 0.000000 0.046274 0.000000 0.009038
# 5 0.020733 -0.005668 0.014776 0.000000 0.078137 0.000000
# 6 0.000000 0.000000 0.000000 0.009038 0.000000 0.032414
#
#
# Mechanical properties :
#
#
# Convention : Reuss Voigt Hill
#
# Bulk Modulus (GPa) = 27.17605 64.16343 45.66974
# Shear Modulus (GPa) = 16.11306 23.96926 20.04116
#
# Velocity S-wave (km/s) = 3.14666 3.83786 3.50932
# Velocity P-wave (km/s) = 5.46824 7.68553 6.66967
#
# Compressibility (1/GPa) = 0.03679710
#
# Stress axis : x y z
#
# Youngs Moduli (GPa) = 51.92890 55.91176 19.28116
#
# Poissons Ratio (x) = 0.37051 0.08339
# Poissons Ratio (y) = 0.34412 0.29217
# Poissons Ratio (z) = 0.22458 0.84724
#
# Static dielectric constant tensor:
#      x y z
#    x 1.551840 0.000000 -0.019240 
#    y 0.000000 1.548900 0.000000 
#    z -0.019240 0.000000 1.533420 
# 
# From -- ./inp_files/67161.got.cif
#   From: 2010.05.17/outbox.cif.g08.bks.cpg/sg11_34_cif.got.tgz:67161.got - 2010.06.03 12:22:45.
