data_PCOD9158824
_publ_section_title
;
Structure prediction by ZEFSAII (Michael W. Deem and Ramdas Pophale) SiO2 
 PCOD9158824
Probable space group: P 21/M
;
_chemical_formula_sum "Si O2"
_cell_formula_units_Z 28
_cell_length_a 22.399602
_cell_length_b 7.891248
_cell_length_c 18.581687
_cell_angle_alpha 90.000000
_cell_angle_beta 25.575454
_cell_angle_gamma 90.000000
_cell_volume 1417.922635
_symmetry_space_group_name_H-M "P 21/M"
_symmetry_group_IT_number 11
_symmetry_cell_setting 'monoclinic'
loop_
_space_group_symop_operation_xyz
x,y,z
-x,1/2+y,-z
-x,-y,-z
x,1/2-y,z
loop_
_atom_site_type_symbol
_atom_site_label
_atom_site_fract_x
_atom_site_fract_y
_atom_site_fract_z
Si Si1 0.580684 0.543869 0.019002
Si Si2 0.660770 0.452970 0.333080
Si Si3 0.869752 0.546997 0.978354
Si Si4 0.895126 0.045933 0.178698
Si Si5 0.765080 0.555423 0.941866
Si Si6 0.290693 0.950574 0.272173
Si Si7 0.006016 0.942340 0.410816
O O1 0.586565 0.750000 0.011734
O O2 0.424394 0.492995 0.171550
O O3 0.641023 0.481023 0.028914
O O4 0.671857 0.483318 0.852236
O O5 0.500000 0.500000 0.500000
O O6 0.668263 0.250000 0.324614
O O7 0.744492 0.513011 0.314117
O O8 0.752884 0.516912 0.165909
O O9 0.886238 0.750000 0.951850
O O10 0.815350 0.475905 0.961784
O O11 0.018763 0.482048 0.845526
O O12 0.887314 0.250000 0.193520
O O13 0.000000 0.000000 0.000000
O O14 0.725457 0.750000 0.000954
O O15 0.893231 0.552383 0.747346
O O16 0.270684 0.750000 0.303515
O O17 0.150938 0.042852 0.444894
O O18 0.055796 0.750000 0.353268
O O19 0.000000 0.000000 0.500000
#
# Coordination Sequence:
#
# PCOD9158824 Si02
#       7
#     4   4   4   4   4   4   4
#     4   9  18  32  51  74 100 131 169 211 259 313
#     4  10  19  32  53  80 108 138 174 213 253 299
#     4   9  18  34  55  78 105 136 171 211 261 312
#     4   8  15  29  50  75 101 132 169 207 247 298
#     4  10  20  35  55  78 104 135 170 215 265 314
#     4  10  19  32  51  74  98 129 169 215 263 309
#     4  12  23  35  52  75 101 133 174 220 263 309
#
# _framework density 19.747198000000001
#
# number of rings (size 3 to 8) (size 9 to 14) (size 15 to 20)
#    0.000    2.286    1.429    2.143    0.000    1.714 
#    0.000    1.429    0.000    8.571    0.000    0.000 
#    0.000    0.000    0.000    0.000    0.000    0.000 
#
# Total GULP energy -156045.702147 kJ/mol
# GULP energy per Si atom -5573.060791 kJ/mol
# Density = 1.970225 g / cm^3
# Si number density = 19.747198 Si / 1000 Ang^3
#
#
#
# Elastic Constant Matrix: (Units=GPa)
#
#
# Indices 1 2 3 4 5 6 
#
# 1 196.8251 3.3284 42.8118 0.0000 -28.4836 0.0000
# 2 3.3284 31.4068 -11.5126 0.0000 -2.5809 0.0000
# 3 42.8118 -11.5126 47.3479 0.0000 -26.1210 0.0000
# 4 0.0000 0.0000 0.0000 21.6272 0.0000 -2.7523
# 5 -28.4836 -2.5809 -26.1210 0.0000 33.5653 0.0000
# 6 0.0000 0.0000 0.0000 -2.7523 0.0000 13.7442
#
#
#
# Elastic Compliance Matrix: (Units=1/GPa)
#
#
# Indices 1 2 3 4 5 6 
#
# 1 0.006601 -0.003097 -0.006593 0.000000 0.000232 0.000000
# 2 -0.003097 0.042366 0.023567 0.000000 0.018969 0.000000
# 3 -0.006593 0.023567 0.053840 0.000000 0.038116 0.000000
# 4 0.000000 0.000000 0.000000 0.047447 0.000000 0.009501
# 5 0.000232 0.018969 0.038116 0.000000 0.061111 0.000000
# 6 0.000000 0.000000 0.000000 0.009501 0.000000 0.074661
#
#
# Mechanical properties :
#
#
# Convention : Reuss Voigt Hill
#
# Bulk Modulus (GPa) = 7.65933 38.31499 22.98716
# Shear Modulus (GPa) = 16.56761 29.85083 23.20922
#
# Velocity S-wave (km/s) = 2.89967 3.89221 3.43201
# Velocity P-wave (km/s) = 3.88560 6.29634 5.23172
#
# Compressibility (1/GPa) = 0.13055967
#
# Stress axis : x y z
#
# Youngs Moduli (GPa) = 151.49725 23.60376 18.57340
#
# Poissons Ratio (x) = 0.07311 0.12246
# Poissons Ratio (y) = 0.46925 -0.43772
# Poissons Ratio (z) = 0.99889 -0.55627
#
# Static dielectric constant tensor:
#      x y z
#    x 1.772670 0.000000 -0.053860 
#    y 0.000000 1.714740 0.000000 
#    z -0.053860 0.000000 1.697130 
# 
# From -- ./inp_files/61234.got.cif
#   From: 2010.05.17/outbox.cif.g08.bks.cpg/sg11_31_cif.got.tgz:61234.got - 2010.06.03 12:22:45.
