data_PCOD9158107
_publ_section_title
;
Structure prediction by ZEFSAII (Michael W. Deem and Ramdas Pophale) SiO2 
 PCOD9158107
Probable space group: P 21/M
;
_chemical_formula_sum "Si O2"
_cell_formula_units_Z 24
_cell_length_a 8.333561
_cell_length_b 12.963704
_cell_length_c 10.545505
_cell_angle_alpha 90.000000
_cell_angle_beta 56.438146
_cell_angle_gamma 90.000000
_cell_volume 949.342690
_symmetry_space_group_name_H-M "P 21/M"
_symmetry_group_IT_number 11
_symmetry_cell_setting 'monoclinic'
loop_
_space_group_symop_operation_xyz
x,y,z
-x,1/2+y,-z
-x,-y,-z
x,1/2-y,z
loop_
_atom_site_type_symbol
_atom_site_label
_atom_site_fract_x
_atom_site_fract_y
_atom_site_fract_z
Si Si1 0.975129 0.426424 0.310037
Si Si2 0.226198 0.428212 0.416728
Si Si3 0.363840 0.862315 0.217050
Si Si4 0.710190 0.639070 0.231333
Si Si5 0.633072 0.085427 0.305925
Si Si6 0.847338 0.080403 0.943300
O O1 0.906502 0.532964 0.410806
O O2 0.783259 0.372285 0.342842
O O3 0.104363 0.373480 0.360142
O O4 0.096467 0.467661 0.137462
O O5 0.291590 0.536716 0.322433
O O6 0.419249 0.374658 0.379422
O O7 0.290275 0.750000 0.294593
O O8 0.591516 0.861485 0.150203
O O9 0.291343 0.873422 0.104795
O O10 0.664173 0.750000 0.310644
O O11 0.627305 0.538175 0.336666
O O12 0.941033 0.629558 0.127619
O O13 0.736789 0.087243 0.123532
#
# Coordination Sequence:
#
# PCOD9158107 Si02
#       6
#     4   4   4   4   4   4
#     4   9  17  30  46  69  96 123 155 194 238 283
#     4   9  18  30  48  70  95 126 158 195 240 284
#     4   9  18  31  48  70  95 125 162 200 238 285
#     4   9  17  29  45  67  95 125 156 192 235 280
#     4  10  19  30  48  74  99 125 160 201 241 282
#     4  10  19  30  49  74  97 123 160 202 240 282
#
# _framework density 25.280647999999999
#
# number of rings (size 3 to 8) (size 9 to 14) (size 15 to 20)
#    0.000    2.667    0.000    3.000    0.000    7.333 
#    0.000    0.000    0.000    5.000    0.000   39.667 
#    0.000    0.000    0.000    0.000    0.000    0.000 
#
# Total GULP energy -133889.018777 kJ/mol
# GULP energy per Si atom -5578.709116 kJ/mol
# Density = 2.522311 g / cm^3
# Si number density = 25.280648 Si / 1000 Ang^3
#
#
#
# Elastic Constant Matrix: (Units=GPa)
#
#
# Indices 1 2 3 4 5 6 
#
# 1 287.8063 19.2659 54.4470 0.0000 -0.8699 0.0000
# 2 19.2659 94.6343 3.4814 0.0000 0.8723 0.0000
# 3 54.4470 3.4814 90.3250 0.0000 1.9932 0.0000
# 4 0.0000 0.0000 0.0000 2.5755 0.0000 -0.8292
# 5 -0.8699 0.8723 1.9932 0.0000 35.6050 0.0000
# 6 0.0000 0.0000 0.0000 -0.8292 0.0000 4.6868
#
#
#
# Elastic Compliance Matrix: (Units=1/GPa)
#
#
# Indices 1 2 3 4 5 6 
#
# 1 0.003973 -0.000724 -0.002372 0.000000 0.000248 0.000000
# 2 -0.000724 0.010716 0.000029 0.000000 -0.000282 0.000000
# 3 -0.002372 0.000029 0.012517 0.000000 -0.000759 0.000000
# 4 0.000000 0.000000 0.000000 0.411721 0.000000 0.072842
# 5 0.000248 -0.000282 -0.000759 0.000000 0.028141 0.000000
# 6 0.000000 0.000000 0.000000 0.072842 0.000000 0.226251
#
#
# Mechanical properties :
#
#
# Convention : Reuss Voigt Hill
#
# Bulk Modulus (GPa) = 47.45598 69.68378 58.56988
# Shear Modulus (GPa) = 7.07738 34.94490 21.01114
#
# Velocity S-wave (km/s) = 1.67499 3.72193 2.88604
# Velocity P-wave (km/s) = 4.74902 6.78928 5.85865
#
# Compressibility (1/GPa) = 0.02107216
#
# Stress axis : x y z
#
# Youngs Moduli (GPa) = 251.72938 93.31965 79.89352
#
# Poissons Ratio (x) = 0.06754 0.18952
# Poissons Ratio (y) = 0.18219 -0.00235
# Poissons Ratio (z) = 0.59714 -0.00275
#
# Static dielectric constant tensor:
#      x y z
#    x 2.079710 0.000000 -0.000160 
#    y 0.000000 1.993330 0.000000 
#    z -0.000160 0.000000 1.990430 
# 
# From -- ./inp_files/18271.got.cif
#   From: 2010.05.17/outbox.cif.g08.bks.cpg/sg11_10_cif.got.tgz:18271.got - 2010.06.03 12:22:45.
