data_PCOD9158450
_publ_section_title
;
Structure prediction by ZEFSAII (Michael W. Deem and Ramdas Pophale) SiO2 
 PCOD9158450
Probable space group: P 21/M
;
_chemical_formula_sum "Si O2"
_cell_formula_units_Z 32
_cell_length_a 11.469542
_cell_length_b 8.371138
_cell_length_c 19.806577
_cell_angle_alpha 90.000000
_cell_angle_beta 115.704783
_cell_angle_gamma 90.000000
_cell_volume 1713.501421
_symmetry_space_group_name_H-M "P 21/M"
_symmetry_group_IT_number 11
_symmetry_cell_setting 'monoclinic'
loop_
_space_group_symop_operation_xyz
x,y,z
-x,1/2+y,-z
-x,-y,-z
x,1/2-y,z
loop_
_atom_site_type_symbol
_atom_site_label
_atom_site_fract_x
_atom_site_fract_y
_atom_site_fract_z
Si Si1 0.637743 0.938764 0.331041
Si Si2 0.408526 0.935190 0.536036
Si Si3 0.398819 0.440882 0.198977
Si Si4 0.828575 0.564825 0.599552
Si Si5 0.935238 0.557853 0.413983
Si Si6 0.005672 0.943729 0.100693
Si Si7 0.212400 0.438159 0.043444
Si Si8 0.800904 0.438786 0.738772
O O1 0.637584 0.750000 0.319757
O O2 0.786408 0.995503 0.370201
O O3 0.578903 0.974389 0.390213
O O4 0.545971 0.018345 0.252625
O O5 0.435530 0.750000 0.554356
O O6 0.500000 0.000000 0.500000
O O7 0.264038 0.962271 0.471941
O O8 0.380397 0.250000 0.197830
O O9 0.342010 0.500316 0.112497
O O10 0.310633 0.518513 0.235605
O O11 0.811325 0.750000 0.577181
O O12 0.974596 0.510903 0.622303
O O13 0.789516 0.534069 0.666772
O O14 0.937264 0.750000 0.413575
O O15 0.000000 0.500000 0.500000
O O16 0.016256 0.750000 0.093143
O O17 0.063324 0.975004 0.188970
O O18 0.104076 0.030031 0.073950
O O19 0.861208 0.996060 0.042652
O O20 0.232149 0.250000 0.038278
O O21 0.795289 0.250000 0.722400
#
# Coordination Sequence:
#
# PCOD9158450 Si02
#       8
#     4   4   4   4   4   4   4   4
#     4  11  23  38  55  76 102 131 168 209 255 304
#     4  12  24  38  56  76 103 134 169 206 251 305
#     4  10  19  31  49  75 108 141 172 208 253 303
#     4  12  24  38  55  76 103 133 170 211 257 306
#     4  11  23  40  61  79  98 127 168 217 261 305
#     4   8  14  25  43  67  97 134 171 206 245 294
#     4   8  14  25  42  67  99 134 170 205 244 294
#     4  10  19  32  50  74 106 140 174 211 255 303
#
# _framework density 18.675211000000001
#
# number of rings (size 3 to 8) (size 9 to 14) (size 15 to 20)
#    0.000    1.750    1.250    4.500    0.000    2.500 
#    0.000    0.000    0.000    0.000    0.000    0.875 
#    0.000    0.000    0.000    0.000    0.000    0.000 
#
# Total GULP energy -178507.419291 kJ/mol
# GULP energy per Si atom -5578.356853 kJ/mol
# Density = 1.863271 g / cm^3
# Si number density = 18.675211 Si / 1000 Ang^3
#
#
#
# Elastic Constant Matrix: (Units=GPa)
#
#
# Indices 1 2 3 4 5 6 
#
# 1 51.1370 3.6197 6.6230 0.0000 21.9999 0.0000
# 2 3.6197 24.1771 -3.1760 0.0000 1.3846 0.0000
# 3 6.6230 -3.1760 80.6617 0.0000 36.8437 0.0000
# 4 0.0000 0.0000 0.0000 18.6444 0.0000 2.2883
# 5 21.9999 1.3846 36.8437 0.0000 28.6728 0.0000
# 6 0.0000 0.0000 0.0000 2.2883 0.0000 22.4024
#
#
#
# Elastic Compliance Matrix: (Units=1/GPa)
#
#
# Indices 1 2 3 4 5 6 
#
# 1 0.049565 0.001403 0.032410 0.000000 -0.079743 0.000000
# 2 0.001403 0.042824 0.007280 0.000000 -0.012500 0.000000
# 3 0.032410 0.007280 0.052151 0.000000 -0.092232 0.000000
# 4 0.000000 0.000000 0.000000 0.054316 0.000000 -0.005548
# 5 -0.079743 -0.012500 -0.092232 0.000000 0.215180 0.000000
# 6 0.000000 0.000000 0.000000 -0.005548 0.000000 0.045205
#
#
# Mechanical properties :
#
#
# Convention : Reuss Voigt Hill
#
# Bulk Modulus (GPa) = 4.41058 18.90103 11.65581
# Shear Modulus (GPa) = 11.04655 23.87119 17.45887
#
# Velocity S-wave (km/s) = 2.43473 3.57911 3.06088
# Velocity P-wave (km/s) = 3.20480 5.21756 4.32976
#
# Compressibility (1/GPa) = 0.22672734
#
# Stress axis : x y z
#
# Youngs Moduli (GPa) = 20.17549 23.35160 19.17490
#
# Poissons Ratio (x) = -0.03277 -0.62145
# Poissons Ratio (y) = -0.02832 -0.13960
# Poissons Ratio (z) = -0.65388 -0.17001
#
# Static dielectric constant tensor:
#      x y z
#    x 1.644970 0.000000 0.030190 
#    y 0.000000 1.799080 0.000000 
#    z 0.030190 0.000000 1.654210 
# 
# From -- ./inp_files/64249.got.cif
#   From: 2010.05.17/outbox.cif.g08.bks.cpg/sg11_33_cif.got.tgz:64249.got - 2010.06.03 12:22:45.
