data_PCOD9158467
_publ_section_title
;
Structure prediction by ZEFSAII (Michael W. Deem and Ramdas Pophale) SiO2 
 PCOD9158467
Probable space group: P 21/M
;
_chemical_formula_sum "Si O2"
_cell_formula_units_Z 32
_cell_length_a 24.214837
_cell_length_b 7.952222
_cell_length_c 21.561133
_cell_angle_alpha 90.000000
_cell_angle_beta 23.612450
_cell_angle_gamma 90.000000
_cell_volume 1663.015689
_symmetry_space_group_name_H-M "P 21/M"
_symmetry_group_IT_number 11
_symmetry_cell_setting 'monoclinic'
loop_
_space_group_symop_operation_xyz
x,y,z
-x,1/2+y,-z
-x,-y,-z
x,1/2-y,z
loop_
_atom_site_type_symbol
_atom_site_label
_atom_site_fract_x
_atom_site_fract_y
_atom_site_fract_z
Si Si1 0.954811 0.952826 0.664195
Si Si2 0.158833 0.453229 0.971585
Si Si3 0.659271 0.450385 0.334334
Si Si4 0.269694 0.048813 0.327988
Si Si5 0.709442 0.545738 0.832080
Si Si6 0.908038 0.047535 0.154312
Si Si7 0.763895 0.949684 0.972742
Si Si8 0.479569 0.553340 0.859014
O O1 0.957632 0.750000 0.663239
O O2 0.862020 0.999506 0.700155
O O3 0.870767 0.015668 0.810976
O O4 0.109711 0.014880 0.502729
O O5 0.154325 0.250000 0.978538
O O6 0.264518 0.496716 0.807611
O O7 0.209104 0.517995 0.986448
O O8 0.004322 0.513160 0.111778
O O9 0.500000 0.500000 0.500000
O O10 0.664538 0.250000 0.331419
O O11 0.755302 0.514783 0.292893
O O12 0.289768 0.250000 0.305510
O O13 0.310641 0.985272 0.217276
O O14 0.369850 0.982994 0.278926
O O15 0.697538 0.750000 0.846533
O O16 0.604926 0.472190 0.989931
O O17 0.900690 0.250000 0.167210
O O18 0.000000 0.000000 0.000000
O O19 0.786686 0.750000 0.952229
O O20 0.611775 0.974897 0.101295
O O21 0.489095 0.750000 0.834898
#
# Coordination Sequence:
#
# PCOD9158467 Si02
#       8
#     4   4   4   4   4   4   4   4
#     4   9  18  31  48  70  94 122 158 200 243 289
#     4   9  17  33  56  75  94 126 167 206 241 280
#     4  10  19  31  49  77 111 138 160 192 237 284
#     4  10  20  32  47  70  98 125 155 198 249 296
#     4   9  18  33  50  69  94 123 159 200 244 296
#     4   8  15  28  48  73  98 125 158 195 232 273
#     4   9  19  36  54  71  93 125 165 204 242 286
#     4  10  20  32  48  71  98 128 162 199 241 292
#
# _framework density 19.242152999999998
#
# number of rings (size 3 to 8) (size 9 to 14) (size 15 to 20)
#    0.000    2.750    0.000    2.250    0.000    4.500 
#    0.000    1.250    0.000    3.000    0.000    0.000 
#    0.000    0.000    0.000    0.000    0.000    0.000 
#
# Total GULP energy -178297.353510 kJ/mol
# GULP energy per Si atom -5571.792297 kJ/mol
# Density = 1.919836 g / cm^3
# Si number density = 19.242153 Si / 1000 Ang^3
#
#
#
# Elastic Constant Matrix: (Units=GPa)
#
#
# Indices 1 2 3 4 5 6 
#
# 1 133.4904 7.5087 36.8835 0.0000 -30.5061 0.0000
# 2 7.5087 12.8200 -4.5298 0.0000 -0.6881 0.0000
# 3 36.8835 -4.5298 69.5156 0.0000 -34.9040 0.0000
# 4 0.0000 0.0000 0.0000 23.3239 0.0000 -1.3932
# 5 -30.5061 -0.6881 -34.9040 0.0000 28.0624 0.0000
# 6 0.0000 0.0000 0.0000 -1.3932 0.0000 16.6642
#
#
#
# Elastic Compliance Matrix: (Units=1/GPa)
#
#
# Indices 1 2 3 4 5 6 
#
# 1 0.010349 -0.005791 -0.000775 0.000000 0.010145 0.000000
# 2 -0.005791 0.088769 0.018081 0.000000 0.018371 0.000000
# 3 -0.000775 0.018081 0.042011 0.000000 0.051854 0.000000
# 4 0.000000 0.000000 0.000000 0.043090 0.000000 0.003603
# 5 0.010145 0.018371 0.051854 0.000000 0.111611 0.000000
# 6 0.000000 0.000000 0.000000 0.003603 0.000000 0.060310
#
#
# Mechanical properties :
#
#
# Convention : Reuss Voigt Hill
#
# Bulk Modulus (GPa) = 6.09160 32.83899 19.46529
# Shear Modulus (GPa) = 12.89228 25.34099 19.11663
#
# Velocity S-wave (km/s) = 2.59125 3.63292 3.15537
# Velocity P-wave (km/s) = 3.48215 5.89073 4.83870
#
# Compressibility (1/GPa) = 0.16416057
#
# Stress axis : x y z
#
# Youngs Moduli (GPa) = 96.62443 11.26514 23.80352
#
# Poissons Ratio (x) = 0.06523 0.01844
# Poissons Ratio (y) = 0.55953 -0.43039
# Poissons Ratio (z) = 0.07484 -0.20368
#
# Static dielectric constant tensor:
#      x y z
#    x 1.702850 0.000000 -0.050210 
#    y 0.000000 1.688920 0.000000 
#    z -0.050210 0.000000 1.675040 
# 
# From -- ./inp_files/67796.got.cif
#   From: 2010.05.17/outbox.cif.g08.bks.cpg/sg11_34_cif.got.tgz:67796.got - 2010.06.03 12:22:45.
