data_PCOD9158813
_publ_section_title
;
Structure prediction by ZEFSAII (Michael W. Deem and Ramdas Pophale) SiO2 
 PCOD9158813
Probable space group: P 21/M
;
_chemical_formula_sum "Si O2"
_cell_formula_units_Z 28
_cell_length_a 6.390826
_cell_length_b 14.667870
_cell_length_c 18.468619
_cell_angle_alpha 90.000000
_cell_angle_beta 47.807707
_cell_angle_gamma 90.000000
_cell_volume 1282.670478
_symmetry_space_group_name_H-M "P 21/M"
_symmetry_group_IT_number 11
_symmetry_cell_setting 'monoclinic'
loop_
_space_group_symop_operation_xyz
x,y,z
-x,1/2+y,-z
-x,-y,-z
x,1/2-y,z
loop_
_atom_site_type_symbol
_atom_site_label
_atom_site_fract_x
_atom_site_fract_y
_atom_site_fract_z
Si Si1 0.684275 0.587275 0.977450
Si Si2 0.006121 0.856528 0.459856
Si Si3 0.763192 0.647907 0.115772
Si Si4 0.822292 0.034674 0.435398
Si Si5 0.651794 0.353389 0.345955
Si Si6 0.406748 0.652558 0.910801
Si Si7 0.673728 0.033565 0.196346
O O1 0.623395 0.654062 0.925952
O O2 0.006941 0.558789 0.900049
O O3 0.500000 0.500000 0.000000
O O4 0.621042 0.626432 0.071161
O O5 0.103330 0.750000 0.423423
O O6 0.668275 0.847710 0.549863
O O7 0.137365 0.900911 0.503006
O O8 0.014994 0.943221 0.401123
O O9 0.705860 0.750000 0.151948
O O10 0.664177 0.574722 0.196887
O O11 0.098973 0.639222 0.020001
O O12 0.855425 0.097966 0.356926
O O13 0.500000 0.000000 0.500000
O O14 0.745423 0.250000 0.307978
O O15 0.619922 0.416441 0.283109
O O16 0.390695 0.750000 0.875717
O O17 0.487624 0.575971 0.834586
#
# Coordination Sequence:
#
# PCOD9158813 Si02
#       7
#     4   4   4   4   4   4   4
#     4  11  18  34  54  75  97 138 186 238 282 320
#     4   9  18  35  60  88 116 147 183 218 263 321
#     4  10  20  34  51  70  96 136 185 233 277 323
#     4   9  18  35  59  85 112 148 183 218 263 316
#     4  10  21  35  53  83 119 149 178 221 278 333
#     4  10  19  32  51  73  99 132 179 232 279 326
#     4  11  21  34  51  76 112 143 182 224 276 331
#
# _framework density 21.829456
#
# number of rings (size 3 to 8) (size 9 to 14) (size 15 to 20)
#    0.000    2.000    2.857    2.143    0.000    3.429 
#    0.000    0.714    0.000    4.286    0.000    0.000 
#    0.000    0.000    0.000    0.000    0.000    0.000 
#
# Total GULP energy -156123.444167 kJ/mol
# GULP energy per Si atom -5575.837292 kJ/mol
# Density = 2.177977 g / cm^3
# Si number density = 21.829456 Si / 1000 Ang^3
#
#
#
# Elastic Constant Matrix: (Units=GPa)
#
#
# Indices 1 2 3 4 5 6 
#
# 1 93.2268 45.2636 12.4626 0.0000 19.5909 0.0000
# 2 45.2636 196.0212 33.4286 0.0000 29.9688 0.0000
# 3 12.4626 33.4286 28.8346 0.0000 10.7137 0.0000
# 4 0.0000 0.0000 0.0000 19.5113 0.0000 6.1095
# 5 19.5909 29.9688 10.7137 0.0000 36.8666 0.0000
# 6 0.0000 0.0000 0.0000 6.1095 0.0000 25.3393
#
#
#
# Elastic Compliance Matrix: (Units=1/GPa)
#
#
# Indices 1 2 3 4 5 6 
#
# 1 0.012902 -0.001992 -0.001481 0.000000 -0.004806 0.000000
# 2 -0.001992 0.007069 -0.006269 0.000000 -0.002866 0.000000
# 3 -0.001481 -0.006269 0.045294 0.000000 -0.007279 0.000000
# 4 0.000000 0.000000 0.000000 0.055438 0.000000 -0.013366
# 5 -0.004806 -0.002866 -0.007279 0.000000 0.034124 0.000000
# 6 0.000000 0.000000 0.000000 -0.013366 0.000000 0.042687
#
#
# Mechanical properties :
#
#
# Convention : Reuss Voigt Hill
#
# Bulk Modulus (GPa) = 21.84394 55.59912 38.72153
# Shear Modulus (GPa) = 21.52788 31.47195 26.49991
#
# Velocity S-wave (km/s) = 3.14376 3.80112 3.48796
# Velocity P-wave (km/s) = 4.81726 6.69251 5.83077
#
# Compressibility (1/GPa) = 0.04577929
#
# Stress axis : x y z
#
# Youngs Moduli (GPa) = 77.50992 141.46964 22.07821
#
# Poissons Ratio (x) = 0.28176 0.03271
# Poissons Ratio (y) = 0.15437 0.13841
# Poissons Ratio (z) = 0.11482 0.88690
#
# Static dielectric constant tensor:
#      x y z
#    x 1.815020 0.000000 -0.004560 
#    y 0.000000 1.927410 0.000000 
#    z -0.004560 0.000000 1.811360 
# 
# From -- ./inp_files/7927.got.cif
#   From: 2010.05.17/outbox.cif.g08.bks.cpg/sg11_4_cif.got.tgz:7927.got - 2010.06.03 12:22:45.
