data_PCOD9158201
_publ_section_title
;
Structure prediction by ZEFSAII (Michael W. Deem and Ramdas Pophale) SiO2 
 PCOD9158201
Probable space group: P 21/M
;
_chemical_formula_sum "Si O2"
_cell_formula_units_Z 32
_cell_length_a 20.794263
_cell_length_b 8.531539
_cell_length_c 26.789227
_cell_angle_alpha 90.000000
_cell_angle_beta 158.704671
_cell_angle_gamma 90.000000
_cell_volume 1726.026136
_symmetry_space_group_name_H-M "P 21/M"
_symmetry_group_IT_number 11
_symmetry_cell_setting 'monoclinic'
loop_
_space_group_symop_operation_xyz
x,y,z
-x,1/2+y,-z
-x,-y,-z
x,1/2-y,z
loop_
_atom_site_type_symbol
_atom_site_label
_atom_site_fract_x
_atom_site_fract_y
_atom_site_fract_z
Si Si1 0.282356 0.562340 0.200508
Si Si2 0.188345 0.063220 0.655328
Si Si3 0.474336 0.939955 0.783676
Si Si4 0.372575 0.561028 0.597691
Si Si5 0.880406 0.940775 0.097348
Si Si6 0.696019 0.436837 0.153136
Si Si7 0.981809 0.940246 0.281405
Si Si8 0.985171 0.060454 0.910342
O O1 0.282642 0.750000 0.198912
O O2 0.477543 0.500244 0.331224
O O3 0.189360 0.512022 0.185174
O O4 0.153009 0.498930 0.063481
O O5 0.180951 0.250000 0.652468
O O6 0.339221 0.009522 0.725821
O O7 0.235894 0.997854 0.744233
O O8 0.000000 0.000000 0.500000
O O9 0.464643 0.750000 0.779191
O O10 0.421653 0.988367 0.689509
O O11 0.676070 0.986741 0.941237
O O12 0.377619 0.750000 0.600403
O O13 0.175508 0.510806 0.440472
O O14 0.883688 0.750000 0.099809
O O15 0.949271 0.991969 0.200956
O O16 0.993841 0.992835 0.131452
O O17 0.691031 0.250000 0.150392
O O18 0.830324 0.495065 0.207791
O O19 0.500000 0.500000 0.000000
O O20 0.973977 0.750000 0.277307
O O21 0.991609 0.250000 0.915417
#
# Coordination Sequence:
#
# PCOD9158201 Si02
#       8
#     4   4   4   4   4   4   4   4
#     4  10  19  30  52  82 111 144 187 235 281 333
#     4  12  25  41  61  88 120 153 192 244 297 353
#     4  10  19  34  57  81 108 147 188 234 287 343
#     4  10  20  35  55  80 114 151 187 227 282 345
#     4   9  17  33  57  81 107 143 187 231 277 335
#     4  12  25  43  65  89 118 156 198 244 295 355
#     4  10  21  37  59  85 112 149 192 235 284 344
#     4   9  17  33  54  79 110 146 186 231 284 336
#
# _framework density 18.539695999999999
#
# number of rings (size 3 to 8) (size 9 to 14) (size 15 to 20)
#    0.000    1.750    1.250    4.125    0.000    3.500 
#    0.000    1.250    0.000    0.000    0.000    0.000 
#    0.000    0.000    0.000    0.000    0.000    0.000 
#
# Total GULP energy -178766.606092 kJ/mol
# GULP energy per Si atom -5586.456440 kJ/mol
# Density = 1.849750 g / cm^3
# Si number density = 18.539696 Si / 1000 Ang^3
#
#
#
# Elastic Constant Matrix: (Units=GPa)
#
#
# Indices 1 2 3 4 5 6 
#
# 1 176.2460 33.4077 84.0456 0.0000 4.3345 0.0000
# 2 33.4077 39.0728 27.2663 0.0000 -1.7727 0.0000
# 3 84.0456 27.2663 119.8067 0.0000 -9.3749 0.0000
# 4 0.0000 0.0000 0.0000 21.5667 0.0000 8.4978
# 5 4.3345 -1.7727 -9.3749 0.0000 32.4399 0.0000
# 6 0.0000 0.0000 0.0000 8.4978 0.0000 28.6304
#
#
#
# Elastic Compliance Matrix: (Units=1/GPa)
#
#
# Indices 1 2 3 4 5 6 
#
# 1 0.009308 -0.004009 -0.005864 0.000000 -0.003158 0.000000
# 2 -0.004009 0.032156 -0.004426 0.000000 0.001014 0.000000
# 3 -0.005864 -0.004426 0.013823 0.000000 0.004536 0.000000
# 4 0.000000 0.000000 0.000000 0.052509 0.000000 -0.015585
# 5 -0.003158 0.001014 0.004536 0.000000 0.032615 0.000000
# 6 0.000000 0.000000 0.000000 -0.015585 0.000000 0.039554
#
#
# Mechanical properties :
#
#
# Convention : Reuss Voigt Hill
#
# Bulk Modulus (GPa) = 37.47118 69.39607 53.43362
# Shear Modulus (GPa) = 22.99276 29.22112 26.10694
#
# Velocity S-wave (km/s) = 3.52545 3.97437 3.75662
# Velocity P-wave (km/s) = 6.06852 7.65331 6.90652
#
# Compressibility (1/GPa) = 0.02668718
#
# Stress axis : x y z
#
# Youngs Moduli (GPa) = 107.43460 31.09821 72.34350
#
# Poissons Ratio (x) = 0.12469 0.42424
# Poissons Ratio (y) = 0.43075 0.32021
# Poissons Ratio (z) = 0.63002 0.13765
#
# Static dielectric constant tensor:
#      x y z
#    x 1.636000 0.000000 -0.003420 
#    y 0.000000 1.631850 0.000000 
#    z -0.003420 0.000000 1.614610 
# 
# From -- ./inp_files/72134.got.cif
#   From: 2010.05.17/outbox.cif.g08.bks.cpg/sg11_37_cif.got.tgz:72134.got - 2010.06.03 12:22:45.
