data_PCOD9158914
_publ_section_title
;
Structure prediction by ZEFSAII (Michael W. Deem and Ramdas Pophale) SiO2 
 PCOD9158914
Probable space group: P 21/M
;
_chemical_formula_sum "Si O2"
_cell_formula_units_Z 28
_cell_length_a 18.331883
_cell_length_b 8.888072
_cell_length_c 11.224878
_cell_angle_alpha 90.000000
_cell_angle_beta 120.847377
_cell_angle_gamma 90.000000
_cell_volume 1570.199677
_symmetry_space_group_name_H-M "P 21/M"
_symmetry_group_IT_number 11
_symmetry_cell_setting 'monoclinic'
loop_
_space_group_symop_operation_xyz
x,y,z
-x,1/2+y,-z
-x,-y,-z
x,1/2-y,z
loop_
_atom_site_type_symbol
_atom_site_label
_atom_site_fract_x
_atom_site_fract_y
_atom_site_fract_z
Si Si1 0.582378 0.429372 0.630993
Si Si2 0.240365 0.571039 0.333398
Si Si3 0.525621 0.072241 0.847069
Si Si4 0.630790 0.073321 0.171230
Si Si5 0.763313 0.920522 0.423813
Si Si6 0.965841 0.921881 0.590863
Si Si7 0.054024 0.067564 0.154918
O O1 0.500000 0.500000 0.500000
O O2 0.579734 0.250000 0.607366
O O3 0.674941 0.481466 0.664367
O O4 0.570924 0.456906 0.761161
O O5 0.229346 0.750000 0.306971
O O6 0.257259 0.531988 0.485402
O O7 0.151850 0.488734 0.227396
O O8 0.503111 0.250000 0.834869
O O9 0.440808 0.976084 0.793720
O O10 0.588555 0.039572 0.008832
O O11 0.648293 0.250000 0.193477
O O12 0.713670 0.977301 0.267501
O O13 0.737628 0.750000 0.433539
O O14 0.863986 0.921940 0.492601
O O15 0.997229 0.750000 0.616041
O O16 0.979207 0.979501 0.739172
O O17 0.000000 0.000000 0.500000
O O18 0.052485 0.250000 0.150740
O O19 0.000000 0.000000 0.000000
#
# Coordination Sequence:
#
# PCOD9158914 Si02
#       7
#     4   4   4   4   4   4   4
#     4  10  21  35  52  76 107 141 178 221 269 317
#     4  10  20  35  56  82 110 141 184 228 267 324
#     4   9  19  35  51  70 103 140 173 217 268 314
#     4  10  19  32  52  76 100 135 180 217 263 318
#     4  10  20  35  54  77 107 139 175 216 266 322
#     4   9  20  37  57  82 111 141 180 227 276 330
#     4  10  21  39  61  86 115 151 189 230 284 340
#
# _framework density 17.832127
#
# number of rings (size 3 to 8) (size 9 to 14) (size 15 to 20)
#    0.000    2.286    0.000    3.429    0.000    8.000 
#    2.571    0.000    0.000    0.000    0.000    0.000 
#    0.000    0.000    0.000    0.000    0.000    0.000 
#
# Total GULP energy -156077.037166 kJ/mol
# GULP energy per Si atom -5574.179899 kJ/mol
# Density = 1.779154 g / cm^3
# Si number density = 17.832127 Si / 1000 Ang^3
#
#
#
# Elastic Constant Matrix: (Units=GPa)
#
#
# Indices 1 2 3 4 5 6 
#
# 1 89.6562 28.2088 49.2620 0.0000 -17.2362 0.0000
# 2 28.2088 39.7927 36.3157 0.0000 -2.8383 0.0000
# 3 49.2620 36.3157 99.8704 0.0000 1.2172 0.0000
# 4 0.0000 0.0000 0.0000 30.8574 0.0000 3.7887
# 5 -17.2362 -2.8383 1.2172 0.0000 19.1322 0.0000
# 6 0.0000 0.0000 0.0000 3.7887 0.0000 28.6161
#
#
#
# Elastic Compliance Matrix: (Units=1/GPa)
#
#
# Indices 1 2 3 4 5 6 
#
# 1 0.021411 -0.005952 -0.008628 0.000000 0.018955 0.000000
# 2 -0.005952 0.040080 -0.011655 0.000000 0.001325 0.000000
# 3 -0.008628 -0.011655 0.018637 0.000000 -0.010688 0.000000
# 4 0.000000 0.000000 0.000000 0.032943 0.000000 -0.004362
# 5 0.018955 0.001325 -0.010688 0.000000 0.070221 0.000000
# 6 0.000000 0.000000 0.000000 -0.004362 0.000000 0.035523
#
#
# Mechanical properties :
#
#
# Convention : Reuss Voigt Hill
#
# Bulk Modulus (GPa) = 36.15425 50.76581 43.46003
# Shear Modulus (GPa) = 17.82502 23.42333 20.62417
#
# Velocity S-wave (km/s) = 3.16508 3.62822 3.40453
# Velocity P-wave (km/s) = 5.80308 6.78841 6.31499
#
# Compressibility (1/GPa) = 0.02765926
#
# Stress axis : x y z
#
# Youngs Moduli (GPa) = 46.70437 24.94981 53.65683
#
# Poissons Ratio (x) = 0.14851 0.46295
# Poissons Ratio (y) = 0.27800 0.62534
# Poissons Ratio (z) = 0.40296 0.29078
#
# Static dielectric constant tensor:
#      x y z
#    x 1.615560 0.000000 -0.012280 
#    y 0.000000 1.622590 0.000000 
#    z -0.012280 0.000000 1.610460 
# 
# From -- ./inp_files/38395.got.cif
#   From: 2010.05.17/outbox.cif.g08.bks.cpg/sg11_20_cif.got.tgz:38395.got - 2010.06.03 12:22:45.
