data_PCOD9158330
_publ_section_title
;
Structure prediction by ZEFSAII (Michael W. Deem and Ramdas Pophale) SiO2 
 PCOD9158330
Probable space group: P 21/M
;
_chemical_formula_sum "Si O2"
_cell_formula_units_Z 32
_cell_length_a 12.082698
_cell_length_b 8.331678
_cell_length_c 18.836157
_cell_angle_alpha 90.000000
_cell_angle_beta 88.427595
_cell_angle_gamma 90.000000
_cell_volume 1895.505870
_symmetry_space_group_name_H-M "P 21/M"
_symmetry_group_IT_number 11
_symmetry_cell_setting 'monoclinic'
loop_
_space_group_symop_operation_xyz
x,y,z
-x,1/2+y,-z
-x,-y,-z
x,1/2-y,z
loop_
_atom_site_type_symbol
_atom_site_label
_atom_site_fract_x
_atom_site_fract_y
_atom_site_fract_z
Si Si1 0.236752 0.940955 0.368909
Si Si2 0.374612 0.556465 0.502940
Si Si3 0.379286 0.944858 0.930860
Si Si4 0.999268 0.558743 0.581536
Si Si5 0.379471 0.439765 0.235973
Si Si6 0.636598 0.054932 0.225028
Si Si7 0.369058 0.938660 0.084082
Si Si8 0.230707 0.946320 0.640746
O O1 0.227424 0.750000 0.375446
O O2 0.308664 0.001254 0.434771
O O3 0.114137 0.010624 0.378351
O O4 0.301982 0.982474 0.296283
O O5 0.500000 0.500000 0.500000
O O6 0.373508 0.750000 0.502014
O O7 0.311517 0.504924 0.575190
O O8 0.395647 0.750000 0.932142
O O9 0.326246 0.986271 0.855874
O O10 0.499473 0.027360 0.925518
O O11 0.323779 0.988621 0.007074
O O12 0.006703 0.750000 0.578526
O O13 0.000000 0.500000 0.500000
O O14 0.107628 0.499281 0.622042
O O15 0.381185 0.250000 0.248166
O O16 0.508183 0.497560 0.238065
O O17 0.336688 0.473292 0.156917
O O18 0.633920 0.250000 0.228263
O O19 0.717092 0.998022 0.285882
O O20 0.349297 0.750000 0.094036
O O21 0.229346 0.750000 0.642691
#
# Coordination Sequence:
#
# PCOD9158330 Si02
#       8
#     4   4   4   4   4   4   4   4
#     4  11  22  36  51  70  97 126 161 203 246 287
#     4  10  20  33  48  70  98 127 158 192 233 287
#     4   8  14  24  40  65  95 130 165 192 228 283
#     4  11  21  36  55  72  92 122 163 207 248 288
#     4  10  19  31  48  71  98 129 164 197 239 293
#     4   8  14  26  46  70  98 127 158 194 233 283
#     4   9  15  24  40  64  97 131 161 194 233 278
#     4   9  17  31  49  69  94 123 156 197 240 279
#
# _framework density 16.882037
#
# number of rings (size 3 to 8) (size 9 to 14) (size 15 to 20)
#    0.000    2.500    1.250    3.000    0.000    2.500 
#    0.000    0.000    0.000    6.750    0.000    0.875 
#    0.000    0.000    0.000    0.000    0.000    0.000 
#
# Total GULP energy -178278.936955 kJ/mol
# GULP energy per Si atom -5571.216780 kJ/mol
# Density = 1.684361 g / cm^3
# Si number density = 16.882037 Si / 1000 Ang^3
#
#
#
# Elastic Constant Matrix: (Units=GPa)
#
#
# Indices 1 2 3 4 5 6 
#
# 1 104.7651 9.6362 66.3214 0.0000 15.6633 0.0000
# 2 9.6362 14.5859 6.5991 0.0000 4.0197 0.0000
# 3 66.3214 6.5991 147.2422 0.0000 19.2883 0.0000
# 4 0.0000 0.0000 0.0000 18.9919 0.0000 -3.2938
# 5 15.6633 4.0197 19.2883 0.0000 5.1605 0.0000
# 6 0.0000 0.0000 0.0000 -3.2938 0.0000 18.1473
#
#
#
# Elastic Compliance Matrix: (Units=1/GPa)
#
#
# Indices 1 2 3 4 5 6 
#
# 1 0.017811 0.002868 -0.001522 0.000000 -0.050607 0.000000
# 2 0.002868 0.095608 0.010422 0.000000 -0.122133 0.000000
# 3 -0.001522 0.010422 0.014633 0.000000 -0.058192 0.000000
# 4 0.000000 0.000000 0.000000 0.054365 0.000000 0.009867
# 5 -0.050607 -0.122133 -0.058192 0.000000 0.660018 0.000000
# 6 0.000000 0.000000 0.000000 0.009867 0.000000 0.056895
#
#
# Mechanical properties :
#
#
# Convention : Reuss Voigt Hill
#
# Bulk Modulus (GPa) = 6.59678 47.96739 27.28208
# Shear Modulus (GPa) = 5.39769 20.72905 13.06337
#
# Velocity S-wave (km/s) = 1.79004 3.50791 2.78475
# Velocity P-wave (km/s) = 2.86153 6.69942 5.15124
#
# Compressibility (1/GPa) = 0.15158918
#
# Stress axis : x y z
#
# Youngs Moduli (GPa) = 56.14587 10.45940 68.33951
#
# Poissons Ratio (x) = -0.03000 0.10399
# Poissons Ratio (y) = -0.16105 -0.71224
# Poissons Ratio (z) = 0.08543 -0.10901
#
# Static dielectric constant tensor:
#      x y z
#    x 1.541310 0.000000 0.022000 
#    y 0.000000 1.584480 0.000000 
#    z 0.022000 0.000000 1.608350 
# 
# From -- ./inp_files/42475.got.cif
#   From: 2010.05.17/outbox.cif.g08.bks.cpg/sg11_22_cif.got.tgz:42475.got - 2010.06.03 12:22:45.
