data_PCOD9158796
_publ_section_title
;
Structure prediction by ZEFSAII (Michael W. Deem and Ramdas Pophale) SiO2 
 PCOD9158796
Probable space group: P 21/M
;
_chemical_formula_sum "Si O2"
_cell_formula_units_Z 32
_cell_length_a 24.723481
_cell_length_b 8.100584
_cell_length_c 12.959310
_cell_angle_alpha 90.000000
_cell_angle_beta 46.583740
_cell_angle_gamma 90.000000
_cell_volume 1885.261059
_symmetry_space_group_name_H-M "P 21/M"
_symmetry_group_IT_number 11
_symmetry_cell_setting 'monoclinic'
loop_
_space_group_symop_operation_xyz
x,y,z
-x,1/2+y,-z
-x,-y,-z
x,1/2-y,z
loop_
_atom_site_type_symbol
_atom_site_label
_atom_site_fract_x
_atom_site_fract_y
_atom_site_fract_z
Si Si1 0.504439 0.446842 0.614044
Si Si2 0.079939 0.052651 0.439885
Si Si3 0.664677 0.551924 0.395569
Si Si4 0.185991 0.048274 0.119775
Si Si5 0.821856 0.551199 0.269078
Si Si6 0.922552 0.446480 0.321383
Si Si7 0.087651 0.451725 0.050121
Si Si8 0.342678 0.451843 0.834657
O O1 0.500000 0.500000 0.500000
O O2 0.505504 0.250000 0.617474
O O3 0.584328 0.508049 0.547726
O O4 0.425001 0.504766 0.763571
O O5 0.082238 0.250000 0.436033
O O6 0.143768 0.991477 0.277776
O O7 0.088622 0.994726 0.545431
O O8 0.000000 0.000000 0.500000
O O9 0.668408 0.750000 0.386730
O O10 0.737730 0.490899 0.359173
O O11 0.667336 0.495713 0.272093
O O12 0.186390 0.250000 0.120348
O O13 0.137820 0.999873 0.082483
O O14 0.271019 0.993376 0.992837
O O15 0.820118 0.750000 0.265236
O O16 0.858204 0.504781 0.329399
O O17 0.874344 0.492539 0.105905
O O18 0.926024 0.250000 0.311523
O O19 0.003225 0.510549 0.176697
O O20 0.086936 0.250000 0.049879
O O21 0.342300 0.250000 0.834841
#
# Coordination Sequence:
#
# PCOD9158796 Si02
#       8
#     4   4   4   4   4   4   4   4
#     4   9  16  25  41  65  94 125 155 186 226 279
#     4  11  21  34  53  72  93 123 162 204 243 284
#     4   9  16  27  45  67  94 126 155 186 229 282
#     4   9  15  27  49  72  92 121 160 197 234 276
#     4  10  19  32  51  72  95 127 167 200 232 282
#     4  11  22  35  49  68  97 129 163 202 244 282
#     4   9  16  29  49  70  94 126 161 198 237 279
#     4   8  13  24  43  67  92 121 155 188 227 277
#
# _framework density 16.973776000000001
#
# number of rings (size 3 to 8) (size 9 to 14) (size 15 to 20)
#    0.000    2.500    2.500    2.250    0.000    0.500 
#    0.000    0.625    0.000    7.500    0.000    0.875 
#    0.000    0.000    0.000    0.000    0.000    0.000 
#
# Total GULP energy -178348.631682 kJ/mol
# GULP energy per Si atom -5573.394740 kJ/mol
# Density = 1.693514 g / cm^3
# Si number density = 16.973776 Si / 1000 Ang^3
#
#
#
# Elastic Constant Matrix: (Units=GPa)
#
#
# Indices 1 2 3 4 5 6 
#
# 1 136.4139 11.7275 101.3955 0.0000 -16.1681 0.0000
# 2 11.7275 13.1192 7.9925 0.0000 -2.8807 0.0000
# 3 101.3955 7.9925 116.7106 0.0000 -27.2016 0.0000
# 4 0.0000 0.0000 0.0000 15.4023 0.0000 -2.1107
# 5 -16.1681 -2.8807 -27.2016 0.0000 32.1919 0.0000
# 6 0.0000 0.0000 0.0000 -2.1107 0.0000 21.2729
#
#
#
# Elastic Compliance Matrix: (Units=1/GPa)
#
#
# Indices 1 2 3 4 5 6 
#
# 1 0.022670 -0.009185 -0.020676 0.000000 -0.006907 0.000000
# 2 -0.009185 0.083519 0.003645 0.000000 0.005940 0.000000
# 3 -0.020676 0.003645 0.029807 0.000000 0.015129 0.000000
# 4 0.000000 0.000000 0.000000 0.065820 0.000000 0.006531
# 5 -0.006907 0.005940 0.015129 0.000000 0.040910 0.000000
# 6 0.000000 0.000000 0.000000 0.006531 0.000000 0.047656
#
#
# Mechanical properties :
#
#
# Convention : Reuss Voigt Hill
#
# Bulk Modulus (GPa) = 11.96688 56.49719 34.23204
# Shear Modulus (GPa) = 13.48910 23.44863 18.46886
#
# Velocity S-wave (km/s) = 2.82210 3.72083 3.30219
# Velocity P-wave (km/s) = 4.20530 7.19838 5.89497
#
# Compressibility (1/GPa) = 0.08356396
#
# Stress axis : x y z
#
# Youngs Moduli (GPa) = 44.11129 11.97331 33.54879
#
# Poissons Ratio (x) = 0.10998 0.69365
# Poissons Ratio (y) = 0.40518 -0.12229
# Poissons Ratio (z) = 0.91204 -0.04364
#
# Static dielectric constant tensor:
#      x y z
#    x 1.565720 0.000000 -0.044100 
#    y 0.000000 1.605990 0.000000 
#    z -0.044100 0.000000 1.581840 
# 
# From -- ./inp_files/43749.got.cif
#   From: 2010.05.17/outbox.cif.g08.bks.cpg/sg11_22_cif.got.tgz:43749.got - 2010.06.03 12:22:45.
