data_PCOD9158669
_publ_section_title
;
Structure prediction by ZEFSAII (Michael W. Deem and Ramdas Pophale) SiO2 
 PCOD9158669
Probable space group: P 21/M
;
_chemical_formula_sum "Si O2"
_cell_formula_units_Z 28
_cell_length_a 25.790304
_cell_length_b 8.211794
_cell_length_c 9.637642
_cell_angle_alpha 90.000000
_cell_angle_beta 138.976272
_cell_angle_gamma 90.000000
_cell_volume 1339.723044
_symmetry_space_group_name_H-M "P 21/M"
_symmetry_group_IT_number 11
_symmetry_cell_setting 'monoclinic'
loop_
_space_group_symop_operation_xyz
x,y,z
-x,1/2+y,-z
-x,-y,-z
x,1/2-y,z
loop_
_atom_site_type_symbol
_atom_site_label
_atom_site_fract_x
_atom_site_fract_y
_atom_site_fract_z
Si Si1 0.235025 0.058043 0.852939
Si Si2 0.506307 0.945880 0.355693
Si Si3 0.753816 0.442046 0.436107
Si Si4 0.578802 0.053084 0.078729
Si Si5 0.321096 0.051655 0.294724
Si Si6 0.915094 0.058607 0.278068
Si Si7 0.833644 0.943183 0.854174
O O1 0.245879 0.250000 0.851179
O O2 0.235158 0.972281 0.705123
O O3 0.153431 0.030362 0.772072
O O4 0.301631 0.000372 0.097461
O O5 0.505826 0.750000 0.351040
O O6 0.593263 0.003204 0.482851
O O7 0.500000 0.000000 0.500000
O O8 0.438888 0.002244 0.115082
O O9 0.754920 0.250000 0.464595
O O10 0.665635 0.508081 0.296050
O O11 0.821846 0.518572 0.669031
O O12 0.581819 0.250000 0.089358
O O13 0.500000 0.000000 0.000000
O O14 0.320376 0.250000 0.294346
O O15 0.248781 0.996636 0.243277
O O16 0.906471 0.250000 0.284335
O O17 0.000000 0.000000 0.500000
O O18 0.900437 0.021663 0.085412
O O19 0.839750 0.750000 0.885113
#
# Coordination Sequence:
#
# PCOD9158669 Si02
#       7
#     4   4   4   4   4   4   4
#     4  10  20  36  58  85 114 152 195 235 282 340
#     4  10  19  32  48  71 101 137 181 233 283 330
#     4  11  22  36  53  81 117 153 194 244 294 342
#     4  10  22  36  52  76 110 150 195 242 293 344
#     4   8  16  31  52  74 100 136 185 233 277 331
#     4  11  22  40  65  93 122 150 181 224 273 332
#     4  10  20  37  60  84 109 146 190 231 277 337
#
# _framework density 20.899842
#
# number of rings (size 3 to 8) (size 9 to 14) (size 15 to 20)
#    0.000    2.000    0.000    5.143    0.000    2.857 
#    0.000    4.286    0.000    0.000    0.000    0.000 
#    0.000    0.000    0.000    0.000    0.000    0.000 
#
# Total GULP energy -156333.953098 kJ/mol
# GULP energy per Si atom -5583.355468 kJ/mol
# Density = 2.085227 g / cm^3
# Si number density = 20.899842 Si / 1000 Ang^3
#
#
#
# Elastic Constant Matrix: (Units=GPa)
#
#
# Indices 1 2 3 4 5 6 
#
# 1 27.5233 -12.2843 11.5988 0.0000 -7.9389 0.0000
# 2 -12.2843 31.9145 8.1391 0.0000 2.0141 0.0000
# 3 11.5988 8.1391 143.6499 0.0000 -2.0847 0.0000
# 4 0.0000 0.0000 0.0000 22.8981 0.0000 -5.1721
# 5 -7.9389 2.0141 -2.0847 0.0000 32.9058 0.0000
# 6 0.0000 0.0000 0.0000 -5.1721 0.0000 27.6999
#
#
#
# Elastic Compliance Matrix: (Units=1/GPa)
#
#
# Indices 1 2 3 4 5 6 
#
# 1 0.050479 0.020049 -0.005058 0.000000 0.010631 0.000000
# 2 0.020049 0.039896 -0.003848 0.000000 0.002151 0.000000
# 3 -0.005058 -0.003848 0.007580 0.000000 -0.000504 0.000000
# 4 0.000000 0.000000 0.000000 0.045595 0.000000 0.008513
# 5 0.010631 0.002151 -0.000504 0.000000 0.032791 0.000000
# 6 0.000000 0.000000 0.000000 0.008513 0.000000 0.037691
#
#
# Mechanical properties :
#
#
# Convention : Reuss Voigt Hill
#
# Bulk Modulus (GPa) = 8.31653 24.22166 16.26910
# Shear Modulus (GPa) = 21.56785 29.74304 25.65545
#
# Velocity S-wave (km/s) = 3.21590 3.77652 3.50743
# Velocity P-wave (km/s) = 4.21631 5.53450 4.91975
#
# Compressibility (1/GPa) = 0.12024239
#
# Stress axis : x y z
#
# Youngs Moduli (GPa) = 19.81024 25.06488 131.91844
#
# Poissons Ratio (x) = -0.50252 0.66718
# Poissons Ratio (y) = -0.39717 0.50764
# Poissons Ratio (z) = 0.10019 0.09645
#
# Static dielectric constant tensor:
#      x y z
#    x 1.774370 0.000000 -0.015230 
#    y 0.000000 1.712240 0.000000 
#    z -0.015230 0.000000 1.772770 
# 
# From -- ./inp_files/28591.got.cif
#   From: 2010.05.17/outbox.cif.g08.bks.cpg/sg11_15_cif.got.tgz:28591.got - 2010.06.03 12:22:45.
