data_PCOD9158452
_publ_section_title
;
Structure prediction by ZEFSAII (Michael W. Deem and Ramdas Pophale) SiO2 
 PCOD9158452
Probable space group: P 21/M
;
_chemical_formula_sum "Si O2"
_cell_formula_units_Z 32
_cell_length_a 16.533615
_cell_length_b 8.806498
_cell_length_c 25.361050
_cell_angle_alpha 90.000000
_cell_angle_beta 153.039849
_cell_angle_gamma 90.000000
_cell_volume 1674.139870
_symmetry_space_group_name_H-M "P 21/M"
_symmetry_group_IT_number 11
_symmetry_cell_setting 'monoclinic'
loop_
_space_group_symop_operation_xyz
x,y,z
-x,1/2+y,-z
-x,-y,-z
x,1/2-y,z
loop_
_atom_site_type_symbol
_atom_site_label
_atom_site_fract_x
_atom_site_fract_y
_atom_site_fract_z
Si Si1 0.412654 0.932426 0.396877
Si Si2 0.307191 0.071281 0.813894
Si Si3 0.662797 0.067970 0.960527
Si Si4 0.033345 0.931709 0.214482
Si Si5 0.989194 0.568406 0.685148
Si Si6 0.631377 0.567034 0.420350
Si Si7 0.140991 0.578804 0.618945
Si Si8 0.506421 0.920197 0.767153
O O1 0.427847 0.750000 0.408603
O O2 0.515937 0.980386 0.404297
O O3 0.203191 0.971259 0.276928
O O4 0.500000 0.000000 0.500000
O O5 0.313299 0.250000 0.829060
O O6 0.504118 0.018917 0.909291
O O7 0.188053 0.032927 0.693630
O O8 0.191487 0.985531 0.790702
O O9 0.661033 0.250000 0.959940
O O10 0.622435 0.010987 0.877660
O O11 0.850615 0.003745 0.088198
O O12 0.016337 0.750000 0.206555
O O13 0.069026 0.994612 0.293726
O O14 0.987008 0.750000 0.688330
O O15 0.838162 0.525477 0.553709
O O16 0.626320 0.750000 0.412729
O O17 0.543115 0.497748 0.316879
O O18 0.089349 0.750000 0.607057
O O19 0.318847 0.592946 0.688268
O O20 0.000000 0.500000 0.500000
O O21 0.579220 0.750000 0.801350
#
# Coordination Sequence:
#
# PCOD9158452 Si02
#       8
#     4   4   4   4   4   4   4   4
#     4  10  21  39  62  89 119 151 187 234 291 348
#     4  10  21  36  54  79 112 151 195 241 287 339
#     4  10  22  41  62  82 113 157 199 240 288 342
#     4  11  23  39  62  88 116 151 193 243 292 344
#     4  11  22  36  58  87 120 156 194 239 291 346
#     4  10  21  37  58  87 121 152 188 234 288 348
#     4  10  19  31  49  75 109 149 192 237 286 340
#     4  10  21  36  56  83 114 150 193 239 286 338
#
# _framework density 19.114293
#
# number of rings (size 3 to 8) (size 9 to 14) (size 15 to 20)
#    0.000    1.750    1.250    3.000    0.000    7.500 
#    0.000    0.625    0.000    0.000    0.000    0.000 
#    0.000    0.000    0.000    0.000    0.000    0.000 
#
# Total GULP energy -178561.069240 kJ/mol
# GULP energy per Si atom -5580.033414 kJ/mol
# Density = 1.907079 g / cm^3
# Si number density = 19.114293 Si / 1000 Ang^3
#
#
#
# Elastic Constant Matrix: (Units=GPa)
#
#
# Indices 1 2 3 4 5 6 
#
# 1 96.2539 22.1372 25.3601 0.0000 10.9032 0.0000
# 2 22.1372 47.8060 22.9948 0.0000 9.6831 0.0000
# 3 25.3601 22.9948 82.3997 0.0000 19.0852 0.0000
# 4 0.0000 0.0000 0.0000 29.0671 0.0000 -5.2363
# 5 10.9032 9.6831 19.0852 0.0000 26.2486 0.0000
# 6 0.0000 0.0000 0.0000 -5.2363 0.0000 27.5917
#
#
#
# Elastic Compliance Matrix: (Units=1/GPa)
#
#
# Indices 1 2 3 4 5 6 
#
# 1 0.012134 -0.004209 -0.002107 0.000000 -0.001956 0.000000
# 2 -0.004209 0.026140 -0.005015 0.000000 -0.004248 0.000000
# 3 -0.002107 -0.005015 0.016297 0.000000 -0.009124 0.000000
# 4 0.000000 0.000000 0.000000 0.035621 0.000000 0.006760
# 5 -0.001956 -0.004248 -0.009124 0.000000 0.047111 0.000000
# 6 0.000000 0.000000 0.000000 0.006760 0.000000 0.037526
#
#
# Mechanical properties :
#
#
# Convention : Reuss Voigt Hill
#
# Bulk Modulus (GPa) = 31.33992 40.82711 36.08351
# Shear Modulus (GPa) = 24.02373 26.97932 25.50153
#
# Velocity S-wave (km/s) = 3.54905 3.76103 3.65658
# Velocity P-wave (km/s) = 5.76420 6.34558 6.06186
#
# Compressibility (1/GPa) = 0.03190819
#
# Stress axis : x y z
#
# Youngs Moduli (GPa) = 82.41397 38.25583 61.35960
#
# Poissons Ratio (x) = 0.16103 0.12927
# Poissons Ratio (y) = 0.34690 0.30774
# Poissons Ratio (z) = 0.17363 0.19187
#
# Static dielectric constant tensor:
#      x y z
#    x 1.681030 0.000000 0.041430 
#    y 0.000000 1.666310 0.000000 
#    z 0.041430 0.000000 1.604400 
# 
# From -- ./inp_files/55766.got.cif
#   From: 2010.05.17/outbox.cif.g08.bks.cpg/sg11_28_cif.got.tgz:55766.got - 2010.06.03 12:22:45.
