data_PCOD9158339
_publ_section_title
;
Structure prediction by ZEFSAII (Michael W. Deem and Ramdas Pophale) SiO2 
 PCOD9158339
Probable space group: P 21/M
;
_chemical_formula_sum "Si O2"
_cell_formula_units_Z 28
_cell_length_a 15.072615
_cell_length_b 7.547147
_cell_length_c 12.311462
_cell_angle_alpha 90.000000
_cell_angle_beta 69.711380
_cell_angle_gamma 90.000000
_cell_volume 1313.603674
_symmetry_space_group_name_H-M "P 21/M"
_symmetry_group_IT_number 11
_symmetry_cell_setting 'monoclinic'
loop_
_space_group_symop_operation_xyz
x,y,z
-x,1/2+y,-z
-x,-y,-z
x,1/2-y,z
loop_
_atom_site_type_symbol
_atom_site_label
_atom_site_fract_x
_atom_site_fract_y
_atom_site_fract_z
Si Si1 0.270424 0.536921 0.292088
Si Si2 0.175720 0.037352 0.108495
Si Si3 0.038766 0.963872 0.772581
Si Si4 0.099853 0.962215 0.514763
Si Si5 0.431995 0.543565 0.368684
Si Si6 0.366933 0.034160 0.629975
Si Si7 0.797273 0.959699 0.142509
O O1 0.272333 0.750000 0.303153
O O2 0.244660 0.500224 0.179025
O O3 0.185077 0.468251 0.404683
O O4 0.369708 0.468303 0.297184
O O5 0.168466 0.250000 0.102757
O O6 0.069383 0.972071 0.179466
O O7 0.208045 0.968594 0.977306
O O8 0.036478 0.750000 0.768664
O O9 0.091886 0.029412 0.641451
O O10 0.098749 0.014858 0.852121
O O11 0.110755 0.750000 0.515706
O O12 0.000000 0.000000 0.500000
O O13 0.449076 0.750000 0.337713
O O14 0.534850 0.470652 0.356442
O O15 0.369394 0.529404 0.504851
O O16 0.367361 0.250000 0.625065
O O17 0.278916 0.970544 0.738699
O O18 0.778598 0.750000 0.143972
#
# Coordination Sequence:
#
# PCOD9158339 Si02
#       7
#     4   4   4   4   4   4   4
#     4  10  20  33  51  75 102 134 169 206 252 300
#     4  10  21  36  51  70 102 139 173 210 248 295
#     4  10  20  34  52  74 100 134 172 210 253 297
#     4  10  19  31  48  72 100 127 160 202 247 293
#     4   9  18  34  56  79 104 131 162 206 255 304
#     4   9  18  34  55  79 104 130 164 207 255 303
#     4  10  21  35  52  75 101 133 172 211 253 297
#
# _framework density 21.315408999999999
#
# number of rings (size 3 to 8) (size 9 to 14) (size 15 to 20)
#    0.000    2.286    1.429    1.286    0.000    4.000 
#    0.000    0.714    0.000    0.000    0.000    0.000 
#    0.000    0.000    0.000    0.000    0.000    0.000 
#
# Total GULP energy -156369.174120 kJ/mol
# GULP energy per Si atom -5584.613361 kJ/mol
# Density = 2.126689 g / cm^3
# Si number density = 21.315409 Si / 1000 Ang^3
#
#
#
# Elastic Constant Matrix: (Units=GPa)
#
#
# Indices 1 2 3 4 5 6 
#
# 1 104.9459 -13.6326 40.5591 0.0000 33.4495 0.0000
# 2 -13.6326 48.6368 -8.7597 0.0000 -6.2608 0.0000
# 3 40.5591 -8.7597 77.1337 0.0000 26.3420 0.0000
# 4 0.0000 0.0000 0.0000 11.0720 0.0000 5.4741
# 5 33.4495 -6.2608 26.3420 0.0000 30.0227 0.0000
# 6 0.0000 0.0000 0.0000 5.4741 0.0000 15.4855
#
#
#
# Elastic Compliance Matrix: (Units=1/GPa)
#
#
# Indices 1 2 3 4 5 6 
#
# 1 0.015481 0.001964 -0.003094 0.000000 -0.014124 0.000000
# 2 0.001964 0.021465 0.000890 0.000000 0.001507 0.000000
# 3 -0.003094 0.000890 0.019207 0.000000 -0.013220 0.000000
# 4 0.000000 0.000000 0.000000 0.109447 0.000000 -0.038689
# 5 -0.014124 0.001507 -0.013220 0.000000 0.060958 0.000000
# 6 0.000000 0.000000 0.000000 -0.038689 0.000000 0.078253
#
#
# Mechanical properties :
#
#
# Convention : Reuss Voigt Hill
#
# Bulk Modulus (GPa) = 17.96148 29.67223 23.81685
# Shear Modulus (GPa) = 15.43930 25.48601 20.46265
#
# Velocity S-wave (km/s) = 2.69425 3.46158 3.10174
# Velocity P-wave (km/s) = 4.25717 5.47061 4.90158
#
# Compressibility (1/GPa) = 0.05567470
#
# Stress axis : x y z
#
# Youngs Moduli (GPa) = 64.59356 46.58660 52.06396
#
# Poissons Ratio (x) = -0.09149 0.16108
# Poissons Ratio (y) = -0.12686 -0.04636
# Poissons Ratio (z) = 0.19985 -0.04148
#
# Static dielectric constant tensor:
#      x y z
#    x 1.764410 0.000000 -0.002650 
#    y 0.000000 1.798570 0.000000 
#    z -0.002650 0.000000 1.765270 
# 
# From -- ./inp_files/37392.got.cif
#   From: 2010.05.17/outbox.cif.g08.bks.cpg/sg11_19_cif.got.tgz:37392.got - 2010.06.03 12:22:45.
