data_PCOD9158014
_publ_section_title
;
Structure prediction by ZEFSAII (Michael W. Deem and Ramdas Pophale) SiO2 
 PCOD9158014
Probable space group: P 21/M
;
_chemical_formula_sum "Si O2"
_cell_formula_units_Z 24
_cell_length_a 12.550144
_cell_length_b 8.628951
_cell_length_c 22.327656
_cell_angle_alpha 90.000000
_cell_angle_beta 38.465029
_cell_angle_gamma 90.000000
_cell_volume 1504.062754
_symmetry_space_group_name_H-M "P 21/M"
_symmetry_group_IT_number 11
_symmetry_cell_setting 'monoclinic'
loop_
_space_group_symop_operation_xyz
x,y,z
-x,1/2+y,-z
-x,-y,-z
x,1/2-y,z
loop_
_atom_site_type_symbol
_atom_site_label
_atom_site_fract_x
_atom_site_fract_y
_atom_site_fract_z
Si Si1 0.218383 0.562871 0.850261
Si Si2 0.728955 0.938123 0.731512
Si Si3 0.531786 0.064220 0.051850
Si Si4 0.925166 0.435506 0.470367
Si Si5 0.838519 0.935299 0.991901
Si Si6 0.408615 0.063603 0.339650
O O1 0.221020 0.750000 0.856375
O O2 0.215380 0.490689 0.917928
O O3 0.393473 0.518008 0.739988
O O4 0.039247 0.521206 0.897779
O O5 0.723880 0.750000 0.734546
O O6 0.614816 0.992480 0.837023
O O7 0.645360 0.984372 0.704493
O O8 0.929423 0.983532 0.641534
O O9 0.526289 0.250000 0.052944
O O10 0.712662 0.010854 0.999504
O O11 0.500000 0.000000 0.000000
O O12 0.922400 0.250000 0.473990
O O13 0.731783 0.496350 0.553238
O O14 0.000000 0.500000 0.500000
O O15 0.824613 0.750000 0.994478
O O16 0.396323 0.250000 0.347443
#
# Coordination Sequence:
#
# PCOD9158014 Si02
#       6
#     4   4   4   4   4   4
#     4   9  17  30  47  66  96 129 153 184 233 282
#     4   8  15  28  44  59  87 123 150 179 229 276
#     4  11  21  35  50  66  91 125 160 196 233 275
#     4   9  16  26  40  62  88 119 150 182 223 275
#     4  10  19  30  46  70  93 121 160 194 228 276
#     4   9  15  27  44  65  91 124 150 177 226 277
#
# _framework density 15.956782
#
# number of rings (size 3 to 8) (size 9 to 14) (size 15 to 20)
#    0.000    2.667    1.667    2.500    0.000    1.333 
#    0.000    2.500    0.000    0.000    0.000    1.167 
#    0.000    0.000    0.000    0.000    0.000    0.000 
#
# Total GULP energy -133633.539397 kJ/mol
# GULP energy per Si atom -5568.064142 kJ/mol
# Density = 1.592046 g / cm^3
# Si number density = 15.956782 Si / 1000 Ang^3
#
#
#
# Elastic Constant Matrix: (Units=GPa)
#
#
# Indices 1 2 3 4 5 6 
#
# 1 89.6444 28.0288 64.7591 0.0000 -16.3191 0.0000
# 2 28.0288 26.5887 29.3169 0.0000 -9.9134 0.0000
# 3 64.7591 29.3169 129.2618 0.0000 -35.8825 0.0000
# 4 0.0000 0.0000 0.0000 24.0581 0.0000 -3.8238
# 5 -16.3191 -9.9134 -35.8825 0.0000 28.5015 0.0000
# 6 0.0000 0.0000 0.0000 -3.8238 0.0000 20.3767
#
#
#
# Elastic Compliance Matrix: (Units=1/GPa)
#
#
# Indices 1 2 3 4 5 6 
#
# 1 0.020906 -0.014276 -0.008134 0.000000 -0.003236 0.000000
# 2 -0.014276 0.060331 -0.004573 0.000000 0.007053 0.000000
# 3 -0.008134 -0.004573 0.017085 0.000000 0.015262 0.000000
# 4 0.000000 0.000000 0.000000 0.042844 0.000000 0.008040
# 5 -0.003236 0.007053 0.015262 0.000000 0.054900 0.000000
# 6 0.000000 0.000000 0.000000 0.008040 0.000000 0.050584
#
#
# Mechanical properties :
#
#
# Convention : Reuss Voigt Hill
#
# Bulk Modulus (GPa) = 22.54519 54.41163 38.47841
# Shear Modulus (GPa) = 15.85279 22.81326 19.33303
#
# Velocity S-wave (km/s) = 3.15538 3.78523 3.48456
# Velocity P-wave (km/s) = 5.23782 7.29913 6.35264
#
# Compressibility (1/GPa) = 0.04435536
#
# Stress axis : x y z
#
# Youngs Moduli (GPa) = 47.83383 16.57523 58.53016
#
# Poissons Ratio (x) = 0.23662 0.47609
# Poissons Ratio (y) = 0.68286 0.26769
# Poissons Ratio (z) = 0.38909 0.07581
#
# Static dielectric constant tensor:
#      x y z
#    x 1.511110 0.000000 -0.046970 
#    y 0.000000 1.541370 0.000000 
#    z -0.046970 0.000000 1.575440 
# 
# From -- ./inp_files/36991.got.cif
#   From: 2010.05.17/outbox.cif.g08.bks.cpg/sg11_19_cif.got.tgz:36991.got - 2010.06.03 12:22:45.
