data_PCOD9158753
_publ_section_title
;
Structure prediction by ZEFSAII (Michael W. Deem and Ramdas Pophale) SiO2 
 PCOD9158753
Probable space group: P 21/M
;
_chemical_formula_sum "Si O2"
_cell_formula_units_Z 32
_cell_length_a 11.520214
_cell_length_b 8.209238
_cell_length_c 19.527875
_cell_angle_alpha 90.000000
_cell_angle_beta 115.263924
_cell_angle_gamma 90.000000
_cell_volume 1670.150551
_symmetry_space_group_name_H-M "P 21/M"
_symmetry_group_IT_number 11
_symmetry_cell_setting 'monoclinic'
loop_
_space_group_symop_operation_xyz
x,y,z
-x,1/2+y,-z
-x,-y,-z
x,1/2-y,z
loop_
_atom_site_type_symbol
_atom_site_label
_atom_site_fract_x
_atom_site_fract_y
_atom_site_fract_z
Si Si1 0.405214 0.448119 0.692735
Si Si2 0.355116 0.557057 0.170465
Si Si3 0.794832 0.559539 0.238296
Si Si4 0.935610 0.054180 0.912482
Si Si5 0.589229 0.936458 0.961413
Si Si6 0.000093 0.941429 0.612986
Si Si7 0.192597 0.448267 0.542250
Si Si8 0.824229 0.436730 0.097355
O O1 0.409639 0.250000 0.693895
O O2 0.546097 0.509506 0.747974
O O3 0.308978 0.492764 0.730852
O O4 0.334264 0.494680 0.604275
O O5 0.343567 0.750000 0.179075
O O6 0.210163 0.491429 0.131586
O O7 0.418137 0.531582 0.111645
O O8 0.774516 0.750000 0.218292
O O9 0.784913 0.462149 0.165768
O O10 0.934580 0.534762 0.307958
O O11 0.934179 0.250000 0.910849
O O12 0.029497 0.988122 0.877547
O O13 0.000000 0.000000 0.000000
O O14 0.558054 0.750000 0.939860
O O15 0.733272 0.955925 0.026369
O O16 0.500000 0.000000 0.000000
O O17 0.997176 0.750000 0.628663
O O18 0.862759 0.992058 0.546327
O O19 0.097819 0.972510 0.574329
O O20 0.180204 0.250000 0.544959
O O21 0.805670 0.250000 0.071608
#
# Coordination Sequence:
#
# PCOD9158753 Si02
#       8
#     4   4   4   4   4   4   4   4
#     4   8  15  29  49  73 101 132 165 204 247 298
#     4  10  20  35  55  76  99 130 172 214 256 303
#     4  10  19  32  50  73 104 137 167 205 257 309
#     4  11  22  37  57  77  99 130 170 217 263 308
#     4  12  24  37  54  75 104 136 169 206 253 308
#     4   9  15  24  41  67  99 134 170 204 242 295
#     4   8  14  25  42  65  97 136 171 203 244 293
#     4  12  24  38  55  75 100 131 172 216 261 308
#
# _framework density 19.159949000000001
#
# number of rings (size 3 to 8) (size 9 to 14) (size 15 to 20)
#    0.000    2.000    1.250    4.875    0.000    2.000 
#    0.000    2.500    0.000    0.000    0.000    0.875 
#    0.000    0.000    0.000    0.000    0.000    0.000 
#
# Total GULP energy -178461.994187 kJ/mol
# GULP energy per Si atom -5576.937318 kJ/mol
# Density = 1.911634 g / cm^3
# Si number density = 19.159949 Si / 1000 Ang^3
#
#
#
# Elastic Constant Matrix: (Units=GPa)
#
#
# Indices 1 2 3 4 5 6 
#
# 1 54.6377 4.3402 10.0560 0.0000 26.4937 0.0000
# 2 4.3402 28.3433 -5.9854 0.0000 0.8424 0.0000
# 3 10.0560 -5.9854 76.2847 0.0000 38.8083 0.0000
# 4 0.0000 0.0000 0.0000 22.5606 0.0000 -0.2540
# 5 26.4937 0.8424 38.8083 0.0000 31.7228 0.0000
# 6 0.0000 0.0000 0.0000 -0.2540 0.0000 16.6880
#
#
#
# Elastic Compliance Matrix: (Units=1/GPa)
#
#
# Indices 1 2 3 4 5 6 
#
# 1 0.066487 0.004516 0.052694 0.000000 -0.120111 0.000000
# 2 0.004516 0.037883 0.012731 0.000000 -0.020352 0.000000
# 3 0.052694 0.012731 0.078704 0.000000 -0.140629 0.000000
# 4 0.000000 0.000000 0.000000 0.044333 0.000000 0.000675
# 5 -0.120111 -0.020352 -0.140629 0.000000 0.304415 0.000000
# 6 0.000000 0.000000 0.000000 0.000675 0.000000 0.059933
#
#
# Mechanical properties :
#
#
# Convention : Reuss Voigt Hill
#
# Bulk Modulus (GPa) = 3.09639 19.56526 11.33082
# Shear Modulus (GPa) = 8.93615 24.25126 16.59371
#
# Velocity S-wave (km/s) = 2.16197 3.56156 2.94609
# Velocity P-wave (km/s) = 2.80209 5.21025 4.18321
#
# Compressibility (1/GPa) = 0.32295650
#
# Stress axis : x y z
#
# Youngs Moduli (GPa) = 15.04057 26.39672 12.70590
#
# Poissons Ratio (x) = -0.11922 -0.66952
# Poissons Ratio (y) = -0.06793 -0.16176
# Poissons Ratio (z) = -0.79255 -0.33605
#
# Static dielectric constant tensor:
#      x y z
#    x 1.690250 0.000000 0.046380 
#    y 0.000000 1.838260 0.000000 
#    z 0.046380 0.000000 1.738150 
# 
# From -- ./inp_files/58686.got.cif
#   From: 2010.05.17/outbox.cif.g08.bks.cpg/sg11_30_cif.got.tgz:58686.got - 2010.06.03 12:22:45.
