data_PCOD9158707
_publ_section_title
;
Structure prediction by ZEFSAII (Michael W. Deem and Ramdas Pophale) SiO2 
 PCOD9158707
Probable space group: P 21/M
;
_chemical_formula_sum "Si O2"
_cell_formula_units_Z 28
_cell_length_a 9.872536
_cell_length_b 8.394324
_cell_length_c 28.675700
_cell_angle_alpha 90.000000
_cell_angle_beta 40.942121
_cell_angle_gamma 90.000000
_cell_volume 1557.278184
_symmetry_space_group_name_H-M "P 21/M"
_symmetry_group_IT_number 11
_symmetry_cell_setting 'monoclinic'
loop_
_space_group_symop_operation_xyz
x,y,z
-x,1/2+y,-z
-x,-y,-z
x,1/2-y,z
loop_
_atom_site_type_symbol
_atom_site_label
_atom_site_fract_x
_atom_site_fract_y
_atom_site_fract_z
Si Si1 0.168882 0.941020 0.493405
Si Si2 0.874337 0.058307 0.100019
Si Si3 0.362455 0.556621 0.644218
Si Si4 0.265771 0.942023 0.568944
Si Si5 0.317285 0.063308 0.942543
Si Si6 0.890184 0.444677 0.200257
Si Si7 0.642837 0.935758 0.921483
O O1 0.162330 0.750000 0.494727
O O2 0.139810 0.995353 0.555512
O O3 0.401958 0.995550 0.419940
O O4 0.000000 0.000000 0.500000
O O5 0.855797 0.250000 0.099650
O O6 0.817250 0.012642 0.167283
O O7 0.741954 0.974007 0.094909
O O8 0.114466 0.019642 0.026043
O O9 0.371617 0.750000 0.642076
O O10 0.232357 0.508435 0.631515
O O11 0.249824 0.501327 0.720492
O O12 0.259545 0.750000 0.569991
O O13 0.500000 0.000000 0.500000
O O14 0.355153 0.250000 0.939667
O O15 0.513595 0.966855 0.908622
O O16 0.891692 0.250000 0.201767
O O17 0.126667 0.502997 0.142122
O O18 0.667217 0.750000 0.924260
O O19 0.500000 0.000000 0.000000
#
# Coordination Sequence:
#
# PCOD9158707 Si02
#       7
#     4   4   4   4   4   4   4
#     4  10  19  32  51  78 108 135 168 207 244 295
#     4   9  17  32  50  70  96 129 166 207 256 309
#     4   9  17  33  55  76  99 131 168 209 256 303
#     4   8  15  28  49  74  98 126 162 200 240 289
#     4  10  19  32  49  72  98 126 167 215 259 307
#     4   9  18  33  53  75 100 129 168 213 257 307
#     4  11  20  33  51  74 100 131 170 216 261 306
#
# _framework density 17.980090000000001
#
# number of rings (size 3 to 8) (size 9 to 14) (size 15 to 20)
#    0.000    2.571    1.429    1.286    0.000    1.143 
#    0.000    3.571    0.000    5.143    0.000    0.000 
#    0.000    0.000    0.000    0.000    0.000    0.000 
#
# Total GULP energy -155947.506012 kJ/mol
# GULP energy per Si atom -5569.553786 kJ/mol
# Density = 1.793917 g / cm^3
# Si number density = 17.980090 Si / 1000 Ang^3
#
#
#
# Elastic Constant Matrix: (Units=GPa)
#
#
# Indices 1 2 3 4 5 6 
#
# 1 125.5284 12.4422 59.8996 0.0000 22.3155 0.0000
# 2 12.4422 10.1391 13.3427 0.0000 2.7064 0.0000
# 3 59.8996 13.3427 100.7726 0.0000 28.6582 0.0000
# 4 0.0000 0.0000 0.0000 17.0630 0.0000 0.2909
# 5 22.3155 2.7064 28.6582 0.0000 30.8162 0.0000
# 6 0.0000 0.0000 0.0000 0.2909 0.0000 25.0308
#
#
#
# Elastic Compliance Matrix: (Units=1/GPa)
#
#
# Indices 1 2 3 4 5 6 
#
# 1 0.011633 -0.006662 -0.005171 0.000000 -0.003030 0.000000
# 2 -0.006662 0.124004 -0.014593 0.000000 0.007505 0.000000
# 3 -0.005171 -0.014593 0.018354 0.000000 -0.012042 0.000000
# 4 0.000000 0.000000 0.000000 0.058618 0.000000 -0.000681
# 5 -0.003030 0.007505 -0.012042 0.000000 0.045185 0.000000
# 6 0.000000 0.000000 0.000000 -0.000681 0.000000 0.039959
#
#
# Mechanical properties :
#
#
# Convention : Reuss Voigt Hill
#
# Bulk Modulus (GPa) = 9.88736 45.31212 27.59974
# Shear Modulus (GPa) = 13.01013 24.63238 18.82126
#
# Velocity S-wave (km/s) = 2.69287 3.70534 3.23891
# Velocity P-wave (km/s) = 3.89612 6.60016 5.41949
#
# Compressibility (1/GPa) = 0.10113923
#
# Stress axis : x y z
#
# Youngs Moduli (GPa) = 85.96475 8.06426 54.48489
#
# Poissons Ratio (x) = 0.05372 0.28173
# Poissons Ratio (y) = 0.57267 0.79510
# Poissons Ratio (z) = 0.44450 0.11768
#
# Static dielectric constant tensor:
#      x y z
#    x 1.651720 0.000000 0.033000 
#    y 0.000000 1.642520 0.000000 
#    z 0.033000 0.000000 1.612030 
# 
# From -- ./inp_files/25561.got.cif
#   From: 2010.05.17/outbox.cif.g08.bks.cpg/sg11_13_cif.got.tgz:25561.got - 2010.06.03 12:22:45.
