data_PCOD9158502
_publ_section_title
;
Structure prediction by ZEFSAII (Michael W. Deem and Ramdas Pophale) SiO2 
 PCOD9158502
Probable space group: P 21/M
;
_chemical_formula_sum "Si O2"
_cell_formula_units_Z 28
_cell_length_a 8.159442
_cell_length_b 7.849530
_cell_length_c 27.185147
_cell_angle_alpha 90.000000
_cell_angle_beta 141.126146
_cell_angle_gamma 90.000000
_cell_volume 1092.758438
_symmetry_space_group_name_H-M "P 21/M"
_symmetry_group_IT_number 11
_symmetry_cell_setting 'monoclinic'
loop_
_space_group_symop_operation_xyz
x,y,z
-x,1/2+y,-z
-x,-y,-z
x,1/2-y,z
loop_
_atom_site_type_symbol
_atom_site_label
_atom_site_fract_x
_atom_site_fract_y
_atom_site_fract_z
Si Si1 0.638908 0.553070 0.409791
Si Si2 0.283063 0.555058 0.021455
Si Si3 0.848910 0.041386 0.115163
Si Si4 0.069036 0.457126 0.314545
Si Si5 0.583245 0.953297 0.740432
Si Si6 0.788508 0.954520 0.547045
Si Si7 0.504381 0.453777 0.170744
O O1 0.703464 0.750000 0.421519
O O2 0.337160 0.533501 0.357414
O O3 0.624964 0.484979 0.351142
O O4 0.800361 0.475704 0.493841
O O5 0.205579 0.750000 0.006612
O O6 0.586389 0.535886 0.075513
O O7 0.293129 0.488126 0.079305
O O8 0.136879 0.485832 0.939060
O O9 0.820550 0.250000 0.110480
O O10 0.120998 0.994349 0.204121
O O11 0.097979 0.250000 0.317717
O O12 0.039355 0.503558 0.365673
O O13 0.799360 0.508614 0.226064
O O14 0.592056 0.750000 0.747153
O O15 0.541839 0.023425 0.785448
O O16 0.809235 0.750000 0.547867
O O17 0.500000 0.000000 0.500000
O O18 0.517691 0.250000 0.177588
#
# Coordination Sequence:
#
# PCOD9158502 Si02
#       7
#     4   4   4   4   4   4   4
#     4  10  19  31  50  76 101 125 160 206 249 285
#     4  10  20  34  54  78 100 124 159 203 247 288
#     4   9  19  36  55  74  98 129 163 198 239 290
#     4   9  17  32  53  73  96 129 165 199 240 291
#     4  10  21  36  51  69  98 135 169 197 234 290
#     4   8  15  28  47  71  97 124 157 199 243 286
#     4  10  21  35  51  72  99 132 167 200 237 287
#
# _framework density 25.623227
#
# number of rings (size 3 to 8) (size 9 to 14) (size 15 to 20)
#    0.000    2.571    0.000    1.714    0.000    6.857 
#    0.000    0.714    0.000    0.000    0.000    0.000 
#    0.000    0.000    0.000    0.000    0.000    0.000 
#
# Total GULP energy -156385.783711 kJ/mol
# GULP energy per Si atom -5585.206561 kJ/mol
# Density = 2.556491 g / cm^3
# Si number density = 25.623227 Si / 1000 Ang^3
#
#
#
# Elastic Constant Matrix: (Units=GPa)
#
#
# Indices 1 2 3 4 5 6 
#
# 1 88.8432 4.7206 21.0971 0.0000 -25.3863 0.0000
# 2 4.7206 27.6214 4.2015 0.0000 2.0615 0.0000
# 3 21.0971 4.2015 175.9958 0.0000 -16.2066 0.0000
# 4 0.0000 0.0000 0.0000 74.6524 0.0000 47.8108
# 5 -25.3863 2.0615 -16.2066 0.0000 48.8428 0.0000
# 6 0.0000 0.0000 0.0000 47.8108 0.0000 92.6085
#
#
#
# Elastic Compliance Matrix: (Units=1/GPa)
#
#
# Indices 1 2 3 4 5 6 
#
# 1 0.013581 -0.002692 -0.000932 0.000000 0.006863 0.000000
# 2 -0.002692 0.037037 -0.000861 0.000000 -0.003248 0.000000
# 3 -0.000932 -0.000861 0.005955 0.000000 0.001528 0.000000
# 4 0.000000 0.000000 0.000000 0.020012 0.000000 -0.010332
# 5 0.006863 -0.003248 0.001528 0.000000 0.024685 0.000000
# 6 0.000000 0.000000 0.000000 -0.010332 0.000000 0.016132
#
#
# Mechanical properties :
#
#
# Convention : Reuss Voigt Hill
#
# Bulk Modulus (GPa) = 21.00606 39.16654 30.08630
# Shear Modulus (GPa) = 35.15205 60.71680 47.93442
#
# Velocity S-wave (km/s) = 3.70791 4.87313 4.32990
# Velocity P-wave (km/s) = 5.15241 6.85434 6.06339
#
# Compressibility (1/GPa) = 0.04760531
#
# Stress axis : x y z
#
# Youngs Moduli (GPa) = 73.63105 26.99994 167.92918
#
# Poissons Ratio (x) = 0.07267 0.15647
# Poissons Ratio (y) = 0.19819 0.14452
# Poissons Ratio (z) = 0.06861 0.02324
#
# Static dielectric constant tensor:
#      x y z
#    x 2.105260 0.000000 -0.045320 
#    y 0.000000 1.920100 0.000000 
#    z -0.045320 0.000000 2.028710 
# 
# From -- ./inp_files/24073.got.cif
#   From: 2010.05.17/outbox.cif.g08.bks.cpg/sg11_13_cif.got.tgz:24073.got - 2010.06.03 12:22:45.
