data_PCOD9158334
_publ_section_title
;
Structure prediction by ZEFSAII (Michael W. Deem and Ramdas Pophale) SiO2 
 PCOD9158334
Probable space group: P 21/M
;
_chemical_formula_sum "Si O2"
_cell_formula_units_Z 32
_cell_length_a 19.506720
_cell_length_b 7.434781
_cell_length_c 20.416336
_cell_angle_alpha 90.000000
_cell_angle_beta 23.180107
_cell_angle_gamma 90.000000
_cell_volume 1165.495071
_symmetry_space_group_name_H-M "P 21/M"
_symmetry_group_IT_number 11
_symmetry_cell_setting 'monoclinic'
loop_
_space_group_symop_operation_xyz
x,y,z
-x,1/2+y,-z
-x,-y,-z
x,1/2-y,z
loop_
_atom_site_type_symbol
_atom_site_label
_atom_site_fract_x
_atom_site_fract_y
_atom_site_fract_z
Si Si1 0.378115 0.963780 0.909829
Si Si2 0.922718 0.044307 0.907748
Si Si3 0.632300 0.969168 0.574153
Si Si4 0.301008 0.469673 0.622628
Si Si5 0.917760 0.531968 0.417453
Si Si6 0.202390 0.465016 0.340927
Si Si7 0.199555 0.463823 0.848267
Si Si8 0.314496 0.456413 0.107119
O O1 0.371718 0.750000 0.905120
O O2 0.509039 0.034863 0.740347
O O3 0.189961 0.035904 0.051961
O O4 0.416138 0.980607 0.953371
O O5 0.963972 0.250000 0.853309
O O6 0.105485 0.970408 0.772413
O O7 0.796441 0.045512 0.082846
O O8 0.627024 0.750000 0.577518
O O9 0.593087 0.029323 0.534705
O O10 0.824368 0.019389 0.432178
O O11 0.304185 0.250000 0.623136
O O12 0.317724 0.531797 0.683295
O O13 0.923392 0.750000 0.413987
O O14 0.796406 0.471341 0.585243
O O15 0.112521 0.471947 0.261403
O O16 0.229585 0.250000 0.318482
O O17 0.312857 0.538192 0.181978
O O18 0.000000 0.500000 0.500000
O O19 0.220601 0.250000 0.836069
O O20 0.000000 0.500000 0.000000
O O21 0.355712 0.250000 0.078395
#
# Coordination Sequence:
#
# PCOD9158334 Si02
#       8
#     4   4   4   4   4   4   4   4
#     4  10  20  33  49  69  94 127 165 201 237 281
#     4   9  17  30  48  69  93 121 156 197 237 279
#     4   9  17  30  49  71  94 123 162 203 237 275
#     4   8  14  26  45  68  91 116 148 189 233 272
#     4   9  16  30  53  75  94 121 161 202 237 282
#     4   8  15  27  45  70  96 121 152 194 240 283
#     4   9  16  27  46  71  97 122 151 191 238 284
#     4  10  19  31  48  71  99 127 156 195 244 292
#
# _framework density 27.456143999999998
#
# number of rings (size 3 to 8) (size 9 to 14) (size 15 to 20)
#    0.000    3.000    0.000    2.250    0.000    3.000 
#    0.000    1.875    0.000    4.500    0.000    0.000 
#    0.000    0.000    0.000    0.000    0.000    0.000 
#
# Total GULP energy -178816.209800 kJ/mol
# GULP energy per Si atom -5588.006556 kJ/mol
# Density = 2.739365 g / cm^3
# Si number density = 27.456144 Si / 1000 Ang^3
#
#
#
# Elastic Constant Matrix: (Units=GPa)
#
#
# Indices 1 2 3 4 5 6 
#
# 1 207.5516 5.7223 42.8178 0.0000 34.4219 0.0000
# 2 5.7223 99.9581 3.4572 0.0000 -3.9099 0.0000
# 3 42.8178 3.4572 128.7062 0.0000 38.7627 0.0000
# 4 0.0000 0.0000 0.0000 2.8808 0.0000 16.6475
# 5 34.4219 -3.9099 38.7627 0.0000 60.0584 0.0000
# 6 0.0000 0.0000 0.0000 16.6475 0.0000 7.7066
#
#
#
# Elastic Compliance Matrix: (Units=1/GPa)
#
#
# Indices 1 2 3 4 5 6 
#
# 1 0.005456 -0.000372 -0.001063 0.000000 -0.002466 0.000000
# 2 -0.000372 0.010090 -0.000508 0.000000 0.001198 0.000000
# 3 -0.001063 -0.000508 0.009885 0.000000 -0.005804 0.000000
# 4 0.000000 0.000000 0.000000 -0.030229 0.000000 0.065300
# 5 -0.002466 0.001198 -0.005804 0.000000 0.021888 0.000000
# 6 0.000000 0.000000 0.000000 0.065300 0.000000 -0.011300
#
#
# Mechanical properties :
#
#
# Convention : Reuss Voigt Hill
#
# Bulk Modulus (GPa) = 46.41319 60.02338 53.21829
# Shear Modulus (GPa) = 296.60844 39.74370 168.17607
#
# Velocity S-wave (km/s) = 10.40502 3.80877 7.83490
# Velocity P-wave (km/s) = 12.70015 6.42272 10.06343
#
# Compressibility (1/GPa) = 0.02154560
#
# Stress axis : x y z
#
# Youngs Moduli (GPa) = 183.26783 99.10873 101.16595
#
# Poissons Ratio (x) = 0.03687 0.10751
# Poissons Ratio (y) = 0.06819 0.05140
# Poissons Ratio (z) = 0.19475 0.05035
#
# Static dielectric constant tensor:
#      x y z
#    x 2.135130 0.000000 -0.010410 
#    y 0.000000 2.024600 0.000000 
#    z -0.010410 0.000000 2.308620 
# 
# From -- ./inp_files/69936.got.cif
#   From: 2010.05.17/outbox.cif.g08.bks.cpg/sg11_35_cif.got.tgz:69936.got - 2010.06.03 12:22:45.
