data_PCOD9158569
_publ_section_title
;
Structure prediction by ZEFSAII (Michael W. Deem and Ramdas Pophale) SiO2 
 PCOD9158569
Probable space group: P 21/M
;
_chemical_formula_sum "Si O2"
_cell_formula_units_Z 32
_cell_length_a 5.473004
_cell_length_b 9.456629
_cell_length_c 30.389166
_cell_angle_alpha 90.000000
_cell_angle_beta 99.776415
_cell_angle_gamma 90.000000
_cell_volume 1549.986011
_symmetry_space_group_name_H-M "P 21/M"
_symmetry_group_IT_number 11
_symmetry_cell_setting 'monoclinic'
loop_
_space_group_symop_operation_xyz
x,y,z
-x,1/2+y,-z
-x,-y,-z
x,1/2-y,z
loop_
_atom_site_type_symbol
_atom_site_label
_atom_site_fract_x
_atom_site_fract_y
_atom_site_fract_z
Si Si1 0.095679 0.905680 0.586368
Si Si2 0.241565 0.421224 0.747080
Si Si3 0.542245 0.921621 0.047277
Si Si4 0.090801 0.921562 0.098868
Si Si5 0.204622 0.579577 0.200890
Si Si6 0.552475 0.090378 0.322879
Si Si7 0.733495 0.406695 0.628499
Si Si8 0.367048 0.408600 0.533520
O O1 0.021311 0.750000 0.570623
O O2 0.336170 0.893110 0.624734
O O3 0.137329 0.005596 0.546319
O O4 0.908092 0.976740 0.613556
O O5 0.231841 0.250000 0.738273
O O6 0.011845 0.461345 0.771476
O O7 0.252627 0.519479 0.704277
O O8 0.512218 0.452933 0.777041
O O9 0.537433 0.750000 0.041882
O O10 0.815295 0.961070 0.074100
O O11 0.317106 0.961085 0.073427
O O12 0.500000 0.000000 0.000000
O O13 0.092314 0.750000 0.100252
O O14 0.142802 0.973239 0.149972
O O15 0.192350 0.750000 0.199052
O O16 0.475895 0.250000 0.306710
O O17 0.357377 0.965470 0.327305
O O18 0.845331 0.250000 0.637278
O O19 0.534175 0.393069 0.582770
O O20 0.500000 0.500000 0.500000
O O21 0.315326 0.250000 0.516788
#
# Coordination Sequence:
#
# PCOD9158569 Si02
#       8
#     4   4   4   4   4   4   4   4
#     4  10  21  37  57  80 107 143 181 220 273 333
#     4  10  20  34  55  83 109 140 183 236 285 333
#     4  10  19  31  51  78 107 142 184 230 282 335
#     4   9  17  31  52  76 105 143 184 231 281 333
#     4   9  18  33  54  81 109 140 187 236 282 334
#     4  10  22  38  55  78 109 144 179 221 274 335
#     4  10  21  37  58  82 107 138 180 226 274 325
#     4  10  21  37  56  80 109 142 179 224 271 326
#
# _framework density 20.645347000000001
#
# number of rings (size 3 to 8) (size 9 to 14) (size 15 to 20)
#    0.000    2.250    0.000    2.625    1.750    6.500 
#    0.000    0.000    0.000    4.500    0.000    0.000 
#    0.000    0.000    0.000    0.000    0.000    0.000 
#
# Total GULP energy -178368.499334 kJ/mol
# GULP energy per Si atom -5574.015604 kJ/mol
# Density = 2.059836 g / cm^3
# Si number density = 20.645347 Si / 1000 Ang^3
#
#
#
# Elastic Constant Matrix: (Units=GPa)
#
#
# Indices 1 2 3 4 5 6 
#
# 1 106.8157 17.5017 56.7246 0.0000 -10.0319 0.0000
# 2 17.5017 92.8369 31.1290 0.0000 -8.6230 0.0000
# 3 56.7246 31.1290 132.9523 0.0000 -8.8809 0.0000
# 4 0.0000 0.0000 0.0000 24.7932 0.0000 -5.4452
# 5 -10.0319 -8.6230 -8.8809 0.0000 44.1765 0.0000
# 6 0.0000 0.0000 0.0000 -5.4452 0.0000 7.0876
#
#
#
# Elastic Compliance Matrix: (Units=1/GPa)
#
#
# Indices 1 2 3 4 5 6 
#
# 1 0.012256 -0.000476 -0.005005 0.000000 0.001684 0.000000
# 2 -0.000476 0.011844 -0.002456 0.000000 0.001710 0.000000
# 3 -0.005005 -0.002456 0.010262 0.000000 0.000447 0.000000
# 4 0.000000 0.000000 0.000000 0.048520 0.000000 0.037277
# 5 0.001684 0.001710 0.000447 0.000000 0.023443 0.000000
# 6 0.000000 0.000000 0.000000 0.037277 0.000000 0.169730
#
#
# Mechanical properties :
#
#
# Convention : Reuss Voigt Hill
#
# Bulk Modulus (GPa) = 54.08954 60.36840 57.22897
# Shear Modulus (GPa) = 16.77342 30.36144 23.56743
#
# Velocity S-wave (km/s) = 2.85345 3.83903 3.38233
# Velocity P-wave (km/s) = 6.09200 6.99678 6.56001
#
# Compressibility (1/GPa) = 0.01848786
#
# Stress axis : x y z
#
# Youngs Moduli (GPa) = 81.59228 84.43413 97.44853
#
# Poissons Ratio (x) = 0.04018 0.48775
# Poissons Ratio (y) = 0.03882 0.23931
# Poissons Ratio (z) = 0.40839 0.20735
#
# Static dielectric constant tensor:
#      x y z
#    x 1.842150 0.000000 0.055150 
#    y 0.000000 1.737530 0.000000 
#    z 0.055150 0.000000 1.753920 
# 
# From -- ./inp_files/72588.got.cif
#   From: 2010.05.17/outbox.cif.g08.bks.cpg/sg11_37_cif.got.tgz:72588.got - 2010.06.03 12:22:45.
