data_PCOD9158231
_publ_section_title
;
Structure prediction by ZEFSAII (Michael W. Deem and Ramdas Pophale) SiO2 
 PCOD9158231
Probable space group: P 21/M
;
_chemical_formula_sum "Si O2"
_cell_formula_units_Z 32
_cell_length_a 12.717859
_cell_length_b 9.680725
_cell_length_c 15.576023
_cell_angle_alpha 90.000000
_cell_angle_beta 73.064339
_cell_angle_gamma 90.000000
_cell_volume 1834.524788
_symmetry_space_group_name_H-M "P 21/M"
_symmetry_group_IT_number 11
_symmetry_cell_setting 'monoclinic'
loop_
_space_group_symop_operation_xyz
x,y,z
-x,1/2+y,-z
-x,-y,-z
x,1/2-y,z
loop_
_atom_site_type_symbol
_atom_site_label
_atom_site_fract_x
_atom_site_fract_y
_atom_site_fract_z
Si Si1 0.873718 0.409904 0.112594
Si Si2 0.494080 0.905912 0.918269
Si Si3 0.690359 0.406183 0.666378
Si Si4 0.698575 0.409169 0.298677
Si Si5 0.391290 0.586433 0.499241
Si Si6 0.251675 0.406706 0.197690
Si Si7 0.438963 0.405036 0.785188
Si Si8 0.135157 0.413326 0.051182
O O1 0.856609 0.250000 0.091609
O O2 0.808237 0.432071 0.216892
O O3 0.003976 0.430189 0.094502
O O4 0.836519 0.506458 0.042892
O O5 0.455072 0.750000 0.943962
O O6 0.618316 0.897222 0.853200
O O7 0.422254 0.988350 0.866467
O O8 0.500000 0.000000 0.000000
O O9 0.734975 0.250000 0.649989
O O10 0.664822 0.459840 0.576475
O O11 0.759494 0.500898 0.714656
O O12 0.568821 0.396330 0.737061
O O13 0.661949 0.250000 0.288653
O O14 0.695397 0.421718 0.401812
O O15 0.615218 0.523242 0.283349
O O16 0.500000 0.500000 0.500000
O O17 0.420972 0.750000 0.481177
O O18 0.210830 0.250000 0.221719
O O19 0.195668 0.461486 0.123627
O O20 0.398167 0.250000 0.811718
O O21 0.159750 0.250000 0.035336
#
# Coordination Sequence:
#
# PCOD9158231 Si02
#       8
#     4   4   4   4   4   4   4   4
#     4   9  19  34  52  76 101 127 163 204 250 301
#     4  10  20  32  44  65  96 129 165 201 243 292
#     4   9  18  32  48  70  97 128 165 201 238 287
#     4  10  20  32  49  74 101 131 163 204 251 298
#     4  10  19  32  50  72 101 134 168 203 246 292
#     4   9  19  33  50  70  92 126 165 202 244 290
#     4  10  19  31  46  66  96 131 167 202 238 285
#     4   9  18  35  55  74  98 128 164 206 251 297
#
# _framework density 17.443209
#
# number of rings (size 3 to 8) (size 9 to 14) (size 15 to 20)
#    0.000    2.500    1.250    0.750    1.750    2.500 
#    0.000    0.000    0.000    0.750    0.000    0.000 
#    0.000    0.000    0.000    0.000    0.000    0.000 
#
# Total GULP energy -178252.066197 kJ/mol
# GULP energy per Si atom -5570.377069 kJ/mol
# Density = 1.740351 g / cm^3
# Si number density = 17.443209 Si / 1000 Ang^3
#
#
#
# Elastic Constant Matrix: (Units=GPa)
#
#
# Indices 1 2 3 4 5 6 
#
# 1 38.4176 21.4611 26.8781 0.0000 7.9145 0.0000
# 2 21.4611 85.2797 55.0224 0.0000 13.0708 0.0000
# 3 26.8781 55.0224 116.5252 0.0000 15.9271 0.0000
# 4 0.0000 0.0000 0.0000 27.9502 0.0000 7.4715
# 5 7.9145 13.0708 15.9271 0.0000 25.5572 0.0000
# 6 0.0000 0.0000 0.0000 7.4715 0.0000 15.6336
#
#
#
# Elastic Compliance Matrix: (Units=1/GPa)
#
#
# Indices 1 2 3 4 5 6 
#
# 1 0.032885 -0.004403 -0.004834 0.000000 -0.004919 0.000000
# 2 -0.004403 0.017837 -0.006937 0.000000 -0.003436 0.000000
# 3 -0.004834 -0.006937 0.013427 0.000000 -0.003323 0.000000
# 4 0.000000 0.000000 0.000000 0.041018 0.000000 -0.019603
# 5 -0.004919 -0.003436 -0.003323 0.000000 0.044479 0.000000
# 6 0.000000 0.000000 0.000000 -0.019603 0.000000 0.073333
#
#
# Mechanical properties :
#
#
# Convention : Reuss Voigt Hill
#
# Bulk Modulus (GPa) = 31.44640 49.66063 40.55352
# Shear Modulus (GPa) = 18.80223 22.95227 20.87725
#
# Velocity S-wave (km/s) = 3.28672 3.63137 3.46333
# Velocity P-wave (km/s) = 5.69828 6.79074 6.26835
#
# Compressibility (1/GPa) = 0.03180015
#
# Stress axis : x y z
#
# Youngs Moduli (GPa) = 30.40938 56.06478 74.47869
#
# Poissons Ratio (x) = 0.24684 0.36002
# Poissons Ratio (y) = 0.13388 0.51667
# Poissons Ratio (z) = 0.14700 0.38893
#
# Static dielectric constant tensor:
#      x y z
#    x 1.591650 0.000000 0.000360 
#    y 0.000000 1.619840 0.000000 
#    z 0.000360 0.000000 1.629960 
# 
# From -- ./inp_files/51235.got.cif
#   From: 2010.05.17/outbox.cif.g08.bks.cpg/sg11_26_cif.got.tgz:51235.got - 2010.06.03 12:22:45.
