data_PCOD9158381
_publ_section_title
;
Structure prediction by ZEFSAII (Michael W. Deem and Ramdas Pophale) SiO2 
 PCOD9158381
Probable space group: P 21/M
;
_chemical_formula_sum "Si O2"
_cell_formula_units_Z 28
_cell_length_a 20.430670
_cell_length_b 8.157353
_cell_length_c 18.861525
_cell_angle_alpha 90.000000
_cell_angle_beta 28.979737
_cell_angle_gamma 90.000000
_cell_volume 1523.009797
_symmetry_space_group_name_H-M "P 21/M"
_symmetry_group_IT_number 11
_symmetry_cell_setting 'monoclinic'
loop_
_space_group_symop_operation_xyz
x,y,z
-x,1/2+y,-z
-x,-y,-z
x,1/2-y,z
loop_
_atom_site_type_symbol
_atom_site_label
_atom_site_fract_x
_atom_site_fract_y
_atom_site_fract_z
Si Si1 0.795889 0.554747 0.503625
Si Si2 0.850516 0.949036 0.294085
Si Si3 0.406190 0.942993 0.195987
Si Si4 0.096978 0.552457 0.972767
Si Si5 0.656422 0.054240 0.349201
Si Si6 0.682897 0.448267 0.875063
Si Si7 0.980670 0.447568 0.599253
O O1 0.816241 0.750000 0.479730
O O2 0.810839 0.491029 0.409877
O O3 0.655340 0.523675 0.676270
O O4 0.908010 0.487179 0.452047
O O5 0.848583 0.750000 0.294874
O O6 0.741528 0.004567 0.338628
O O7 0.003951 0.001303 0.127330
O O8 0.382433 0.750000 0.223331
O O9 0.335763 0.003254 0.189375
O O10 0.562469 0.979471 0.034917
O O11 0.104147 0.750000 0.969316
O O12 0.247595 0.494012 0.807745
O O13 0.000000 0.500000 0.000000
O O14 0.654474 0.250000 0.347317
O O15 0.500000 0.000000 0.500000
O O16 0.671125 0.250000 0.886233
O O17 0.829412 0.496395 0.763348
O O18 0.987070 0.250000 0.594022
O O19 0.000000 0.500000 0.500000
#
# Coordination Sequence:
#
# PCOD9158381 Si02
#       7
#     4   4   4   4   4   4   4
#     4  10  20  33  52  75 101 132 167 211 262 311
#     4   9  18  34  53  75 102 134 170 208 253 307
#     4  10  19  31  49  71  97 131 168 210 257 307
#     4   8  15  29  50  73  99 130 167 204 242 290
#     4  10  19  32  53  81 108 136 169 209 248 294
#     4   9  18  32  48  69  96 127 168 215 259 306
#     4  10  19  32  50  73  98 127 168 215 259 304
#
# _framework density 18.384647000000001
#
# number of rings (size 3 to 8) (size 9 to 14) (size 15 to 20)
#    0.000    2.571    1.429    0.857    0.000    2.286 
#    0.000    1.429    0.000    5.143    0.000    0.000 
#    0.000    0.000    0.000    0.000    0.000    0.000 
#
# Total GULP energy -155937.903027 kJ/mol
# GULP energy per Si atom -5569.210822 kJ/mol
# Density = 1.834280 g / cm^3
# Si number density = 18.384647 Si / 1000 Ang^3
#
#
#
# Elastic Constant Matrix: (Units=GPa)
#
#
# Indices 1 2 3 4 5 6 
#
# 1 67.8126 9.3590 68.8783 0.0000 6.4951 0.0000
# 2 9.3590 11.1384 13.3341 0.0000 0.1658 0.0000
# 3 68.8783 13.3341 170.5412 0.0000 6.3767 0.0000
# 4 0.0000 0.0000 0.0000 20.9490 0.0000 -0.5709
# 5 6.4951 0.1658 6.3767 0.0000 32.1591 0.0000
# 6 0.0000 0.0000 0.0000 -0.5709 0.0000 17.6384
#
#
#
# Elastic Compliance Matrix: (Units=1/GPa)
#
#
# Indices 1 2 3 4 5 6 
#
# 1 0.026374 -0.010491 -0.009707 0.000000 -0.003348 0.000000
# 2 -0.010491 0.103258 -0.003925 0.000000 0.002365 0.000000
# 3 -0.009707 -0.003925 0.010092 0.000000 -0.000020 0.000000
# 4 0.000000 0.000000 0.000000 0.047777 0.000000 0.001546
# 5 -0.003348 0.002365 -0.000020 0.000000 0.031763 0.000000
# 6 0.000000 0.000000 0.000000 0.001546 0.000000 0.056744
#
#
# Mechanical properties :
#
#
# Convention : Reuss Voigt Hill
#
# Bulk Modulus (GPa) = 10.93148 48.07057 29.50102
# Shear Modulus (GPa) = 14.09460 24.67736 19.38598
#
# Velocity S-wave (km/s) = 2.77185 3.66769 3.25078
# Velocity P-wave (km/s) = 4.02531 6.64378 5.49285
#
# Compressibility (1/GPa) = 0.09147895
#
# Stress axis : x y z
#
# Youngs Moduli (GPa) = 37.91582 9.68452 99.09204
#
# Poissons Ratio (x) = 0.10160 0.96185
# Poissons Ratio (y) = 0.39777 0.38892
# Poissons Ratio (z) = 0.36803 0.03801
#
# Static dielectric constant tensor:
#      x y z
#    x 1.619810 0.000000 0.002620 
#    y 0.000000 1.644560 0.000000 
#    z 0.002620 0.000000 1.675490 
# 
# From -- ./inp_files/61227.got.cif
#   From: 2010.05.17/outbox.cif.g08.bks.cpg/sg11_31_cif.got.tgz:61227.got - 2010.06.03 12:22:45.
