data_PCOD9158541
_publ_section_title
;
Structure prediction by ZEFSAII (Michael W. Deem and Ramdas Pophale) SiO2 
 PCOD9158541
Probable space group: P 21/M
;
_chemical_formula_sum "Si O2"
_cell_formula_units_Z 32
_cell_length_a 5.517257
_cell_length_b 13.940556
_cell_length_c 20.763000
_cell_angle_alpha 90.000000
_cell_angle_beta 113.488730
_cell_angle_gamma 90.000000
_cell_volume 1464.631377
_symmetry_space_group_name_H-M "P 21/M"
_symmetry_group_IT_number 11
_symmetry_cell_setting 'monoclinic'
loop_
_space_group_symop_operation_xyz
x,y,z
-x,1/2+y,-z
-x,-y,-z
x,1/2-y,z
loop_
_atom_site_type_symbol
_atom_site_label
_atom_site_fract_x
_atom_site_fract_y
_atom_site_fract_z
Si Si1 0.487923 0.614527 0.991943
Si Si2 0.234686 0.640028 0.823111
Si Si3 0.003403 0.114610 0.002274
Si Si4 0.238116 0.066596 0.158756
Si Si5 0.087788 0.141721 0.725220
Si Si6 0.265936 0.134257 0.510625
Si Si7 0.279397 0.642800 0.186232
Si Si8 0.868774 0.445521 0.579187
O O1 0.363259 0.634160 0.908826
O O2 0.783559 0.650111 0.025004
O O3 0.291465 0.650111 0.025004
O O4 0.500000 0.500000 0.000000
O O5 0.202775 0.750000 0.801847
O O6 0.454258 0.590739 0.801954
O O7 0.951662 0.590729 0.801957
O O8 0.130936 0.129679 0.087303
O O9 0.000000 0.000000 0.000000
O O10 0.211004 0.953948 0.140662
O O11 0.041312 0.250000 0.694219
O O12 0.403351 0.134877 0.769519
O O13 0.905047 0.134881 0.769500
O O14 0.993911 0.066341 0.662614
O O15 0.245096 0.250000 0.496731
O O16 0.578131 0.105721 0.551124
O O17 0.075223 0.105720 0.551121
O O18 0.169834 0.056557 0.446551
O O19 0.234219 0.750000 0.156121
#
# Coordination Sequence:
#
# PCOD9158541 Si02
#       8
#     4   4   4   4   4   4   4   4
#     4   8  14  25  42  63  90 119 149 187 232 279
#     4  10  19  31  51  74  96 130 168 202 246 299
#     4   8  14  25  44  65  88 122 153 185 240 296
#     4  10  19  33  52  73 102 132 164 215 259 304
#     4  10  19  33  53  77 106 137 176 222 261 309
#     4  10  19  32  51  78 112 146 180 219 262 308
#     4  10  21  35  54  78 102 134 172 215 271 317
#     4  10  20  32  52  80 108 144 183 217 262 312
#
# _framework density 21.848500999999999
#
# number of rings (size 3 to 8) (size 9 to 14) (size 15 to 20)
#    0.000    2.500    0.000    3.000    0.000    1.000 
#    0.000    0.000    0.000   28.500    0.000    1.750 
#    0.000    0.000    0.000    0.000    0.000    0.000 
#
# Total GULP energy -178323.068169 kJ/mol
# GULP energy per Si atom -5572.595880 kJ/mol
# Density = 2.179877 g / cm^3
# Si number density = 21.848501 Si / 1000 Ang^3
#
#
#
# Elastic Constant Matrix: (Units=GPa)
#
#
# Indices 1 2 3 4 5 6 
#
# 1 271.6311 53.2730 26.3927 0.0000 -3.6119 0.0000
# 2 53.2730 187.0628 26.2507 0.0000 -0.5281 0.0000
# 3 26.3927 26.2507 51.9906 0.0000 -0.4788 0.0000
# 4 0.0000 0.0000 0.0000 33.7995 0.0000 0.4520
# 5 -3.6119 -0.5281 -0.4788 0.0000 25.1990 0.0000
# 6 0.0000 0.0000 0.0000 0.4520 0.0000 9.1565
#
#
#
# Elastic Compliance Matrix: (Units=1/GPa)
#
#
# Indices 1 2 3 4 5 6 
#
# 1 0.004022 -0.000924 -0.001571 0.000000 0.000527 0.000000
# 2 -0.000924 0.005966 -0.002544 0.000000 -0.000056 0.000000
# 3 -0.001571 -0.002544 0.021317 0.000000 0.000127 0.000000
# 4 0.000000 0.000000 0.000000 0.029606 0.000000 -0.001461
# 5 0.000527 -0.000056 0.000127 0.000000 0.039761 0.000000
# 6 0.000000 0.000000 0.000000 -0.001461 0.000000 0.109284
#
#
# Mechanical properties :
#
#
# Convention : Reuss Voigt Hill
#
# Bulk Modulus (GPa) = 47.10555 80.27968 63.69262
# Shear Modulus (GPa) = 22.01596 40.61555 31.31576
#
# Velocity S-wave (km/s) = 3.17782 4.31625 3.79002
# Velocity P-wave (km/s) = 5.92213 7.85261 6.95468
#
# Compressibility (1/GPa) = 0.02122892
#
# Stress axis : x y z
#
# Youngs Moduli (GPa) = 248.61890 167.62676 46.91064
#
# Poissons Ratio (x) = 0.15482 0.07368
# Poissons Ratio (y) = 0.22962 0.11933
# Poissons Ratio (z) = 0.39050 0.42641
#
# Static dielectric constant tensor:
#      x y z
#    x 1.780350 0.000000 0.000060 
#    y 0.000000 1.826210 0.000000 
#    z 0.000060 0.000000 1.783260 
# 
# From -- ./inp_files/67636.got.cif
#   From: 2010.05.17/outbox.cif.g08.bks.cpg/sg11_34_cif.got.tgz:67636.got - 2010.06.03 12:22:45.
