data_PCOD9158668
_publ_section_title
;
Structure prediction by ZEFSAII (Michael W. Deem and Ramdas Pophale) SiO2 
 PCOD9158668
Probable space group: P 21/M
;
_chemical_formula_sum "Si O2"
_cell_formula_units_Z 24
_cell_length_a 27.400025
_cell_length_b 7.462607
_cell_length_c 11.929316
_cell_angle_alpha 90.000000
_cell_angle_beta 150.646413
_cell_angle_gamma 90.000000
_cell_volume 1195.717215
_symmetry_space_group_name_H-M "P 21/M"
_symmetry_group_IT_number 11
_symmetry_cell_setting 'monoclinic'
loop_
_space_group_symop_operation_xyz
x,y,z
-x,1/2+y,-z
-x,-y,-z
x,1/2-y,z
loop_
_atom_site_type_symbol
_atom_site_label
_atom_site_fract_x
_atom_site_fract_y
_atom_site_fract_z
Si Si1 0.890419 0.535442 0.415131
Si Si2 0.615335 0.538785 0.720673
Si Si3 0.694926 0.049280 0.645103
Si Si4 0.115438 0.533865 0.858966
Si Si5 0.498740 0.464621 0.129046
Si Si6 0.694451 0.532605 0.123083
O O1 0.894126 0.750000 0.434187
O O2 0.860904 0.504573 0.224991
O O3 0.809350 0.470424 0.343988
O O4 0.003050 0.467088 0.653751
O O5 0.500000 0.500000 0.500000
O O6 0.633710 0.750000 0.740372
O O7 0.655145 0.439935 0.692354
O O8 0.658965 0.487873 0.927114
O O9 0.710559 0.250000 0.629516
O O10 0.602156 0.965729 0.391310
O O11 0.803299 0.965699 0.888310
O O12 0.116101 0.750000 0.869770
O O13 0.500035 0.250000 0.152884
O O14 0.500000 0.500000 0.000000
O O15 0.394145 0.531637 0.972804
O O16 0.697067 0.750000 0.140828
#
# Coordination Sequence:
#
# PCOD9158668 Si02
#       6
#     4   4   4   4   4   4
#     4   9  16  28  45  69 100 131 158 183 224 282
#     4  11  19  29  46  72 101 129 157 189 236 293
#     4  10  19  32  48  70 101 129 155 196 241 286
#     4   9  17  27  44  71 101 130 156 185 226 279
#     4  10  21  37  51  66  90 122 163 207 247 285
#     4   9  17  30  48  68  96 128 154 190 234 279
#
# _framework density 20.071636000000002
#
# number of rings (size 3 to 8) (size 9 to 14) (size 15 to 20)
#    0.000    2.333    3.333    0.500    0.000    0.667 
#    0.000    0.833    0.000    1.000    0.000    0.000 
#    0.000    0.000    0.000    0.000    0.000    0.000 
#
# Total GULP energy -133655.867763 kJ/mol
# GULP energy per Si atom -5568.994490 kJ/mol
# Density = 2.002595 g / cm^3
# Si number density = 20.071636 Si / 1000 Ang^3
#
#
#
# Elastic Constant Matrix: (Units=GPa)
#
#
# Indices 1 2 3 4 5 6 
#
# 1 105.8271 4.6344 87.9641 0.0000 15.7050 0.0000
# 2 4.6344 56.8945 3.5657 0.0000 -1.4341 0.0000
# 3 87.9641 3.5657 151.6830 0.0000 35.7513 0.0000
# 4 0.0000 0.0000 0.0000 -0.2934 0.0000 -6.4204
# 5 15.7050 -1.4341 35.7513 0.0000 30.9735 0.0000
# 6 0.0000 0.0000 0.0000 -6.4204 0.0000 14.1166
#
#
#
# Elastic Compliance Matrix: (Units=1/GPa)
#
#
# Indices 1 2 3 4 5 6 
#
# 1 0.018650 -0.000679 -0.011764 0.000000 0.004090 0.000000
# 2 -0.000679 0.017698 -0.000408 0.000000 0.001634 0.000000
# 3 -0.011764 -0.000408 0.016516 0.000000 -0.013118 0.000000
# 4 0.000000 0.000000 0.000000 -0.311191 0.000000 -0.141534
# 5 0.004090 0.001634 -0.013118 0.000000 0.045429 0.000000
# 6 0.000000 0.000000 0.000000 -0.141534 0.000000 0.006467
#
#
# Mechanical properties :
#
#
# Convention : Reuss Voigt Hill
#
# Bulk Modulus (GPa) = 36.81267 56.30369 46.55818
# Shear Modulus (GPa) = -29.12474 23.50872 -2.80801
#
# Velocity S-wave (km/s) = -3.81338 3.42605 -1.18407
# Velocity P-wave (km/s) = 1.00436 6.61534 4.62353
#
# Compressibility (1/GPa) = 0.02716456
#
# Stress axis : x y z
#
# Youngs Moduli (GPa) = 53.61875 56.50226 60.54660
#
# Poissons Ratio (x) = 0.03835 0.71226
# Poissons Ratio (y) = 0.03640 0.02468
# Poissons Ratio (z) = 0.63076 0.02303
#
# Static dielectric constant tensor:
#      x y z
#    x 1.679840 0.000000 0.072400 
#    y 0.000000 1.763110 0.000000 
#    z 0.072400 0.000000 1.788160 
# 
# From -- ./inp_files/20856.got.cif
#   From: 2010.05.17/outbox.cif.g08.bks.cpg/sg11_11_cif.got.tgz:20856.got - 2010.06.03 12:22:45.
