data_PCOD9158839
_publ_section_title
;
Structure prediction by ZEFSAII (Michael W. Deem and Ramdas Pophale) SiO2 
 PCOD9158839
Probable space group: P 21/M
;
_chemical_formula_sum "Si O2"
_cell_formula_units_Z 32
_cell_length_a 12.550745
_cell_length_b 8.747174
_cell_length_c 34.334297
_cell_angle_alpha 90.000000
_cell_angle_beta 149.185380
_cell_angle_gamma 90.000000
_cell_volume 1930.890271
_symmetry_space_group_name_H-M "P 21/M"
_symmetry_group_IT_number 11
_symmetry_cell_setting 'monoclinic'
loop_
_space_group_symop_operation_xyz
x,y,z
-x,1/2+y,-z
-x,-y,-z
x,1/2-y,z
loop_
_atom_site_type_symbol
_atom_site_label
_atom_site_fract_x
_atom_site_fract_y
_atom_site_fract_z
Si Si1 0.627329 0.567182 0.926679
Si Si2 0.046190 0.568637 0.177199
Si Si3 0.764618 0.432474 0.341747
Si Si4 0.486497 0.067411 0.331663
Si Si5 0.048027 0.067102 0.091211
Si Si6 0.365548 0.567436 0.922310
Si Si7 0.531972 0.432533 0.814249
Si Si8 0.882445 0.433147 0.500799
O O1 0.651733 0.750000 0.930568
O O2 0.483862 0.535557 0.919156
O O3 0.530632 0.498707 0.857276
O O4 0.851789 0.492606 0.005133
O O5 0.028541 0.750000 0.166803
O O6 0.272126 0.522515 0.264012
O O7 0.022116 0.489909 0.127370
O O8 0.861320 0.506656 0.146058
O O9 0.770436 0.250000 0.339313
O O10 0.613530 0.466082 0.331526
O O11 0.661264 0.509801 0.272058
O O12 0.992841 0.495196 0.424182
O O13 0.445798 0.250000 0.318868
O O14 0.641306 0.031592 0.416148
O O15 0.058537 0.250000 0.093536
O O16 0.260022 0.997795 0.140843
O O17 0.349883 0.750000 0.921992
O O18 0.500000 0.500000 0.000000
O O19 0.539893 0.250000 0.817147
O O20 0.903998 0.250000 0.508009
O O21 0.000000 0.500000 0.500000
#
# Coordination Sequence:
#
# PCOD9158839 Si02
#       8
#     4   4   4   4   4   4   4   4
#     4  11  24  41  58  78 104 139 183 225 270 320
#     4  12  23  34  54  81 109 142 182 223 269 319
#     4  10  19  32  51  75 107 144 178 216 263 318
#     4   9  18  32  50  74 107 143 178 216 264 315
#     4  12  23  37  56  77 108 143 180 223 268 319
#     4  11  23  39  60  79 104 138 179 226 273 321
#     4  12  24  37  55  79 109 144 182 222 267 320
#     4   9  17  29  47  72 105 141 177 216 261 317
#
# _framework density 16.572665000000001
#
# number of rings (size 3 to 8) (size 9 to 14) (size 15 to 20)
#    0.000    1.250    2.500    6.000    0.000    4.000 
#    0.000    0.000    0.000    0.000    0.000    0.875 
#    0.000    0.000    0.000    0.000    0.000    0.000 
#
# Total GULP energy -178780.825932 kJ/mol
# GULP energy per Si atom -5586.900810 kJ/mol
# Density = 1.653495 g / cm^3
# Si number density = 16.572665 Si / 1000 Ang^3
#
#
#
# Elastic Constant Matrix: (Units=GPa)
#
#
# Indices 1 2 3 4 5 6 
#
# 1 38.7422 33.0130 35.8289 0.0000 -12.4455 0.0000
# 2 33.0130 95.7772 56.7077 0.0000 -8.9892 0.0000
# 3 35.8289 56.7077 140.5451 0.0000 -14.9371 0.0000
# 4 0.0000 0.0000 0.0000 34.3533 0.0000 0.0056
# 5 -12.4455 -8.9892 -14.9371 0.0000 18.6899 0.0000
# 6 0.0000 0.0000 0.0000 0.0056 0.0000 21.6585
#
#
#
# Elastic Compliance Matrix: (Units=1/GPa)
#
#
# Indices 1 2 3 4 5 6 
#
# 1 0.047115 -0.011105 -0.005206 0.000000 0.021872 0.000000
# 2 -0.011105 0.016433 -0.004093 0.000000 -0.002762 0.000000
# 3 -0.005206 -0.004093 0.010399 0.000000 0.002876 0.000000
# 4 0.000000 0.000000 0.000000 0.029109 0.000000 -0.000008
# 5 0.021872 -0.002762 0.002876 0.000000 0.069040 0.000000
# 6 0.000000 0.000000 0.000000 -0.000008 0.000000 0.046171
#
#
# Mechanical properties :
#
#
# Convention : Reuss Voigt Hill
#
# Bulk Modulus (GPa) = 30.17519 58.46263 44.31891
# Shear Modulus (GPa) = 18.51026 24.90798 21.70912
#
# Velocity S-wave (km/s) = 3.34565 3.88100 3.62323
# Velocity P-wave (km/s) = 5.75950 7.44554 6.65612
#
# Compressibility (1/GPa) = 0.03313981
#
# Stress axis : x y z
#
# Youngs Moduli (GPa) = 21.22482 60.85442 96.15971
#
# Poissons Ratio (x) = 0.67577 0.50058
# Poissons Ratio (y) = 0.23570 0.39358
# Poissons Ratio (z) = 0.11049 0.24907
#
# Static dielectric constant tensor:
#      x y z
#    x 1.530030 0.000000 0.003030 
#    y 0.000000 1.549160 0.000000 
#    z 0.003030 0.000000 1.568190 
# 
# From -- ./inp_files/64449.got.cif
#   From: 2010.05.17/outbox.cif.g08.bks.cpg/sg11_33_cif.got.tgz:64449.got - 2010.06.03 12:22:45.
