data_PCOD9158312
_publ_section_title
;
Structure prediction by ZEFSAII (Michael W. Deem and Ramdas Pophale) SiO2 
 PCOD9158312
Probable space group: P 21/M
;
_chemical_formula_sum "Si O2"
_cell_formula_units_Z 28
_cell_length_a 20.355759
_cell_length_b 8.202350
_cell_length_c 25.797679
_cell_angle_alpha 90.000000
_cell_angle_beta 159.149924
_cell_angle_gamma 90.000000
_cell_volume 1533.074746
_symmetry_space_group_name_H-M "P 21/M"
_symmetry_group_IT_number 11
_symmetry_cell_setting 'monoclinic'
loop_
_space_group_symop_operation_xyz
x,y,z
-x,1/2+y,-z
-x,-y,-z
x,1/2-y,z
loop_
_atom_site_type_symbol
_atom_site_label
_atom_site_fract_x
_atom_site_fract_y
_atom_site_fract_z
Si Si1 0.704054 0.941041 0.305583
Si Si2 0.791586 0.555188 0.859608
Si Si3 0.310175 0.441958 0.009760
Si Si4 0.084048 0.449845 0.939681
Si Si5 0.332018 0.944212 0.339186
Si Si6 0.676056 0.946421 0.096461
Si Si7 0.061590 0.053398 0.621640
O O1 0.661334 0.750000 0.270385
O O2 0.791906 0.995355 0.315176
O O3 0.519647 0.036008 0.182969
O O4 0.868102 0.972380 0.466529
O O5 0.780334 0.750000 0.849882
O O6 0.661820 0.491665 0.717474
O O7 0.783897 0.502626 0.914352
O O8 0.000000 0.500000 0.000000
O O9 0.268463 0.250000 0.974370
O O10 0.169756 0.508854 0.948900
O O11 0.311694 0.512571 0.952718
O O12 0.081559 0.250000 0.937721
O O13 0.871603 0.503646 0.791785
O O14 0.328486 0.750000 0.338951
O O15 0.500000 0.000000 0.500000
O O16 0.666561 0.750000 0.087012
O O17 0.854306 0.991237 0.261396
O O18 0.500000 0.000000 0.000000
O O19 0.042333 0.250000 0.603694
#
# Coordination Sequence:
#
# PCOD9158312 Si02
#       7
#     4   4   4   4   4   4   4
#     4  10  19  31  48  70  96 125 161 208 257 300
#     4   9  16  30  52  76 102 132 169 210 249 298
#     4  10  19  33  53  74  98 132 170 208 256 310
#     4   8  17  33  52  75 102 133 170 208 249 303
#     4  10  19  33  54  80 109 139 172 211 252 303
#     4  10  19  31  50  73  97 127 167 212 255 302
#     4   9  18  32  47  67  95 125 163 207 251 302
#
# _framework density 18.263949
#
# number of rings (size 3 to 8) (size 9 to 14) (size 15 to 20)
#    0.000    2.571    1.429    2.143    0.000    1.143 
#    0.000    5.714    0.000    5.143    0.000    0.000 
#    0.000    0.000    0.000    0.000    0.000    0.000 
#
# Total GULP energy -155951.246068 kJ/mol
# GULP energy per Si atom -5569.687360 kJ/mol
# Density = 1.822238 g / cm^3
# Si number density = 18.263949 Si / 1000 Ang^3
#
#
#
# Elastic Constant Matrix: (Units=GPa)
#
#
# Indices 1 2 3 4 5 6 
#
# 1 135.3512 15.7723 65.8985 0.0000 -17.3001 0.0000
# 2 15.7723 16.1534 12.4793 0.0000 -6.5381 0.0000
# 3 65.8985 12.4793 100.7166 0.0000 -24.5787 0.0000
# 4 0.0000 0.0000 0.0000 25.2283 0.0000 -3.6090
# 5 -17.3001 -6.5381 -24.5787 0.0000 25.7782 0.0000
# 6 0.0000 0.0000 0.0000 -3.6090 0.0000 15.9129
#
#
#
# Elastic Compliance Matrix: (Units=1/GPa)
#
#
# Indices 1 2 3 4 5 6 
#
# 1 0.011331 -0.005987 -0.006760 0.000000 -0.000359 0.000000
# 2 -0.005987 0.074641 -0.002205 0.000000 0.012811 0.000000
# 3 -0.006760 -0.002205 0.017439 0.000000 0.011532 0.000000
# 4 0.000000 0.000000 0.000000 0.040967 0.000000 0.009291
# 5 -0.000359 0.012811 0.011532 0.000000 0.052796 0.000000
# 6 0.000000 0.000000 0.000000 0.009291 0.000000 0.064949
#
#
# Mechanical properties :
#
#
# Convention : Reuss Voigt Hill
#
# Bulk Modulus (GPa) = 13.60398 48.94682 31.27540
# Shear Modulus (GPa) = 15.79636 23.92195 19.85916
#
# Velocity S-wave (km/s) = 2.94410 3.62303 3.30106
# Velocity P-wave (km/s) = 4.36138 6.66030 5.62945
#
# Compressibility (1/GPa) = 0.07350792
#
# Stress axis : x y z
#
# Youngs Moduli (GPa) = 88.25336 13.39751 57.34246
#
# Poissons Ratio (x) = 0.08021 0.38762
# Poissons Ratio (y) = 0.52836 0.12643
# Poissons Ratio (z) = 0.59656 0.02954
#
# Static dielectric constant tensor:
#      x y z
#    x 1.667770 0.000000 -0.026400 
#    y 0.000000 1.641420 0.000000 
#    z -0.026400 0.000000 1.620120 
# 
# From -- ./inp_files/71953.got.cif
#   From: 2010.05.17/outbox.cif.g08.bks.cpg/sg11_36_cif.got.tgz:71953.got - 2010.06.03 12:22:45.
