data_PCOD9158945
_publ_section_title
;
Structure prediction by ZEFSAII (Michael W. Deem and Ramdas Pophale) SiO2 
 PCOD9158945
Probable space group: P 21/M
;
_chemical_formula_sum "Si O2"
_cell_formula_units_Z 32
_cell_length_a 33.045245
_cell_length_b 8.805524
_cell_length_c 14.543903
_cell_angle_alpha 90.000000
_cell_angle_beta 153.784299
_cell_angle_gamma 90.000000
_cell_volume 1869.491072
_symmetry_space_group_name_H-M "P 21/M"
_symmetry_group_IT_number 11
_symmetry_cell_setting 'monoclinic'
loop_
_space_group_symop_operation_xyz
x,y,z
-x,1/2+y,-z
-x,-y,-z
x,1/2-y,z
loop_
_atom_site_type_symbol
_atom_site_label
_atom_site_fract_x
_atom_site_fract_y
_atom_site_fract_z
Si Si1 0.598597 0.933076 0.673433
Si Si2 0.358417 0.932137 0.437483
Si Si3 0.689042 0.068666 0.334707
Si Si4 0.550555 0.932275 0.917624
Si Si5 0.696817 0.568222 0.057489
Si Si6 0.835472 0.431822 0.473190
Si Si7 0.020728 0.066496 0.942062
Si Si8 0.772846 0.931977 0.687585
O O1 0.593018 0.750000 0.659789
O O2 0.500000 0.000000 0.500000
O O3 0.627965 0.996694 0.634931
O O4 0.668475 0.978220 0.897436
O O5 0.356547 0.750000 0.426398
O O6 0.447301 0.973211 0.680784
O O7 0.269964 0.994651 0.309070
O O8 0.687403 0.250000 0.343526
O O9 0.769466 0.028963 0.425158
O O10 0.714215 0.989491 0.481046
O O11 0.595396 0.012541 0.096758
O O12 0.555696 0.750000 0.940561
O O13 0.614380 0.973156 0.959840
O O14 0.703599 0.750000 0.072954
O O15 0.788528 0.500228 0.287555
O O16 0.834337 0.250000 0.463073
O O17 0.938118 0.481633 0.706489
O O18 0.018272 0.250000 0.943339
O O19 0.121687 0.022014 0.114625
O O20 0.000000 0.000000 0.000000
O O21 0.768536 0.750000 0.684330
#
# Coordination Sequence:
#
# PCOD9158945 Si02
#       8
#     4   4   4   4   4   4   4   4
#     4  11  21  36  58  84 112 143 182 225 270 322
#     4  11  23  39  56  78 109 146 185 229 272 320
#     4  10  19  32  52  78 108 143 182 223 264 315
#     4   9  18  34  52  74 107 144 181 219 264 318
#     4   9  18  33  53  80 110 139 173 218 268 318
#     4   9  18  32  52  81 110 137 175 223 269 316
#     4  10  20  35  56  81 109 140 180 224 271 320
#     4  11  23  37  54  78 109 148 183 222 274 327
#
# _framework density 17.116958
#
# number of rings (size 3 to 8) (size 9 to 14) (size 15 to 20)
#    0.000    2.000    2.500    1.500    0.000    4.000 
#    0.000    0.000    0.000    0.750    0.000    0.000 
#    0.000    0.000    0.000    0.000    0.000    0.000 
#
# Total GULP energy -178637.384459 kJ/mol
# GULP energy per Si atom -5582.418264 kJ/mol
# Density = 1.707800 g / cm^3
# Si number density = 17.116958 Si / 1000 Ang^3
#
#
#
# Elastic Constant Matrix: (Units=GPa)
#
#
# Indices 1 2 3 4 5 6 
#
# 1 114.8680 39.9856 73.1453 0.0000 -0.4550 0.0000
# 2 39.9856 33.5898 37.1895 0.0000 -2.3758 0.0000
# 3 73.1453 37.1895 136.1471 0.0000 -4.8356 0.0000
# 4 0.0000 0.0000 0.0000 28.1578 0.0000 -4.8946
# 5 -0.4550 -2.3758 -4.8356 0.0000 22.4312 0.0000
# 6 0.0000 0.0000 0.0000 -4.8946 0.0000 25.2034
#
#
#
# Elastic Compliance Matrix: (Units=1/GPa)
#
#
# Indices 1 2 3 4 5 6 
#
# 1 0.017220 -0.014808 -0.005290 0.000000 -0.002360 0.000000
# 2 -0.014808 0.055504 -0.007061 0.000000 0.004056 0.000000
# 3 -0.005290 -0.007061 0.012179 0.000000 0.001770 0.000000
# 4 0.000000 0.000000 0.000000 0.036755 0.000000 0.007138
# 5 -0.002360 0.004056 0.001770 0.000000 0.045344 0.000000
# 6 0.000000 0.000000 0.000000 0.007138 0.000000 0.041063
#
#
# Mechanical properties :
#
#
# Convention : Reuss Voigt Hill
#
# Bulk Modulus (GPa) = 32.69818 65.02731 48.86275
# Shear Modulus (GPa) = 18.34331 24.11077 21.22704
#
# Velocity S-wave (km/s) = 3.27715 3.75719 3.52535
# Velocity P-wave (km/s) = 5.78480 7.54284 6.72154
#
# Compressibility (1/GPa) = 0.03058274
#
# Stress axis : x y z
#
# Youngs Moduli (GPa) = 58.07289 18.01678 82.10940
#
# Poissons Ratio (x) = 0.26680 0.43437
# Poissons Ratio (y) = 0.85996 0.57980
# Poissons Ratio (z) = 0.30721 0.12722
#
# Static dielectric constant tensor:
#      x y z
#    x 1.566670 0.000000 0.007630 
#    y 0.000000 1.583840 0.000000 
#    z 0.007630 0.000000 1.583010 
# 
# From -- ./inp_files/45314.got.cif
#   From: 2010.05.17/outbox.cif.g08.bks.cpg/sg11_23_cif.got.tgz:45314.got - 2010.06.03 12:22:45.
