data_PCOD9158090
_publ_section_title
;
Structure prediction by ZEFSAII (Michael W. Deem and Ramdas Pophale) SiO2 
 PCOD9158090
Probable space group: P 21/M
;
_chemical_formula_sum "Si O2"
_cell_formula_units_Z 32
_cell_length_a 15.650398
_cell_length_b 7.752939
_cell_length_c 31.833396
_cell_angle_alpha 90.000000
_cell_angle_beta 28.689543
_cell_angle_gamma 90.000000
_cell_volume 1854.271503
_symmetry_space_group_name_H-M "P 21/M"
_symmetry_group_IT_number 11
_symmetry_cell_setting 'monoclinic'
loop_
_space_group_symop_operation_xyz
x,y,z
-x,1/2+y,-z
-x,-y,-z
x,1/2-y,z
loop_
_atom_site_type_symbol
_atom_site_label
_atom_site_fract_x
_atom_site_fract_y
_atom_site_fract_z
Si Si1 0.046610 0.042119 0.579691
Si Si2 0.938658 0.954518 0.087220
Si Si3 0.332294 0.457881 0.294008
Si Si4 0.343415 0.460872 0.385528
Si Si5 0.756896 0.950562 0.424886
Si Si6 0.361025 0.454519 0.613097
Si Si7 0.288452 0.950562 0.893331
Si Si8 0.723768 0.456195 0.258744
O O1 0.064243 0.250000 0.573253
O O2 0.183345 0.980885 0.484654
O O3 0.111760 0.973844 0.596848
O O4 0.846218 0.000000 0.653782
O O5 0.935486 0.750000 0.079696
O O6 0.796308 0.038097 0.116804
O O7 0.877074 0.984431 0.161047
O O8 0.134082 0.022862 0.990144
O O9 0.348244 0.250000 0.289252
O O10 0.320652 0.519115 0.347347
O O11 0.514065 0.526156 0.194543
O O12 0.343366 0.250000 0.385545
O O13 0.533496 0.517288 0.322168
O O14 0.805802 0.750000 0.398779
O O15 0.738597 0.022862 0.385630
O O16 0.556974 0.961903 0.529915
O O17 0.389941 0.250000 0.594877
O O18 0.262712 0.484431 0.699168
O O19 0.307941 0.750000 0.896640
O O20 0.720665 0.250000 0.259778
#
# Coordination Sequence:
#
# PCOD9158090 Si02
#       8
#     4   4   4   4   4   4   4   4
#     4  10  19  32  47  66  92 129 165 194 230 273
#     4  10  19  30  48  73  95 119 159 202 234 280
#     4  10  19  32  47  66  92 129 165 194 230 273
#     4   9  17  30  46  62  91 130 162 184 221 275
#     4   9  18  33  49  66  95 129 156 192 245 286
#     4  10  19  30  48  73  95 119 159 202 234 280
#     4   9  18  33  49  66  95 129 156 192 245 286
#     4  11  19  32  50  68  96 133 158 187 242 293
#
# _framework density 17.257449999999999
#
# number of rings (size 3 to 8) (size 9 to 14) (size 15 to 20)
#    0.000    2.250    2.500    1.500    0.000    2.000 
#    0.000    0.000    0.000    0.000    0.000    0.875 
#    0.000    0.000    0.000    0.000    0.000    0.000 
#
# Total GULP energy -178476.708351 kJ/mol
# GULP energy per Si atom -5577.397136 kJ/mol
# Density = 1.721817 g / cm^3
# Si number density = 17.257450 Si / 1000 Ang^3
#
#
#
# Elastic Constant Matrix: (Units=GPa)
#
#
# Indices 1 2 3 4 5 6 
#
# 1 122.6546 -1.4181 77.5663 0.0000 2.5747 0.0000
# 2 -1.4181 26.2093 -4.0713 0.0000 -4.7889 0.0000
# 3 77.5663 -4.0713 126.2610 0.0000 3.9350 0.0000
# 4 0.0000 0.0000 0.0000 12.1800 0.0000 -0.9096
# 5 2.5747 -4.7889 3.9350 0.0000 25.7121 0.0000
# 6 0.0000 0.0000 0.0000 -0.9096 0.0000 12.6840
#
#
#
# Elastic Compliance Matrix: (Units=1/GPa)
#
#
# Indices 1 2 3 4 5 6 
#
# 1 0.013342 -0.000588 -0.008209 0.000000 -0.000189 0.000000
# 2 -0.000588 0.039663 0.001415 0.000000 0.007230 0.000000
# 3 -0.008209 0.001415 0.013037 0.000000 -0.000910 0.000000
# 4 0.000000 0.000000 0.000000 0.082544 0.000000 0.005919
# 5 -0.000189 0.007230 -0.000910 0.000000 0.040397 0.000000
# 6 0.000000 0.000000 0.000000 0.005919 0.000000 0.079264
#
#
# Mechanical properties :
#
#
# Convention : Reuss Voigt Hill
#
# Bulk Modulus (GPa) = 19.50168 46.58652 33.04410
# Shear Modulus (GPa) = 16.66085 23.65174 20.15630
#
# Velocity S-wave (km/s) = 3.11051 3.70607 3.42127
# Velocity P-wave (km/s) = 4.92192 6.73550 5.89882
#
# Compressibility (1/GPa) = 0.05127765
#
# Stress axis : x y z
#
# Youngs Moduli (GPa) = 74.95310 25.21213 76.70286
#
# Poissons Ratio (x) = 0.01482 0.62968
# Poissons Ratio (y) = 0.04407 -0.10852
# Poissons Ratio (z) = 0.61531 -0.03567
#
# Static dielectric constant tensor:
#      x y z
#    x 1.584810 0.000000 0.010880 
#    y 0.000000 1.634540 0.000000 
#    z 0.010880 0.000000 1.590840 
# 
# From -- ./inp_files/51257.got.cif
#   From: 2010.05.17/outbox.cif.g08.bks.cpg/sg11_26_cif.got.tgz:51257.got - 2010.06.03 12:22:45.
