data_PCOD9158586
_publ_section_title
;
Structure prediction by ZEFSAII (Michael W. Deem and Ramdas Pophale) SiO2 
 PCOD9158586
Probable space group: P 21/M
;
_chemical_formula_sum "Si O2"
_cell_formula_units_Z 32
_cell_length_a 12.899598
_cell_length_b 16.679287
_cell_length_c 9.399281
_cell_angle_alpha 90.000000
_cell_angle_beta 131.655179
_cell_angle_gamma 90.000000
_cell_volume 1510.987750
_symmetry_space_group_name_H-M "P 21/M"
_symmetry_group_IT_number 11
_symmetry_cell_setting 'monoclinic'
loop_
_space_group_symop_operation_xyz
x,y,z
-x,1/2+y,-z
-x,-y,-z
x,1/2-y,z
loop_
_atom_site_type_symbol
_atom_site_label
_atom_site_fract_x
_atom_site_fract_y
_atom_site_fract_z
Si Si1 0.568806 0.656486 0.382341
Si Si2 0.861766 0.047447 0.320367
Si Si3 0.960486 0.155670 0.845500
Si Si4 0.235123 0.401994 0.201445
Si Si5 0.407831 0.514417 0.735006
Si Si6 0.705737 0.926455 0.046891
Si Si7 0.667772 0.080442 0.638642
Si Si8 0.053071 0.342206 0.605423
O O1 0.558518 0.750000 0.325177
O O2 0.698290 0.647169 0.609321
O O3 0.582908 0.581519 0.285539
O O4 0.436060 0.628991 0.355383
O O5 0.732506 0.039534 0.310700
O O6 0.934461 0.133113 0.384984
O O7 0.797669 0.008687 0.120638
O O8 0.000000 0.000000 0.500000
O O9 0.983929 0.250000 0.888828
O O10 0.990058 0.139052 0.705021
O O11 0.805427 0.130896 0.737882
O O12 0.070341 0.107307 0.040980
O O13 0.288019 0.492930 0.264136
O O14 0.285006 0.376070 0.089161
O O15 0.401433 0.557441 0.575078
O O16 0.549013 0.548841 0.932212
O O17 0.795541 0.883099 0.250736
O O18 0.079375 0.250000 0.616698
#
# Coordination Sequence:
#
# PCOD9158586 Si02
#       8
#     4   4   4   4   4   4   4   4
#     4  11  22  37  58  84 121 157 186 239 296 346
#     4  10  21  38  63  83 113 157 201 243 293 347
#     4  10  19  31  51  82 114 142 184 243 289 330
#     4  10  19  35  56  83 113 149 201 231 281 349
#     4  11  20  39  57  86 118 152 204 237 285 361
#     4  10  19  36  60  85 109 155 194 240 287 346
#     4  11  19  35  57  81 116 154 187 237 285 352
#     4   9  19  36  56  85 115 145 193 249 295 335
#
# _framework density 21.1782
#
# number of rings (size 3 to 8) (size 9 to 14) (size 15 to 20)
#    0.000    1.750    3.750    2.250    0.000    0.500 
#    0.000    3.750    0.000    0.000    0.000    0.000 
#    0.000    0.000    0.000    0.000    0.000    0.000 
#
# Total GULP energy -178384.196902 kJ/mol
# GULP energy per Si atom -5574.506153 kJ/mol
# Density = 2.113000 g / cm^3
# Si number density = 21.178200 Si / 1000 Ang^3
#
#
#
# Elastic Constant Matrix: (Units=GPa)
#
#
# Indices 1 2 3 4 5 6 
#
# 1 70.6931 20.2923 34.0058 0.0000 21.7000 0.0000
# 2 20.2923 77.2243 41.3588 0.0000 14.3793 0.0000
# 3 34.0058 41.3588 115.6395 0.0000 34.8017 0.0000
# 4 0.0000 0.0000 0.0000 21.8443 0.0000 6.0335
# 5 21.7000 14.3793 34.8017 0.0000 27.6703 0.0000
# 6 0.0000 0.0000 0.0000 6.0335 0.0000 15.6651
#
#
#
# Elastic Compliance Matrix: (Units=1/GPa)
#
#
# Indices 1 2 3 4 5 6 
#
# 1 0.019122 -0.002103 -0.001105 0.000000 -0.012513 0.000000
# 2 -0.002103 0.016305 -0.005084 0.000000 -0.000430 0.000000
# 3 -0.001105 -0.005084 0.015664 0.000000 -0.016192 0.000000
# 4 0.000000 0.000000 0.000000 0.051228 0.000000 -0.019731
# 5 -0.012513 -0.000430 -0.016192 0.000000 0.066542 0.000000
# 6 0.000000 0.000000 0.000000 -0.019731 0.000000 0.071436
#
#
# Mechanical properties :
#
#
# Convention : Reuss Voigt Hill
#
# Bulk Modulus (GPa) = 28.97946 50.54119 39.76033
# Shear Modulus (GPa) = 18.63018 24.22928 21.42973
#
# Velocity S-wave (km/s) = 2.96917 3.38608 3.18445
# Velocity P-wave (km/s) = 5.04658 6.26130 5.68647
#
# Compressibility (1/GPa) = 0.03450719
#
# Stress axis : x y z
#
# Youngs Moduli (GPa) = 52.29586 61.33274 63.84153
#
# Poissons Ratio (x) = 0.12897 0.07056
# Poissons Ratio (y) = 0.10997 0.32454
# Poissons Ratio (z) = 0.05780 0.31179
#
# Static dielectric constant tensor:
#      x y z
#    x 1.791080 0.000000 -0.041860 
#    y 0.000000 1.876980 0.000000 
#    z -0.041860 0.000000 1.790970 
# 
# From -- ./inp_files/18636.got.cif
#   From: 2010.05.17/outbox.cif.g08.bks.cpg/sg11_10_cif.got.tgz:18636.got - 2010.06.03 12:22:45.
