data_PCOD9158113
_publ_section_title
;
Structure prediction by ZEFSAII (Michael W. Deem and Ramdas Pophale) SiO2 
 PCOD9158113
Probable space group: P 21/M
;
_chemical_formula_sum "Si O2"
_cell_formula_units_Z 32
_cell_length_a 24.980074
_cell_length_b 8.691717
_cell_length_c 16.536259
_cell_angle_alpha 90.000000
_cell_angle_beta 26.403387
_cell_angle_gamma 90.000000
_cell_volume 1596.585198
_symmetry_space_group_name_H-M "P 21/M"
_symmetry_group_IT_number 11
_symmetry_cell_setting 'monoclinic'
loop_
_space_group_symop_operation_xyz
x,y,z
-x,1/2+y,-z
-x,-y,-z
x,1/2-y,z
loop_
_atom_site_type_symbol
_atom_site_label
_atom_site_fract_x
_atom_site_fract_y
_atom_site_fract_z
Si Si1 0.304870 0.569747 0.445089
Si Si2 0.136209 0.564829 0.539271
Si Si3 0.736347 0.431638 0.952393
Si Si4 0.118347 0.930516 0.085251
Si Si5 0.881898 0.567218 0.615922
Si Si6 0.694823 0.576838 0.290417
Si Si7 0.122315 0.424199 0.807231
Si Si8 0.483499 0.564826 0.343212
O O1 0.329734 0.750000 0.401422
O O2 0.256523 0.509384 0.424371
O O3 0.187498 0.538571 0.657971
O O4 0.410562 0.508699 0.360840
O O5 0.136511 0.750000 0.538822
O O6 0.134060 0.502571 0.451273
O O7 0.011023 0.510390 0.750392
O O8 0.722890 0.250000 0.954936
O O9 0.772025 0.519705 0.822882
O O10 0.842337 0.450811 0.874752
O O11 0.616072 0.498482 0.154743
O O12 0.105464 0.750000 0.085622
O O13 0.229319 0.994444 0.882261
O O14 0.893392 0.750000 0.594560
O O15 0.000000 0.500000 0.500000
O O16 0.660297 0.750000 0.311911
O O17 0.791295 0.586517 0.232425
O O18 0.583000 0.492835 0.485305
O O19 0.107451 0.250000 0.794767
O O20 0.000000 0.500000 0.000000
O O21 0.482845 0.750000 0.344482
#
# Coordination Sequence:
#
# PCOD9158113 Si02
#       8
#     4   4   4   4   4   4   4   4
#     4   9  20  37  57  83 115 153 194 241 292 347
#     4  11  22  38  62  91 124 156 192 243 302 356
#     4  11  24  42  63  88 119 155 198 247 299 353
#     4  11  23  37  57  87 121 156 199 248 300 355
#     4  12  24  41  65  93 122 154 193 238 296 356
#     4  10  21  36  54  80 116 157 201 245 294 350
#     4  10  19  30  48  75 109 151 195 241 291 346
#     4  10  21  40  63  86 117 158 205 247 292 350
#
# _framework density 20.042774000000001
#
# number of rings (size 3 to 8) (size 9 to 14) (size 15 to 20)
#    0.000    1.500    1.250    4.125    0.000    8.000 
#    0.000    0.625    0.000    0.000    0.000    0.000 
#    0.000    0.000    0.000    0.000    0.000    0.000 
#
# Total GULP energy -178648.379852 kJ/mol
# GULP energy per Si atom -5582.761870 kJ/mol
# Density = 1.999716 g / cm^3
# Si number density = 20.042774 Si / 1000 Ang^3
#
#
#
# Elastic Constant Matrix: (Units=GPa)
#
#
# Indices 1 2 3 4 5 6 
#
# 1 68.9519 21.3828 4.7667 0.0000 12.6524 0.0000
# 2 21.3828 68.6466 18.1387 0.0000 -0.1035 0.0000
# 3 4.7667 18.1387 65.6442 0.0000 6.8013 0.0000
# 4 0.0000 0.0000 0.0000 30.5716 0.0000 7.9627
# 5 12.6524 -0.1035 6.8013 0.0000 30.4741 0.0000
# 6 0.0000 0.0000 0.0000 7.9627 0.0000 20.3444
#
#
#
# Elastic Compliance Matrix: (Units=1/GPa)
#
#
# Indices 1 2 3 4 5 6 
#
# 1 0.017613 -0.005790 0.001106 0.000000 -0.007579 0.000000
# 2 -0.005790 0.017651 -0.004824 0.000000 0.003540 0.000000
# 3 0.001106 -0.004824 0.016927 0.000000 -0.004253 0.000000
# 4 0.000000 0.000000 0.000000 0.036423 0.000000 -0.014256
# 5 -0.007579 0.003540 -0.004253 0.000000 0.036923 0.000000
# 6 0.000000 0.000000 0.000000 -0.014256 0.000000 0.054733
#
#
# Mechanical properties :
#
#
# Convention : Reuss Voigt Hill
#
# Bulk Modulus (GPa) = 30.14264 32.42434 31.28349
# Shear Modulus (GPa) = 23.77075 26.87500 25.32287
#
# Velocity S-wave (km/s) = 3.44757 3.66578 3.55835
# Velocity P-wave (km/s) = 5.56053 5.84208 5.70304
#
# Compressibility (1/GPa) = 0.03317559
#
# Stress axis : x y z
#
# Youngs Moduli (GPa) = 56.77740 56.65472 59.07771
#
# Poissons Ratio (x) = 0.32803 -0.06535
# Poissons Ratio (y) = 0.32874 0.28497
# Poissons Ratio (z) = -0.06281 0.27328
#
# Static dielectric constant tensor:
#      x y z
#    x 1.754950 0.000000 0.000470 
#    y 0.000000 1.697920 0.000000 
#    z 0.000470 0.000000 1.665750 
# 
# From -- ./inp_files/55593.got.cif
#   From: 2010.05.17/outbox.cif.g08.bks.cpg/sg11_28_cif.got.tgz:55593.got - 2010.06.03 12:22:45.
