data_PCOD9158644
_publ_section_title
;
Structure prediction by ZEFSAII (Michael W. Deem and Ramdas Pophale) SiO2 
 PCOD9158644
Probable space group: P 21/M
;
_chemical_formula_sum "Si O2"
_cell_formula_units_Z 28
_cell_length_a 17.201842
_cell_length_b 19.723423
_cell_length_c 8.335844
_cell_angle_alpha 90.000000
_cell_angle_beta 24.315609
_cell_angle_gamma 90.000000
_cell_volume 1164.538247
_symmetry_space_group_name_H-M "P 21/M"
_symmetry_group_IT_number 11
_symmetry_cell_setting 'monoclinic'
loop_
_space_group_symop_operation_xyz
x,y,z
-x,1/2+y,-z
-x,-y,-z
x,1/2-y,z
loop_
_atom_site_type_symbol
_atom_site_label
_atom_site_fract_x
_atom_site_fract_y
_atom_site_fract_z
Si Si1 0.271437 0.558330 0.479749
Si Si2 0.272998 0.822731 0.902718
Si Si3 0.816597 0.673400 0.749702
Si Si4 0.744781 0.172741 0.704441
Si Si5 0.153724 0.085042 0.616088
Si Si6 0.644777 0.027406 0.356889
Si Si7 0.156392 0.105470 0.974346
O O1 0.354077 0.621836 0.231125
O O2 0.204896 0.494071 0.502566
O O3 0.408443 0.527855 0.356271
O O4 0.076444 0.584883 0.931691
O O5 0.328169 0.750000 0.725159
O O6 0.343066 0.823892 0.954695
O O7 0.044858 0.823189 0.332435
O O8 0.328575 0.893681 0.725464
O O9 0.748520 0.750000 0.855869
O O10 0.781186 0.627838 0.659458
O O11 0.753911 0.644110 0.041107
O O12 0.769821 0.250000 0.599216
O O13 0.946179 0.135674 0.354917
O O14 0.223233 0.110286 0.662525
O O15 0.500000 0.000000 0.500000
O O16 0.819777 0.974041 0.023931
#
# Coordination Sequence:
#
# PCOD9158644 Si02
#       7
#     4   4   4   4   4   4   4
#     4   9  18  32  50  81 110 138 185 225 273 335
#     4   9  19  34  52  82 111 137 184 232 280 337
#     4  10  19  31  56  87 112 143 176 224 301 347
#     4   9  18  32  57  86 111 139 169 232 304 332
#     4   9  17  31  51  81 114 137 170 233 291 330
#     4  11  22  37  55  79 107 157 196 219 265 323
#     4   9  20  34  53  84 115 137 181 233 278 334
#
# _framework density 24.043865
#
# number of rings (size 3 to 8) (size 9 to 14) (size 15 to 20)
#    0.000    2.571    1.429    2.143    2.000    4.571 
#    0.000    2.143    0.000    0.857    0.000    0.000 
#    0.000    0.000    0.000    0.000    0.000    0.000 
#
# Total GULP energy -156184.984899 kJ/mol
# GULP energy per Si atom -5578.035175 kJ/mol
# Density = 2.398914 g / cm^3
# Si number density = 24.043865 Si / 1000 Ang^3
#
#
#
# Elastic Constant Matrix: (Units=GPa)
#
#
# Indices 1 2 3 4 5 6 
#
# 1 167.4674 89.8382 20.5368 0.0000 14.4176 0.0000
# 2 89.8382 183.0756 20.5786 0.0000 17.1337 0.0000
# 3 20.5368 20.5786 80.7405 0.0000 -8.9436 0.0000
# 4 0.0000 0.0000 0.0000 6.9600 0.0000 6.8666
# 5 14.4176 17.1337 -8.9436 0.0000 15.2270 0.0000
# 6 0.0000 0.0000 0.0000 6.8666 0.0000 53.3546
#
#
#
# Elastic Compliance Matrix: (Units=1/GPa)
#
#
# Indices 1 2 3 4 5 6 
#
# 1 0.008518 -0.003480 -0.001860 0.000000 -0.005241 0.000000
# 2 -0.003480 0.008029 -0.001922 0.000000 -0.006868 0.000000
# 3 -0.001860 -0.001922 0.014742 0.000000 0.012583 0.000000
# 4 0.000000 0.000000 0.000000 0.164575 0.000000 -0.021180
# 5 -0.005241 -0.006868 0.012583 0.000000 0.085754 0.000000
# 6 0.000000 0.000000 0.000000 -0.021180 0.000000 0.021468
#
#
# Mechanical properties :
#
#
# Convention : Reuss Voigt Hill
#
# Bulk Modulus (GPa) = 59.65073 77.02119 68.33596
# Shear Modulus (GPa) = 15.47039 35.13029 25.30034
#
# Velocity S-wave (km/s) = 2.53933 3.82657 3.24737
# Velocity P-wave (km/s) = 5.78451 7.18517 6.52255
#
# Compressibility (1/GPa) = 0.01676425
#
# Stress axis : x y z
#
# Youngs Moduli (GPa) = 117.40445 124.55253 67.83296
#
# Poissons Ratio (x) = 0.43345 0.12618
# Poissons Ratio (y) = 0.40858 0.13037
# Poissons Ratio (z) = 0.21838 0.23938
#
# Static dielectric constant tensor:
#      x y z
#    x 2.006720 0.000000 -0.019720 
#    y 0.000000 1.930180 0.000000 
#    z -0.019720 0.000000 1.988080 
# 
# From -- ./inp_files/22718.got.cif
#   From: 2010.05.17/outbox.cif.g08.bks.cpg/sg11_12_cif.got.tgz:22718.got - 2010.06.03 12:22:45.
