data_PCOD9158988
_publ_section_title
;
Structure prediction by ZEFSAII (Michael W. Deem and Ramdas Pophale) SiO2 
 PCOD9158988
Probable space group: P 21/M
;
_chemical_formula_sum "Si O2"
_cell_formula_units_Z 24
_cell_length_a 8.711415
_cell_length_b 13.855513
_cell_length_c 8.498670
_cell_angle_alpha 90.000000
_cell_angle_beta 109.532748
_cell_angle_gamma 90.000000
_cell_volume 966.764846
_symmetry_space_group_name_H-M "P 21/M"
_symmetry_group_IT_number 11
_symmetry_cell_setting 'monoclinic'
loop_
_space_group_symop_operation_xyz
x,y,z
-x,1/2+y,-z
-x,-y,-z
x,1/2-y,z
loop_
_atom_site_type_symbol
_atom_site_label
_atom_site_fract_x
_atom_site_fract_y
_atom_site_fract_z
Si Si1 0.263733 0.141691 0.350794
Si Si2 0.058419 0.541145 0.319164
Si Si3 0.173366 0.861593 0.062025
Si Si4 0.384090 0.639039 0.429770
Si Si5 0.278833 0.503259 0.809872
Si Si6 0.557028 0.858727 0.906285
O O1 0.229743 0.250000 0.396591
O O2 0.120060 0.067356 0.319827
O O3 0.432041 0.102496 0.485737
O O4 0.306913 0.145610 0.181203
O O5 0.044949 0.593864 0.142888
O O6 0.216325 0.595836 0.443236
O O7 0.879687 0.538400 0.332041
O O8 0.135908 0.750000 0.010512
O O9 0.335670 0.863564 0.228305
O O10 0.206935 0.929926 0.927011
O O11 0.394915 0.750000 0.488459
O O12 0.413828 0.574623 0.786291
O O13 0.373435 0.413947 0.919999
O O14 0.501315 0.750000 0.921959
#
# Coordination Sequence:
#
# PCOD9158988 Si02
#       6
#     4   4   4   4   4   4
#     4  10  19  33  52  76 102 135 173 206 252 304
#     4  10  19  32  52  81  99 132 168 216 254 292
#     4   9  18  31  52  77 104 132 163 211 254 293
#     4   8  17  31  51  77 102 131 168 210 254 299
#     4  11  21  35  50  78 106 131 175 207 256 306
#     4  10  22  36  52  70 103 142 167 207 257 309
#
# _framework density 24.825064999999999
#
# number of rings (size 3 to 8) (size 9 to 14) (size 15 to 20)
#    1.000    1.333    1.667    1.500    0.000    2.667 
#    0.000    0.833    0.000    0.000    0.000    9.333 
#    0.000    0.000    0.000    0.000    0.000    0.000 
#
# Total GULP energy -134040.461583 kJ/mol
# GULP energy per Si atom -5585.019233 kJ/mol
# Density = 2.476856 g / cm^3
# Si number density = 24.825065 Si / 1000 Ang^3
#
#
#
# Elastic Constant Matrix: (Units=GPa)
#
#
# Indices 1 2 3 4 5 6 
#
# 1 71.2510 2.0054 23.2577 0.0000 22.1404 0.0000
# 2 2.0054 100.6508 20.1166 0.0000 6.6417 0.0000
# 3 23.2577 20.1166 56.0012 0.0000 22.4482 0.0000
# 4 0.0000 0.0000 0.0000 21.1003 0.0000 0.2167
# 5 22.1404 6.6417 22.4482 0.0000 51.2240 0.0000
# 6 0.0000 0.0000 0.0000 0.2167 0.0000 12.1759
#
#
#
# Elastic Compliance Matrix: (Units=1/GPa)
#
#
# Indices 1 2 3 4 5 6 
#
# 1 0.017444 0.001105 -0.005534 0.000000 -0.005258 0.000000
# 2 0.001105 0.010779 -0.004342 0.000000 0.000027 0.000000
# 3 -0.005534 -0.004342 0.024905 0.000000 -0.007960 0.000000
# 4 0.000000 0.000000 0.000000 0.047401 0.000000 -0.000844
# 5 -0.005258 0.000027 -0.007960 0.000000 0.025279 0.000000
# 6 0.000000 0.000000 0.000000 -0.000844 0.000000 0.082144
#
#
# Mechanical properties :
#
#
# Convention : Reuss Voigt Hill
#
# Bulk Modulus (GPa) = 28.10006 35.40694 31.75350
# Shear Modulus (GPa) = 21.06524 29.06828 25.06676
#
# Velocity S-wave (km/s) = 2.91614 3.42559 3.18108
# Velocity P-wave (km/s) = 4.76260 5.47172 5.12943
#
# Compressibility (1/GPa) = 0.03558712
#
# Stress axis : x y z
#
# Youngs Moduli (GPa) = 57.32626 92.76979 40.15178
#
# Poissons Ratio (x) = -0.10255 0.22220
# Poissons Ratio (y) = -0.06337 0.17435
# Poissons Ratio (z) = 0.31725 0.40283
#
# Static dielectric constant tensor:
#      x y z
#    x 1.963440 0.000000 -0.015240 
#    y 0.000000 1.952440 0.000000 
#    z -0.015240 0.000000 2.033120 
# 
# From -- ./inp_files/31564.got.cif
#   From: 2010.05.17/outbox.cif.g08.bks.cpg/sg11_16_cif.got.tgz:31564.got - 2010.06.03 12:22:45.
