data_PCOD9158426
_publ_section_title
;
Structure prediction by ZEFSAII (Michael W. Deem and Ramdas Pophale) SiO2 
 PCOD9158426
Probable space group: P 21/M
;
_chemical_formula_sum "Si O2"
_cell_formula_units_Z 32
_cell_length_a 16.216127
_cell_length_b 8.847427
_cell_length_c 23.980597
_cell_angle_alpha 90.000000
_cell_angle_beta 148.436054
_cell_angle_gamma 90.000000
_cell_volume 1800.939776
_symmetry_space_group_name_H-M "P 21/M"
_symmetry_group_IT_number 11
_symmetry_cell_setting 'monoclinic'
loop_
_space_group_symop_operation_xyz
x,y,z
-x,1/2+y,-z
-x,-y,-z
x,1/2-y,z
loop_
_atom_site_type_symbol
_atom_site_label
_atom_site_fract_x
_atom_site_fract_y
_atom_site_fract_z
Si Si1 0.871018 0.579779 0.807686
Si Si2 0.337969 0.422011 0.422893
Si Si3 0.249400 0.431179 0.651911
Si Si4 0.173809 0.070308 0.098836
Si Si5 0.986137 0.568820 0.580845
Si Si6 0.052305 0.568242 0.319382
Si Si7 0.595062 0.566043 0.866771
Si Si8 0.143235 0.429995 0.900957
O O1 0.936522 0.750000 0.853340
O O2 0.759044 0.582492 0.690388
O O3 0.774538 0.541598 0.807627
O O4 0.014060 0.471385 0.873652
O O5 0.500000 0.500000 0.500000
O O6 0.361486 0.250000 0.456418
O O7 0.225180 0.513308 0.399639
O O8 0.251885 0.250000 0.658981
O O9 0.169911 0.467255 0.545965
O O10 0.422836 0.497607 0.760283
O O11 0.131683 0.501441 0.629807
O O12 0.159389 0.250000 0.081603
O O13 0.294388 0.016196 0.121482
O O14 0.000000 0.000000 0.000000
O O15 0.999726 0.750000 0.591727
O O16 0.982368 0.499775 0.640235
O O17 0.047831 0.750000 0.318628
O O18 0.928177 0.515042 0.199371
O O19 0.584337 0.750000 0.860151
O O20 0.689161 0.518936 0.977397
O O21 0.151491 0.250000 0.901213
#
# Coordination Sequence:
#
# PCOD9158426 Si02
#       8
#     4   4   4   4   4   4   4   4
#     4   9  18  31  48  71 101 139 182 223 268 317
#     4  10  20  34  50  74 109 145 184 230 275 322
#     4  10  22  39  60  86 111 140 178 224 278 334
#     4  10  19  31  49  74 104 141 181 220 263 314
#     4  10  21  40  63  85 111 140 178 226 280 335
#     4  10  20  35  58  83 108 144 187 228 272 327
#     4  10  20  34  53  80 115 149 183 225 276 329
#     4   9  18  33  52  77 109 145 182 219 265 320
#
# _framework density 17.768502000000002
#
# number of rings (size 3 to 8) (size 9 to 14) (size 15 to 20)
#    0.000    2.250    1.250    1.500    0.000    4.500 
#    0.000    1.875    0.000    0.000    0.000    0.000 
#    0.000    0.000    0.000    0.000    0.000    0.000 
#
# Total GULP energy -178316.553967 kJ/mol
# GULP energy per Si atom -5572.392311 kJ/mol
# Density = 1.772806 g / cm^3
# Si number density = 17.768502 Si / 1000 Ang^3
#
#
#
# Elastic Constant Matrix: (Units=GPa)
#
#
# Indices 1 2 3 4 5 6 
#
# 1 125.2268 39.6319 74.2830 0.0000 -13.4413 0.0000
# 2 39.6319 43.5424 43.7928 0.0000 -2.5030 0.0000
# 3 74.2830 43.7928 127.8199 0.0000 10.9680 0.0000
# 4 0.0000 0.0000 0.0000 28.6911 0.0000 4.9171
# 5 -13.4413 -2.5030 10.9680 0.0000 23.9066 0.0000
# 6 0.0000 0.0000 0.0000 4.9171 0.0000 30.2723
#
#
#
# Elastic Compliance Matrix: (Units=1/GPa)
#
#
# Indices 1 2 3 4 5 6 
#
# 1 0.016106 -0.005270 -0.008624 0.000000 0.012460 0.000000
# 2 -0.005270 0.038994 -0.010819 0.000000 0.006083 0.000000
# 3 -0.008624 -0.010819 0.017754 0.000000 -0.014127 0.000000
# 4 0.000000 0.000000 0.000000 0.035852 0.000000 -0.005823
# 5 0.012460 0.006083 -0.014127 0.000000 0.055953 0.000000
# 6 0.000000 0.000000 0.000000 -0.005823 0.000000 0.033979
#
#
# Mechanical properties :
#
#
# Convention : Reuss Voigt Hill
#
# Bulk Modulus (GPa) = 42.68324 68.00050 55.34187
# Shear Modulus (GPa) = 19.54081 25.83277 22.68679
#
# Velocity S-wave (km/s) = 3.31984 3.81708 3.57711
# Velocity P-wave (km/s) = 6.22648 7.60132 6.94799
#
# Compressibility (1/GPa) = 0.02342840
#
# Stress axis : x y z
#
# Youngs Moduli (GPa) = 62.08687 25.64505 56.32456
#
# Poissons Ratio (x) = 0.13515 0.48574
# Poissons Ratio (y) = 0.32721 0.60938
# Poissons Ratio (z) = 0.53543 0.27745
#
# Static dielectric constant tensor:
#      x y z
#    x 1.601500 0.000000 -0.038720 
#    y 0.000000 1.621010 0.000000 
#    z -0.038720 0.000000 1.632190 
# 
# From -- ./inp_files/69085.got.cif
#   From: 2010.05.17/outbox.cif.g08.bks.cpg/sg11_35_cif.got.tgz:69085.got - 2010.06.03 12:22:45.
