data_PCOD9158355
_publ_section_title
;
Structure prediction by ZEFSAII (Michael W. Deem and Ramdas Pophale) SiO2 
 PCOD9158355
Probable space group: P 21/M
;
_chemical_formula_sum "Si O2"
_cell_formula_units_Z 28
_cell_length_a 32.258115
_cell_length_b 7.565936
_cell_length_c 32.257863
_cell_angle_alpha 90.000000
_cell_angle_beta 170.461570
_cell_angle_gamma 90.000000
_cell_volume 1304.618705
_symmetry_space_group_name_H-M "P 21/M"
_symmetry_group_IT_number 11
_symmetry_cell_setting 'monoclinic'
loop_
_space_group_symop_operation_xyz
x,y,z
-x,1/2+y,-z
-x,-y,-z
x,1/2-y,z
loop_
_atom_site_type_symbol
_atom_site_label
_atom_site_fract_x
_atom_site_fract_y
_atom_site_fract_z
Si Si1 0.808604 0.033188 0.688929
Si Si2 0.907912 0.462401 0.598238
Si Si3 0.384790 0.033451 0.121281
Si Si4 0.332414 0.465636 0.165012
Si Si5 0.762664 0.042161 0.737326
Si Si6 0.470292 0.537746 0.019143
Si Si7 0.051612 0.461482 0.458950
O O1 0.808678 0.250000 0.688920
O O2 0.569820 0.977944 0.426388
O O3 0.785845 0.967573 0.713728
O O4 0.070320 0.977869 0.926614
O O5 0.906238 0.250000 0.600509
O O6 0.646618 0.526202 0.359802
O O7 0.928927 0.504476 0.570606
O O8 0.148884 0.526182 0.861376
O O9 0.385202 0.250000 0.121261
O O10 0.357865 0.978717 0.142446
O O11 0.332247 0.250000 0.164953
O O12 0.765547 0.250000 0.734538
O O13 0.500000 0.000000 0.500000
O O14 0.000000 0.000000 0.000000
O O15 0.466933 0.750000 0.020823
O O16 0.706961 0.468744 0.278458
O O17 0.500000 0.500000 0.000000
O O18 0.207995 0.468721 0.778325
O O19 0.049498 0.250000 0.462764
#
# Coordination Sequence:
#
# PCOD9158355 Si02
#       7
#     4   4   4   4   4   4   4
#     4   9  17  28  46  72 101 132 171 215 260 314
#     4  10  19  31  48  73 101 129 161 200 243 293
#     4   9  17  28  45  72 103 128 159 205 256 301
#     4   9  15  26  44  69 101 132 160 206 265 307
#     4  11  22  37  56  82 113 146 187 233 280 336
#     4  10  21  36  54  75  99 126 161 201 242 286
#     4  10  21  36  52  73 100 131 164 198 236 287
#
# _framework density 21.462209000000001
#
# number of rings (size 3 to 8) (size 9 to 14) (size 15 to 20)
#    0.000    2.286    0.000    3.429    0.000    6.857 
#    0.000    0.000    0.000    0.000    0.000   20.000 
#    0.000    0.000    0.000    0.000    0.000    0.000 
#
# Total GULP energy -156511.074729 kJ/mol
# GULP energy per Si atom -5589.681240 kJ/mol
# Density = 2.141336 g / cm^3
# Si number density = 21.462209 Si / 1000 Ang^3
#
#
#
# Elastic Constant Matrix: (Units=GPa)
#
#
# Indices 1 2 3 4 5 6 
#
# 1 184.1123 -6.7133 100.7854 0.0000 4.8464 0.0000
# 2 -6.7133 48.3330 7.2062 0.0000 1.4032 0.0000
# 3 100.7854 7.2062 211.1501 0.0000 4.5113 0.0000
# 4 0.0000 0.0000 0.0000 -1.4387 0.0000 -2.4935
# 5 4.8464 1.4032 4.5113 0.0000 49.4277 0.0000
# 6 0.0000 0.0000 0.0000 -2.4935 0.0000 19.4615
#
#
#
# Elastic Compliance Matrix: (Units=1/GPa)
#
#
# Indices 1 2 3 4 5 6 
#
# 1 0.007480 0.001591 -0.003615 0.000000 -0.000449 0.000000
# 2 0.001591 0.021148 -0.001468 0.000000 -0.000622 0.000000
# 3 -0.003615 -0.001468 0.006516 0.000000 -0.000199 0.000000
# 4 0.000000 0.000000 0.000000 -0.568770 0.000000 -0.072873
# 5 -0.000449 -0.000622 -0.000199 0.000000 0.020311 0.000000
# 6 0.000000 0.000000 0.000000 -0.072873 0.000000 0.042047
#
#
# Mechanical properties :
#
#
# Convention : Reuss Voigt Hill
#
# Bulk Modulus (GPa) = 35.51154 71.79467 53.65310
# Shear Modulus (GPa) = -10.99149 36.31124 12.65987
#
# Velocity S-wave (km/s) = -2.26549 4.11770 2.43136
# Velocity P-wave (km/s) = 3.12070 7.49210 5.73891
#
# Compressibility (1/GPa) = 0.02815986
#
# Stress axis : x y z
#
# Youngs Moduli (GPa) = 133.68474 47.28642 153.47092
#
# Poissons Ratio (x) = -0.07523 0.55482
# Poissons Ratio (y) = -0.21270 0.22527
# Poissons Ratio (z) = 0.48329 0.06941
#
# Static dielectric constant tensor:
#      x y z
#    x 1.727150 0.000000 0.001480 
#    y 0.000000 1.825690 0.000000 
#    z 0.001480 0.000000 1.747400 
# 
# From -- ./inp_files/9592.got.cif
#   From: 2010.05.17/outbox.cif.g08.bks.cpg/sg11_5_cif.got.tgz:9592.got - 2010.06.03 12:22:45.
