data_PCOD9158216
_publ_section_title
;
Structure prediction by ZEFSAII (Michael W. Deem and Ramdas Pophale) SiO2 
 PCOD9158216
Probable space group: P 21/M
;
_chemical_formula_sum "Si O2"
_cell_formula_units_Z 32
_cell_length_a 15.269819
_cell_length_b 7.698626
_cell_length_c 14.710471
_cell_angle_alpha 90.000000
_cell_angle_beta 92.396995
_cell_angle_gamma 90.000000
_cell_volume 1727.800225
_symmetry_space_group_name_H-M "P 21/M"
_symmetry_group_IT_number 11
_symmetry_cell_setting 'monoclinic'
loop_
_space_group_symop_operation_xyz
x,y,z
-x,1/2+y,-z
-x,-y,-z
x,1/2-y,z
loop_
_atom_site_type_symbol
_atom_site_label
_atom_site_fract_x
_atom_site_fract_y
_atom_site_fract_z
Si Si1 0.316102 0.045889 0.670779
Si Si2 0.743679 0.040895 0.885835
Si Si3 0.900859 0.456365 0.019587
Si Si4 0.224609 0.044659 0.836290
Si Si5 0.616964 0.449589 0.027180
Si Si6 0.603763 0.959927 0.510922
Si Si7 0.479121 0.961569 0.807466
Si Si8 0.651429 0.541813 0.711769
O O1 0.299677 0.250000 0.655020
O O2 0.237962 0.981278 0.733342
O O3 0.343226 0.970914 0.574317
O O4 0.401161 0.021928 0.738306
O O5 0.740869 0.250000 0.894390
O O6 0.733451 0.998904 0.779645
O O7 0.831206 0.977990 0.940617
O O8 0.659207 0.967905 0.938717
O O9 0.892987 0.250000 0.020916
O O10 0.866739 0.520716 0.116034
O O11 0.000000 0.500000 0.000000
O O12 0.245589 0.250000 0.838652
O O13 0.297524 0.952836 0.902203
O O14 0.595124 0.250000 0.008056
O O15 0.541965 0.523370 0.090677
O O16 0.609401 0.750000 0.509915
O O17 0.643462 0.022714 0.608432
O O18 0.500000 0.000000 0.500000
O O19 0.478535 0.750000 0.809424
O O20 0.567479 0.024954 0.764511
O O21 0.643979 0.750000 0.707003
#
# Coordination Sequence:
#
# PCOD9158216 Si02
#       8
#     4   4   4   4   4   4   4   4
#     4   9  17  28  44  65  92 124 161 203 241 276
#     4   9  19  33  46  64  92 123 152 185 228 279
#     4  10  20  35  55  78 100 122 147 181 227 284
#     4   9  16  27  45  71  97 122 152 188 231 279
#     4   8  15  28  43  59  86 122 158 195 232 272
#     4  10  19  31  45  65  91 124 168 212 247 277
#     4   9  16  27  42  61  86 120 161 201 238 273
#     4  10  20  30  42  63  91 124 163 203 240 276
#
# _framework density 18.520659999999999
#
# number of rings (size 3 to 8) (size 9 to 14) (size 15 to 20)
#    0.000    2.750    1.250    1.500    0.000    4.500 
#    0.000    0.000    0.000    0.000    0.000    0.875 
#    0.000    0.000    0.000    0.000    0.000    0.000 
#
# Total GULP energy -178312.862331 kJ/mol
# GULP energy per Si atom -5572.276948 kJ/mol
# Density = 1.847851 g / cm^3
# Si number density = 18.520660 Si / 1000 Ang^3
#
#
#
# Elastic Constant Matrix: (Units=GPa)
#
#
# Indices 1 2 3 4 5 6 
#
# 1 92.5107 6.9669 61.3180 0.0000 -19.9341 0.0000
# 2 6.9669 45.3302 6.3309 0.0000 -3.2127 0.0000
# 3 61.3180 6.3309 176.5832 0.0000 -23.2081 0.0000
# 4 0.0000 0.0000 0.0000 13.6338 0.0000 4.5436
# 5 -19.9341 -3.2127 -23.2081 0.0000 23.1314 0.0000
# 6 0.0000 0.0000 0.0000 4.5436 0.0000 16.9806
#
#
#
# Elastic Compliance Matrix: (Units=1/GPa)
#
#
# Indices 1 2 3 4 5 6 
#
# 1 0.015639 -0.001173 -0.004191 0.000000 0.009109 0.000000
# 2 -0.001173 0.022399 -0.000138 0.000000 0.001962 0.000000
# 3 -0.004191 -0.000138 0.007656 0.000000 0.004050 0.000000
# 4 0.000000 0.000000 0.000000 0.080528 0.000000 -0.021547
# 5 0.009109 0.001962 0.004050 0.000000 0.055417 0.000000
# 6 0.000000 0.000000 0.000000 -0.021547 0.000000 0.064656
#
#
# Mechanical properties :
#
#
# Convention : Reuss Voigt Hill
#
# Bulk Modulus (GPa) = 28.82714 51.51732 40.17223
# Shear Modulus (GPa) = 18.59693 26.73638 22.66665
#
# Velocity S-wave (km/s) = 3.17222 3.80359 3.50216
# Velocity P-wave (km/s) = 5.38665 6.86777 6.17180
#
# Compressibility (1/GPa) = 0.03468953
#
# Stress axis : x y z
#
# Youngs Moduli (GPa) = 63.94367 44.64507 130.62181
#
# Poissons Ratio (x) = 0.05235 0.54747
# Poissons Ratio (y) = 0.07498 0.01803
# Poissons Ratio (z) = 0.26801 0.00616
#
# Static dielectric constant tensor:
#      x y z
#    x 1.658550 0.000000 -0.029560 
#    y 0.000000 1.673580 0.000000 
#    z -0.029560 0.000000 1.704050 
# 
# From -- ./inp_files/51176.got.cif
#   From: 2010.05.17/outbox.cif.g08.bks.cpg/sg11_26_cif.got.tgz:51176.got - 2010.06.03 12:22:45.
