data_PCOD9158680
_publ_section_title
;
Structure prediction by ZEFSAII (Michael W. Deem and Ramdas Pophale) SiO2 
 PCOD9158680
Probable space group: P 21/M
;
_chemical_formula_sum "Si O2"
_cell_formula_units_Z 32
_cell_length_a 25.952910
_cell_length_b 8.798412
_cell_length_c 12.390823
_cell_angle_alpha 90.000000
_cell_angle_beta 45.213669
_cell_angle_gamma 90.000000
_cell_volume 2008.117259
_symmetry_space_group_name_H-M "P 21/M"
_symmetry_group_IT_number 11
_symmetry_cell_setting 'monoclinic'
loop_
_space_group_symop_operation_xyz
x,y,z
-x,1/2+y,-z
-x,-y,-z
x,1/2-y,z
loop_
_atom_site_type_symbol
_atom_site_label
_atom_site_fract_x
_atom_site_fract_y
_atom_site_fract_z
Si Si1 0.532815 0.434608 0.244880
Si Si2 0.197981 0.070576 0.380552
Si Si3 0.364857 0.432335 0.510212
Si Si4 0.703882 0.068318 0.599672
Si Si5 0.921131 0.929984 0.604315
Si Si6 0.221908 0.931617 0.125528
Si Si7 0.571513 0.433688 0.949975
Si Si8 0.345262 0.933773 0.771622
O O1 0.532985 0.250000 0.246157
O O2 0.449043 0.483604 0.370982
O O3 0.569891 0.481494 0.077529
O O4 0.581201 0.483505 0.274924
O O5 0.210372 0.250000 0.369811
O O6 0.115443 0.045155 0.460284
O O7 0.222780 0.990530 0.452695
O O8 0.241729 0.002048 0.213087
O O9 0.363445 0.250000 0.507841
O O10 0.316544 0.498609 0.485098
O O11 0.339957 0.490582 0.663368
O O12 0.704474 0.250000 0.591640
O O13 0.640378 0.019944 0.777215
O O14 0.922949 0.750000 0.620572
O O15 0.859904 0.006733 0.770840
O O16 0.000000 0.000000 0.500000
O O17 0.221383 0.750000 0.136914
O O18 0.278392 0.972690 0.949353
O O19 0.568461 0.250000 0.952673
O O20 0.500000 0.500000 0.000000
O O21 0.346699 0.750000 0.758100
#
# Coordination Sequence:
#
# PCOD9158680 Si02
#       8
#     4   4   4   4   4   4   4   4
#     4   9  18  33  50  68  93 126 166 214 266 309
#     4   9  19  32  50  76 105 132 161 200 242 292
#     4  11  22  34  49  67  95 132 173 223 265 300
#     4  11  21  33  50  70  96 131 169 209 255 309
#     4   9  18  31  51  80 112 138 162 195 238 296
#     4   9  17  31  52  76 104 135 165 202 250 297
#     4  10  19  32  49  69  93 123 162 207 259 310
#     4  10  20  35  52  69  95 131 174 217 256 305
#
# _framework density 15.935324
#
# number of rings (size 3 to 8) (size 9 to 14) (size 15 to 20)
#    0.750    1.500    1.250    2.625    0.000    3.500 
#    0.000    1.250    0.000    0.000    0.000    0.875 
#    0.000    0.000    0.000    0.000    0.000    0.000 
#
# Total GULP energy -178265.170146 kJ/mol
# GULP energy per Si atom -5570.786567 kJ/mol
# Density = 1.589905 g / cm^3
# Si number density = 15.935324 Si / 1000 Ang^3
#
#
#
# Elastic Constant Matrix: (Units=GPa)
#
#
# Indices 1 2 3 4 5 6 
#
# 1 126.5458 46.7100 57.8707 0.0000 12.2913 0.0000
# 2 46.7100 41.9009 24.5895 0.0000 4.2078 0.0000
# 3 57.8707 24.5895 52.3079 0.0000 13.8850 0.0000
# 4 0.0000 0.0000 0.0000 19.4791 0.0000 2.0865
# 5 12.2913 4.2078 13.8850 0.0000 27.4387 0.0000
# 6 0.0000 0.0000 0.0000 2.0865 0.0000 25.1947
#
#
#
# Elastic Compliance Matrix: (Units=1/GPa)
#
#
# Indices 1 2 3 4 5 6 
#
# 1 0.020050 -0.012787 -0.016528 0.000000 0.001343 0.000000
# 2 -0.012787 0.041361 -0.005930 0.000000 0.002386 0.000000
# 3 -0.016528 -0.005930 0.043878 0.000000 -0.013891 0.000000
# 4 0.000000 0.000000 0.000000 0.051797 0.000000 -0.004290
# 5 0.001343 0.002386 -0.013891 0.000000 0.042507 0.000000
# 6 0.000000 0.000000 0.000000 -0.004290 0.000000 0.040046
#
#
# Mechanical properties :
#
#
# Convention : Reuss Voigt Hill
#
# Bulk Modulus (GPa) = 28.73611 53.23277 40.98444
# Shear Modulus (GPa) = 15.54116 20.52813 18.03465
#
# Velocity S-wave (km/s) = 3.12631 3.59307 3.36778
# Velocity P-wave (km/s) = 5.57708 7.11980 6.39513
#
# Compressibility (1/GPa) = 0.03479942
#
# Stress axis : x y z
#
# Youngs Moduli (GPa) = 49.87564 24.17761 22.79058
#
# Poissons Ratio (x) = 0.30915 0.37668
# Poissons Ratio (y) = 0.63775 0.13515
# Poissons Ratio (z) = 0.82433 0.14337
#
# Static dielectric constant tensor:
#      x y z
#    x 1.541490 0.000000 -0.008010 
#    y 0.000000 1.529160 0.000000 
#    z -0.008010 0.000000 1.520400 
# 
# From -- ./inp_files/43781.got.cif
#   From: 2010.05.17/outbox.cif.g08.bks.cpg/sg11_22_cif.got.tgz:43781.got - 2010.06.03 12:22:45.
