data_PCOD9158667
_publ_section_title
;
Structure prediction by ZEFSAII (Michael W. Deem and Ramdas Pophale) SiO2 
 PCOD9158667
Probable space group: P 21/M
;
_chemical_formula_sum "Si O2"
_cell_formula_units_Z 32
_cell_length_a 16.818892
_cell_length_b 7.663819
_cell_length_c 12.539087
_cell_angle_alpha 90.000000
_cell_angle_beta 100.123272
_cell_angle_gamma 90.000000
_cell_volume 1591.088005
_symmetry_space_group_name_H-M "P 21/M"
_symmetry_group_IT_number 11
_symmetry_cell_setting 'monoclinic'
loop_
_space_group_symop_operation_xyz
x,y,z
-x,1/2+y,-z
-x,-y,-z
x,1/2-y,z
loop_
_atom_site_type_symbol
_atom_site_label
_atom_site_fract_x
_atom_site_fract_y
_atom_site_fract_z
Si Si1 0.284507 0.455056 0.622549
Si Si2 0.278491 0.542569 0.271744
Si Si3 0.769827 0.052684 0.955220
Si Si4 0.593905 0.542354 0.522717
Si Si5 0.190924 0.041708 0.793997
Si Si6 0.937116 0.541075 0.892809
Si Si7 0.014956 0.450822 0.689157
Si Si8 0.848645 0.462894 0.580476
O O1 0.302076 0.250000 0.641076
O O2 0.357101 0.530302 0.568415
O O3 0.260456 0.527933 0.731980
O O4 0.204214 0.475325 0.531413
O O5 0.265764 0.750000 0.257842
O O6 0.358071 0.517680 0.361198
O O7 0.203318 0.477166 0.327556
O O8 0.284413 0.470151 0.152482
O O9 0.742466 0.250000 0.967425
O O10 0.787527 0.981040 0.076954
O O11 0.854906 0.043135 0.913711
O O12 0.500000 0.500000 0.500000
O O13 0.602697 0.750000 0.522501
O O14 0.185079 0.250000 0.777485
O O15 0.103434 0.970236 0.733749
O O16 0.928181 0.750000 0.878122
O O17 0.971394 0.457819 0.793930
O O18 0.000000 0.500000 0.000000
O O19 0.026308 0.250000 0.658322
O O20 0.941598 0.526005 0.600355
O O21 0.849377 0.250000 0.581342
#
# Coordination Sequence:
#
# PCOD9158667 Si02
#       8
#     4   4   4   4   4   4   4   4
#     4   9  20  37  53  76 107 139 175 216 264 320
#     4   9  18  33  53  79 111 138 167 214 267 312
#     4  11  21  34  52  76 106 141 182 223 265 313
#     4  10  20  36  61  88 111 133 165 209 261 321
#     4  10  21  35  51  71 104 148 186 221 263 311
#     4  12  22  31  46  69 100 139 186 236 275 308
#     4  10  19  32  48  70 100 140 186 229 271 309
#     4   9  17  31  50  72 101 139 179 223 268 307
#
# _framework density 20.112024000000002
#
# number of rings (size 3 to 8) (size 9 to 14) (size 15 to 20)
#    0.000    2.000    2.500    1.875    0.000    3.000 
#    0.000    0.000    0.000    0.750    0.000    0.000 
#    0.000    0.000    0.000    0.000    0.000    0.000 
#
# Total GULP energy -178377.118857 kJ/mol
# GULP energy per Si atom -5574.284964 kJ/mol
# Density = 2.006625 g / cm^3
# Si number density = 20.112024 Si / 1000 Ang^3
#
#
#
# Elastic Constant Matrix: (Units=GPa)
#
#
# Indices 1 2 3 4 5 6 
#
# 1 114.7083 -1.5823 64.8040 0.0000 4.2600 0.0000
# 2 -1.5823 52.5811 -9.6067 0.0000 -0.8241 0.0000
# 3 64.8040 -9.6067 74.4377 0.0000 -13.2882 0.0000
# 4 0.0000 0.0000 0.0000 20.6557 0.0000 7.5887
# 5 4.2600 -0.8241 -13.2882 0.0000 22.7050 0.0000
# 6 0.0000 0.0000 0.0000 7.5887 0.0000 12.9882
#
#
#
# Elastic Compliance Matrix: (Units=1/GPa)
#
#
# Indices 1 2 3 4 5 6 
#
# 1 0.022489 -0.003860 -0.023288 0.000000 -0.017989 0.000000
# 2 -0.003860 0.020261 0.006963 0.000000 0.005535 0.000000
# 3 -0.023288 0.006963 0.039566 0.000000 0.027778 0.000000
# 4 0.000000 0.000000 0.000000 0.061646 0.000000 -0.036018
# 5 -0.017989 0.005535 0.027778 0.000000 0.063877 0.000000
# 6 0.000000 0.000000 0.000000 -0.036018 0.000000 0.098038
#
#
# Mechanical properties :
#
#
# Convention : Reuss Voigt Hill
#
# Bulk Modulus (GPa) = 23.83995 38.77300 31.30647
# Shear Modulus (GPa) = 13.88013 23.81057 18.84535
#
# Velocity S-wave (km/s) = 2.62990 3.44451 3.06440
# Velocity P-wave (km/s) = 4.59360 5.92789 5.30288
#
# Compressibility (1/GPa) = 0.04194640
#
# Stress axis : x y z
#
# Youngs Moduli (GPa) = 44.46609 49.35580 25.27449
#
# Poissons Ratio (x) = 0.19051 0.58859
# Poissons Ratio (y) = 0.17164 -0.17599
# Poissons Ratio (z) = 1.03553 -0.34368
#
# Static dielectric constant tensor:
#      x y z
#    x 1.680690 0.000000 -0.007860 
#    y 0.000000 1.760260 0.000000 
#    z -0.007860 0.000000 1.777300 
# 
# From -- ./inp_files/38172.got.cif
#   From: 2010.05.17/outbox.cif.g08.bks.cpg/sg11_20_cif.got.tgz:38172.got - 2010.06.03 12:22:45.
