data_PCOD9158647
_publ_section_title
;
Structure prediction by ZEFSAII (Michael W. Deem and Ramdas Pophale) SiO2 
 PCOD9158647
Probable space group: P 21/M
;
_chemical_formula_sum "Si O2"
_cell_formula_units_Z 20
_cell_length_a 9.261623
_cell_length_b 18.125784
_cell_length_c 9.960126
_cell_angle_alpha 90.000000
_cell_angle_beta 135.633703
_cell_angle_gamma 90.000000
_cell_volume 1169.167746
_symmetry_space_group_name_H-M "P 21/M"
_symmetry_group_IT_number 11
_symmetry_cell_setting 'monoclinic'
loop_
_space_group_symop_operation_xyz
x,y,z
-x,1/2+y,-z
-x,-y,-z
x,1/2-y,z
loop_
_atom_site_type_symbol
_atom_site_label
_atom_site_fract_x
_atom_site_fract_y
_atom_site_fract_z
Si Si1 0.471354 0.422592 0.558570
Si Si2 0.238330 0.163274 0.189314
Si Si3 0.128768 0.935931 0.010801
Si Si4 0.645466 0.560895 0.982525
Si Si5 0.238389 0.025254 0.660088
O O1 0.500000 0.500000 0.500000
O O2 0.411207 0.361929 0.410262
O O3 0.686422 0.407435 0.774123
O O4 0.301637 0.436836 0.561581
O O5 0.229521 0.250000 0.164215
O O6 0.279162 0.120199 0.076334
O O7 0.030195 0.129549 0.116451
O O8 0.236101 0.982599 0.964658
O O9 0.000000 0.000000 0.000000
O O10 0.406024 0.541303 0.792865
O O11 0.705439 0.577733 0.175499
O O12 0.000000 0.000000 0.500000
#
# Coordination Sequence:
#
# PCOD9158647 Si02
#       5
#     4   4   4   4   4
#     4  11  19  35  57  86 111 141 185 236 271 330
#     4  11  22  35  55  84 116 148 184 234 289 334
#     4   9  17  32  57  78 107 142 185 225 269 328
#     4   9  19  34  53  83 108 142 190 229 270 332
#     4  10  19  31  58  84 106 138 187 230 273 320
#
# _framework density 17.106185
#
# number of rings (size 3 to 8) (size 9 to 14) (size 15 to 20)
#    0.000    2.000    6.000    1.200    2.800    0.800 
#    0.000    1.000    0.000   15.600    0.000    0.000 
#    0.000    0.000    0.000    0.000    0.000    0.000 
#
# Total GULP energy -111356.606407 kJ/mol
# GULP energy per Si atom -5567.830320 kJ/mol
# Density = 1.706725 g / cm^3
# Si number density = 17.106185 Si / 1000 Ang^3
#
#
#
# Elastic Constant Matrix: (Units=GPa)
#
#
# Indices 1 2 3 4 5 6 
#
# 1 94.1299 32.5345 38.2700 0.0000 -1.4661 0.0000
# 2 32.5345 99.9357 29.8754 0.0000 -5.2206 0.0000
# 3 38.2700 29.8754 69.8516 0.0000 -6.3739 0.0000
# 4 0.0000 0.0000 0.0000 18.4041 0.0000 -0.7697
# 5 -1.4661 -5.2206 -6.3739 0.0000 42.9618 0.0000
# 6 0.0000 0.0000 0.0000 -0.7697 0.0000 14.2887
#
#
#
# Elastic Compliance Matrix: (Units=1/GPa)
#
#
# Indices 1 2 3 4 5 6 
#
# 1 0.014282 -0.002673 -0.006758 0.000000 -0.000840 0.000000
# 2 -0.002673 0.011993 -0.003589 0.000000 0.000834 0.000000
# 3 -0.006758 -0.003589 0.019760 0.000000 0.002265 0.000000
# 4 0.000000 0.000000 0.000000 0.054458 0.000000 0.002933
# 5 -0.000840 0.000834 0.002265 0.000000 0.023685 0.000000
# 6 0.000000 0.000000 0.000000 0.002933 0.000000 0.070143
#
#
# Mechanical properties :
#
#
# Convention : Reuss Voigt Hill
#
# Bulk Modulus (GPa) = 50.01188 51.69745 50.85467
# Shear Modulus (GPa) = 22.02375 26.01342 24.01859
#
# Velocity S-wave (km/s) = 3.59203 3.90385 3.75118
# Velocity P-wave (km/s) = 6.81932 7.11387 6.96815
#
# Compressibility (1/GPa) = 0.01999525
#
# Stress axis : x y z
#
# Youngs Moduli (GPa) = 70.01768 83.38126 50.60652
#
# Poissons Ratio (x) = 0.22289 0.34201
# Poissons Ratio (y) = 0.18717 0.18162
# Poissons Ratio (z) = 0.47319 0.29924
#
# Static dielectric constant tensor:
#      x y z
#    x 1.640530 0.000000 -0.011170 
#    y 0.000000 1.546790 0.000000 
#    z -0.011170 0.000000 1.586050 
# 
# From -- ./inp_files/13624.got.cif
#   From: 2010.05.17/outbox.cif.g08.bks.cpg/sg11_7_cif.got.tgz:13624.got - 2010.06.03 12:22:45.
