data_PCOD9158272
_publ_section_title
;
Structure prediction by ZEFSAII (Michael W. Deem and Ramdas Pophale) SiO2 
 PCOD9158272
Probable space group: P 21/M
;
_chemical_formula_sum "Si O2"
_cell_formula_units_Z 28
_cell_length_a 12.369760
_cell_length_b 8.874960
_cell_length_c 22.822636
_cell_angle_alpha 90.000000
_cell_angle_beta 45.205779
_cell_angle_gamma 90.000000
_cell_volume 1778.003751
_symmetry_space_group_name_H-M "P 21/M"
_symmetry_group_IT_number 11
_symmetry_cell_setting 'monoclinic'
loop_
_space_group_symop_operation_xyz
x,y,z
-x,1/2+y,-z
-x,-y,-z
x,1/2-y,z
loop_
_atom_site_type_symbol
_atom_site_label
_atom_site_fract_x
_atom_site_fract_y
_atom_site_fract_z
Si Si1 0.499022 0.931505 0.716616
Si Si2 0.170455 0.070840 0.004547
Si Si3 0.783952 0.576023 0.542188
Si Si4 0.350188 0.929055 0.225008
Si Si5 0.171681 0.570283 0.875565
Si Si6 0.934704 0.577324 0.615023
Si Si7 0.538984 0.429851 0.047718
O O1 0.519198 0.750000 0.715989
O O2 0.611683 0.976875 0.620845
O O3 0.319698 0.961984 0.779852
O O4 0.557734 0.010089 0.753451
O O5 0.196612 0.250000 0.999044
O O6 0.187010 0.019007 0.930642
O O7 0.294123 0.983713 0.995259
O O8 0.994194 0.037565 0.087613
O O9 0.783464 0.750000 0.523231
O O10 0.860514 0.572039 0.577955
O O11 0.893789 0.481126 0.458661
O O12 0.365109 0.750000 0.215352
O O13 0.175427 0.976875 0.303101
O O14 0.422197 0.007139 0.140932
O O15 0.173704 0.750000 0.888484
O O16 0.930034 0.750000 0.636380
O O17 0.531707 0.250000 0.048712
O O18 0.500000 0.500000 0.000000
#
# Coordination Sequence:
#
# PCOD9158272 Si02
#       7
#     4   4   4   4   4   4   4
#     4   9  16  27  43  64  91 124 155 187 225 268
#     4  10  19  31  47  70  93 120 157 193 233 276
#     4   8  14  23  36  57  85 116 151 185 220 262
#     4  11  20  30  45  65  87 116 153 191 230 276
#     4   9  17  29  47  68  95 126 156 191 228 273
#     4   9  16  26  39  56  82 117 151 184 224 269
#     4  12  24  38  52  67  90 120 156 198 240 279
#
# _framework density 15.747997
#
# number of rings (size 3 to 8) (size 9 to 14) (size 15 to 20)
#    0.000    2.286    1.429    4.286    0.000    4.000 
#    0.000    0.000    0.000    0.000    0.000    0.000 
#    0.000    1.143    0.000    3.143    0.000    4.857 
#
# Total GULP energy -156036.784565 kJ/mol
# GULP energy per Si atom -5572.742306 kJ/mol
# Density = 1.571215 g / cm^3
# Si number density = 15.747997 Si / 1000 Ang^3
#
#
#
# Elastic Constant Matrix: (Units=GPa)
#
#
# Indices 1 2 3 4 5 6 
#
# 1 58.4689 38.6007 51.8438 0.0000 -14.6107 0.0000
# 2 38.6007 88.1900 47.2526 0.0000 -9.5433 0.0000
# 3 51.8438 47.2526 104.2026 0.0000 -36.9930 0.0000
# 4 0.0000 0.0000 0.0000 24.7426 0.0000 -2.5345
# 5 -14.6107 -9.5433 -36.9930 0.0000 28.1385 0.0000
# 6 0.0000 0.0000 0.0000 -2.5345 0.0000 17.4717
#
#
#
# Elastic Compliance Matrix: (Units=1/GPa)
#
#
# Indices 1 2 3 4 5 6 
#
# 1 0.034559 -0.007243 -0.015773 0.000000 -0.005248 0.000000
# 2 -0.007243 0.017322 -0.006564 0.000000 -0.006516 0.000000
# 3 -0.015773 -0.006564 0.031359 0.000000 0.030810 0.000000
# 4 0.000000 0.000000 0.000000 0.041026 0.000000 0.005951
# 5 -0.005248 -0.006516 0.030810 0.000000 0.071109 0.000000
# 6 0.000000 0.000000 0.000000 0.005951 0.000000 0.058099
#
#
# Mechanical properties :
#
#
# Convention : Reuss Voigt Hill
#
# Bulk Modulus (GPa) = 41.53029 58.47285 50.00157
# Shear Modulus (GPa) = 15.59284 21.61486 18.60385
#
# Velocity S-wave (km/s) = 3.15007 3.70881 3.44080
# Velocity P-wave (km/s) = 6.29759 7.45327 6.89967
#
# Compressibility (1/GPa) = 0.02407881
#
# Stress axis : x y z
#
# Youngs Moduli (GPa) = 28.93591 57.73116 31.88905
#
# Poissons Ratio (x) = 0.41817 0.50297
# Poissons Ratio (y) = 0.20959 0.20933
# Poissons Ratio (z) = 0.45639 0.37897
#
# Static dielectric constant tensor:
#      x y z
#    x 1.511110 0.000000 -0.048960 
#    y 0.000000 1.530750 0.000000 
#    z -0.048960 0.000000 1.546330 
# 
# From -- ./inp_files/64151.got.cif
#   From: 2010.05.17/outbox.cif.g08.bks.cpg/sg11_33_cif.got.tgz:64151.got - 2010.06.03 12:22:45.
