data_PCOD9158064
_publ_section_title
;
Structure prediction by ZEFSAII (Michael W. Deem and Ramdas Pophale) SiO2 
 PCOD9158064
Probable space group: P 21/M
;
_chemical_formula_sum "Si O2"
_cell_formula_units_Z 28
_cell_length_a 27.184226
_cell_length_b 10.966906
_cell_length_c 27.403423
_cell_angle_alpha 90.000000
_cell_angle_beta 10.956186
_cell_angle_gamma 90.000000
_cell_volume 1552.718498
_symmetry_space_group_name_H-M "P 21/M"
_symmetry_group_IT_number 11
_symmetry_cell_setting 'monoclinic'
loop_
_space_group_symop_operation_xyz
x,y,z
-x,1/2+y,-z
-x,-y,-z
x,1/2-y,z
loop_
_atom_site_type_symbol
_atom_site_label
_atom_site_fract_x
_atom_site_fract_y
_atom_site_fract_z
Si Si1 0.704047 0.516813 0.911277
Si Si2 0.322280 0.117132 0.164701
Si Si3 0.382711 0.895688 0.511463
Si Si4 0.863374 0.603483 0.862540
Si Si5 0.830144 0.615294 0.582733
Si Si6 0.404855 0.899239 0.378840
Si Si7 0.927876 0.898907 0.029551
O O1 0.765631 0.606478 0.805593
O O2 0.772150 0.567128 0.897731
O O3 0.905703 0.409881 0.702498
O O4 0.403872 0.477179 0.201191
O O5 0.453723 0.250000 0.042101
O O6 0.124336 0.111516 0.402882
O O7 0.500000 0.000000 0.000000
O O8 0.389408 0.750000 0.499747
O O9 0.391763 0.943817 0.447386
O O10 0.637518 0.926151 0.294266
O O11 0.124730 0.922110 0.793051
O O12 0.866196 0.750000 0.861508
O O13 0.150519 0.561742 0.596896
O O14 0.659838 0.561175 0.101636
O O15 0.733149 0.750000 0.665412
O O16 0.406836 0.750000 0.377596
O O17 0.945688 0.750000 0.024491
O O18 0.000000 0.000000 0.000000
#
# Coordination Sequence:
#
# PCOD9158064 Si02
#       7
#     4   4   4   4   4   4   4
#     4  11  20  34  52  76 101 129 160 205 263 312
#     4   9  19  35  54  77 105 137 170 206 251 310
#     4   9  17  30  49  72 101 136 172 207 248 301
#     4  10  19  30  47  74 104 128 158 204 259 311
#     4  10  21  36  53  72  95 128 171 209 247 306
#     4   9  17  30  47  70 101 134 166 204 249 300
#     4  10  19  31  49  77 108 138 173 211 252 296
#
# _framework density 18.032889000000001
#
# number of rings (size 3 to 8) (size 9 to 14) (size 15 to 20)
#    0.000    2.286    0.000    3.429    0.000    4.000 
#    0.000    9.286    0.000    0.000    0.000   20.000 
#    0.000    0.000    0.000    0.000    0.000    0.000 
#
# Total GULP energy -155924.838220 kJ/mol
# GULP energy per Si atom -5568.744222 kJ/mol
# Density = 1.799184 g / cm^3
# Si number density = 18.032889 Si / 1000 Ang^3
#
#
#
# Elastic Constant Matrix: (Units=GPa)
#
#
# Indices 1 2 3 4 5 6 
#
# 1 53.3208 8.2891 -21.2635 0.0000 6.3368 0.0000
# 2 8.2891 42.3351 0.5279 0.0000 -1.4499 0.0000
# 3 -21.2635 0.5279 41.1740 0.0000 0.4210 0.0000
# 4 0.0000 0.0000 0.0000 14.7832 0.0000 -1.2768
# 5 6.3368 -1.4499 0.4210 0.0000 20.7207 0.0000
# 6 0.0000 0.0000 0.0000 -1.2768 0.0000 5.7694
#
#
#
# Elastic Compliance Matrix: (Units=1/GPa)
#
#
# Indices 1 2 3 4 5 6 
#
# 1 0.026084 -0.005573 0.013630 0.000000 -0.008644 0.000000
# 2 -0.005573 0.024873 -0.003233 0.000000 0.003510 0.000000
# 3 0.013630 -0.003233 0.031419 0.000000 -0.005033 0.000000
# 4 0.000000 0.000000 0.000000 0.068963 0.000000 0.015262
# 5 -0.008644 0.003510 -0.005033 0.000000 0.051252 0.000000
# 6 0.000000 0.000000 0.000000 0.015262 0.000000 0.176706
#
#
# Mechanical properties :
#
#
# Convention : Reuss Voigt Hill
#
# Bulk Modulus (GPa) = 10.86676 12.43745 11.65210
# Shear Modulus (GPa) = 12.48992 18.20642 15.34817
#
# Velocity S-wave (km/s) = 2.63462 3.18090 2.92056
# Velocity P-wave (km/s) = 3.91077 4.51696 4.22475
#
# Compressibility (1/GPa) = 0.09202375
#
# Stress axis : x y z
#
# Youngs Moduli (GPa) = 38.33835 40.20461 31.82777
#
# Poissons Ratio (x) = 0.22406 -0.43382
# Poissons Ratio (y) = 0.21366 0.10290
# Poissons Ratio (z) = -0.52256 0.12998
#
# Static dielectric constant tensor:
#      x y z
#    x 1.633870 0.000000 -0.006900 
#    y 0.000000 1.637790 0.000000 
#    z -0.006900 0.000000 1.634750 
# 
# From -- ./inp_files/9290.got.cif
#   From: 2010.05.17/outbox.cif.g08.bks.cpg/sg11_5_cif.got.tgz:9290.got - 2010.06.03 12:22:45.
