data_PCOD9158898
_publ_section_title
;
Structure prediction by ZEFSAII (Michael W. Deem and Ramdas Pophale) SiO2 
 PCOD9158898
Probable space group: P 21/M
;
_chemical_formula_sum "Si O2"
_cell_formula_units_Z 28
_cell_length_a 25.649126
_cell_length_b 8.819768
_cell_length_c 9.773196
_cell_angle_alpha 90.000000
_cell_angle_beta 133.767675
_cell_angle_gamma 90.000000
_cell_volume 1596.592630
_symmetry_space_group_name_H-M "P 21/M"
_symmetry_group_IT_number 11
_symmetry_cell_setting 'monoclinic'
loop_
_space_group_symop_operation_xyz
x,y,z
-x,1/2+y,-z
-x,-y,-z
x,1/2-y,z
loop_
_atom_site_type_symbol
_atom_site_label
_atom_site_fract_x
_atom_site_fract_y
_atom_site_fract_z
Si Si1 0.922019 0.430678 0.329894
Si Si2 0.566119 0.932699 0.531403
Si Si3 0.202331 0.569025 0.692026
Si Si4 0.058842 0.930075 0.940079
Si Si5 0.647529 0.568359 0.942466
Si Si6 0.105250 0.428840 0.299676
Si Si7 0.502660 0.932817 0.851058
O O1 0.928200 0.250000 0.361171
O O2 0.858075 0.487896 0.309668
O O3 0.905982 0.457847 0.141954
O O4 0.000000 0.500000 0.500000
O O5 0.560610 0.750000 0.512706
O O6 0.500000 0.000000 0.500000
O O7 0.557845 0.002395 0.364674
O O8 0.632105 0.970689 0.754397
O O9 0.205091 0.750000 0.702729
O O10 0.280070 0.504622 0.869714
O O11 0.170061 0.515726 0.489343
O O12 0.061865 0.750000 0.977894
O O13 0.973400 0.970275 0.779159
O O14 0.095884 0.024630 0.125867
O O15 0.653226 0.750000 0.959258
O O16 0.578650 0.527045 0.913156
O O17 0.115291 0.250000 0.334586
O O18 0.497184 0.750000 0.846775
O O19 0.500000 0.000000 0.000000
#
# Coordination Sequence:
#
# PCOD9158898 Si02
#       7
#     4   4   4   4   4   4   4
#     4  10  20  34  52  76 102 132 173 221 268 315
#     4   9  17  32  55  81 109 143 181 221 263 315
#     4  11  22  34  53  79 107 139 178 223 271 321
#     4   9  18  33  51  72  99 130 171 222 269 317
#     4   9  20  37  55  78 110 145 180 216 263 321
#     4  10  19  32  52  74  99 136 174 215 269 323
#     4  10  20  35  58  87 114 144 181 222 265 318
#
# _framework density 17.537348000000001
#
# number of rings (size 3 to 8) (size 9 to 14) (size 15 to 20)
#    0.000    2.286    1.429    2.571    0.000    5.143 
#    0.000    1.429    0.000    3.429    0.000    0.000 
#    0.000    0.000    0.000    0.000    0.000    0.000 
#
# Total GULP energy -156061.331987 kJ/mol
# GULP energy per Si atom -5573.619000 kJ/mol
# Density = 1.749743 g / cm^3
# Si number density = 17.537348 Si / 1000 Ang^3
#
#
#
# Elastic Constant Matrix: (Units=GPa)
#
#
# Indices 1 2 3 4 5 6 
#
# 1 56.0698 26.9321 48.0285 0.0000 -5.0005 0.0000
# 2 26.9321 31.6250 47.1718 0.0000 -2.0427 0.0000
# 3 48.0285 47.1718 144.0417 0.0000 3.0443 0.0000
# 4 0.0000 0.0000 0.0000 36.0715 0.0000 -0.7939
# 5 -5.0005 -2.0427 3.0443 0.0000 27.1081 0.0000
# 6 0.0000 0.0000 0.0000 -0.7939 0.0000 22.2693
#
#
#
# Elastic Compliance Matrix: (Units=1/GPa)
#
#
# Indices 1 2 3 4 5 6 
#
# 1 0.031527 -0.020959 -0.003747 0.000000 0.004657 0.000000
# 2 -0.020959 0.077084 -0.018340 0.000000 0.004002 0.000000
# 3 -0.003747 -0.018340 0.014276 0.000000 -0.003676 0.000000
# 4 0.000000 0.000000 0.000000 0.027745 0.000000 0.000989
# 5 0.004657 0.004002 -0.003676 0.000000 0.038463 0.000000
# 6 0.000000 0.000000 0.000000 0.000989 0.000000 0.044940
#
#
# Mechanical properties :
#
#
# Convention : Reuss Voigt Hill
#
# Bulk Modulus (GPa) = 27.17793 52.88903 40.03348
# Shear Modulus (GPa) = 15.04253 24.39671 19.71962
#
# Velocity S-wave (km/s) = 2.93190 3.73383 3.35690
# Velocity P-wave (km/s) = 5.19540 6.98656 6.15647
#
# Compressibility (1/GPa) = 0.03679456
#
# Stress axis : x y z
#
# Youngs Moduli (GPa) = 31.71885 12.97286 70.04982
#
# Poissons Ratio (x) = 0.27190 0.26246
# Poissons Ratio (y) = 0.66480 1.28472
# Poissons Ratio (z) = 0.11884 0.23792
#
# Static dielectric constant tensor:
#      x y z
#    x 1.603320 0.000000 -0.014710 
#    y 0.000000 1.584250 0.000000 
#    z -0.014710 0.000000 1.603240 
# 
# From -- ./inp_files/28547.got.cif
#   From: 2010.05.17/outbox.cif.g08.bks.cpg/sg11_15_cif.got.tgz:28547.got - 2010.06.03 12:22:45.
