data_PCOD9158027
_publ_section_title
;
Structure prediction by ZEFSAII (Michael W. Deem and Ramdas Pophale) SiO2 
 PCOD9158027
Probable space group: P 21/M
;
_chemical_formula_sum "Si O2"
_cell_formula_units_Z 32
_cell_length_a 20.985257
_cell_length_b 7.484730
_cell_length_c 20.578897
_cell_angle_alpha 90.000000
_cell_angle_beta 29.751091
_cell_angle_gamma 90.000000
_cell_volume 1603.977224
_symmetry_space_group_name_H-M "P 21/M"
_symmetry_group_IT_number 11
_symmetry_cell_setting 'monoclinic'
loop_
_space_group_symop_operation_xyz
x,y,z
-x,1/2+y,-z
-x,-y,-z
x,1/2-y,z
loop_
_atom_site_type_symbol
_atom_site_label
_atom_site_fract_x
_atom_site_fract_y
_atom_site_fract_z
Si Si1 0.917727 0.538192 0.659659
Si Si2 0.360945 0.531297 0.858332
Si Si3 0.644223 0.531337 0.651666
Si Si4 0.319702 0.035885 0.611052
Si Si5 0.126407 0.535094 0.154456
Si Si6 0.198478 0.455272 0.368516
Si Si7 0.601989 0.462992 0.319359
Si Si8 0.844843 0.968277 0.362063
O O1 0.934329 0.750000 0.634612
O O2 0.860961 0.507992 0.780716
O O3 0.832180 0.467209 0.675426
O O4 0.060495 0.458113 0.527195
O O5 0.359191 0.750000 0.860465
O O6 0.499966 0.477043 0.762586
O O7 0.351307 0.471993 0.791858
O O8 0.243912 0.469886 0.006668
O O9 0.646413 0.750000 0.650530
O O10 0.698692 0.466721 0.672587
O O11 0.742863 0.477510 0.507566
O O12 0.323414 0.250000 0.601979
O O13 0.459142 0.967027 0.463325
O O14 0.209819 0.973256 0.659337
O O15 0.310037 0.996001 0.695834
O O16 0.124487 0.750000 0.151020
O O17 0.987526 0.469767 0.252890
O O18 0.237360 0.250000 0.323328
O O19 0.588973 0.250000 0.324674
O O20 0.847346 0.750000 0.360349
#
# Coordination Sequence:
#
# PCOD9158027 Si02
#       8
#     4   4   4   4   4   4   4   4
#     4  10  19  30  46  72 101 126 153 193 242 282
#     4   9  17  29  48  72  95 122 160 199 231 271
#     4   9  14  26  49  73  92 116 158 202 230 262
#     4   9  16  27  46  69  90 117 153 192 232 277
#     4  10  19  32  50  71  94 125 162 196 231 277
#     4   9  17  30  51  73  94 123 161 197 231 277
#     4   9  16  28  45  67  93 118 148 192 238 275
#     4   9  15  26  47  70  91 117 157 198 226 266
#
# _framework density 19.950410000000002
#
# number of rings (size 3 to 8) (size 9 to 14) (size 15 to 20)
#    0.000    2.750    2.500    0.375    0.000    0.500 
#    0.000    2.500    0.000    1.500    0.000    0.000 
#    0.000    0.000    0.000    0.000    0.000    0.000 
#
# Total GULP energy -178501.255003 kJ/mol
# GULP energy per Si atom -5578.164219 kJ/mol
# Density = 1.990500 g / cm^3
# Si number density = 19.950410 Si / 1000 Ang^3
#
#
#
# Elastic Constant Matrix: (Units=GPa)
#
#
# Indices 1 2 3 4 5 6 
#
# 1 200.7713 0.8024 101.9850 0.0000 14.9310 0.0000
# 2 0.8024 56.4114 1.6478 0.0000 -2.4153 0.0000
# 3 101.9850 1.6478 136.6625 0.0000 8.4627 0.0000
# 4 0.0000 0.0000 0.0000 2.5691 0.0000 5.9009
# 5 14.9310 -2.4153 8.4627 0.0000 27.6631 0.0000
# 6 0.0000 0.0000 0.0000 5.9009 0.0000 13.1477
#
#
#
# Elastic Compliance Matrix: (Units=1/GPa)
#
#
# Indices 1 2 3 4 5 6 
#
# 1 0.008202 -0.000054 -0.005958 0.000000 -0.002609 0.000000
# 2 -0.000054 0.017807 -0.000278 0.000000 0.001669 0.000000
# 3 -0.005958 -0.000278 0.011793 0.000000 -0.000416 0.000000
# 4 0.000000 0.000000 0.000000-12.607470 0.000000 5.658470
# 5 -0.002609 0.001669 -0.000416 0.000000 0.037830 0.000000
# 6 0.000000 0.000000 0.000000 5.658470 0.000000 -2.463570
#
#
# Mechanical properties :
#
#
# Convention : Reuss Voigt Hill
#
# Bulk Modulus (GPa) = 39.64889 66.96841 53.30865
# Shear Modulus (GPa) = -0.33390 27.96998 13.81804
#
# Velocity S-wave (km/s) = -0.40955 3.74836 2.63462
# Velocity P-wave (km/s) = 4.43771 7.23698 6.00280
#
# Compressibility (1/GPa) = 0.02522138
#
# Stress axis : x y z
#
# Youngs Moduli (GPa) = 121.92694 56.15694 84.79742
#
# Poissons Ratio (x) = 0.00305 0.50525
# Poissons Ratio (y) = 0.00662 0.02353
# Poissons Ratio (z) = 0.72648 0.01559
#
# Static dielectric constant tensor:
#      x y z
#    x 1.723950 0.000000 0.004400 
#    y 0.000000 1.773460 0.000000 
#    z 0.004400 0.000000 1.655740 
# 
# From -- ./inp_files/66401.got.cif
#   From: 2010.05.17/outbox.cif.g08.bks.cpg/sg11_34_cif.got.tgz:66401.got - 2010.06.03 12:22:45.
