data_PCOD9158189
_publ_section_title
;
Structure prediction by ZEFSAII (Michael W. Deem and Ramdas Pophale) SiO2 
 PCOD9158189
Probable space group: P 21/M
;
_chemical_formula_sum "Si O2"
_cell_formula_units_Z 28
_cell_length_a 12.912609
_cell_length_b 8.641415
_cell_length_c 15.485696
_cell_angle_alpha 90.000000
_cell_angle_beta 74.053894
_cell_angle_gamma 90.000000
_cell_volume 1661.453380
_symmetry_space_group_name_H-M "P 21/M"
_symmetry_group_IT_number 11
_symmetry_cell_setting 'monoclinic'
loop_
_space_group_symop_operation_xyz
x,y,z
-x,1/2+y,-z
-x,-y,-z
x,1/2-y,z
loop_
_atom_site_type_symbol
_atom_site_label
_atom_site_fract_x
_atom_site_fract_y
_atom_site_fract_z
Si Si1 0.155271 0.565015 0.899879
Si Si2 0.254302 0.564224 0.409683
Si Si3 0.699146 0.565233 0.277991
Si Si4 0.863356 0.563104 0.395511
Si Si5 0.484785 0.434042 0.406959
Si Si6 0.104977 0.938175 0.288624
Si Si7 0.923886 0.437082 0.897492
O O1 0.162218 0.750000 0.891449
O O2 0.250343 0.489018 0.823662
O O3 0.041799 0.508406 0.885852
O O4 0.148127 0.522262 0.002884
O O5 0.261375 0.750000 0.407503
O O6 0.182512 0.511904 0.507504
O O7 0.372675 0.495550 0.394940
O O8 0.194726 0.510661 0.335999
O O9 0.687351 0.750000 0.281766
O O10 0.785081 0.523127 0.333557
O O11 0.586101 0.488507 0.327385
O O12 0.861438 0.750000 0.404980
O O13 0.985487 0.514735 0.346923
O O14 0.500000 0.500000 0.500000
O O15 0.481560 0.250000 0.413058
O O16 0.105547 0.750000 0.289402
O O17 0.119787 0.985922 0.185818
O O18 0.936387 0.250000 0.894272
#
# Coordination Sequence:
#
# PCOD9158189 Si02
#       7
#     4   4   4   4   4   4   4
#     4  10  19  30  51  82 110 139 177 222 269 315
#     4  11  22  35  54  78 107 142 182 220 261 313
#     4  11  21  35  57  79 108 142 176 219 268 318
#     4  10  19  33  53  76 107 145 179 212 260 313
#     4  12  24  39  57  77 105 138 180 224 265 311
#     4   9  18  34  54  77 107 146 181 213 260 318
#     4   9  17  33  53  75 109 146 179 217 264 317
#
# _framework density 16.852713999999999
#
# number of rings (size 3 to 8) (size 9 to 14) (size 15 to 20)
#    0.000    1.714    2.857    3.000    0.000    1.143 
#    0.000    2.143    0.000    0.857    0.000    0.000 
#    0.000    0.000    0.000    0.000    0.000    0.000 
#
# Total GULP energy -156341.795573 kJ/mol
# GULP energy per Si atom -5583.635556 kJ/mol
# Density = 1.681436 g / cm^3
# Si number density = 16.852714 Si / 1000 Ang^3
#
#
#
# Elastic Constant Matrix: (Units=GPa)
#
#
# Indices 1 2 3 4 5 6 
#
# 1 134.0010 37.6830 90.4168 0.0000 11.8974 0.0000
# 2 37.6830 45.6940 45.5653 0.0000 3.8565 0.0000
# 3 90.4168 45.5653 155.9808 0.0000 2.3232 0.0000
# 4 0.0000 0.0000 0.0000 23.5540 0.0000 -7.5624
# 5 11.8974 3.8565 2.3232 0.0000 19.3836 0.0000
# 6 0.0000 0.0000 0.0000 -7.5624 0.0000 22.1754
#
#
#
# Elastic Compliance Matrix: (Units=1/GPa)
#
#
# Indices 1 2 3 4 5 6 
#
# 1 0.013702 -0.004102 -0.006643 0.000000 -0.006798 0.000000
# 2 -0.004102 0.032614 -0.007103 0.000000 -0.003120 0.000000
# 3 -0.006643 -0.007103 0.012277 0.000000 0.004019 0.000000
# 4 0.000000 0.000000 0.000000 0.047676 0.000000 0.016259
# 5 -0.006798 -0.003120 0.004019 0.000000 0.055902 0.000000
# 6 0.000000 0.000000 0.000000 0.016259 0.000000 0.050640
#
#
# Mechanical properties :
#
#
# Convention : Reuss Voigt Hill
#
# Bulk Modulus (GPa) = 43.67407 75.88957 59.78182
# Shear Modulus (GPa) = 19.52072 23.82329 21.67200
#
# Velocity S-wave (km/s) = 3.40709 3.76389 3.58993
# Velocity P-wave (km/s) = 6.43810 8.00112 7.26179
#
# Compressibility (1/GPa) = 0.02289688
#
# Stress axis : x y z
#
# Youngs Moduli (GPa) = 72.98128 30.66197 81.45297
#
# Poissons Ratio (x) = 0.12576 0.54111
# Poissons Ratio (y) = 0.29934 0.57857
# Poissons Ratio (z) = 0.48483 0.21780
#
# Static dielectric constant tensor:
#      x y z
#    x 1.544120 0.000000 0.011050 
#    y 0.000000 1.570370 0.000000 
#    z 0.011050 0.000000 1.571350 
# 
# From -- ./inp_files/37681.got.cif
#   From: 2010.05.17/outbox.cif.g08.bks.cpg/sg11_19_cif.got.tgz:37681.got - 2010.06.03 12:22:45.
