data_PCOD9158932
_publ_section_title
;
Structure prediction by ZEFSAII (Michael W. Deem and Ramdas Pophale) SiO2 
 PCOD9158932
Probable space group: P 21/M
;
_chemical_formula_sum "Si O2"
_cell_formula_units_Z 32
_cell_length_a 20.611466
_cell_length_b 7.790034
_cell_length_c 10.830494
_cell_angle_alpha 90.000000
_cell_angle_beta 135.019883
_cell_angle_gamma 90.000000
_cell_volume 1229.223179
_symmetry_space_group_name_H-M "P 21/M"
_symmetry_group_IT_number 11
_symmetry_cell_setting 'monoclinic'
loop_
_space_group_symop_operation_xyz
x,y,z
-x,1/2+y,-z
-x,-y,-z
x,1/2-y,z
loop_
_atom_site_type_symbol
_atom_site_label
_atom_site_fract_x
_atom_site_fract_y
_atom_site_fract_z
Si Si1 0.146659 0.956957 0.881823
Si Si2 0.522434 0.955538 0.214690
Si Si3 0.807996 0.548480 0.708586
Si Si4 0.635672 0.959033 0.611820
Si Si5 0.651039 0.450025 0.895279
Si Si6 0.022676 0.547689 0.207742
Si Si7 0.695111 0.453347 0.308077
Si Si8 0.130518 0.540157 0.592797
O O1 0.149267 0.750000 0.889662
O O2 0.101549 0.013735 0.690315
O O3 0.249649 0.026511 0.002631
O O4 0.084074 0.012142 0.911765
O O5 0.514638 0.750000 0.206255
O O6 0.577725 0.007984 0.413036
O O7 0.419443 0.023514 0.098850
O O8 0.590379 0.995009 0.193184
O O9 0.804010 0.750000 0.721560
O O10 0.739752 0.475113 0.720862
O O11 0.913614 0.508893 0.819990
O O12 0.753136 0.503581 0.508355
O O13 0.633370 0.750000 0.619008
O O14 0.603268 0.038783 0.696378
O O15 0.666909 0.250000 0.949028
O O16 0.033508 0.750000 0.223103
O O17 0.071447 0.474775 0.397951
O O18 0.692577 0.250000 0.295331
O O19 0.763138 0.512185 0.290476
O O20 0.127429 0.750000 0.586350
#
# Coordination Sequence:
#
# PCOD9158932 Si02
#       8
#     4   4   4   4   4   4   4   4
#     4  10  20  35  51  69  98 136 167 200 245 292
#     4   9  18  33  50  73 101 130 163 201 245 295
#     4   9  17  31  51  76 102 128 157 197 248 298
#     4   9  18  32  52  74  98 126 159 201 249 292
#     4  10  21  34  50  71  98 132 170 204 241 290
#     4  10  19  32  52  78 101 126 162 205 243 286
#     4   9  16  28  49  77 101 125 160 204 245 285
#     4   8  16  31  51  74 100 127 161 200 243 290
#
# _framework density 26.032699999999998
#
# number of rings (size 3 to 8) (size 9 to 14) (size 15 to 20)
#    0.000    2.750    0.000    3.375    0.000    3.500 
#    0.000    4.375    0.000    0.000    0.000    0.000 
#    0.000    0.000    0.000    0.000    0.000    0.000 
#
# Total GULP energy -178740.430129 kJ/mol
# GULP energy per Si atom -5585.638442 kJ/mol
# Density = 2.597345 g / cm^3
# Si number density = 26.032700 Si / 1000 Ang^3
#
#
#
# Elastic Constant Matrix: (Units=GPa)
#
#
# Indices 1 2 3 4 5 6 
#
# 1 261.0234 3.8864 44.6588 0.0000 10.3065 0.0000
# 2 3.8864 38.4164 -3.2422 0.0000 6.4489 0.0000
# 3 44.6588 -3.2422 64.0264 0.0000 8.8413 0.0000
# 4 0.0000 0.0000 0.0000 1.8996 0.0000 8.4833
# 5 10.3065 6.4489 8.8413 0.0000 58.1247 0.0000
# 6 0.0000 0.0000 0.0000 8.4833 0.0000 22.2343
#
#
#
# Elastic Compliance Matrix: (Units=1/GPa)
#
#
# Indices 1 2 3 4 5 6 
#
# 1 0.004372 -0.000660 -0.003050 0.000000 -0.000238 0.000000
# 2 -0.000660 0.026826 0.002261 0.000000 -0.003203 0.000000
# 3 -0.003050 0.002261 0.018203 0.000000 -0.002479 0.000000
# 4 0.000000 0.000000 0.000000 -0.747894 0.000000 0.285351
# 5 -0.000238 -0.003203 -0.002479 0.000000 0.017979 0.000000
# 6 0.000000 0.000000 0.000000 0.285351 0.000000 -0.063897
#
#
# Mechanical properties :
#
#
# Convention : Reuss Voigt Hill
#
# Bulk Modulus (GPa) = 21.50403 50.45246 35.97824
# Shear Modulus (GPa) = -6.88693 37.66260 15.38783
#
# Velocity S-wave (km/s) = -1.62826 3.80773 2.43388
# Velocity P-wave (km/s) = 2.17792 6.22529 4.66356
#
# Compressibility (1/GPa) = 0.04650292
#
# Stress axis : x y z
#
# Youngs Moduli (GPa) = 228.72046 37.27749 54.93651
#
# Poissons Ratio (x) = 0.02459 0.16756
# Poissons Ratio (y) = 0.15090 -0.12421
# Poissons Ratio (z) = 0.69763 -0.08428
#
# Static dielectric constant tensor:
#      x y z
#    x 2.075890 0.000000 0.051800 
#    y 0.000000 1.914140 0.000000 
#    z 0.051800 0.000000 2.172360 
# 
# From -- ./inp_files/38264.got.cif
#   From: 2010.05.17/outbox.cif.g08.bks.cpg/sg11_20_cif.got.tgz:38264.got - 2010.06.03 12:22:45.
