data_PCOD9158849
_publ_section_title
;
Structure prediction by ZEFSAII (Michael W. Deem and Ramdas Pophale) SiO2 
 PCOD9158849
Probable space group: P 21/M
;
_chemical_formula_sum "Si O2"
_cell_formula_units_Z 32
_cell_length_a 17.697982
_cell_length_b 8.310343
_cell_length_c 26.833092
_cell_angle_alpha 90.000000
_cell_angle_beta 154.414637
_cell_angle_gamma 90.000000
_cell_volume 1704.322279
_symmetry_space_group_name_H-M "P 21/M"
_symmetry_group_IT_number 11
_symmetry_cell_setting 'monoclinic'
loop_
_space_group_symop_operation_xyz
x,y,z
-x,1/2+y,-z
-x,-y,-z
x,1/2-y,z
loop_
_atom_site_type_symbol
_atom_site_label
_atom_site_fract_x
_atom_site_fract_y
_atom_site_fract_z
Si Si1 0.258706 0.556395 0.182676
Si Si2 0.666576 0.060395 0.570161
Si Si3 0.644704 0.553161 0.443892
Si Si4 0.973045 0.071911 0.216213
Si Si5 0.917221 0.058509 0.024865
Si Si6 0.701067 0.568164 0.989861
Si Si7 0.024483 0.934698 0.662608
Si Si8 0.583416 0.052998 0.103079
O O1 0.260855 0.750000 0.183308
O O2 0.460002 0.504931 0.309647
O O3 0.180855 0.497930 0.083575
O O4 0.116440 0.506130 0.139872
O O5 0.694666 0.250000 0.592794
O O6 0.500000 0.000000 0.500000
O O7 0.641323 0.017130 0.497357
O O8 0.835141 0.964184 0.689457
O O9 0.650360 0.750000 0.449936
O O10 0.833026 0.500296 0.532742
O O11 0.911432 0.250000 0.164468
O O12 0.984626 0.068887 0.282564
O O13 0.843343 0.939821 0.118644
O O14 0.928871 0.250000 0.029341
O O15 0.799332 0.013280 0.002103
O O16 0.660646 0.750000 0.950929
O O17 0.532841 0.499269 0.918729
O O18 0.031948 0.750000 0.648712
O O19 0.217455 0.006084 0.769315
O O20 0.584764 0.250000 0.102353
O O21 0.500000 0.000000 0.000000
#
# Coordination Sequence:
#
# PCOD9158849 Si02
#       8
#     4   4   4   4   4   4   4   4
#     4   9  19  37  59  80 102 132 174 223 271 317
#     4  11  22  34  47  69 103 139 175 211 253 308
#     4   9  18  34  55  76  99 130 171 217 265 313
#     4  10  19  33  51  70  99 137 177 216 257 304
#     4  10  21  36  55  78 105 137 175 219 267 321
#     4  11  22  33  50  77 108 141 175 219 267 315
#     4   8  15  30  51  74 100 131 169 209 253 307
#     4  10  19  32  51  76 105 140 178 215 262 310
#
# _framework density 18.775791999999999
#
# number of rings (size 3 to 8) (size 9 to 14) (size 15 to 20)
#    0.000    2.250    1.250    3.000    1.750    1.500 
#    0.000    0.000    0.000    0.750    0.000    0.000 
#    0.000    0.000    0.000    0.000    0.000    0.500 
#
# Total GULP energy -178190.906935 kJ/mol
# GULP energy per Si atom -5568.465842 kJ/mol
# Density = 1.873306 g / cm^3
# Si number density = 18.775792 Si / 1000 Ang^3
#
#
#
# Elastic Constant Matrix: (Units=GPa)
#
#
# Indices 1 2 3 4 5 6 
#
# 1 80.0923 7.4127 47.9879 0.0000 33.3123 0.0000
# 2 7.4127 23.3258 6.7630 0.0000 0.3121 0.0000
# 3 47.9879 6.7630 127.9601 0.0000 43.3894 0.0000
# 4 0.0000 0.0000 0.0000 16.9332 0.0000 -2.4283
# 5 33.3123 0.3121 43.3894 0.0000 36.0319 0.0000
# 6 0.0000 0.0000 0.0000 -2.4283 0.0000 12.3156
#
#
#
# Elastic Compliance Matrix: (Units=1/GPa)
#
#
# Indices 1 2 3 4 5 6 
#
# 1 0.021439 -0.006079 -0.001717 0.000000 -0.017701 0.000000
# 2 -0.006079 0.045613 -0.003216 0.000000 0.009097 0.000000
# 3 -0.001717 -0.003216 0.013658 0.000000 -0.014832 0.000000
# 4 0.000000 0.000000 0.000000 0.060774 0.000000 0.011983
# 5 -0.017701 0.009097 -0.014832 0.000000 0.061900 0.000000
# 6 0.000000 0.000000 0.000000 0.011983 0.000000 0.083560
#
#
# Mechanical properties :
#
#
# Convention : Reuss Voigt Hill
#
# Bulk Modulus (GPa) = 17.03931 39.52284 28.28107
# Shear Modulus (GPa) = 15.21935 24.33713 19.77824
#
# Velocity S-wave (km/s) = 2.85016 3.60418 3.24912
# Velocity P-wave (km/s) = 4.46387 6.19804 5.40101
#
# Compressibility (1/GPa) = 0.05868783
#
# Stress axis : x y z
#
# Youngs Moduli (GPa) = 46.64409 21.92342 73.21721
#
# Poissons Ratio (x) = 0.13326 0.12569
# Poissons Ratio (y) = 0.28353 0.23547
# Poissons Ratio (z) = 0.08008 0.07051
#
# Static dielectric constant tensor:
#      x y z
#    x 1.653040 0.000000 0.036840 
#    y 0.000000 1.685230 0.000000 
#    z 0.036840 0.000000 1.697930 
# 
# From -- ./inp_files/51690.got.cif
#   From: 2010.05.17/outbox.cif.g08.bks.cpg/sg11_26_cif.got.tgz:51690.got - 2010.06.03 12:22:45.
