data_PCOD9158326
_publ_section_title
;
Structure prediction by ZEFSAII (Michael W. Deem and Ramdas Pophale) SiO2 
 PCOD9158326
Probable space group: P 21/M
;
_chemical_formula_sum "Si O2"
_cell_formula_units_Z 32
_cell_length_a 13.685960
_cell_length_b 12.831672
_cell_length_c 26.868976
_cell_angle_alpha 90.000000
_cell_angle_beta 154.372374
_cell_angle_gamma 90.000000
_cell_volume 2040.874777
_symmetry_space_group_name_H-M "P 21/M"
_symmetry_group_IT_number 11
_symmetry_cell_setting 'monoclinic'
loop_
_space_group_symop_operation_xyz
x,y,z
-x,1/2+y,-z
-x,-y,-z
x,1/2-y,z
loop_
_atom_site_type_symbol
_atom_site_label
_atom_site_fract_x
_atom_site_fract_y
_atom_site_fract_z
Si Si1 0.621481 0.624818 0.706224
Si Si2 0.040015 0.005849 0.859290
Si Si3 0.296272 0.127391 0.720409
Si Si4 0.946510 0.626274 0.032270
Si Si5 0.481064 0.629855 0.068910
Si Si6 0.165355 0.623785 0.440545
Si Si7 0.367172 0.496605 0.186022
Si Si8 0.970898 0.625698 0.246651
O O1 0.635655 0.750000 0.715619
O O2 0.405276 0.594754 0.573452
O O3 0.592338 0.575286 0.747447
O O4 0.847856 0.576321 0.786949
O O5 0.059687 0.087209 0.913812
O O6 0.979897 0.063630 0.780703
O O7 0.277790 0.946560 0.963469
O O8 0.290343 0.250000 0.703472
O O9 0.445505 0.120354 0.839502
O O10 0.045165 0.092547 0.621186
O O11 0.413979 0.056338 0.733455
O O12 0.937173 0.750000 0.024324
O O13 0.177134 0.581517 0.114044
O O14 0.744058 0.572820 0.908556
O O15 0.412137 0.750000 0.029047
O O16 0.708687 0.610900 0.142025
O O17 0.154259 0.750000 0.434131
O O18 0.115847 0.590179 0.361232
O O19 0.004771 0.750000 0.255184
#
# Coordination Sequence:
#
# PCOD9158326 Si02
#       8
#     4   4   4   4   4   4   4   4
#     4  10  21  34  48  69  97 127 164 203 239 280
#     4  11  19  30  49  73  98 127 158 191 241 292
#     4   9  16  30  52  73  96 126 162 199 233 277
#     4  10  20  31  43  68 104 129 153 192 239 291
#     4   9  17  30  48  73 100 124 156 196 234 284
#     4   8  17  34  51  70  95 124 161 204 238 273
#     4  10  19  31  48  71  94 129 165 193 238 284
#     4   9  18  32  51  72  95 123 158 199 239 282
#
# _framework density 15.679551999999999
#
# number of rings (size 3 to 8) (size 9 to 14) (size 15 to 20)
#    0.000    2.500    1.250    3.375    0.000    1.000 
#    0.000    0.000    0.000    0.000    0.000    5.250 
#    0.000    0.000    0.000    0.000    0.000    0.000 
#
# Total GULP energy -178390.479939 kJ/mol
# GULP energy per Si atom -5574.702498 kJ/mol
# Density = 1.564386 g / cm^3
# Si number density = 15.679552 Si / 1000 Ang^3
#
#
#
# Elastic Constant Matrix: (Units=GPa)
#
#
# Indices 1 2 3 4 5 6 
#
# 1 87.3640 42.3207 28.2143 0.0000 -18.0279 0.0000
# 2 42.3207 81.9536 31.4042 0.0000 -6.8159 0.0000
# 3 28.2143 31.4042 71.9972 0.0000 -10.9034 0.0000
# 4 0.0000 0.0000 0.0000 15.9982 0.0000 -1.8938
# 5 -18.0279 -6.8159 -10.9034 0.0000 9.1708 0.0000
# 6 0.0000 0.0000 0.0000 -1.8938 0.0000 20.2659
#
#
#
# Elastic Compliance Matrix: (Units=1/GPa)
#
#
# Indices 1 2 3 4 5 6 
#
# 1 0.024408 -0.009464 0.000932 0.000000 0.042056 0.000000
# 2 -0.009464 0.018442 -0.006192 0.000000 -0.012259 0.000000
# 3 0.000932 -0.006192 0.019276 0.000000 0.020148 0.000000
# 4 0.000000 0.000000 0.000000 0.063206 0.000000 0.005906
# 5 0.042056 -0.012259 0.020148 0.000000 0.206559 0.000000
# 6 0.000000 0.000000 0.000000 0.005906 0.000000 0.049896
#
#
# Mechanical properties :
#
#
# Convention : Reuss Voigt Hill
#
# Bulk Modulus (GPa) = 30.60080 49.46590 40.03335
# Shear Modulus (GPa) = 11.84471 18.37867 15.11169
#
# Velocity S-wave (km/s) = 2.75148 3.42737 3.10785
# Velocity P-wave (km/s) = 5.44545 6.87597 6.20209
#
# Compressibility (1/GPa) = 0.03267888
#
# Stress axis : x y z
#
# Youngs Moduli (GPa) = 40.96975 54.22299 51.87671
#
# Poissons Ratio (x) = 0.51316 -0.04834
# Poissons Ratio (y) = 0.38773 0.32123
# Poissons Ratio (z) = -0.03818 0.33576
#
# Static dielectric constant tensor:
#      x y z
#    x 1.516300 0.000000 -0.001930 
#    y 0.000000 1.496620 0.000000 
#    z -0.001930 0.000000 1.512810 
# 
# From -- ./inp_files/35037.got.cif
#   From: 2010.05.17/outbox.cif.g08.bks.cpg/sg11_18_cif.got.tgz:35037.got - 2010.06.03 12:22:45.
