data_PCOD9158942
_publ_section_title
;
Structure prediction by ZEFSAII (Michael W. Deem and Ramdas Pophale) SiO2 
 PCOD9158942
Probable space group: P 21/M
;
_chemical_formula_sum "Si O2"
_cell_formula_units_Z 28
_cell_length_a 13.537791
_cell_length_b 8.108732
_cell_length_c 14.955907
_cell_angle_alpha 90.000000
_cell_angle_beta 123.187632
_cell_angle_gamma 90.000000
_cell_volume 1373.972341
_symmetry_space_group_name_H-M "P 21/M"
_symmetry_group_IT_number 11
_symmetry_cell_setting 'monoclinic'
loop_
_space_group_symop_operation_xyz
x,y,z
-x,1/2+y,-z
-x,-y,-z
x,1/2-y,z
loop_
_atom_site_type_symbol
_atom_site_label
_atom_site_fract_x
_atom_site_fract_y
_atom_site_fract_z
Si Si1 0.720627 0.558229 0.257675
Si Si2 0.006952 0.550732 0.900657
Si Si3 0.711092 0.553302 0.451374
Si Si4 0.780534 0.952365 0.675657
Si Si5 0.237580 0.556327 0.911133
Si Si6 0.540943 0.557698 0.874009
Si Si7 0.557141 0.552395 0.679062
O O1 0.753622 0.750000 0.271811
O O2 0.742524 0.487588 0.368210
O O3 0.779464 0.470806 0.202690
O O4 0.579105 0.542922 0.173920
O O5 0.007424 0.750000 0.896867
O O6 0.892895 0.493631 0.788491
O O7 0.126866 0.491516 0.912847
O O8 0.000000 0.500000 0.000000
O O9 0.727370 0.750000 0.454359
O O10 0.780159 0.491845 0.572533
O O11 0.572146 0.521695 0.399576
O O12 0.779542 0.750000 0.675320
O O13 0.659590 0.006365 0.664070
O O14 0.250169 0.750000 0.934880
O O15 0.358345 0.474522 0.004333
O O16 0.506837 0.750000 0.859107
O O17 0.589926 0.519474 0.798909
O O18 0.546780 0.750000 0.663911
#
# Coordination Sequence:
#
# PCOD9158942 Si02
#       7
#     4   4   4   4   4   4   4
#     4  10  20  34  52  76 105 136 170 212 257 305
#     4  10  22  39  58  78 103 134 171 212 254 302
#     4   9  18  32  52  76 103 134 169 207 250 301
#     4   9  17  33  54  75 101 136 172 206 250 304
#     4  11  22  35  52  75 102 136 174 213 256 303
#     4  10  19  32  52  78 107 138 170 210 257 308
#     4   9  17  29  50  78 106 134 164 202 254 307
#
# _framework density 20.378865999999999
#
# number of rings (size 3 to 8) (size 9 to 14) (size 15 to 20)
#    0.000    2.286    0.000    3.000    0.000    3.429 
#    0.000    2.143    0.000    0.000    0.000    0.000 
#    0.000    0.000    0.000    0.000    0.000    0.000 
#
# Total GULP energy -156325.793666 kJ/mol
# GULP energy per Si atom -5583.064059 kJ/mol
# Density = 2.033248 g / cm^3
# Si number density = 20.378866 Si / 1000 Ang^3
#
#
#
# Elastic Constant Matrix: (Units=GPa)
#
#
# Indices 1 2 3 4 5 6 
#
# 1 74.5878 -2.9556 39.3637 0.0000 -29.7975 0.0000
# 2 -2.9556 12.5709 -1.9922 0.0000 -2.8255 0.0000
# 3 39.3637 -1.9922 145.7134 0.0000 -23.8681 0.0000
# 4 0.0000 0.0000 0.0000 15.4783 0.0000 -6.2835
# 5 -29.7975 -2.8255 -23.8681 0.0000 23.9023 0.0000
# 6 0.0000 0.0000 0.0000 -6.2835 0.0000 18.1506
#
#
#
# Elastic Compliance Matrix: (Units=1/GPa)
#
#
# Indices 1 2 3 4 5 6 
#
# 1 0.029765 0.015068 -0.001752 0.000000 0.037139 0.000000
# 2 0.015068 0.090637 0.002392 0.000000 0.031887 0.000000
# 3 -0.001752 0.002392 0.008437 0.000000 0.006525 0.000000
# 4 0.000000 0.000000 0.000000 0.075171 0.000000 0.026023
# 5 0.037139 0.031887 0.006525 0.000000 0.098420 0.000000
# 6 0.000000 0.000000 0.000000 0.026023 0.000000 0.064103
#
#
# Mechanical properties :
#
#
# Convention : Reuss Voigt Hill
#
# Bulk Modulus (GPa) = 6.24000 33.52267 19.88134
# Shear Modulus (GPa) = 12.86880 24.73663 18.80271
#
# Velocity S-wave (km/s) = 2.51565 3.48780 3.04082
# Velocity P-wave (km/s) = 3.39214 5.71883 4.70169
#
# Compressibility (1/GPa) = 0.16025638
#
# Stress axis : x y z
#
# Youngs Moduli (GPa) = 33.59632 11.03297 118.52011
#
# Poissons Ratio (x) = -0.16624 0.20759
# Poissons Ratio (y) = -0.50623 -0.28347
# Poissons Ratio (z) = 0.05884 -0.02639
#
# Static dielectric constant tensor:
#      x y z
#    x 1.713690 0.000000 -0.030070 
#    y 0.000000 1.712150 0.000000 
#    z -0.030070 0.000000 1.728890 
# 
# From -- ./inp_files/38462.got.cif
#   From: 2010.05.17/outbox.cif.g08.bks.cpg/sg11_20_cif.got.tgz:38462.got - 2010.06.03 12:22:45.
