data_PCOD9158571
_publ_section_title
;
Structure prediction by ZEFSAII (Michael W. Deem and Ramdas Pophale) SiO2 
 PCOD9158571
Probable space group: P 21/M
;
_chemical_formula_sum "Si O2"
_cell_formula_units_Z 32
_cell_length_a 14.585792
_cell_length_b 8.825958
_cell_length_c 20.006747
_cell_angle_alpha 90.000000
_cell_angle_beta 46.558388
_cell_angle_gamma 90.000000
_cell_volume 1870.036648
_symmetry_space_group_name_H-M "P 21/M"
_symmetry_group_IT_number 11
_symmetry_cell_setting 'monoclinic'
loop_
_space_group_symop_operation_xyz
x,y,z
-x,1/2+y,-z
-x,-y,-z
x,1/2-y,z
loop_
_atom_site_type_symbol
_atom_site_label
_atom_site_fract_x
_atom_site_fract_y
_atom_site_fract_z
Si Si1 0.619314 0.929960 0.479760
Si Si2 0.377578 0.569349 0.097732
Si Si3 0.140633 0.431231 0.140454
Si Si4 0.764015 0.069846 0.041469
Si Si5 0.513335 0.069381 0.816416
Si Si6 0.470565 0.570132 0.342278
Si Si7 0.748512 0.431314 0.198763
Si Si8 0.141961 0.568292 0.714241
O O1 0.611015 0.750000 0.479785
O O2 0.500000 0.000000 0.500000
O O3 0.607151 0.984590 0.562187
O O4 0.747900 0.988226 0.382025
O O5 0.378329 0.750000 0.087688
O O6 0.251587 0.501674 0.129133
O O7 0.395035 0.537156 0.167764
O O8 0.500000 0.500000 0.000000
O O9 0.149853 0.250000 0.138032
O O10 0.000031 0.476362 0.233395
O O11 0.162068 0.485059 0.053677
O O12 0.775837 0.250000 0.026459
O O13 0.801485 0.029771 0.098904
O O14 0.616945 0.021463 0.109247
O O15 0.482845 0.250000 0.833540
O O16 0.566174 0.036582 0.716118
O O17 0.462310 0.750000 0.357578
O O18 0.616251 0.517280 0.274899
O O19 0.722481 0.250000 0.211269
O O20 0.835868 0.464137 0.218178
O O21 0.155017 0.750000 0.699198
#
# Coordination Sequence:
#
# PCOD9158571 Si02
#       8
#     4   4   4   4   4   4   4   4
#     4  12  23  36  57  84 111 142 181 226 271 322
#     4  11  21  35  57  83 109 142 183 229 273 321
#     4  11  23  37  53  77 111 150 186 225 274 326
#     4  10  19  31  51  78 108 144 185 227 267 316
#     4   9  19  34  54  80 110 140 178 224 273 323
#     4  10  19  33  55  83 110 140 176 222 274 324
#     4   9  18  33  52  76 107 144 186 226 265 315
#     4  10  22  39  56  76 108 148 187 227 272 323
#
# _framework density 17.111964
#
# number of rings (size 3 to 8) (size 9 to 14) (size 15 to 20)
#    0.000    1.750    2.500    2.625    0.000    3.000 
#    0.000    0.000    0.000    0.750    0.000    0.000 
#    0.000    0.000    0.000    0.000    0.000    0.000 
#
# Total GULP energy -178661.269913 kJ/mol
# GULP energy per Si atom -5583.164685 kJ/mol
# Density = 1.707302 g / cm^3
# Si number density = 17.111964 Si / 1000 Ang^3
#
#
#
# Elastic Constant Matrix: (Units=GPa)
#
#
# Indices 1 2 3 4 5 6 
#
# 1 112.7202 52.7732 73.6673 0.0000 -1.5129 0.0000
# 2 52.7732 61.5258 51.7847 0.0000 -1.7028 0.0000
# 3 73.6673 51.7847 114.5481 0.0000 -2.8724 0.0000
# 4 0.0000 0.0000 0.0000 28.3190 0.0000 2.4666
# 5 -1.5129 -1.7028 -2.8724 0.0000 22.7501 0.0000
# 6 0.0000 0.0000 0.0000 2.4666 0.0000 22.1324
#
#
#
# Elastic Compliance Matrix: (Units=1/GPa)
#
#
# Indices 1 2 3 4 5 6 
#
# 1 0.018055 -0.009228 -0.007451 0.000000 -0.000431 0.000000
# 2 -0.009228 0.030957 -0.008043 0.000000 0.000688 0.000000
# 3 -0.007451 -0.008043 0.017185 0.000000 0.001072 0.000000
# 4 0.000000 0.000000 0.000000 0.035658 0.000000 -0.003974
# 5 -0.000431 0.000688 0.001072 0.000000 0.044114 0.000000
# 6 0.000000 0.000000 0.000000 -0.003974 0.000000 0.045625
#
#
# Mechanical properties :
#
#
# Convention : Reuss Voigt Hill
#
# Bulk Modulus (GPa) = 59.68838 71.69384 65.69111
# Shear Modulus (GPa) = 20.27383 22.01156 21.14270
#
# Velocity S-wave (km/s) = 3.44579 3.59043 3.51885
# Velocity P-wave (km/s) = 7.12658 7.69260 7.41499
#
# Compressibility (1/GPa) = 0.01675368
#
# Stress axis : x y z
#
# Youngs Moduli (GPa) = 55.38544 32.30263 58.19086
#
# Poissons Ratio (x) = 0.29807 0.43357
# Poissons Ratio (y) = 0.51107 0.46806
# Poissons Ratio (z) = 0.41267 0.25983
#
# Static dielectric constant tensor:
#      x y z
#    x 1.584410 0.000000 0.025630 
#    y 0.000000 1.571060 0.000000 
#    z 0.025630 0.000000 1.566550 
# 
# From -- ./inp_files/65197.got.cif
#   From: 2010.05.17/outbox.cif.g08.bks.cpg/sg11_33_cif.got.tgz:65197.got - 2010.06.03 12:22:45.
