data_PCOD9158399
_publ_section_title
;
Structure prediction by ZEFSAII (Michael W. Deem and Ramdas Pophale) SiO2 
 PCOD9158399
Probable space group: P 21/M
;
_chemical_formula_sum "Si O2"
_cell_formula_units_Z 32
_cell_length_a 12.051588
_cell_length_b 9.020216
_cell_length_c 21.855193
_cell_angle_alpha 90.000000
_cell_angle_beta 51.343683
_cell_angle_gamma 90.000000
_cell_volume 1855.304103
_symmetry_space_group_name_H-M "P 21/M"
_symmetry_group_IT_number 11
_symmetry_cell_setting 'monoclinic'
loop_
_space_group_symop_operation_xyz
x,y,z
-x,1/2+y,-z
-x,-y,-z
x,1/2-y,z
loop_
_atom_site_type_symbol
_atom_site_label
_atom_site_fract_x
_atom_site_fract_y
_atom_site_fract_z
Si Si1 0.646115 0.571490 0.759496
Si Si2 0.347564 0.074299 0.900390
Si Si3 0.854332 0.926745 0.263258
Si Si4 0.346313 0.426824 0.042126
Si Si5 0.550548 0.920554 0.662682
Si Si6 0.156489 0.572749 0.211670
Si Si7 0.771382 0.079399 0.172018
Si Si8 0.453694 0.073590 0.578941
O O1 0.640632 0.750000 0.766835
O O2 0.500337 0.504004 0.837306
O O3 0.647118 0.534258 0.686919
O O4 0.775590 0.503599 0.752485
O O5 0.364350 0.250000 0.884020
O O6 0.239166 0.007539 0.888113
O O7 0.305095 0.051157 0.985388
O O8 0.847852 0.750000 0.254434
O O9 0.707862 0.969994 0.347167
O O10 0.990753 0.957905 0.257643
O O11 0.862118 0.006242 0.194806
O O12 0.353305 0.250000 0.051451
O O13 0.239392 0.505105 0.125235
O O14 0.500000 0.500000 0.000000
O O15 0.580749 0.750000 0.635728
O O16 0.390643 0.924598 0.745881
O O17 0.549285 0.019697 0.603014
O O18 0.178402 0.750000 0.206807
O O19 0.811090 0.250000 0.148566
O O20 0.459380 0.250000 0.571564
O O21 0.500000 0.000000 0.500000
#
# Coordination Sequence:
#
# PCOD9158399 Si02
#       8
#     4   4   4   4   4   4   4   4
#     4  10  19  31  50  75 103 135 174 218 260 302
#     4  10  19  31  49  72  99 132 172 219 267 311
#     4   9  20  37  54  75 105 139 173 208 254 313
#     4  11  22  34  50  73 102 136 177 223 266 310
#     4   8  16  30  48  75 105 131 164 207 252 299
#     4  11  22  35  52  74 103 140 177 215 261 312
#     4   9  17  30  51  75  99 130 169 216 263 306
#     4  10  19  33  56  83 108 134 164 205 253 303
#
# _framework density 17.247845999999999
#
# number of rings (size 3 to 8) (size 9 to 14) (size 15 to 20)
#    0.000    2.250    1.250    3.000    0.000    6.500 
#    0.000    0.625    0.000    0.750    0.000    0.000 
#    0.000    0.000    0.000    0.000    0.000    0.000 
#
# Total GULP energy -178504.403761 kJ/mol
# GULP energy per Si atom -5578.262618 kJ/mol
# Density = 1.720859 g / cm^3
# Si number density = 17.247846 Si / 1000 Ang^3
#
#
#
# Elastic Constant Matrix: (Units=GPa)
#
#
# Indices 1 2 3 4 5 6 
#
# 1 131.1038 63.9070 53.1362 0.0000 26.3518 0.0000
# 2 63.9070 79.0865 46.8905 0.0000 19.8151 0.0000
# 3 53.1362 46.8905 68.8077 0.0000 23.9237 0.0000
# 4 0.0000 0.0000 0.0000 24.3349 0.0000 9.6898
# 5 26.3518 19.8151 23.9237 0.0000 25.2701 0.0000
# 6 0.0000 0.0000 0.0000 9.6898 0.0000 29.7065
#
#
#
# Elastic Compliance Matrix: (Units=1/GPa)
#
#
# Indices 1 2 3 4 5 6 
#
# 1 0.013933 -0.007826 -0.003739 0.000000 -0.004853 0.000000
# 2 -0.007826 0.025945 -0.011033 0.000000 -0.001738 0.000000
# 3 -0.003739 -0.011033 0.030672 0.000000 -0.016487 0.000000
# 4 0.000000 0.000000 0.000000 0.047227 0.000000 -0.015405
# 5 -0.004853 -0.001738 -0.016487 0.000000 0.061605 0.000000
# 6 0.000000 0.000000 0.000000 -0.015405 0.000000 0.038688
#
#
# Mechanical properties :
#
#
# Convention : Reuss Voigt Hill
#
# Bulk Modulus (GPa) = 39.44176 67.42950 53.43563
# Shear Modulus (GPa) = 18.40139 23.53324 20.96732
#
# Velocity S-wave (km/s) = 3.26986 3.69781 3.49040
# Velocity P-wave (km/s) = 6.09699 7.57701 6.87693
#
# Compressibility (1/GPa) = 0.02535384
#
# Stress axis : x y z
#
# Youngs Moduli (GPa) = 71.76983 38.54241 32.60313
#
# Poissons Ratio (x) = 0.30164 0.12191
# Poissons Ratio (y) = 0.56168 0.35971
# Poissons Ratio (z) = 0.26837 0.42524
#
# Static dielectric constant tensor:
#      x y z
#    x 1.599360 0.000000 0.007360 
#    y 0.000000 1.591210 0.000000 
#    z 0.007360 0.000000 1.563360 
# 
# From -- ./inp_files/42899.got.cif
#   From: 2010.05.17/outbox.cif.g08.bks.cpg/sg11_22_cif.got.tgz:42899.got - 2010.06.03 12:22:45.
