data_PCOD9158218
_publ_section_title
;
Structure prediction by ZEFSAII (Michael W. Deem and Ramdas Pophale) SiO2 
 PCOD9158218
Probable space group: P 21/M
;
_chemical_formula_sum "Si O2"
_cell_formula_units_Z 26
_cell_length_a 17.558603
_cell_length_b 9.506421
_cell_length_c 9.700557
_cell_angle_alpha 90.000000
_cell_angle_beta 38.486359
_cell_angle_gamma 90.000000
_cell_volume 1007.681354
_symmetry_space_group_name_H-M "P 21/M"
_symmetry_group_IT_number 11
_symmetry_cell_setting 'monoclinic'
loop_
_space_group_symop_operation_xyz
x,y,z
-x,1/2+y,-z
-x,-y,-z
x,1/2-y,z
loop_
_atom_site_type_symbol
_atom_site_label
_atom_site_fract_x
_atom_site_fract_y
_atom_site_fract_z
Si Si1 0.618567 0.907418 0.307755
Si Si2 0.919801 0.409602 0.456240
Si Si3 0.752758 0.750000 0.356020
Si Si4 0.147153 0.912689 0.066374
Si Si5 0.681501 0.583919 0.846124
Si Si6 0.170222 0.955791 0.717126
Si Si7 0.578357 0.093199 0.746377
O O1 0.596475 0.750000 0.279704
O O2 0.674227 0.867250 0.379193
O O3 0.500000 0.000000 0.500000
O O4 0.731284 0.993345 0.082652
O O5 0.941364 0.250000 0.475621
O O6 0.798074 0.482902 0.690475
O O7 0.894955 0.396459 0.326476
O O8 0.035590 0.511991 0.301715
O O9 0.832924 0.623028 0.305634
O O10 0.165448 0.750000 0.076059
O O11 0.121297 0.922142 0.937934
O O12 0.713758 0.750000 0.800279
O O13 0.621418 0.533768 0.784960
O O14 0.558561 0.561813 0.112359
O O15 0.308150 0.894531 0.515155
O O16 0.569227 0.250000 0.828123
#
# Coordination Sequence:
#
# PCOD9158218 Si02
#       7
#     4   4   2   4   4   4   4
#     4   9  18  35  53  71  96 123 158 208 254 294
#     4  11  22  32  45  64 103 143 175 207 237 283
#     4   8  20  30  48  74  96 122 162 204 236 304
#     4  11  21  32  49  73  98 132 169 203 244 302
#     4   9  17  29  43  63  86 128 179 212 240 273
#     4  10  19  31  45  68 102 135 166 202 241 286
#     4   9  17  28  44  63  91 126 171 213 242 277
#
# _framework density 25.801808999999999
#
# number of rings (size 3 to 8) (size 9 to 14) (size 15 to 20)
#    0.462    1.846    0.000    4.615    6.462    0.615 
#    0.000    0.000    0.000    0.000    0.000    0.000 
#    0.000    4.923    6.462    0.000    0.000    0.000 
#
# Total GULP energy -144779.033388 kJ/mol
# GULP energy per Si atom -5568.424361 kJ/mol
# Density = 2.574308 g / cm^3
# Si number density = 25.801809 Si / 1000 Ang^3
#
#
#
# Elastic Constant Matrix: (Units=GPa)
#
#
# Indices 1 2 3 4 5 6 
#
# 1 68.8648 13.1585 24.6597 0.0000 0.7016 0.0000
# 2 13.1585 267.3604 79.7979 0.0000 -25.7760 0.0000
# 3 24.6597 79.7979 204.5174 0.0000 -27.3483 0.0000
# 4 0.0000 0.0000 0.0000 30.9305 0.0000 -8.7812
# 5 0.7016 -25.7760 -27.3483 0.0000 44.1348 0.0000
# 6 0.0000 0.0000 0.0000 -8.7812 0.0000 33.6621
#
#
#
# Elastic Compliance Matrix: (Units=1/GPa)
#
#
# Indices 1 2 3 4 5 6 
#
# 1 0.015294 -0.000334 -0.001933 0.000000 -0.001635 0.000000
# 2 -0.000334 0.004344 -0.001434 0.000000 0.001654 0.000000
# 3 -0.001933 -0.001434 0.006078 0.000000 0.002960 0.000000
# 4 0.000000 0.000000 0.000000 0.034916 0.000000 0.009108
# 5 -0.001635 0.001654 0.002960 0.000000 0.025484 0.000000
# 6 0.000000 0.000000 0.000000 0.009108 0.000000 0.032083
#
#
# Mechanical properties :
#
#
# Convention : Reuss Voigt Hill
#
# Bulk Modulus (GPa) = 54.59716 86.21942 70.40829
# Shear Modulus (GPa) = 37.96415 49.95391 43.95903
#
# Velocity S-wave (km/s) = 3.84001 4.40484 4.13209
# Velocity P-wave (km/s) = 6.39274 7.70447 7.07905
#
# Compressibility (1/GPa) = 0.01831597
#
# Stress axis : x y z
#
# Youngs Moduli (GPa) = 65.38662 230.20200 164.53692
#
# Poissons Ratio (x) = 0.07679 0.31798
# Poissons Ratio (y) = 0.02181 0.23587
# Poissons Ratio (z) = 0.12637 0.33000
#
# Static dielectric constant tensor:
#      x y z
#    x 2.127950 0.000000 0.076600 
#    y 0.000000 2.022640 0.000000 
#    z 0.076600 0.000000 2.092240 
# 
# From -- ./inp_files/62275.got.cif
#   From: 2010.05.17/outbox.cif.g08.bks.cpg/sg11_32_cif.got.tgz:62275.got - 2010.06.03 12:22:45.
