data_PCOD9158952
_publ_section_title
;
Structure prediction by ZEFSAII (Michael W. Deem and Ramdas Pophale) SiO2 
 PCOD9158952
Probable space group: P 21/M
;
_chemical_formula_sum "Si O2"
_cell_formula_units_Z 32
_cell_length_a 8.725618
_cell_length_b 13.281184
_cell_length_c 24.344035
_cell_angle_alpha 90.000000
_cell_angle_beta 142.418274
_cell_angle_gamma 90.000000
_cell_volume 1720.595578
_symmetry_space_group_name_H-M "P 21/M"
_symmetry_group_IT_number 11
_symmetry_cell_setting 'monoclinic'
loop_
_space_group_symop_operation_xyz
x,y,z
-x,1/2+y,-z
-x,-y,-z
x,1/2-y,z
loop_
_atom_site_type_symbol
_atom_site_label
_atom_site_fract_x
_atom_site_fract_y
_atom_site_fract_z
Si Si1 0.301281 0.056054 0.688498
Si Si2 0.699186 0.367539 0.092601
Si Si3 0.160322 0.365116 0.531484
Si Si4 0.742088 0.129141 0.891426
Si Si5 0.787858 0.521739 0.568125
Si Si6 0.156080 0.365859 0.304317
Si Si7 0.588094 0.131966 0.344765
Si Si8 0.216964 0.499181 0.986780
O O1 0.294288 0.100578 0.624966
O O2 0.495896 0.108440 0.784365
O O3 0.383517 0.939663 0.700274
O O4 0.012753 0.059678 0.627411
O O5 0.653023 0.250000 0.066517
O O6 0.448237 0.425651 0.038652
O O7 0.896831 0.372512 0.198125
O O8 0.816766 0.426373 0.074331
O O9 0.223968 0.250000 0.538947
O O10 0.215677 0.425883 0.492165
O O11 0.857664 0.373222 0.451722
O O12 0.780239 0.250000 0.908202
O O13 0.721307 0.070697 0.943662
O O14 0.977419 0.071701 0.930064
O O15 0.500000 0.500000 0.500000
O O16 0.869455 0.587372 0.643431
O O17 0.227266 0.250000 0.332521
O O18 0.373275 0.406186 0.325191
O O19 0.541724 0.250000 0.317445
#
# Coordination Sequence:
#
# PCOD9158952 Si02
#       8
#     4   4   4   4   4   4   4   4
#     4  11  21  36  56  79 109 149 192 233 279 335
#     4  10  20  37  61  87 115 146 184 233 291 351
#     4  10  20  35  53  75 107 149 188 222 267 325
#     4  11  23  40  60  84 115 150 194 244 289 343
#     4  11  21  34  53  79 112 144 182 230 278 326
#     4  10  19  32  52  79 107 136 174 223 274 326
#     4   9  18  33  54  79 108 144 186 228 274 329
#     4  10  22  39  60  85 114 150 189 235 295 354
#
# _framework density 18.598210999999999
#
# number of rings (size 3 to 8) (size 9 to 14) (size 15 to 20)
#    0.000    1.750    0.000    6.000    0.000    0.500 
#    0.000    5.000    0.000    0.000    0.000    0.000 
#    0.000    0.000    0.000    0.000    0.000    0.000 
#
# Total GULP energy -178486.428984 kJ/mol
# GULP energy per Si atom -5577.700906 kJ/mol
# Density = 1.855588 g / cm^3
# Si number density = 18.598211 Si / 1000 Ang^3
#
#
#
# Elastic Constant Matrix: (Units=GPa)
#
#
# Indices 1 2 3 4 5 6 
#
# 1 75.1660 25.2263 33.7408 0.0000 -1.9407 0.0000
# 2 25.2263 104.0217 37.6795 0.0000 -6.7081 0.0000
# 3 33.7408 37.6795 77.8768 0.0000 -8.0298 0.0000
# 4 0.0000 0.0000 0.0000 24.5415 0.0000 1.3503
# 5 -1.9407 -6.7081 -8.0298 0.0000 22.7374 0.0000
# 6 0.0000 0.0000 0.0000 1.3503 0.0000 19.0418
#
#
#
# Elastic Compliance Matrix: (Units=1/GPa)
#
#
# Indices 1 2 3 4 5 6 
#
# 1 0.016815 -0.001791 -0.006564 0.000000 -0.001411 0.000000
# 2 -0.001791 0.011897 -0.004809 0.000000 0.001659 0.000000
# 3 -0.006564 -0.004809 0.018480 0.000000 0.004547 0.000000
# 4 0.000000 0.000000 0.000000 0.040907 0.000000 -0.002901
# 5 -0.001411 0.001659 0.004547 0.000000 0.045955 0.000000
# 6 0.000000 0.000000 0.000000 -0.002901 0.000000 0.052722
#
#
# Mechanical properties :
#
#
# Convention : Reuss Voigt Hill
#
# Bulk Modulus (GPa) = 47.93042 50.03974 48.98508
# Shear Modulus (GPa) = 22.72117 23.95867 23.33992
#
# Velocity S-wave (km/s) = 3.49905 3.59308 3.54638
# Velocity P-wave (km/s) = 6.49246 6.64663 6.56999
#
# Compressibility (1/GPa) = 0.02086358
#
# Stress axis : x y z
#
# Youngs Moduli (GPa) = 59.47020 84.05734 54.11134
#
# Poissons Ratio (x) = 0.15056 0.35520
# Poissons Ratio (y) = 0.10652 0.26022
# Poissons Ratio (z) = 0.39038 0.40423
#
# Static dielectric constant tensor:
#      x y z
#    x 1.665820 0.000000 0.027560 
#    y 0.000000 1.674350 0.000000 
#    z 0.027560 0.000000 1.631060 
# 
# From -- ./inp_files/68147.got.cif
#   From: 2010.05.17/outbox.cif.g08.bks.cpg/sg11_35_cif.got.tgz:68147.got - 2010.06.03 12:22:45.
