data_PCOD9158787
_publ_section_title
;
Structure prediction by ZEFSAII (Michael W. Deem and Ramdas Pophale) SiO2 
 PCOD9158787
Probable space group: P 21/M
;
_chemical_formula_sum "Si O2"
_cell_formula_units_Z 32
_cell_length_a 24.722199
_cell_length_b 7.681667
_cell_length_c 12.828740
_cell_angle_alpha 90.000000
_cell_angle_beta 34.914319
_cell_angle_gamma 90.000000
_cell_volume 1394.404865
_symmetry_space_group_name_H-M "P 21/M"
_symmetry_group_IT_number 11
_symmetry_cell_setting 'monoclinic'
loop_
_space_group_symop_operation_xyz
x,y,z
-x,1/2+y,-z
-x,-y,-z
x,1/2-y,z
loop_
_atom_site_type_symbol
_atom_site_label
_atom_site_fract_x
_atom_site_fract_y
_atom_site_fract_z
Si Si1 0.237807 0.040107 0.570076
Si Si2 0.686959 0.963402 0.099746
Si Si3 0.273375 0.051266 0.739934
Si Si4 0.483082 0.951857 0.361316
Si Si5 0.552439 0.957689 0.810634
Si Si6 0.965764 0.454117 0.169051
Si Si7 0.016298 0.046769 0.305542
Si Si8 0.142585 0.461238 0.298217
O O1 0.240650 0.250000 0.572726
O O2 0.231625 0.972468 0.699771
O O3 0.337820 0.983009 0.364571
O O4 0.145523 0.992532 0.652395
O O5 0.684848 0.750000 0.107213
O O6 0.735456 0.024562 0.130635
O O7 0.578753 0.020889 0.261838
O O8 0.750809 0.010615 0.899747
O O9 0.238222 0.250000 0.801069
O O10 0.386745 0.050283 0.540938
O O11 0.469614 0.750000 0.412112
O O12 0.494514 0.962482 0.218313
O O13 0.551933 0.750000 0.797379
O O14 0.500000 0.000000 0.000000
O O15 0.979205 0.250000 0.157499
O O16 0.018647 0.531852 0.186239
O O17 0.000000 0.500000 0.000000
O O18 0.042904 0.250000 0.258347
O O19 0.080913 0.974472 0.296136
O O20 0.909300 0.031986 0.518162
O O21 0.137840 0.250000 0.311882
#
# Coordination Sequence:
#
# PCOD9158787 Si02
#       8
#     4   4   4   4   4   4   4   4
#     4   9  20  37  57  81 110 147 188 230 280 336
#     4   9  18  31  53  81 105 141 185 223 267 326
#     4   9  18  34  55  76 107 148 186 220 269 329
#     4  10  19  32  50  78 112 140 178 226 273 325
#     4  10  21  38  59  81 108 148 189 228 279 336
#     4  11  24  39  59  86 115 149 190 236 287 340
#     4   9  20  38  57  78 108 141 176 223 277 329
#     4   9  18  35  59  80 103 141 183 222 270 327
#
# _framework density 22.948858000000001
#
# number of rings (size 3 to 8) (size 9 to 14) (size 15 to 20)
#    0.000    2.500    0.000    2.250    1.750    4.500 
#    0.000    6.250    0.000    0.000    0.000    0.000 
#    0.000    0.000    0.000    0.000    0.000    0.000 
#
# Total GULP energy -178673.432353 kJ/mol
# GULP energy per Si atom -5583.544761 kJ/mol
# Density = 2.289663 g / cm^3
# Si number density = 22.948858 Si / 1000 Ang^3
#
#
#
# Elastic Constant Matrix: (Units=GPa)
#
#
# Indices 1 2 3 4 5 6 
#
# 1 80.2235 -1.6558 13.3558 0.0000 10.3572 0.0000
# 2 -1.6558 50.8046 -3.5735 0.0000 -2.1654 0.0000
# 3 13.3558 -3.5735 70.1008 0.0000 16.2307 0.0000
# 4 0.0000 0.0000 0.0000 19.4887 0.0000 -0.1849
# 5 10.3572 -2.1654 16.2307 0.0000 32.9799 0.0000
# 6 0.0000 0.0000 0.0000 -0.1849 0.0000 14.3685
#
#
#
# Elastic Compliance Matrix: (Units=1/GPa)
#
#
# Indices 1 2 3 4 5 6 
#
# 1 0.013181 0.000167 -0.001746 0.000000 -0.003269 0.000000
# 2 0.000167 0.019780 0.000776 0.000000 0.000864 0.000000
# 3 -0.001746 0.000776 0.016363 0.000000 -0.007454 0.000000
# 4 0.000000 0.000000 0.000000 0.051318 0.000000 0.000660
# 5 -0.003269 0.000864 -0.007454 0.000000 0.035073 0.000000
# 6 0.000000 0.000000 0.000000 0.000660 0.000000 0.069605
#
#
# Mechanical properties :
#
#
# Convention : Reuss Voigt Hill
#
# Bulk Modulus (GPa) = 20.95531 24.15355 22.55443
# Shear Modulus (GPa) = 22.43843 26.23425 24.33634
#
# Velocity S-wave (km/s) = 3.13030 3.38474 3.26000
# Velocity P-wave (km/s) = 4.71341 5.08164 4.90098
#
# Compressibility (1/GPa) = 0.04772060
#
# Stress axis : x y z
#
# Youngs Moduli (GPa) = 75.86464 50.55575 61.11295
#
# Poissons Ratio (x) = -0.00847 0.10669
# Poissons Ratio (y) = -0.01270 -0.04745
# Poissons Ratio (z) = 0.13245 -0.03925
#
# Static dielectric constant tensor:
#      x y z
#    x 1.881930 0.000000 0.007670 
#    y 0.000000 1.861120 0.000000 
#    z 0.007670 0.000000 1.865890 
# 
# From -- ./inp_files/56140.got.cif
#   From: 2010.05.17/outbox.cif.g08.bks.cpg/sg11_29_cif.got.tgz:56140.got - 2010.06.03 12:22:45.
