data_PCOD9158721
_publ_section_title
;
Structure prediction by ZEFSAII (Michael W. Deem and Ramdas Pophale) SiO2 
 PCOD9158721
Probable space group: P 21/M
;
_chemical_formula_sum "Si O2"
_cell_formula_units_Z 32
_cell_length_a 25.462198
_cell_length_b 8.367695
_cell_length_c 20.250709
_cell_angle_alpha 90.000000
_cell_angle_beta 156.696719
_cell_angle_gamma 90.000000
_cell_volume 1706.853152
_symmetry_space_group_name_H-M "P 21/M"
_symmetry_group_IT_number 11
_symmetry_cell_setting 'monoclinic'
loop_
_space_group_symop_operation_xyz
x,y,z
-x,1/2+y,-z
-x,-y,-z
x,1/2-y,z
loop_
_atom_site_type_symbol
_atom_site_label
_atom_site_fract_x
_atom_site_fract_y
_atom_site_fract_z
Si Si1 0.479733 0.941782 0.401339
Si Si2 0.243032 0.559926 0.303188
Si Si3 0.096626 0.057670 0.261637
Si Si4 0.805095 0.055100 0.903708
Si Si5 0.506789 0.058910 0.932267
Si Si6 0.767003 0.945435 0.449373
Si Si7 0.956920 0.942753 0.550433
Si Si8 0.206155 0.440726 0.768369
O O1 0.488196 0.750000 0.408491
O O2 0.328531 0.992157 0.211788
O O3 0.500000 0.000000 0.500000
O O4 0.603956 0.013287 0.506233
O O5 0.230688 0.750000 0.289100
O O6 0.150194 0.488681 0.251911
O O7 0.207350 0.503451 0.187584
O O8 0.094302 0.250000 0.262633
O O9 0.191096 0.999549 0.429558
O O10 0.944957 0.000649 0.093863
O O11 0.804701 0.250000 0.902328
O O12 0.501764 0.250000 0.927983
O O13 0.376422 0.000663 0.742393
O O14 0.500000 0.000000 0.000000
O O15 0.645321 0.006923 0.059660
O O16 0.763947 0.750000 0.446045
O O17 0.881258 0.992628 0.529240
O O18 0.962416 0.750000 0.555873
O O19 0.865394 0.994716 0.382619
O O20 0.104784 0.005991 0.708433
O O21 0.213302 0.250000 0.775182
#
# Coordination Sequence:
#
# PCOD9158721 Si02
#       8
#     4   4   4   4   4   4   4   4
#     4   9  16  29  49  75 103 131 167 213 258 304
#     4  10  19  32  49  75 108 137 169 213 256 305
#     4  10  19  34  54  74  98 135 174 213 258 306
#     4   8  16  30  51  77 101 128 170 215 255 299
#     4  11  20  34  54  79 104 133 168 210 257 308
#     4   9  19  35  54  75 102 132 171 215 258 307
#     4   9  17  33  52  74 104 134 165 209 257 302
#     4  10  19  32  52  80 106 131 168 210 252 303
#
# _framework density 18.747952000000002
#
# number of rings (size 3 to 8) (size 9 to 14) (size 15 to 20)
#    0.000    2.500    1.250    2.625    0.000    0.500 
#    0.000    6.250    0.000    4.500    0.000    0.000 
#    0.000    0.000    0.000    0.000    0.000    0.000 
#
# Total GULP energy -178398.401622 kJ/mol
# GULP energy per Si atom -5574.950051 kJ/mol
# Density = 1.870528 g / cm^3
# Si number density = 18.747952 Si / 1000 Ang^3
#
#
#
# Elastic Constant Matrix: (Units=GPa)
#
#
# Indices 1 2 3 4 5 6 
#
# 1 20.7351 4.1877 30.5595 0.0000 11.5931 0.0000
# 2 4.1877 14.2111 15.9293 0.0000 0.1793 0.0000
# 3 30.5595 15.9293 137.9668 0.0000 18.9810 0.0000
# 4 0.0000 0.0000 0.0000 18.6017 0.0000 8.1275
# 5 11.5931 0.1793 18.9810 0.0000 29.6616 0.0000
# 6 0.0000 0.0000 0.0000 8.1275 0.0000 23.7855
#
#
#
# Elastic Compliance Matrix: (Units=1/GPa)
#
#
# Indices 1 2 3 4 5 6 
#
# 1 0.084543 -0.008363 -0.014498 0.000000 -0.023715 0.000000
# 2 -0.008363 0.082645 -0.008850 0.000000 0.008432 0.000000
# 3 -0.014498 -0.008850 0.011727 0.000000 -0.001784 0.000000
# 4 0.000000 0.000000 0.000000 0.063193 0.000000 -0.021593
# 5 -0.023715 0.008432 -0.001784 0.000000 0.044073 0.000000
# 6 0.000000 0.000000 0.000000 -0.021593 0.000000 0.049421
#
#
# Mechanical properties :
#
#
# Convention : Reuss Voigt Hill
#
# Bulk Modulus (GPa) = 8.65851 30.47402 19.56627
# Shear Modulus (GPa) = 11.42804 22.55887 16.99345
#
# Velocity S-wave (km/s) = 2.47161 3.47258 3.01394
# Velocity P-wave (km/s) = 3.57401 5.68932 4.75089
#
# Compressibility (1/GPa) = 0.11549331
#
# Stress axis : x y z
#
# Youngs Moduli (GPa) = 11.82836 12.09991 85.27616
#
# Poissons Ratio (x) = 0.10119 1.23632
# Poissons Ratio (y) = 0.09892 0.75467
# Poissons Ratio (z) = 0.17149 0.10708
#
# Static dielectric constant tensor:
#      x y z
#    x 1.627040 0.000000 0.009990 
#    y 0.000000 1.658440 0.000000 
#    z 0.009990 0.000000 1.681520 
# 
# From -- ./inp_files/67186.got.cif
#   From: 2010.05.17/outbox.cif.g08.bks.cpg/sg11_34_cif.got.tgz:67186.got - 2010.06.03 12:22:45.
