data_PCOD9158591
_publ_section_title
;
Structure prediction by ZEFSAII (Michael W. Deem and Ramdas Pophale) SiO2 
 PCOD9158591
Probable space group: P 21/M
;
_chemical_formula_sum "Si O2"
_cell_formula_units_Z 28
_cell_length_a 21.882047
_cell_length_b 8.984330
_cell_length_c 17.073449
_cell_angle_alpha 90.000000
_cell_angle_beta 154.549924
_cell_angle_gamma 90.000000
_cell_volume 1442.397612
_symmetry_space_group_name_H-M "P 21/M"
_symmetry_group_IT_number 11
_symmetry_cell_setting 'monoclinic'
loop_
_space_group_symop_operation_xyz
x,y,z
-x,1/2+y,-z
-x,-y,-z
x,1/2-y,z
loop_
_atom_site_type_symbol
_atom_site_label
_atom_site_fract_x
_atom_site_fract_y
_atom_site_fract_z
Si Si1 0.352162 0.082284 0.376112
Si Si2 0.783179 0.931702 0.527552
Si Si3 0.207392 0.072643 0.793078
Si Si4 0.386635 0.078270 0.252072
Si Si5 0.922869 0.583376 0.840854
Si Si6 0.926185 0.928519 0.529771
Si Si7 0.545548 0.427886 0.829127
O O1 0.416778 0.250000 0.445993
O O2 0.289337 0.049599 0.216503
O O3 0.235423 0.093496 0.307281
O O4 0.462304 0.959401 0.532271
O O5 0.783515 0.750000 0.533179
O O6 0.894538 0.985098 0.722751
O O7 0.840584 0.972485 0.508414
O O8 0.619604 0.978007 0.354129
O O9 0.216321 0.250000 0.812852
O O10 0.164251 0.039383 0.653343
O O11 0.077458 0.008793 0.694669
O O12 0.354083 0.997879 0.988671
O O13 0.372546 0.250000 0.212735
O O14 0.386417 0.978642 0.174979
O O15 0.983679 0.750000 0.903067
O O16 0.000000 0.500000 0.000000
O O17 0.950224 0.750000 0.560199
O O18 0.547345 0.250000 0.835952
#
# Coordination Sequence:
#
# PCOD9158591 Si02
#       7
#     4   4   4   4   4   4   4
#     4   9  18  34  52  72 103 142 179 221 273 325
#     4   9  19  37  60  82 109 148 192 234 277 338
#     4  10  21  37  58  87 118 144 182 235 283 335
#     4  10  19  31  52  79 106 136 179 228 273 320
#     4  10  20  36  54  75 106 142 183 226 272 324
#     4   9  19  39  63  84 110 149 190 228 280 342
#     4  11  21  36  58  83 115 152 190 230 283 338
#
# _framework density 19.412122
#
# number of rings (size 3 to 8) (size 9 to 14) (size 15 to 20)
#    0.000    2.286    1.429    1.286    0.000    3.429 
#    0.000    5.000    0.000    0.000    0.000    0.000 
#    0.000    0.000    0.000    0.000    0.000    0.000 
#
# Total GULP energy -155978.237784 kJ/mol
# GULP energy per Si atom -5570.651349 kJ/mol
# Density = 1.936794 g / cm^3
# Si number density = 19.412122 Si / 1000 Ang^3
#
#
#
# Elastic Constant Matrix: (Units=GPa)
#
#
# Indices 1 2 3 4 5 6 
#
# 1 92.7156 15.3857 26.6139 0.0000 -27.0227 0.0000
# 2 15.3857 36.0752 31.2420 0.0000 -9.6237 0.0000
# 3 26.6139 31.2420 103.4316 0.0000 -19.7685 0.0000
# 4 0.0000 0.0000 0.0000 32.0431 0.0000 -3.9683
# 5 -27.0227 -9.6237 -19.7685 0.0000 15.2694 0.0000
# 6 0.0000 0.0000 0.0000 -3.9683 0.0000 22.2536
#
#
#
# Elastic Compliance Matrix: (Units=1/GPa)
#
#
# Indices 1 2 3 4 5 6 
#
# 1 0.022734 -0.000334 0.002525 0.000000 0.043292 0.000000
# 2 -0.000334 0.039255 -0.009508 0.000000 0.011840 0.000000
# 3 0.002525 -0.009508 0.015413 0.000000 0.018431 0.000000
# 4 0.000000 0.000000 0.000000 0.031913 0.000000 0.005691
# 5 0.043292 0.011840 0.018431 0.000000 0.173430 0.000000
# 6 0.000000 0.000000 0.000000 0.005691 0.000000 0.045951
#
#
# Mechanical properties :
#
#
# Convention : Reuss Voigt Hill
#
# Bulk Modulus (GPa) = 15.93149 42.07840 29.00495
# Shear Modulus (GPa) = 13.72672 24.51195 19.11933
#
# Velocity S-wave (km/s) = 2.66206 3.55732 3.14174
# Velocity P-wave (km/s) = 4.20399 6.21258 5.30423
#
# Compressibility (1/GPa) = 0.06276878
#
# Stress axis : x y z
#
# Youngs Moduli (GPa) = 43.98697 25.47423 64.87974
#
# Poissons Ratio (x) = 0.00851 -0.16385
# Poissons Ratio (y) = 0.01469 0.61690
# Poissons Ratio (z) = -0.11109 0.24222
#
# Static dielectric constant tensor:
#      x y z
#    x 1.735060 0.000000 -0.011320 
#    y 0.000000 1.685060 0.000000 
#    z -0.011320 0.000000 1.708260 
# 
# From -- ./inp_files/54628.got.cif
#   From: 2010.05.17/outbox.cif.g08.bks.cpg/sg11_28_cif.got.tgz:54628.got - 2010.06.03 12:22:45.
