data_PCOD9158857
_publ_section_title
;
Structure prediction by ZEFSAII (Michael W. Deem and Ramdas Pophale) SiO2 
 PCOD9158857
Probable space group: P 21/M
;
_chemical_formula_sum "Si O2"
_cell_formula_units_Z 28
_cell_length_a 12.281418
_cell_length_b 21.658607
_cell_length_c 6.477119
_cell_angle_alpha 90.000000
_cell_angle_beta 97.919132
_cell_angle_gamma 90.000000
_cell_volume 1706.472883
_symmetry_space_group_name_H-M "P 21/M"
_symmetry_group_IT_number 11
_symmetry_cell_setting 'monoclinic'
loop_
_space_group_symop_operation_xyz
x,y,z
-x,1/2+y,-z
-x,-y,-z
x,1/2-y,z
loop_
_atom_site_type_symbol
_atom_site_label
_atom_site_fract_x
_atom_site_fract_y
_atom_site_fract_z
Si Si1 0.163976 0.679920 0.296271
Si Si2 0.932046 0.088499 0.016020
Si Si3 0.518667 0.452226 0.816815
Si Si4 0.330157 0.000074 0.496425
Si Si5 0.919130 0.517841 0.667111
Si Si6 0.249627 0.885063 0.708234
Si Si7 0.380433 0.680081 0.068973
O O1 0.138938 0.750000 0.339568
O O2 0.173511 0.640463 0.506039
O O3 0.283594 0.676841 0.216016
O O4 0.078258 0.652073 0.110566
O O5 0.825163 0.085005 0.134001
O O6 0.033768 0.076070 0.193494
O O7 0.924651 0.036905 0.837191
O O8 0.619585 0.480034 0.709674
O O9 0.413426 0.455253 0.637449
O O10 0.545364 0.381265 0.883367
O O11 0.500000 0.500000 0.000000
O O12 0.205788 0.023660 0.440984
O O13 0.324793 0.937550 0.629839
O O14 0.000000 0.500000 0.500000
O O15 0.319357 0.831304 0.834233
O O16 0.427255 0.750000 0.089685
#
# Coordination Sequence:
#
# PCOD9158857 Si02
#       7
#     4   4   4   4   4   4   4
#     4  10  19  32  51  76 109 142 174 221 275 327
#     4  10  20  30  52  78 108 138 172 216 266 324
#     4  11  22  35  54  77 113 148 177 227 272 326
#     4  11  21  33  53  80 111 140 180 216 277 323
#     4  11  20  34  53  78 108 141 174 223 267 317
#     4  11  17  33  51  79 112 136 171 224 272 326
#     4  10  20  33  51  77 106 144 185 223 272 329
#
# _framework density 16.408113
#
# number of rings (size 3 to 8) (size 9 to 14) (size 15 to 20)
#    0.000    1.429    5.714    1.286    0.000    0.571 
#    0.000    0.000    0.000    0.857    0.000    4.000 
#    0.000    0.000    0.000    0.000    0.000    0.000 
#
# Total GULP energy -156040.261602 kJ/mol
# GULP energy per Si atom -5572.866486 kJ/mol
# Density = 1.637077 g / cm^3
# Si number density = 16.408113 Si / 1000 Ang^3
#
#
#
# Elastic Constant Matrix: (Units=GPa)
#
#
# Indices 1 2 3 4 5 6 
#
# 1 83.4530 33.7517 34.8043 0.0000 8.0209 0.0000
# 2 33.7517 97.2669 38.2905 0.0000 4.8741 0.0000
# 3 34.8043 38.2905 97.4997 0.0000 -7.3925 0.0000
# 4 0.0000 0.0000 0.0000 23.4857 0.0000 6.4058
# 5 8.0209 4.8741 -7.3925 0.0000 32.7011 0.0000
# 6 0.0000 0.0000 0.0000 6.4058 0.0000 23.0168
#
#
#
# Elastic Compliance Matrix: (Units=1/GPa)
#
#
# Indices 1 2 3 4 5 6 
#
# 1 0.015703 -0.003421 -0.004594 0.000000 -0.004380 0.000000
# 2 -0.003421 0.013191 -0.004115 0.000000 -0.002057 0.000000
# 3 -0.004594 -0.004115 0.013883 0.000000 0.004879 0.000000
# 4 0.000000 0.000000 0.000000 0.046077 0.000000 -0.012824
# 5 -0.004380 -0.002057 0.004879 0.000000 0.033064 0.000000
# 6 0.000000 0.000000 0.000000 -0.012824 0.000000 0.047015
#
#
# Mechanical properties :
#
#
# Convention : Reuss Voigt Hill
#
# Bulk Modulus (GPa) = 54.00719 54.65695 54.33207
# Shear Modulus (GPa) = 25.07945 27.26560 26.17252
#
# Velocity S-wave (km/s) = 3.91382 4.08084 3.99820
# Velocity P-wave (km/s) = 7.30824 7.45571 7.38234
#
# Compressibility (1/GPa) = 0.01851605
#
# Stress axis : x y z
#
# Youngs Moduli (GPa) = 63.68034 75.80797 72.03306
#
# Poissons Ratio (x) = 0.25934 0.33094
# Poissons Ratio (y) = 0.21785 0.29644
# Poissons Ratio (z) = 0.29256 0.31197
#
# Static dielectric constant tensor:
#      x y z
#    x 1.555860 0.000000 0.011750 
#    y 0.000000 1.562770 0.000000 
#    z 0.011750 0.000000 1.580340 
# 
# From -- ./inp_files/4902.got.cif
#   From: 2010.05.17/outbox.cif.g08.bks.cpg/sg11_3_cif.got.tgz:4902.got - 2010.06.03 12:22:45.
