data_PCOD9158762
_publ_section_title
;
Structure prediction by ZEFSAII (Michael W. Deem and Ramdas Pophale) SiO2 
 PCOD9158762
Probable space group: P 21/M
;
_chemical_formula_sum "Si O2"
_cell_formula_units_Z 32
_cell_length_a 9.396805
_cell_length_b 8.403560
_cell_length_c 21.870731
_cell_angle_alpha 90.000000
_cell_angle_beta 90.138000
_cell_angle_gamma 90.000000
_cell_volume 1727.052577
_symmetry_space_group_name_H-M "P 21/M"
_symmetry_group_IT_number 11
_symmetry_cell_setting 'monoclinic'
loop_
_space_group_symop_operation_xyz
x,y,z
-x,1/2+y,-z
-x,-y,-z
x,1/2-y,z
loop_
_atom_site_type_symbol
_atom_site_label
_atom_site_fract_x
_atom_site_fract_y
_atom_site_fract_z
Si Si1 0.586012 0.559146 0.941918
Si Si2 0.089825 0.559884 0.057041
Si Si3 0.090402 0.942250 0.323885
Si Si4 0.577496 0.940104 0.809411
Si Si5 0.902079 0.057529 0.809968
Si Si6 0.586384 0.940520 0.441415
Si Si7 0.416146 0.058687 0.323989
Si Si8 0.086687 0.442707 0.558841
O O1 0.584431 0.750000 0.941304
O O2 0.748869 0.502348 0.946865
O O3 0.525341 0.500947 0.875720
O O4 0.500000 0.500000 0.000000
O O5 0.092855 0.750000 0.055015
O O6 0.031271 0.511830 0.124568
O O7 0.000000 0.500000 0.000000
O O8 0.095963 0.750000 0.326233
O O9 0.034341 0.987511 0.255902
O O10 0.992193 0.997592 0.379386
O O11 0.252066 0.003609 0.330629
O O12 0.558823 0.750000 0.809109
O O13 0.527760 0.999069 0.742789
O O14 0.745182 0.981358 0.809920
O O15 0.887579 0.250000 0.810107
O O16 0.587362 0.750000 0.442583
O O17 0.749851 0.997219 0.443551
O O18 0.500000 0.000000 0.500000
O O19 0.509028 0.996052 0.379760
O O20 0.417497 0.250000 0.324525
O O21 0.086754 0.250000 0.559026
O O22 0.000000 0.500000 0.500000
#
# Coordination Sequence:
#
# PCOD9158762 Si02
#       8
#     4   4   4   4   4   4   4   4
#     4  10  19  33  52  75 103 137 175 217 262 310
#     4  10  19  32  50  74 103 136 173 215 259 309
#     4   9  17  33  55  77 100 129 164 207 253 298
#     4   8  16  30  49  72 101 133 167 206 251 301
#     4   8  15  28  49  73  97 127 167 207 247 298
#     4  11  23  38  54  76 104 136 171 208 249 297
#     4  10  19  33  54  80 105 132 166 206 250 302
#     4  10  22  37  54  75 101 130 163 202 246 293
#
# _framework density 18.528676999999998
#
# number of rings (size 3 to 8) (size 9 to 14) (size 15 to 20)
#    0.000    2.500    0.000    2.250    0.000    5.000 
#    0.000    1.250    0.000    1.500    0.000    0.000 
#    0.000    0.000    0.000    0.000    0.000    0.000 
#
# Total GULP energy -178303.112208 kJ/mol
# GULP energy per Si atom -5571.972257 kJ/mol
# Density = 1.848650 g / cm^3
# Si number density = 18.528677 Si / 1000 Ang^3
#
#
#
# Elastic Constant Matrix: (Units=GPa)
#
#
# Indices 1 2 3 4 5 6 
#
# 1 86.5874 17.6254 95.0150 0.0000 6.3224 0.0000
# 2 17.6254 22.4067 30.9302 0.0000 0.2650 0.0000
# 3 95.0150 30.9302 243.8808 0.0000 6.2485 0.0000
# 4 0.0000 0.0000 0.0000 26.6421 0.0000 2.5775
# 5 6.3224 0.2650 6.2485 0.0000 33.3324 0.0000
# 6 0.0000 0.0000 0.0000 2.5775 0.0000 23.1788
#
#
#
# Elastic Compliance Matrix: (Units=1/GPa)
#
#
# Indices 1 2 3 4 5 6 
#
# 1 0.021100 -0.006438 -0.007338 0.000000 -0.002575 0.000000
# 2 -0.006438 0.056089 -0.004648 0.000000 0.001646 0.000000
# 3 -0.007338 -0.004648 0.007548 0.000000 0.000014 0.000000
# 4 0.000000 0.000000 0.000000 0.037943 0.000000 -0.004219
# 5 -0.002575 0.001646 0.000014 0.000000 0.030474 0.000000
# 6 0.000000 0.000000 0.000000 -0.004219 0.000000 0.043612
#
#
# Mechanical properties :
#
#
# Convention : Reuss Voigt Hill
#
# Bulk Modulus (GPa) = 20.88072 71.11291 45.99682
# Shear Modulus (GPa) = 20.03399 30.58428 25.30914
#
# Velocity S-wave (km/s) = 3.29179 4.06722 3.69988
# Velocity P-wave (km/s) = 5.07363 7.77944 6.56740
#
# Compressibility (1/GPa) = 0.04789106
#
# Stress axis : x y z
#
# Youngs Moduli (GPa) = 47.39430 17.82866 132.48077
#
# Poissons Ratio (x) = 0.11477 0.97213
# Poissons Ratio (y) = 0.30510 0.61573
# Poissons Ratio (z) = 0.34777 0.08286
#
# Static dielectric constant tensor:
#      x y z
#    x 1.601360 0.000000 0.000480 
#    y 0.000000 1.643000 0.000000 
#    z 0.000480 0.000000 1.700640 
# 
# From -- ./inp_files/63203.got.cif
#   From: 2010.05.17/outbox.cif.g08.bks.cpg/sg11_32_cif.got.tgz:63203.got - 2010.06.03 12:22:45.
