data_PCOD9158712
_publ_section_title
;
Structure prediction by ZEFSAII (Michael W. Deem and Ramdas Pophale) SiO2 
 PCOD9158712
Probable space group: P 21/M
;
_chemical_formula_sum "Si O2"
_cell_formula_units_Z 28
_cell_length_a 9.839583
_cell_length_b 8.622529
_cell_length_c 29.085423
_cell_angle_alpha 90.000000
_cell_angle_beta 40.455482
_cell_angle_gamma 90.000000
_cell_volume 1601.163769
_symmetry_space_group_name_H-M "P 21/M"
_symmetry_group_IT_number 11
_symmetry_cell_setting 'monoclinic'
loop_
_space_group_symop_operation_xyz
x,y,z
-x,1/2+y,-z
-x,-y,-z
x,1/2-y,z
loop_
_atom_site_type_symbol
_atom_site_label
_atom_site_fract_x
_atom_site_fract_y
_atom_site_fract_z
Si Si1 0.491408 0.437627 0.356238
Si Si2 0.132101 0.934826 0.900726
Si Si3 0.359805 0.067965 0.077054
Si Si4 0.073622 0.563706 0.431538
Si Si5 0.886632 0.061413 0.198487
Si Si6 0.637533 0.937098 0.506911
Si Si7 0.322234 0.430751 0.940942
O O1 0.481500 0.250000 0.358159
O O2 0.308647 0.498366 0.369248
O O3 0.716067 0.490349 0.279352
O O4 0.450685 0.485237 0.419828
O O5 0.164366 0.750000 0.899085
O O6 0.181674 0.976594 0.835819
O O7 0.261303 0.028742 0.904835
O O8 0.886557 0.963461 0.975074
O O9 0.342332 0.250000 0.072671
O O10 0.124663 0.004134 0.141923
O O11 0.488988 0.033109 0.089551
O O12 0.500000 0.000000 0.000000
O O13 0.080442 0.750000 0.430768
O O14 0.000000 0.500000 0.500000
O O15 0.886004 0.518305 0.444739
O O16 0.892786 0.250000 0.199763
O O17 0.629046 0.750000 0.507243
O O18 0.500000 0.000000 0.500000
O O19 0.372087 0.250000 0.933650
#
# Coordination Sequence:
#
# PCOD9158712 Si02
#       7
#     4   4   4   4   4   4   4
#     4   9  18  34  54  76 101 133 173 215 255 302
#     4   9  17  32  51  71  94 127 166 208 260 311
#     4  11  20  33  52  75 101 135 174 218 265 314
#     4   9  17  31  51  76 103 131 167 206 244 295
#     4   9  18  34  54  74 100 132 172 217 260 309
#     4   9  18  31  51  78 104 132 166 203 244 292
#     4  10  19  32  49  73  99 125 166 216 260 307
#
# _framework density 17.487280999999999
#
# number of rings (size 3 to 8) (size 9 to 14) (size 15 to 20)
#    0.000    2.571    1.429    2.143    0.000    3.429 
#    0.000    3.571    0.000    6.857    0.000    0.000 
#    0.000    0.000    0.000    0.000    0.000    0.000 
#
# Total GULP energy -155959.038926 kJ/mol
# GULP energy per Si atom -5569.965676 kJ/mol
# Density = 1.744748 g / cm^3
# Si number density = 17.487281 Si / 1000 Ang^3
#
#
#
# Elastic Constant Matrix: (Units=GPa)
#
#
# Indices 1 2 3 4 5 6 
#
# 1 107.6389 18.6457 53.8641 0.0000 -14.3363 0.0000
# 2 18.6457 15.6550 20.3511 0.0000 -5.6724 0.0000
# 3 53.8641 20.3511 105.7060 0.0000 -15.0284 0.0000
# 4 0.0000 0.0000 0.0000 17.4747 0.0000 -1.7634
# 5 -14.3363 -5.6724 -15.0284 0.0000 23.2939 0.0000
# 6 0.0000 0.0000 0.0000 -1.7634 0.0000 30.6590
#
#
#
# Elastic Compliance Matrix: (Units=1/GPa)
#
#
# Indices 1 2 3 4 5 6 
#
# 1 0.013648 -0.008879 -0.004798 0.000000 0.003142 0.000000
# 2 -0.008879 0.093713 -0.012166 0.000000 0.009507 0.000000
# 3 -0.004798 -0.012166 0.014760 0.000000 0.003607 0.000000
# 4 0.000000 0.000000 0.000000 0.057560 0.000000 0.003311
# 5 0.003142 0.009507 0.003607 0.000000 0.049505 0.000000
# 6 0.000000 0.000000 0.000000 0.003311 0.000000 0.032807
#
#
# Mechanical properties :
#
#
# Convention : Reuss Voigt Hill
#
# Bulk Modulus (GPa) = 14.19767 46.08018 30.13892
# Shear Modulus (GPa) = 14.82981 23.36146 19.09564
#
# Velocity S-wave (km/s) = 2.91526 3.65898 3.30809
# Velocity P-wave (km/s) = 4.41227 6.65272 5.64477
#
# Compressibility (1/GPa) = 0.07043408
#
# Stress axis : x y z
#
# Youngs Moduli (GPa) = 73.27047 10.67091 67.74878
#
# Poissons Ratio (x) = 0.09475 0.32509
# Poissons Ratio (y) = 0.65058 0.82423
# Poissons Ratio (z) = 0.35159 0.12982
#
# Static dielectric constant tensor:
#      x y z
#    x 1.610450 0.000000 -0.021300 
#    y 0.000000 1.613430 0.000000 
#    z -0.021300 0.000000 1.668680 
# 
# From -- ./inp_files/72716.got.cif
#   From: 2010.05.17/outbox.cif.g08.bks.cpg/sg11_37_cif.got.tgz:72716.got - 2010.06.03 12:22:45.
