data_PCOD9158061
_publ_section_title
;
Structure prediction by ZEFSAII (Michael W. Deem and Ramdas Pophale) SiO2 
 PCOD9158061
Probable space group: P 21/M
;
_chemical_formula_sum "Si O2"
_cell_formula_units_Z 32
_cell_length_a 22.186290
_cell_length_b 9.852390
_cell_length_c 11.998134
_cell_angle_alpha 90.000000
_cell_angle_beta 145.083634
_cell_angle_gamma 90.000000
_cell_volume 1501.151514
_symmetry_space_group_name_H-M "P 21/M"
_symmetry_group_IT_number 11
_symmetry_cell_setting 'monoclinic'
loop_
_space_group_symop_operation_xyz
x,y,z
-x,1/2+y,-z
-x,-y,-z
x,1/2-y,z
loop_
_atom_site_type_symbol
_atom_site_label
_atom_site_fract_x
_atom_site_fract_y
_atom_site_fract_z
Si Si1 0.348740 0.410074 0.928779
Si Si2 0.540128 0.906859 0.219909
Si Si3 0.431353 0.403818 0.474651
Si Si4 0.753349 0.404511 0.054394
Si Si5 0.949563 0.109690 0.499392
Si Si6 0.770728 0.908708 0.479546
Si Si7 0.035379 0.594936 0.212272
Si Si8 0.812082 0.913130 0.939273
O O1 0.366986 0.250000 0.971307
O O2 0.322499 0.483269 0.006113
O O3 0.258171 0.423615 0.696269
O O4 0.452348 0.489210 0.044160
O O5 0.520625 0.750000 0.153307
O O6 0.534657 0.908687 0.345624
O O7 0.659514 0.942566 0.368550
O O8 0.500000 0.500000 0.500000
O O9 0.444543 0.250000 0.453094
O O10 0.306042 0.432858 0.284764
O O11 0.714926 0.250000 0.966470
O O12 0.831991 0.383078 0.276429
O O13 0.812608 0.481040 0.043382
O O14 0.006045 0.250000 0.556204
O O15 0.957017 0.093484 0.641273
O O16 0.000000 0.000000 0.500000
O O17 0.793078 0.750000 0.533677
O O18 0.868748 0.996296 0.672001
O O19 0.052025 0.750000 0.198485
O O20 0.911941 0.557402 0.010021
O O21 0.821491 0.750000 0.981419
#
# Coordination Sequence:
#
# PCOD9158061 Si02
#       8
#     4   4   4   4   4   4   4   4
#     4  11  22  35  55  84 114 148 187 230 279 335
#     4  10  22  41  61  82 110 146 187 234 283 331
#     4  10  22  41  64  86 111 143 182 230 282 332
#     4  11  21  32  50  80 115 150 185 225 274 330
#     4  10  19  30  47  73 108 150 187 222 268 326
#     4  10  22  38  57  82 114 150 187 227 277 334
#     4  10  20  35  54  79 114 152 188 227 275 330
#     4  10  21  37  57  83 114 149 190 235 280 329
#
# _framework density 21.316969
#
# number of rings (size 3 to 8) (size 9 to 14) (size 15 to 20)
#    0.000    1.750    2.500    1.875    0.000    5.500 
#    0.000    0.625    0.000    0.000    0.000    0.000 
#    0.000    0.000    0.000    0.000    0.000    0.000 
#
# Total GULP energy -178377.245918 kJ/mol
# GULP energy per Si atom -5574.288935 kJ/mol
# Density = 2.126845 g / cm^3
# Si number density = 21.316969 Si / 1000 Ang^3
#
#
#
# Elastic Constant Matrix: (Units=GPa)
#
#
# Indices 1 2 3 4 5 6 
#
# 1 47.6578 47.9100 6.9796 0.0000 20.8854 0.0000
# 2 47.9100 119.4689 46.3647 0.0000 33.6789 0.0000
# 3 6.9796 46.3647 106.2495 0.0000 29.6100 0.0000
# 4 0.0000 0.0000 0.0000 28.1922 0.0000 16.3284
# 5 20.8854 33.6789 29.6100 0.0000 39.1274 0.0000
# 6 0.0000 0.0000 0.0000 16.3284 0.0000 25.0048
#
#
#
# Elastic Compliance Matrix: (Units=1/GPa)
#
#
# Indices 1 2 3 4 5 6 
#
# 1 0.042599 -0.016050 0.008481 0.000000 -0.015342 0.000000
# 2 -0.016050 0.017773 -0.006115 0.000000 -0.002103 0.000000
# 3 0.008481 -0.006115 0.014343 0.000000 -0.010117 0.000000
# 4 0.000000 0.000000 0.000000 0.057046 0.000000 -0.037252
# 5 -0.015342 -0.002103 -0.010117 0.000000 0.043213 0.000000
# 6 0.000000 0.000000 0.000000 -0.037252 0.000000 0.064318
#
#
# Mechanical properties :
#
#
# Convention : Reuss Voigt Hill
#
# Bulk Modulus (GPa) = 21.12102 52.87610 36.99856
# Shear Modulus (GPa) = 17.70278 29.93968 23.82123
#
# Velocity S-wave (km/s) = 2.88489 3.75173 3.34650
# Velocity P-wave (km/s) = 4.58545 6.60499 5.68561
#
# Compressibility (1/GPa) = 0.04734619
#
# Stress axis : x y z
#
# Youngs Moduli (GPa) = 23.47495 56.26561 69.72177
#
# Poissons Ratio (x) = 0.90304 -0.59129
# Poissons Ratio (y) = 0.37676 0.42636
# Poissons Ratio (z) = -0.19909 0.34407
#
# Static dielectric constant tensor:
#      x y z
#    x 1.786380 0.000000 0.008300 
#    y 0.000000 1.787030 0.000000 
#    z 0.008300 0.000000 1.852790 
# 
# From -- ./inp_files/55754.got.cif
#   From: 2010.05.17/outbox.cif.g08.bks.cpg/sg11_28_cif.got.tgz:55754.got - 2010.06.03 12:22:45.
