data_PCOD9158298
_publ_section_title
;
Structure prediction by ZEFSAII (Michael W. Deem and Ramdas Pophale) SiO2 
 PCOD9158298
Probable space group: P 21/M
;
_chemical_formula_sum "Si O2"
_cell_formula_units_Z 28
_cell_length_a 14.988186
_cell_length_b 9.398712
_cell_length_c 19.290328
_cell_angle_alpha 90.000000
_cell_angle_beta 37.564773
_cell_angle_gamma 90.000000
_cell_volume 1656.697639
_symmetry_space_group_name_H-M "P 21/M"
_symmetry_group_IT_number 11
_symmetry_cell_setting 'monoclinic'
loop_
_space_group_symop_operation_xyz
x,y,z
-x,1/2+y,-z
-x,-y,-z
x,1/2-y,z
loop_
_atom_site_type_symbol
_atom_site_label
_atom_site_fract_x
_atom_site_fract_y
_atom_site_fract_z
Si Si1 0.259341 0.916960 0.756277
Si Si2 0.401266 0.416211 0.407736
Si Si3 0.474094 0.913046 0.232723
Si Si4 0.822444 0.921148 0.333558
Si Si5 0.182631 0.412613 0.933736
Si Si6 0.894709 0.919403 0.863837
Si Si7 0.559148 0.578819 0.030681
O O1 0.225948 0.750000 0.766960
O O2 0.432189 0.930765 0.667297
O O3 0.229247 0.006987 0.706170
O O4 0.172574 0.980730 0.875716
O O5 0.376473 0.250000 0.409825
O O6 0.390434 0.499241 0.342368
O O7 0.288875 0.461926 0.536487
O O8 0.424143 0.750000 0.263860
O O9 0.645409 0.912244 0.149995
O O10 0.475724 0.966506 0.152689
O O11 0.824745 0.750000 0.325974
O O12 0.982743 0.985888 0.247520
O O13 0.145442 0.250000 0.936550
O O14 0.102626 0.449523 0.054845
O O15 0.921784 0.750000 0.839152
O O16 0.731588 0.949097 0.936967
O O17 0.543241 0.750000 0.034536
O O18 0.500000 0.500000 0.000000
#
# Coordination Sequence:
#
# PCOD9158298 Si02
#       7
#     4   4   4   4   4   4   4
#     4  10  19  31  48  69  93 125 167 208 244 283
#     4   9  19  33  48  69  96 127 166 207 241 276
#     4   8  15  29  50  74  97 123 155 192 236 283
#     4  11  22  33  46  67  97 131 166 204 242 280
#     4   8  15  30  49  67  92 124 158 200 242 280
#     4   9  19  35  51  70  98 129 160 193 237 292
#     4   9  18  33  55  82 105 123 149 189 237 290
#
# _framework density 16.901092999999999
#
# number of rings (size 3 to 8) (size 9 to 14) (size 15 to 20)
#    0.000    2.857    0.000    3.000    0.000    4.000 
#    0.000    2.857    0.000    0.857    0.000    0.000 
#    0.000    0.000    0.000    0.000    0.000    0.000 
#
# Total GULP energy -156135.962404 kJ/mol
# GULP energy per Si atom -5576.284372 kJ/mol
# Density = 1.686263 g / cm^3
# Si number density = 16.901093 Si / 1000 Ang^3
#
#
#
# Elastic Constant Matrix: (Units=GPa)
#
#
# Indices 1 2 3 4 5 6 
#
# 1 87.1776 48.4661 46.6148 0.0000 24.0034 0.0000
# 2 48.4661 62.4496 62.3888 0.0000 13.1872 0.0000
# 3 46.6148 62.3888 121.8299 0.0000 15.0522 0.0000
# 4 0.0000 0.0000 0.0000 29.7488 0.0000 5.0485
# 5 24.0034 13.1872 15.0522 0.0000 22.1168 0.0000
# 6 0.0000 0.0000 0.0000 5.0485 0.0000 29.6311
#
#
#
# Elastic Compliance Matrix: (Units=1/GPa)
#
#
# Indices 1 2 3 4 5 6 
#
# 1 0.025258 -0.017113 0.001338 0.000000 -0.018120 0.000000
# 2 -0.017113 0.046055 -0.017402 0.000000 0.002956 0.000000
# 3 0.001338 -0.017402 0.016929 0.000000 -0.002597 0.000000
# 4 0.000000 0.000000 0.000000 0.034616 0.000000 -0.005898
# 5 -0.018120 0.002956 -0.002597 0.000000 0.064885 0.000000
# 6 0.000000 0.000000 0.000000 -0.005898 0.000000 0.034753
#
#
# Mechanical properties :
#
#
# Convention : Reuss Voigt Hill
#
# Bulk Modulus (GPa) = 45.68752 65.15517 55.42134
# Shear Modulus (GPa) = 16.88355 23.89850 20.39102
#
# Velocity S-wave (km/s) = 3.16406 3.76443 3.47723
# Velocity P-wave (km/s) = 6.35920 7.58479 6.99887
#
# Compressibility (1/GPa) = 0.02188782
#
# Stress axis : x y z
#
# Youngs Moduli (GPa) = 39.59073 21.71327 59.07114
#
# Poissons Ratio (x) = 0.37157 -0.07902
# Poissons Ratio (y) = 0.67751 1.02796
# Poissons Ratio (z) = -0.05296 0.37785
#
# Static dielectric constant tensor:
#      x y z
#    x 1.567320 0.000000 -0.016630 
#    y 0.000000 1.562610 0.000000 
#    z -0.016630 0.000000 1.583670 
# 
# From -- ./inp_files/53235.got.cif
#   From: 2010.05.17/outbox.cif.g08.bks.cpg/sg11_27_cif.got.tgz:53235.got - 2010.06.03 12:22:45.
