data_PCOD9158933
_publ_section_title
;
Structure prediction by ZEFSAII (Michael W. Deem and Ramdas Pophale) SiO2 
 PCOD9158933
Probable space group: P 21/M
;
_chemical_formula_sum "Si O2"
_cell_formula_units_Z 32
_cell_length_a 24.298184
_cell_length_b 7.747441
_cell_length_c 21.362600
_cell_angle_alpha 90.000000
_cell_angle_beta 23.918824
_cell_angle_gamma 90.000000
_cell_volume 1630.477718
_symmetry_space_group_name_H-M "P 21/M"
_symmetry_group_IT_number 11
_symmetry_cell_setting 'monoclinic'
loop_
_space_group_symop_operation_xyz
x,y,z
-x,1/2+y,-z
-x,-y,-z
x,1/2-y,z
loop_
_atom_site_type_symbol
_atom_site_label
_atom_site_fract_x
_atom_site_fract_y
_atom_site_fract_z
Si Si1 0.544378 0.050640 0.177996
Si Si2 0.149957 0.957381 0.370311
Si Si3 0.959475 0.042022 0.389998
Si Si4 0.953623 0.042281 0.255510
Si Si5 0.473660 0.544192 0.598967
Si Si6 0.255880 0.047486 0.920326
Si Si7 0.668768 0.956670 0.505389
Si Si8 0.740236 0.458938 0.870403
O O1 0.513565 0.250000 0.194936
O O2 0.411892 0.972928 0.349536
O O3 0.657082 0.044749 0.116141
O O4 0.617383 0.973545 0.041042
O O5 0.164656 0.750000 0.357442
O O6 0.141789 0.022671 0.450088
O O7 0.250548 0.021234 0.211236
O O8 0.000000 0.000000 0.500000
O O9 0.948943 0.250000 0.399979
O O10 0.931969 0.976860 0.348998
O O11 0.114996 0.001658 0.247787
O O12 0.957482 0.250000 0.253704
O O13 0.826634 0.993768 0.345400
O O14 0.101738 0.983822 0.079107
O O15 0.500000 0.500000 0.500000
O O16 0.467504 0.750000 0.610385
O O17 0.334885 0.474010 0.773165
O O18 0.592464 0.480250 0.522396
O O19 0.255360 0.250000 0.937851
O O20 0.651403 0.750000 0.524747
O O21 0.731913 0.250000 0.878251
#
# Coordination Sequence:
#
# PCOD9158933 Si02
#       8
#     4   4   4   4   4   4   4   4
#     4   9  17  30  47  70  98 127 167 214 255 299
#     4   8  14  23  37  59  89 123 158 202 253 300
#     4   9  16  27  41  63  96 128 161 204 252 297
#     4  10  20  32  48  73 103 134 169 206 246 294
#     4  10  21  39  61  84 106 131 163 197 237 286
#     4  10  19  32  52  78 104 132 167 204 243 287
#     4   9  20  35  51  73 101 131 163 201 243 288
#     4   9  15  24  42  67  91 121 164 209 255 303
#
# _framework density 19.626149999999999
#
# number of rings (size 3 to 8) (size 9 to 14) (size 15 to 20)
#    0.000    2.750    1.250    1.500    0.000    4.000 
#    0.000    0.625    0.000    0.750    0.000    0.000 
#    0.000    0.000    0.000    0.000    0.000    0.250 
#
# Total GULP energy -178297.806231 kJ/mol
# GULP energy per Si atom -5571.806445 kJ/mol
# Density = 1.958148 g / cm^3
# Si number density = 19.626150 Si / 1000 Ang^3
#
#
#
# Elastic Constant Matrix: (Units=GPa)
#
#
# Indices 1 2 3 4 5 6 
#
# 1 75.4361 -1.5887 49.9820 0.0000 19.4877 0.0000
# 2 -1.5887 34.1510 -6.0919 0.0000 0.8707 0.0000
# 3 49.9820 -6.0919 96.7251 0.0000 10.6595 0.0000
# 4 0.0000 0.0000 0.0000 17.6449 0.0000 -4.6906
# 5 19.4877 0.8707 10.6595 0.0000 33.0566 0.0000
# 6 0.0000 0.0000 0.0000 -4.6906 0.0000 338.8789
#
#
#
# Elastic Compliance Matrix: (Units=1/GPa)
#
#
# Indices 1 2 3 4 5 6 
#
# 1 0.023012 -0.000603 -0.010821 0.000000 -0.010061 0.000000
# 2 -0.000603 0.029696 0.002311 0.000000 -0.001172 0.000000
# 3 -0.010821 0.002311 0.015946 0.000000 0.001176 0.000000
# 4 0.000000 0.000000 0.000000 0.056883 0.000000 0.000787
# 5 -0.010061 -0.001172 0.001176 0.000000 0.035834 0.000000
# 6 0.000000 0.000000 0.000000 0.000787 0.000000 0.002962
#
#
# Mechanical properties :
#
#
# Convention : Reuss Voigt Hill
#
# Bulk Modulus (GPa) = 19.83000 32.32390 26.07695
# Shear Modulus (GPa) = 25.07934 88.85012 56.96473
#
# Velocity S-wave (km/s) = 3.57859 6.73569 5.39332
# Velocity P-wave (km/s) = 5.21544 8.77487 7.21800
#
# Compressibility (1/GPa) = 0.05042865
#
# Stress axis : x y z
#
# Youngs Moduli (GPa) = 43.45544 33.67478 62.71179
#
# Poissons Ratio (x) = 0.02031 0.67858
# Poissons Ratio (y) = 0.02621 -0.14493
# Poissons Ratio (z) = 0.47021 -0.07783
#
# Static dielectric constant tensor:
#      x y z
#    x 1.692790 0.000000 0.044280 
#    y 0.000000 1.724260 0.000000 
#    z 0.044280 0.000000 1.709470 
# 
# From -- ./inp_files/70334.got.cif
#   From: 2010.05.17/outbox.cif.g08.bks.cpg/sg11_36_cif.got.tgz:70334.got - 2010.06.03 12:22:45.
