data_PCOD9158923
_publ_section_title
;
Structure prediction by ZEFSAII (Michael W. Deem and Ramdas Pophale) SiO2 
 PCOD9158923
Probable space group: P 21/M
;
_chemical_formula_sum "Si O2"
_cell_formula_units_Z 24
_cell_length_a 15.987815
_cell_length_b 13.599230
_cell_length_c 12.436631
_cell_angle_alpha 90.000000
_cell_angle_beta 27.654321
_cell_angle_gamma 90.000000
_cell_volume 1255.022335
_symmetry_space_group_name_H-M "P 21/M"
_symmetry_group_IT_number 11
_symmetry_cell_setting 'monoclinic'
loop_
_space_group_symop_operation_xyz
x,y,z
-x,1/2+y,-z
-x,-y,-z
x,1/2-y,z
loop_
_atom_site_type_symbol
_atom_site_label
_atom_site_fract_x
_atom_site_fract_y
_atom_site_fract_z
Si Si1 0.126749 0.858193 0.915359
Si Si2 0.050037 0.367070 0.322072
Si Si3 0.444630 0.040467 0.897478
Si Si4 0.663268 0.366137 0.842511
Si Si5 0.097088 0.075217 0.035565
Si Si6 0.499011 0.416294 0.591709
O O1 0.083625 0.750000 0.010884
O O2 0.328354 0.854620 0.637788
O O3 0.999767 0.882754 0.958636
O O4 0.112956 0.955927 0.005556
O O5 0.074785 0.250000 0.297037
O O6 0.001987 0.398743 0.255035
O O7 0.876241 0.390675 0.592214
O O8 0.240913 0.416497 0.132046
O O9 0.567757 0.100976 0.840205
O O10 0.516870 0.046516 0.693791
O O11 0.429105 0.929918 0.959297
O O12 0.643806 0.250000 0.879530
O O13 0.295937 0.123186 0.816813
O O14 0.500000 0.500000 0.500000
#
# Coordination Sequence:
#
# PCOD9158923 Si02
#       6
#     4   4   4   4   4   4
#     4  10  19  32  52  76 105 142 179 215 261 315
#     4  10  19  33  55  79 103 137 178 217 261 314
#     4  10  20  35  56  80 109 138 176 224 265 314
#     4  10  21  36  56  80 106 140 179 220 268 317
#     4   9  19  33  50  76 108 136 175 223 262 305
#     4   9  19  35  53  76 105 139 175 217 265 312
#
# _framework density 19.123166000000001
#
# number of rings (size 3 to 8) (size 9 to 14) (size 15 to 20)
#    0.000    2.333    0.000    2.500    0.000    5.333 
#    0.000    7.500    0.000   22.000    0.000    0.000 
#    0.000    0.000    0.000    0.000    0.000    0.000 
#
# Total GULP energy -133774.585047 kJ/mol
# GULP energy per Si atom -5573.941044 kJ/mol
# Density = 1.907964 g / cm^3
# Si number density = 19.123166 Si / 1000 Ang^3
#
#
#
# Elastic Constant Matrix: (Units=GPa)
#
#
# Indices 1 2 3 4 5 6 
#
# 1 49.7664 18.7165 1.2197 0.0000 -7.6063 0.0000
# 2 18.7165 87.7201 25.1382 0.0000 14.5094 0.0000
# 3 1.2197 25.1382 27.0115 0.0000 -4.0265 0.0000
# 4 0.0000 0.0000 0.0000 1.2254 0.0000 31.6560
# 5 -7.6063 14.5094 -4.0265 0.0000 21.7529 0.0000
# 6 0.0000 0.0000 0.0000 31.6560 0.0000 -48.7613
#
#
#
# Elastic Compliance Matrix: (Units=1/GPa)
#
#
# Indices 1 2 3 4 5 6 
#
# 1 0.028364 -0.014010 0.015044 0.000000 0.022047 0.000000
# 2 -0.014010 0.027509 -0.029241 0.000000 -0.028660 0.000000
# 3 0.015044 -0.029241 0.069155 0.000000 0.037565 0.000000
# 4 0.000000 0.000000 0.000000 0.045921 0.000000 0.029812
# 5 0.022047 -0.028660 0.037565 0.000000 0.079750 0.000000
# 6 0.000000 0.000000 0.000000 0.029812 0.000000 -0.001154
#
#
# Mechanical properties :
#
#
# Convention : Reuss Voigt Hill
#
# Bulk Modulus (GPa) = 14.57434 28.29409 21.43422
# Shear Modulus (GPa) = 15.20541 2.80498 9.00519
#
# Velocity S-wave (km/s) = 2.82286 1.21243 2.17239
# Velocity P-wave (km/s) = 4.27348 4.09729 4.18631
#
# Compressibility (1/GPa) = 0.06861372
#
# Stress axis : x y z
#
# Youngs Moduli (GPa) = 35.25629 36.35120 14.46030
#
# Poissons Ratio (x) = 0.50927 -0.21754
# Poissons Ratio (y) = 0.49393 0.42284
# Poissons Ratio (z) = -0.53039 1.06295
#
# Static dielectric constant tensor:
#      x y z
#    x 1.652370 0.000000 -0.020730 
#    y 0.000000 1.669630 0.000000 
#    z -0.020730 0.000000 1.703560 
# 
# From -- ./inp_files/39567.got.cif
#   From: 2010.05.17/outbox.cif.g08.bks.cpg/sg11_20_cif.got.tgz:39567.got - 2010.06.03 12:22:45.
