data_PCOD9158773
_publ_section_title
;
Structure prediction by ZEFSAII (Michael W. Deem and Ramdas Pophale) SiO2 
 PCOD9158773
Probable space group: P 21/M
;
_chemical_formula_sum "Si O2"
_cell_formula_units_Z 32
_cell_length_a 9.996457
_cell_length_b 13.523781
_cell_length_c 29.276942
_cell_angle_alpha 90.000000
_cell_angle_beta 153.033429
_cell_angle_gamma 90.000000
_cell_volume 1794.812349
_symmetry_space_group_name_H-M "P 21/M"
_symmetry_group_IT_number 11
_symmetry_cell_setting 'monoclinic'
loop_
_space_group_symop_operation_xyz
x,y,z
-x,1/2+y,-z
-x,-y,-z
x,1/2-y,z
loop_
_atom_site_type_symbol
_atom_site_label
_atom_site_fract_x
_atom_site_fract_y
_atom_site_fract_z
Si Si1 0.230199 0.631990 0.997097
Si Si2 0.271690 0.511047 0.825899
Si Si3 0.996423 0.365856 0.172312
Si Si4 0.644782 0.630113 0.868102
Si Si5 0.719240 0.552632 0.602342
Si Si6 0.119213 0.637466 0.650131
Si Si7 0.425152 0.571584 0.608261
Si Si8 0.826492 0.633148 0.467387
O O1 0.252470 0.750000 0.004664
O O2 0.540571 0.583109 0.102608
O O3 0.112014 0.604022 0.910829
O O4 0.977898 0.603769 0.956935
O O5 0.499874 0.581408 0.868151
O O6 0.154498 0.569027 0.834380
O O7 0.987958 0.490094 0.707150
O O8 0.927279 0.250000 0.157703
O O9 0.345256 0.380327 0.286652
O O10 0.623631 0.750000 0.864551
O O11 0.428976 0.594823 0.761178
O O12 0.500000 0.500000 0.500000
O O13 0.540956 0.590266 0.592116
O O14 0.899033 0.630622 0.626259
O O15 0.180673 0.750000 0.656555
O O16 0.955441 0.598155 0.555959
O O17 0.411991 0.452891 0.614018
O O18 0.101911 0.616727 0.517476
O O19 0.740228 0.750000 0.442153
#
# Coordination Sequence:
#
# PCOD9158773 Si02
#       8
#     4   4   4   4   4   4   4   4
#     4  10  20  35  54  78 106 136 172 213 264 318
#     4  10  20  33  54  79 105 135 173 217 261 307
#     4  10  20  35  55  78 103 132 176 222 259 308
#     4   9  17  30  52  79 104 134 174 215 257 306
#     4  10  19  34  50  75 106 135 177 210 258 310
#     4   9  17  30  51  76 102 136 177 220 259 305
#     4  10  20  32  53  78 103 141 176 223 263 310
#     4  10  19  32  50  75 107 139 178 221 266 313
#
# _framework density 17.829160999999999
#
# number of rings (size 3 to 8) (size 9 to 14) (size 15 to 20)
#    0.000    2.250    1.250    2.250    0.000    5.500 
#    0.000    3.125    0.000    1.500    0.000    0.000 
#    0.000    0.000    0.000    0.000    0.000    0.000 
#
# Total GULP energy -178210.756513 kJ/mol
# GULP energy per Si atom -5569.086141 kJ/mol
# Density = 1.778858 g / cm^3
# Si number density = 17.829161 Si / 1000 Ang^3
#
#
#
# Elastic Constant Matrix: (Units=GPa)
#
#
# Indices 1 2 3 4 5 6 
#
# 1 78.6456 6.3356 20.4823 0.0000 2.2846 0.0000
# 2 6.3356 40.0046 13.1865 0.0000 -0.3931 0.0000
# 3 20.4823 13.1865 65.9175 0.0000 -2.1027 0.0000
# 4 0.0000 0.0000 0.0000 24.2352 0.0000 7.2371
# 5 2.2846 -0.3931 -2.1027 0.0000 22.7954 0.0000
# 6 0.0000 0.0000 0.0000 7.2371 0.0000 18.8499
#
#
#
# Elastic Compliance Matrix: (Units=1/GPa)
#
#
# Indices 1 2 3 4 5 6 
#
# 1 0.013934 -0.000833 -0.004220 0.000000 -0.001800 0.000000
# 2 -0.000833 0.026812 -0.005102 0.000000 0.000075 0.000000
# 3 -0.004220 -0.005102 0.017565 0.000000 0.001955 0.000000
# 4 0.000000 0.000000 0.000000 0.046606 0.000000 -0.017893
# 5 -0.001800 0.000075 0.001955 0.000000 0.044231 0.000000
# 6 0.000000 0.000000 0.000000 -0.017893 0.000000 0.059921
#
#
# Mechanical properties :
#
#
# Convention : Reuss Voigt Hill
#
# Bulk Modulus (GPa) = 26.31672 29.39739 27.85706
# Shear Modulus (GPa) = 20.65732 22.81365 21.73549
#
# Velocity S-wave (km/s) = 3.40755 3.58099 3.49535
# Velocity P-wave (km/s) = 5.50222 5.79846 5.65228
#
# Compressibility (1/GPa) = 0.03799866
#
# Stress axis : x y z
#
# Youngs Moduli (GPa) = 71.76781 37.29727 56.93175
#
# Poissons Ratio (x) = 0.03108 0.24027
# Poissons Ratio (y) = 0.05980 0.29048
# Poissons Ratio (z) = 0.30288 0.19030
#
# Static dielectric constant tensor:
#      x y z
#    x 1.632430 0.000000 -0.004510 
#    y 0.000000 1.609380 0.000000 
#    z -0.004510 0.000000 1.637910 
# 
# From -- ./inp_files/26803.got.cif
#   From: 2010.05.17/outbox.cif.g08.bks.cpg/sg11_14_cif.got.tgz:26803.got - 2010.06.03 12:22:45.
