data_PCOD9158860
_publ_section_title
;
Structure prediction by ZEFSAII (Michael W. Deem and Ramdas Pophale) SiO2 
 PCOD9158860
Probable space group: P 21/M
;
_chemical_formula_sum "Si O2"
_cell_formula_units_Z 32
_cell_length_a 26.111526
_cell_length_b 8.486547
_cell_length_c 21.225826
_cell_angle_alpha 90.000000
_cell_angle_beta 22.527015
_cell_angle_gamma 90.000000
_cell_volume 1802.028121
_symmetry_space_group_name_H-M "P 21/M"
_symmetry_group_IT_number 11
_symmetry_cell_setting 'monoclinic'
loop_
_space_group_symop_operation_xyz
x,y,z
-x,1/2+y,-z
-x,-y,-z
x,1/2-y,z
loop_
_atom_site_type_symbol
_atom_site_label
_atom_site_fract_x
_atom_site_fract_y
_atom_site_fract_z
Si Si1 0.857521 0.440301 0.088328
Si Si2 0.155213 0.059597 0.754900
Si Si3 0.565577 0.940360 0.110128
Si Si4 0.852664 0.940152 0.737630
Si Si5 0.141166 0.061920 0.416513
Si Si6 0.586550 0.061640 0.842929
Si Si7 0.435690 0.440558 0.385614
Si Si8 0.583028 0.059513 0.345635
O O1 0.857375 0.250000 0.090257
O O2 0.829257 0.500843 0.191042
O O3 0.736675 0.491205 0.180839
O O4 0.007772 0.492076 0.900149
O O5 0.156603 0.250000 0.754796
O O6 0.281885 0.007530 0.570187
O O7 0.565470 0.750000 0.110030
O O8 0.479764 0.993763 0.147012
O O9 0.501746 0.998670 0.247080
O O10 0.719359 0.991433 0.925288
O O11 0.860063 0.750000 0.730670
O O12 0.839094 0.987279 0.679318
O O13 0.992423 0.007571 0.603526
O O14 0.149419 0.250000 0.409465
O O15 0.261186 0.991804 0.320708
O O16 0.580198 0.250000 0.851009
O O17 0.500000 0.000000 0.000000
O O18 0.437490 0.250000 0.382492
O O19 0.517118 0.493223 0.355209
O O20 0.578596 0.250000 0.351351
O O21 0.500000 0.000000 0.500000
#
# Coordination Sequence:
#
# PCOD9158860 Si02
#       8
#     4   4   4   4   4   4   4   4
#     4   9  17  29  50  76 100 131 170 214 262 308
#     4   9  17  31  49  73 105 135 166 212 262 308
#     4  10  22  39  56  77 110 147 182 220 268 326
#     4   9  18  35  54  78 111 144 179 222 270 321
#     4  10  19  33  55  85 112 139 179 225 274 325
#     4  11  21  36  57  83 111 142 182 231 275 323
#     4  10  21  35  51  74 107 143 177 217 266 319
#     4  10  19  32  51  77 105 133 173 220 262 311
#
# _framework density 17.757770000000001
#
# number of rings (size 3 to 8) (size 9 to 14) (size 15 to 20)
#    0.000    2.250    2.500    0.750    0.000    3.000 
#    0.000    1.250    0.000    1.500    0.000    0.000 
#    0.000    0.000    0.000    0.000    0.000    0.000 
#
# Total GULP energy -178500.428812 kJ/mol
# GULP energy per Si atom -5578.138400 kJ/mol
# Density = 1.771735 g / cm^3
# Si number density = 17.757770 Si / 1000 Ang^3
#
#
#
# Elastic Constant Matrix: (Units=GPa)
#
#
# Indices 1 2 3 4 5 6 
#
# 1 120.3647 20.3948 95.8971 0.0000 -7.9435 0.0000
# 2 20.3948 10.2812 25.8181 0.0000 -4.6584 0.0000
# 3 95.8971 25.8181 187.6290 0.0000 -12.6813 0.0000
# 4 0.0000 0.0000 0.0000 28.3062 0.0000 2.1457
# 5 -7.9435 -4.6584 -12.6813 0.0000 30.2305 0.0000
# 6 0.0000 0.0000 0.0000 2.1457 0.0000 22.7772
#
#
#
# Elastic Compliance Matrix: (Units=1/GPa)
#
#
# Indices 1 2 3 4 5 6 
#
# 1 0.015735 -0.017237 -0.005733 0.000000 -0.000926 0.000000
# 2 -0.017237 0.174170 -0.014047 0.000000 0.016417 0.000000
# 3 -0.005733 -0.014047 0.010235 0.000000 0.000622 0.000000
# 4 0.000000 0.000000 0.000000 0.035582 0.000000 -0.003352
# 5 -0.000926 0.016417 0.000622 0.000000 0.035627 0.000000
# 6 0.000000 0.000000 0.000000 -0.003352 0.000000 0.044219
#
#
# Mechanical properties :
#
#
# Convention : Reuss Voigt Hill
#
# Bulk Modulus (GPa) = 7.92978 66.94387 37.43682
# Shear Modulus (GPa) = 11.58380 28.00712 19.79546
#
# Velocity S-wave (km/s) = 2.55683 3.97568 3.34241
# Velocity P-wave (km/s) = 3.63204 7.67169 6.00194
#
# Compressibility (1/GPa) = 0.12610688
#
# Stress axis : x y z
#
# Youngs Moduli (GPa) = 63.55172 5.74151 97.70605
#
# Poissons Ratio (x) = 0.09896 0.56016
# Poissons Ratio (y) = 1.09542 1.37247
# Poissons Ratio (z) = 0.36435 0.08065
#
# Static dielectric constant tensor:
#      x y z
#    x 1.588000 0.000000 -0.033180 
#    y 0.000000 1.606100 0.000000 
#    z -0.033180 0.000000 1.613130 
# 
# From -- ./inp_files/67014.got.cif
#   From: 2010.05.17/outbox.cif.g08.bks.cpg/sg11_34_cif.got.tgz:67014.got - 2010.06.03 12:22:45.
