data_PCOD9158043
_publ_section_title
;
Structure prediction by ZEFSAII (Michael W. Deem and Ramdas Pophale) SiO2 
 PCOD9158043
Probable space group: P 21/M
;
_chemical_formula_sum "Si O2"
_cell_formula_units_Z 24
_cell_length_a 24.306522
_cell_length_b 8.952164
_cell_length_c 14.024151
_cell_angle_alpha 90.000000
_cell_angle_beta 30.000163
_cell_angle_gamma 90.000000
_cell_volume 1525.806897
_symmetry_space_group_name_H-M "P 21/M"
_symmetry_group_IT_number 11
_symmetry_cell_setting 'monoclinic'
loop_
_space_group_symop_operation_xyz
x,y,z
-x,1/2+y,-z
-x,-y,-z
x,1/2-y,z
loop_
_atom_site_type_symbol
_atom_site_label
_atom_site_fract_x
_atom_site_fract_y
_atom_site_fract_z
Si Si1 0.378252 0.428817 0.582081
Si Si2 0.829052 0.928242 0.788706
Si Si3 0.959463 0.571689 0.211537
Si Si4 0.630462 0.428311 0.198540
Si Si5 0.838586 0.571182 0.201076
Si Si6 0.946806 0.428241 0.435439
O O1 0.374141 0.250000 0.606301
O O2 0.503227 0.464794 0.364956
O O3 0.352799 0.512049 0.719080
O O4 0.285143 0.464891 0.644572
O O5 0.821069 0.750000 0.791652
O O6 0.930338 0.961657 0.708990
O O7 0.863651 0.999998 0.636350
O O8 0.718069 0.995308 0.998175
O O9 0.963750 0.750000 0.216607
O O10 0.871415 0.535207 0.260396
O O11 0.934305 0.495306 0.349455
O O12 0.075323 0.512048 0.996563
O O13 0.644106 0.250000 0.175539
O O14 0.854583 0.750000 0.164968
O O15 0.933784 0.250000 0.453500
#
# Coordination Sequence:
#
# PCOD9158043 Si02
#       6
#     4   4   4   4   4   4
#     4   9  18  32  48  67  94 127 158 188 226 272
#     4  10  20  33  49  69  94 123 153 187 229 276
#     4  10  19  30  47  71  96 122 154 192 231 271
#     4  10  19  30  47  71  96 122 154 192 231 271
#     4   9  18  32  48  67  94 127 158 188 226 272
#     4  10  20  33  49  69  94 123 153 187 229 276
#
# _framework density 15.729381999999999
#
# number of rings (size 3 to 8) (size 9 to 14) (size 15 to 20)
#    0.000    2.333    0.000    3.000    0.000    8.000 
#    0.000    0.000    0.000    1.000    0.000    0.000 
#    0.000    0.000    0.000    0.000    0.000    0.000 
#
# Total GULP energy -133896.062693 kJ/mol
# GULP energy per Si atom -5579.002612 kJ/mol
# Density = 1.569358 g / cm^3
# Si number density = 15.729382 Si / 1000 Ang^3
#
#
#
# Elastic Constant Matrix: (Units=GPa)
#
#
# Indices 1 2 3 4 5 6 
#
# 1 118.8475 53.6625 87.0572 0.0000 2.7466 0.0000
# 2 53.6625 50.8203 63.5075 0.0000 5.0605 0.0000
# 3 87.0572 63.5075 141.9991 0.0000 9.1424 0.0000
# 4 0.0000 0.0000 0.0000 32.3958 0.0000 4.3359
# 5 2.7466 5.0605 9.1424 0.0000 21.8675 0.0000
# 6 0.0000 0.0000 0.0000 4.3359 0.0000 23.9679
#
#
#
# Elastic Compliance Matrix: (Units=1/GPa)
#
#
# Indices 1 2 3 4 5 6 
#
# 1 0.018108 -0.012026 -0.005916 0.000000 0.002982 0.000000
# 2 -0.012026 0.052683 -0.015930 0.000000 -0.004021 0.000000
# 3 -0.005916 -0.015930 0.017993 0.000000 -0.003093 0.000000
# 4 0.000000 0.000000 0.000000 0.031634 0.000000 -0.005723
# 5 0.002982 -0.004021 -0.003093 0.000000 0.047579 0.000000
# 6 0.000000 0.000000 0.000000 -0.005723 0.000000 0.042758
#
#
# Mechanical properties :
#
#
# Convention : Reuss Voigt Hill
#
# Bulk Modulus (GPa) = 47.52570 80.01348 63.76959
# Shear Modulus (GPa) = 17.51241 22.80890 20.16066
#
# Velocity S-wave (km/s) = 3.34032 3.81213 3.58399
# Velocity P-wave (km/s) = 6.71991 8.38783 7.59976
#
# Compressibility (1/GPa) = 0.02104125
#
# Stress axis : x y z
#
# Youngs Moduli (GPa) = 55.22344 18.98141 55.57777
#
# Poissons Ratio (x) = 0.22826 0.32877
# Poissons Ratio (y) = 0.66409 0.88537
# Poissons Ratio (z) = 0.32668 0.30238
#
# Static dielectric constant tensor:
#      x y z
#    x 1.522730 0.000000 -0.014840 
#    y 0.000000 1.525460 0.000000 
#    z -0.014840 0.000000 1.493880 
# 
# From -- ./inp_files/42657.got.cif
#   From: 2010.05.17/outbox.cif.g08.bks.cpg/sg11_22_cif.got.tgz:42657.got - 2010.06.03 12:22:45.
