data_PCOD9158196
_publ_section_title
;
Structure prediction by ZEFSAII (Michael W. Deem and Ramdas Pophale) SiO2 
 PCOD9158196
Probable space group: P 21/M
;
_chemical_formula_sum "Si O2"
_cell_formula_units_Z 30
_cell_length_a 23.496440
_cell_length_b 7.624318
_cell_length_c 14.385632
_cell_angle_alpha 90.000000
_cell_angle_beta 36.868209
_cell_angle_gamma 90.000000
_cell_volume 1546.201884
_symmetry_space_group_name_H-M "P 21/M"
_symmetry_group_IT_number 11
_symmetry_cell_setting 'monoclinic'
loop_
_space_group_symop_operation_xyz
x,y,z
-x,1/2+y,-z
-x,-y,-z
x,1/2-y,z
loop_
_atom_site_type_symbol
_atom_site_label
_atom_site_fract_x
_atom_site_fract_y
_atom_site_fract_z
Si Si1 0.291501 0.039348 0.444622
Si Si2 0.042586 0.453300 0.300462
Si Si3 0.300134 0.048239 0.075696
Si Si4 0.140745 0.958043 0.785142
Si Si5 0.962566 0.954271 0.900744
Si Si6 0.174460 0.038703 0.419514
Si Si7 0.502706 0.540204 0.886377
Si Si8 0.821505 0.250000 0.826687
O O1 0.294376 0.250000 0.433008
O O2 0.222446 0.975437 0.452289
O O3 0.397757 0.975824 0.286622
O O4 0.241063 0.995011 0.607167
O O5 0.071806 0.250000 0.274958
O O6 0.061815 0.522324 0.169177
O O7 0.097230 0.593585 0.290588
O O8 0.929448 0.462735 0.457773
O O9 0.278315 0.250000 0.081444
O O10 0.245176 0.996201 0.243146
O O11 0.260334 0.905859 0.056943
O O12 0.410868 0.034484 0.955223
O O13 0.127404 0.750000 0.808892
O O14 0.057274 0.030473 0.825861
O O15 0.119218 0.029162 0.915627
O O16 0.982780 0.750000 0.857409
O O17 0.165647 0.250000 0.434717
O O18 0.499023 0.750000 0.881773
O O19 0.500000 0.500000 0.000000
#
# Coordination Sequence:
#
# PCOD9158196 Si02
#       8
#     4   4   4   4   4   4   4   2
#     4  10  20  33  55  84 122 158 190 234 290 357
#     4  11  23  39  60  85 115 159 206 241 289 351
#     4  11  24  43  60  84 117 155 201 254 299 350
#     4  10  19  30  51  84 119 154 186 231 288 348
#     4   9  19  34  52  79 117 156 191 231 284 352
#     4  10  20  37  56  81 120 161 197 242 290 343
#     4  11  21  37  60  87 118 157 196 238 300 359
#     4  12  26  44  60  82 114 158 204 260 296 334
#
# _framework density 19.402380999999998
#
# number of rings (size 3 to 8) (size 9 to 14) (size 15 to 20)
#    0.000    1.600    4.000    1.200    1.867    2.133 
#    0.000    0.000    0.000    0.000    0.000    0.933 
#    0.000    0.000    0.000    0.000    0.000    0.000 
#
# Total GULP energy -167058.145420 kJ/mol
# GULP energy per Si atom -5568.604847 kJ/mol
# Density = 1.935822 g / cm^3
# Si number density = 19.402381 Si / 1000 Ang^3
#
#
#
# Elastic Constant Matrix: (Units=GPa)
#
#
# Indices 1 2 3 4 5 6 
#
# 1 48.0579 14.3553 38.0854 0.0000 -16.9780 0.0000
# 2 14.3553 82.6803 3.1324 0.0000 -7.0431 0.0000
# 3 38.0854 3.1324 128.4827 0.0000 -9.7858 0.0000
# 4 0.0000 0.0000 0.0000 39.2884 0.0000 -15.2718
# 5 -16.9780 -7.0431 -9.7858 0.0000 37.2185 0.0000
# 6 0.0000 0.0000 0.0000 -15.2718 0.0000 12.0305
#
#
#
# Elastic Compliance Matrix: (Units=1/GPa)
#
#
# Indices 1 2 3 4 5 6 
#
# 1 0.033444 -0.004441 -0.008885 0.000000 0.012079 0.000000
# 2 -0.004441 0.012885 0.001055 0.000000 0.000690 0.000000
# 3 -0.008885 0.001055 0.010304 0.000000 -0.001144 0.000000
# 4 0.000000 0.000000 0.000000 0.050246 0.000000 0.063784
# 5 0.012079 0.000690 -0.001144 0.000000 0.032208 0.000000
# 6 0.000000 0.000000 0.000000 0.063784 0.000000 0.164091
#
#
# Mechanical properties :
#
#
# Convention : Reuss Voigt Hill
#
# Bulk Modulus (GPa) = 31.16280 41.15190 36.15735
# Shear Modulus (GPa) = 14.77465 31.28399 23.02932
#
# Velocity S-wave (km/s) = 2.76250 4.01980 3.44893
# Velocity P-wave (km/s) = 5.12556 6.54223 5.87674
#
# Compressibility (1/GPa) = 0.03208954
#
# Stress axis : x y z
#
# Youngs Moduli (GPa) = 29.90102 77.61174 97.04908
#
# Poissons Ratio (x) = 0.34468 0.86230
# Poissons Ratio (y) = 0.13279 -0.10237
# Poissons Ratio (z) = 0.26568 -0.08187
#
# Static dielectric constant tensor:
#      x y z
#    x 1.736180 0.000000 0.011730 
#    y 0.000000 1.724870 0.000000 
#    z 0.011730 0.000000 1.687840 
# 
# From -- ./inp_files/55414.got.cif
#   From: 2010.05.17/outbox.cif.g08.bks.cpg/sg11_28_cif.got.tgz:55414.got - 2010.06.03 12:22:45.
