data_PCOD9158315
_publ_section_title
;
Structure prediction by ZEFSAII (Michael W. Deem and Ramdas Pophale) SiO2 
 PCOD9158315
Probable space group: P 21/M
;
_chemical_formula_sum "Si O2"
_cell_formula_units_Z 32
_cell_length_a 14.807796
_cell_length_b 18.282754
_cell_length_c 21.718343
_cell_angle_alpha 90.000000
_cell_angle_beta 160.636628
_cell_angle_gamma 90.000000
_cell_volume 1949.478025
_symmetry_space_group_name_H-M "P 21/M"
_symmetry_group_IT_number 11
_symmetry_cell_setting 'monoclinic'
loop_
_space_group_symop_operation_xyz
x,y,z
-x,1/2+y,-z
-x,-y,-z
x,1/2-y,z
loop_
_atom_site_type_symbol
_atom_site_label
_atom_site_fract_x
_atom_site_fract_y
_atom_site_fract_z
Si Si1 0.912146 0.048545 0.247370
Si Si2 0.246954 0.048540 0.582181
Si Si3 0.406247 0.169424 0.164886
Si Si4 0.815879 0.482285 0.695398
Si Si5 0.166052 0.482282 0.045570
Si Si6 0.333772 0.388930 0.875246
Si Si7 0.059219 0.330579 0.817857
Si Si8 0.000332 0.388926 0.541807
O O1 0.129690 0.068493 0.439847
O O2 0.782024 0.970312 0.183732
O O3 0.658900 0.103878 0.082386
O O4 0.049655 0.034026 0.270025
O O5 0.147180 0.103880 0.570659
O O6 0.568862 0.034027 0.789234
O O7 0.111130 0.970312 0.512846
O O8 0.341382 0.250000 0.148413
O O9 0.280901 0.101023 0.120891
O O10 0.729688 0.159442 0.367514
O O11 0.275457 0.164368 0.012732
O O12 0.500000 0.500000 0.500000
O O13 0.859148 0.398978 0.699139
O O14 0.978591 0.489373 0.864297
O O15 0.000000 0.500000 0.000000
O O16 0.219008 0.340561 0.856838
O O17 0.206899 0.366777 0.728451
O O18 0.930528 0.250000 0.737547
#
# Coordination Sequence:
#
# PCOD9158315 Si02
#       8
#     4   4   4   4   4   4   4   4
#     4   9  16  27  44  66  92 120 150 186 229 277
#     4   9  16  27  44  66  92 120 150 186 229 277
#     4   9  18  32  49  69  94 125 159 195 239 292
#     4  10  19  31  48  70  96 126 163 205 244 286
#     4  10  19  31  48  70  96 126 163 205 244 286
#     4   9  16  26  43  68  94 118 146 184 231 278
#     4   9  18  32  49  69  94 125 159 195 239 292
#     4   9  16  26  43  68  94 118 146 184 231 278
#
# _framework density 16.414650000000002
#
# number of rings (size 3 to 8) (size 9 to 14) (size 15 to 20)
#    0.000    2.750    0.000    2.250    0.000    7.500 
#    0.000    0.000    0.000    1.500    0.000    3.500 
#    0.000    0.000    0.000    0.000    0.000    0.000 
#
# Total GULP energy -178273.861594 kJ/mol
# GULP energy per Si atom -5571.058175 kJ/mol
# Density = 1.637729 g / cm^3
# Si number density = 16.414650 Si / 1000 Ang^3
#
#
#
# Elastic Constant Matrix: (Units=GPa)
#
#
# Indices 1 2 3 4 5 6 
#
# 1 132.2776 41.4438 61.2902 0.0000 3.9637 0.0000
# 2 41.4438 58.6381 39.7284 0.0000 2.1774 0.0000
# 3 61.2902 39.7284 118.1845 0.0000 13.8967 0.0000
# 4 0.0000 0.0000 0.0000 13.9347 0.0000 -1.4262
# 5 3.9637 2.1774 13.8967 0.0000 21.3367 0.0000
# 6 0.0000 0.0000 0.0000 -1.4262 0.0000 12.8136
#
#
#
# Elastic Compliance Matrix: (Units=1/GPa)
#
#
# Indices 1 2 3 4 5 6 
#
# 1 0.011028 -0.005010 -0.004174 0.000000 0.001181 0.000000
# 2 -0.005010 0.024515 -0.005910 0.000000 0.002278 0.000000
# 3 -0.004174 -0.005910 0.013483 0.000000 -0.007403 0.000000
# 4 0.000000 0.000000 0.000000 0.072590 0.000000 0.008080
# 5 0.001181 0.002278 -0.007403 0.000000 0.051237 0.000000
# 6 0.000000 0.000000 0.000000 0.008080 0.000000 0.078942
#
#
# Mechanical properties :
#
#
# Convention : Reuss Voigt Hill
#
# Bulk Modulus (GPa) = 53.08687 66.00277 59.54482
# Shear Modulus (GPa) = 17.34525 20.72618 19.03572
#
# Velocity S-wave (km/s) = 3.25421 3.55725 3.40910
# Velocity P-wave (km/s) = 6.82138 7.56102 7.20070
#
# Compressibility (1/GPa) = 0.01883705
#
# Stress axis : x y z
#
# Youngs Moduli (GPa) = 90.67672 40.79183 74.16694
#
# Poissons Ratio (x) = 0.20439 0.30956
# Poissons Ratio (y) = 0.45433 0.43834
# Poissons Ratio (z) = 0.37846 0.24109
#
# Static dielectric constant tensor:
#      x y z
#    x 1.532360 0.000000 -0.014490 
#    y 0.000000 1.568580 0.000000 
#    z -0.014490 0.000000 1.543730 
# 
# From -- ./inp_files/65874.got.cif
#   From: 2010.05.17/outbox.cif.g08.bks.cpg/sg11_33_cif.got.tgz:65874.got - 2010.06.03 12:22:45.
