data_PCOD9158182
_publ_section_title
;
Structure prediction by ZEFSAII (Michael W. Deem and Ramdas Pophale) SiO2 
 PCOD9158182
Probable space group: P 21/M
;
_chemical_formula_sum "Si O2"
_cell_formula_units_Z 32
_cell_length_a 20.987224
_cell_length_b 7.727533
_cell_length_c 14.822409
_cell_angle_alpha 90.000000
_cell_angle_beta 136.625290
_cell_angle_gamma 90.000000
_cell_volume 1650.911954
_symmetry_space_group_name_H-M "P 21/M"
_symmetry_group_IT_number 11
_symmetry_cell_setting 'monoclinic'
loop_
_space_group_symop_operation_xyz
x,y,z
-x,1/2+y,-z
-x,-y,-z
x,1/2-y,z
loop_
_atom_site_type_symbol
_atom_site_label
_atom_site_fract_x
_atom_site_fract_y
_atom_site_fract_z
Si Si1 0.031872 0.550409 0.857253
Si Si2 0.178886 0.045489 0.858575
Si Si3 0.182212 0.537819 0.143486
Si Si4 0.861017 0.547246 0.571614
Si Si5 0.332467 0.958966 0.147080
Si Si6 0.892198 0.542062 0.404265
Si Si7 0.731349 0.047563 0.583636
Si Si8 0.476248 0.456533 0.578906
O O1 0.011508 0.750000 0.859382
O O2 0.107818 0.544474 0.854780
O O3 0.939759 0.469865 0.719248
O O4 0.086411 0.475109 0.999627
O O5 0.157070 0.250000 0.839168
O O6 0.162925 0.979977 0.740828
O O7 0.280951 0.018625 0.003945
O O8 0.180463 0.750000 0.142303
O O9 0.265902 0.487368 0.162005
O O10 0.208356 0.477194 0.269979
O O11 0.885807 0.750000 0.587704
O O12 0.863116 0.474022 0.472804
O O13 0.764710 0.533967 0.524825
O O14 0.333126 0.750000 0.147937
O O15 0.436685 0.020157 0.272117
O O16 0.880784 0.750000 0.393675
O O17 0.000000 0.500000 0.500000
O O18 0.751044 0.250000 0.596812
O O19 0.623639 0.026268 0.495996
O O20 0.500000 0.500000 0.500000
O O21 0.471807 0.250000 0.582447
#
# Coordination Sequence:
#
# PCOD9158182 Si02
#       8
#     4   4   4   4   4   4   4   4
#     4   9  17  32  52  71 102 146 181 210 255 318
#     4  10  19  30  50  82 110 132 171 226 270 309
#     4   8  15  30  49  72 103 138 174 209 252 306
#     4  10  21  36  52  74 105 146 185 219 264 321
#     4   9  18  34  54  76 106 141 172 210 264 321
#     4  10  20  34  54  79 108 139 178 224 271 315
#     4  11  22  36  52  76 110 144 179 225 268 313
#     4  11  21  36  58  82 108 140 179 221 265 317
#
# _framework density 19.383227000000002
#
# number of rings (size 3 to 8) (size 9 to 14) (size 15 to 20)
#    0.000    2.250    2.500    1.875    0.000    3.000 
#    0.000    0.625    0.000    0.750    0.000    0.000 
#    0.000    0.000    0.000    0.000    0.000    0.000 
#
# Total GULP energy -178551.953361 kJ/mol
# GULP energy per Si atom -5579.748543 kJ/mol
# Density = 1.933911 g / cm^3
# Si number density = 19.383227 Si / 1000 Ang^3
#
#
#
# Elastic Constant Matrix: (Units=GPa)
#
#
# Indices 1 2 3 4 5 6 
#
# 1 100.5190 -10.5340 58.2932 0.0000 -13.6789 0.0000
# 2 -10.5340 32.7920 -3.4397 0.0000 -2.9040 0.0000
# 3 58.2932 -3.4397 131.2177 0.0000 -12.7706 0.0000
# 4 0.0000 0.0000 0.0000 16.1035 0.0000 2.7226
# 5 -13.6789 -2.9040 -12.7706 0.0000 22.5693 0.0000
# 6 0.0000 0.0000 0.0000 2.7226 0.0000 16.4780
#
#
#
# Elastic Compliance Matrix: (Units=1/GPa)
#
#
# Indices 1 2 3 4 5 6 
#
# 1 0.014626 0.004641 -0.005773 0.000000 0.006195 0.000000
# 2 0.004641 0.032519 -0.000559 0.000000 0.006681 0.000000
# 3 -0.005773 -0.000559 0.010396 0.000000 0.002312 0.000000
# 4 0.000000 0.000000 0.000000 0.063883 0.000000 -0.010555
# 5 0.006195 0.006681 0.002312 0.000000 0.050230 0.000000
# 6 0.000000 0.000000 0.000000 -0.010555 0.000000 0.062431
#
#
# Mechanical properties :
#
#
# Convention : Reuss Voigt Hill
#
# Bulk Modulus (GPa) = 18.46406 39.24084 28.85245
# Shear Modulus (GPa) = 19.56800 25.71077 22.63939
#
# Velocity S-wave (km/s) = 3.18076 3.64599 3.42129
# Velocity P-wave (km/s) = 4.79960 6.16547 5.52490
#
# Compressibility (1/GPa) = 0.05415926
#
# Stress axis : x y z
#
# Youngs Moduli (GPa) = 68.37329 30.75106 96.19272
#
# Poissons Ratio (x) = -0.14273 0.55530
# Poissons Ratio (y) = -0.31735 0.05380
# Poissons Ratio (z) = 0.39471 0.01720
#
# Static dielectric constant tensor:
#      x y z
#    x 1.654540 0.000000 -0.011000 
#    y 0.000000 1.738080 0.000000 
#    z -0.011000 0.000000 1.720820 
# 
# From -- ./inp_files/54342.got.cif
#   From: 2010.05.17/outbox.cif.g08.bks.cpg/sg11_28_cif.got.tgz:54342.got - 2010.06.03 12:22:45.
