data_PCOD9158545
_publ_section_title
;
Structure prediction by ZEFSAII (Michael W. Deem and Ramdas Pophale) SiO2 
 PCOD9158545
Probable space group: P 21/M
;
_chemical_formula_sum "Si O2"
_cell_formula_units_Z 32
_cell_length_a 28.606906
_cell_length_b 8.636878
_cell_length_c 16.189104
_cell_angle_alpha 90.000000
_cell_angle_beta 27.695933
_cell_angle_gamma 90.000000
_cell_volume 1859.076103
_symmetry_space_group_name_H-M "P 21/M"
_symmetry_group_IT_number 11
_symmetry_cell_setting 'monoclinic'
loop_
_space_group_symop_operation_xyz
x,y,z
-x,1/2+y,-z
-x,-y,-z
x,1/2-y,z
loop_
_atom_site_type_symbol
_atom_site_label
_atom_site_fract_x
_atom_site_fract_y
_atom_site_fract_z
Si Si1 0.071186 0.564233 0.204379
Si Si2 0.173960 0.434514 0.207009
Si Si3 0.860771 0.064228 0.557380
Si Si4 0.554714 0.563036 0.791087
Si Si5 0.587594 0.936551 0.553107
Si Si6 0.627681 0.062584 0.181474
Si Si7 0.273875 0.935884 0.800039
Si Si8 0.347725 0.563294 0.199155
O O1 0.066087 0.750000 0.213860
O O2 0.106977 0.506265 0.238485
O O3 0.962739 0.494165 0.355623
O O4 0.160585 0.517438 0.001947
O O5 0.166249 0.250000 0.216523
O O6 0.142205 0.497004 0.345581
O O7 0.287622 0.488928 0.009384
O O8 0.861112 0.250000 0.561411
O O9 0.759474 0.013399 0.668833
O O10 0.557418 0.750000 0.787845
O O11 0.583886 0.510218 0.653844
O O12 0.626203 0.500845 0.751393
O O13 0.440756 0.516151 0.994253
O O14 0.588909 0.750000 0.551301
O O15 0.483575 0.984691 0.671259
O O16 0.680403 0.995489 0.354269
O O17 0.635890 0.250000 0.161945
O O18 0.656748 0.018931 0.229722
O O19 0.276037 0.750000 0.791571
O O20 0.347941 0.750000 0.202251
#
# Coordination Sequence:
#
# PCOD9158545 Si02
#       8
#     4   4   4   4   4   4   4   4
#     4  10  21  37  52  70 100 135 170 209 251 290
#     4  11  21  32  49  75 104 135 170 205 244 293
#     4  11  21  34  53  75 100 131 167 206 250 299
#     4   9  18  33  52  76 104 131 159 195 244 297
#     4  10  19  31  51  75 101 134 168 205 249 298
#     4   9  18  33  49  70 104 139 168 204 250 292
#     4   9  19  33  49  70  99 134 169 208 248 289
#     4   9  19  35  54  75 101 131 160 196 245 297
#
# _framework density 17.21285
#
# number of rings (size 3 to 8) (size 9 to 14) (size 15 to 20)
#    0.000    2.250    0.000    4.125    0.000    6.500 
#    0.000    2.500    0.000    0.750    0.000    0.000 
#    0.000    0.000    0.000    0.000    0.000    0.000 
#
# Total GULP energy -178624.659879 kJ/mol
# GULP energy per Si atom -5582.020621 kJ/mol
# Density = 1.717367 g / cm^3
# Si number density = 17.212850 Si / 1000 Ang^3
#
#
#
# Elastic Constant Matrix: (Units=GPa)
#
#
# Indices 1 2 3 4 5 6 
#
# 1 74.8878 15.1435 80.9255 0.0000 3.4713 0.0000
# 2 15.1435 23.3610 22.6266 0.0000 0.5340 0.0000
# 3 80.9255 22.6266 133.0538 0.0000 5.8404 0.0000
# 4 0.0000 0.0000 0.0000 30.4605 0.0000 1.6508
# 5 3.4713 0.5340 5.8404 0.0000 31.1489 0.0000
# 6 0.0000 0.0000 0.0000 1.6508 0.0000 23.5296
#
#
#
# Elastic Compliance Matrix: (Units=1/GPa)
#
#
# Indices 1 2 3 4 5 6 
#
# 1 0.039109 -0.002768 -0.023319 0.000000 0.000061 0.000000
# 2 -0.002768 0.051461 -0.007101 0.000000 0.000758 0.000000
# 3 -0.023319 -0.007101 0.022976 0.000000 -0.001588 0.000000
# 4 0.000000 0.000000 0.000000 0.032955 0.000000 -0.002312
# 5 0.000061 0.000758 -0.001588 0.000000 0.032382 0.000000
# 6 0.000000 0.000000 0.000000 -0.002312 0.000000 0.042662
#
#
# Mechanical properties :
#
#
# Convention : Reuss Voigt Hill
#
# Bulk Modulus (GPa) = 21.19958 52.07710 36.63834
# Shear Modulus (GPa) = 16.46672 24.53492 20.50082
#
# Velocity S-wave (km/s) = 3.09634 3.77952 3.45486
# Velocity P-wave (km/s) = 5.01258 7.02615 6.10298
#
# Compressibility (1/GPa) = 0.04717075
#
# Stress axis : x y z
#
# Youngs Moduli (GPa) = 25.56968 19.43216 43.52393
#
# Poissons Ratio (x) = 0.05378 1.01492
# Poissons Ratio (y) = 0.07077 0.30907
# Poissons Ratio (z) = 0.59625 0.13799
#
# Static dielectric constant tensor:
#      x y z
#    x 1.563810 0.000000 -0.008820 
#    y 0.000000 1.589570 0.000000 
#    z -0.008820 0.000000 1.588160 
# 
# From -- ./inp_files/51610.got.cif
#   From: 2010.05.17/outbox.cif.g08.bks.cpg/sg11_26_cif.got.tgz:51610.got - 2010.06.03 12:22:45.
