data_PCOD9158026
_publ_section_title
;
Structure prediction by ZEFSAII (Michael W. Deem and Ramdas Pophale) SiO2 
 PCOD9158026
Probable space group: P 21/M
;
_chemical_formula_sum "Si O2"
_cell_formula_units_Z 32
_cell_length_a 33.788210
_cell_length_b 8.644663
_cell_length_c 22.033412
_cell_angle_alpha 90.000000
_cell_angle_beta 161.550160
_cell_angle_gamma 90.000000
_cell_volume 2036.730095
_symmetry_space_group_name_H-M "P 21/M"
_symmetry_group_IT_number 11
_symmetry_cell_setting 'monoclinic'
loop_
_space_group_symop_operation_xyz
x,y,z
-x,1/2+y,-z
-x,-y,-z
x,1/2-y,z
loop_
_atom_site_type_symbol
_atom_site_label
_atom_site_fract_x
_atom_site_fract_y
_atom_site_fract_z
Si Si1 0.889614 0.563946 0.381762
Si Si2 0.998244 0.436337 0.902424
Si Si3 0.386039 0.564103 0.373796
Si Si4 0.944469 0.064159 0.270885
Si Si5 0.722392 0.562480 0.032945
Si Si6 0.558651 0.063513 0.407107
Si Si7 0.801055 0.565306 0.703085
Si Si8 0.115424 0.435646 0.946357
O O1 0.893299 0.750000 0.386709
O O2 0.765308 0.518786 0.163943
O O3 0.000000 0.500000 0.500000
O O4 0.931951 0.515953 0.510721
O O5 0.990716 0.250000 0.893453
O O6 0.034023 0.483939 0.886533
O O7 0.872005 0.504890 0.746771
O O8 0.110659 0.484226 0.111561
O O9 0.500000 0.500000 0.500000
O O10 0.385609 0.750000 0.370512
O O11 0.406096 0.515932 0.473022
O O12 0.254907 0.500466 0.158705
O O13 0.940074 0.250000 0.261351
O O14 0.823618 0.006332 0.133312
O O15 0.938719 0.995214 0.195656
O O16 0.728294 0.750000 0.036243
O O17 0.581992 0.512932 0.813339
O O18 0.561112 0.250000 0.408541
O O19 0.663848 0.999920 0.515222
O O20 0.797427 0.750000 0.697131
O O21 0.121811 0.250000 0.954904
#
# Coordination Sequence:
#
# PCOD9158026 Si02
#       8
#     4   4   4   4   4   4   4   4
#     4   8  15  28  46  67  93 122 157 196 237 279
#     4   9  19  34  50  68  90 119 155 196 238 281
#     4  11  22  33  46  66  96 132 164 195 228 270
#     4  10  19  30  46  71  98 126 159 200 241 279
#     4   9  17  31  49  69  95 130 163 194 232 281
#     4  10  20  32  47  68  94 125 159 191 230 278
#     4  10  19  32  51  71  91 118 152 195 240 280
#     4  11  21  34  49  67  93 127 163 196 233 280
#
# _framework density 15.711459
#
# number of rings (size 3 to 8) (size 9 to 14) (size 15 to 20)
#    0.000    2.250    1.250    2.250    0.000    4.000 
#    0.000    0.000    0.000    0.000    0.000    0.875 
#    0.000    0.000    0.000    0.000    0.000    0.000 
#
# Total GULP energy -178399.458272 kJ/mol
# GULP energy per Si atom -5574.983071 kJ/mol
# Density = 1.567570 g / cm^3
# Si number density = 15.711459 Si / 1000 Ang^3
#
#
#
# Elastic Constant Matrix: (Units=GPa)
#
#
# Indices 1 2 3 4 5 6 
#
# 1 126.7630 27.3852 54.8996 0.0000 -7.2582 0.0000
# 2 27.3852 20.5873 14.4084 0.0000 -2.7215 0.0000
# 3 54.8996 14.4084 41.1463 0.0000 -12.5506 0.0000
# 4 0.0000 0.0000 0.0000 16.5442 0.0000 5.3224
# 5 -7.2582 -2.7215 -12.5506 0.0000 29.9939 0.0000
# 6 0.0000 0.0000 0.0000 5.3224 0.0000 21.0676
#
#
#
# Elastic Compliance Matrix: (Units=1/GPa)
#
#
# Indices 1 2 3 4 5 6 
#
# 1 0.021563 -0.010553 -0.027254 0.000000 -0.007144 0.000000
# 2 -0.010553 0.069954 -0.010613 0.000000 -0.000647 0.000000
# 3 -0.027254 -0.010613 0.071161 0.000000 0.022218 0.000000
# 4 0.000000 0.000000 0.000000 0.065791 0.000000 -0.016621
# 5 -0.007144 -0.000647 0.022218 0.000000 0.040850 0.000000
# 6 0.000000 0.000000 0.000000 -0.016621 0.000000 0.051665
#
#
# Mechanical properties :
#
#
# Convention : Reuss Voigt Hill
#
# Bulk Modulus (GPa) = 15.18898 42.43144 28.81021
# Shear Modulus (GPa) = 11.36959 19.64136 15.50547
#
# Velocity S-wave (km/s) = 2.69299 3.53955 3.14489
# Velocity P-wave (km/s) = 4.39978 6.61588 5.61818
#
# Compressibility (1/GPa) = 0.06583720
#
# Stress axis : x y z
#
# Youngs Moduli (GPa) = 46.37589 14.29519 14.05269
#
# Poissons Ratio (x) = 0.15086 0.38299
# Poissons Ratio (y) = 0.48941 0.14914
# Poissons Ratio (z) = 1.26393 0.15171
#
# Static dielectric constant tensor:
#      x y z
#    x 1.521100 0.000000 -0.029020 
#    y 0.000000 1.526710 0.000000 
#    z -0.029020 0.000000 1.521020 
# 
# From -- ./inp_files/51180.got.cif
#   From: 2010.05.17/outbox.cif.g08.bks.cpg/sg11_26_cif.got.tgz:51180.got - 2010.06.03 12:22:45.
