data_PCOD9158212
_publ_section_title
;
Structure prediction by ZEFSAII (Michael W. Deem and Ramdas Pophale) SiO2 
 PCOD9158212
Probable space group: P 21/M
;
_chemical_formula_sum "Si O2"
_cell_formula_units_Z 26
_cell_length_a 9.711602
_cell_length_b 7.446637
_cell_length_c 19.440876
_cell_angle_alpha 90.000000
_cell_angle_beta 44.336905
_cell_angle_gamma 90.000000
_cell_volume 982.578136
_symmetry_space_group_name_H-M "P 21/M"
_symmetry_group_IT_number 11
_symmetry_cell_setting 'monoclinic'
loop_
_space_group_symop_operation_xyz
x,y,z
-x,1/2+y,-z
-x,-y,-z
x,1/2-y,z
loop_
_atom_site_type_symbol
_atom_site_label
_atom_site_fract_x
_atom_site_fract_y
_atom_site_fract_z
Si Si1 0.645527 0.250000 0.906885
Si Si2 0.079530 0.457444 0.652240
Si Si3 0.261686 0.033085 0.725553
Si Si4 0.756279 0.549669 0.967789
Si Si5 0.753858 0.960831 0.118974
Si Si6 0.710178 0.965200 0.710993
Si Si7 0.273002 0.037333 0.445486
O O1 0.776352 0.406004 0.900751
O O2 0.479951 0.095290 0.942360
O O3 0.145368 0.250000 0.630936
O O4 0.151197 0.537327 0.697784
O O5 0.173082 0.539499 0.549600
O O6 0.846258 0.455641 0.721968
O O7 0.248658 0.250000 0.733672
O O8 0.190447 0.966133 0.825688
O O9 0.492150 0.987920 0.634044
O O10 0.834638 0.750000 0.925006
O O11 0.818230 0.472229 0.020738
O O12 0.794493 0.750000 0.101546
O O13 0.516538 0.983932 0.205048
O O14 0.724650 0.750000 0.709625
O O15 0.786465 0.031605 0.608891
O O16 0.232553 0.250000 0.458341
#
# Coordination Sequence:
#
# PCOD9158212 Si02
#       7
#     2   4   4   4   4   4   4
#     4   8  14  24  42  70  96 120 148 180 216 270
#     4  10  19  31  45  60  85 116 150 191 228 270
#     4   9  18  30  45  65  85 113 151 183 227 276
#     4   8  14  25  42  66  98 124 145 178 226 264
#     4   9  17  30  46  64  92 121 143 178 223 270
#     4  10  20  30  42  63  86 115 153 187 226 270
#     4   9  18  31  45  62  83 110 148 194 237 269
#
# _framework density 26.460996999999999
#
# number of rings (size 3 to 8) (size 9 to 14) (size 15 to 20)
#    0.462    2.462    0.000    1.385    1.077    1.846 
#    0.000    0.000    0.000    0.000    0.000    0.000 
#    0.000    7.385    0.000    0.462    0.000    0.000 
#
# Total GULP energy -144905.288357 kJ/mol
# GULP energy per Si atom -5573.280321 kJ/mol
# Density = 2.640077 g / cm^3
# Si number density = 26.460997 Si / 1000 Ang^3
#
#
#
# Elastic Constant Matrix: (Units=GPa)
#
#
# Indices 1 2 3 4 5 6 
#
# 1 162.0104 17.7570 59.2247 0.0000 46.2015 0.0000
# 2 17.7570 118.2174 5.9269 0.0000 13.6447 0.0000
# 3 59.2247 5.9269 129.6155 0.0000 13.9878 0.0000
# 4 0.0000 0.0000 0.0000 -40.8836 0.0000 -21.8153
# 5 46.2015 13.6447 13.9878 0.0000 56.5620 0.0000
# 6 0.0000 0.0000 0.0000 -21.8153 0.0000 27.0464
#
#
#
# Elastic Compliance Matrix: (Units=1/GPa)
#
#
# Indices 1 2 3 4 5 6 
#
# 1 0.009444 -0.000464 -0.003569 0.000000 -0.006720 0.000000
# 2 -0.000464 0.008728 -0.000001 0.000000 -0.001726 0.000000
# 3 -0.003569 -0.000001 0.009279 0.000000 0.000621 0.000000
# 4 0.000000 0.000000 0.000000 -0.017100 0.000000 -0.013793
# 5 -0.006720 -0.001726 0.000621 0.000000 0.023432 0.000000
# 6 0.000000 0.000000 0.000000 -0.013793 0.000000 0.025848
#
#
# Mechanical properties :
#
#
# Convention : Reuss Voigt Hill
#
# Bulk Modulus (GPa) = 51.58984 63.96228 57.77606
# Shear Modulus (GPa) = 67.42172 30.34061 48.88116
#
# Velocity S-wave (km/s) = 5.05321 3.38985 4.30268
# Velocity P-wave (km/s) = 7.32021 6.28857 6.82392
#
# Compressibility (1/GPa) = 0.01938366
#
# Stress axis : x y z
#
# Youngs Moduli (GPa) = 105.88386 114.57406 107.77117
#
# Poissons Ratio (x) = 0.05317 0.38463
# Poissons Ratio (y) = 0.04914 0.00008
# Poissons Ratio (z) = 0.37789 0.00009
#
# Static dielectric constant tensor:
#      x y z
#    x 2.123290 0.000000 -0.022800 
#    y 0.000000 1.937600 0.000000 
#    z -0.022800 0.000000 2.188150 
# 
# From -- ./inp_files/23978.got.cif
#   From: 2010.05.17/outbox.cif.g08.bks.cpg/sg11_12_cif.got.tgz:23978.got - 2010.06.03 12:22:45.
