data_PCOD9158788
_publ_section_title
;
Structure prediction by ZEFSAII (Michael W. Deem and Ramdas Pophale) SiO2 
 PCOD9158788
Probable space group: P 21/M
;
_chemical_formula_sum "Si O2"
_cell_formula_units_Z 32
_cell_length_a 16.677077
_cell_length_b 21.083211
_cell_length_c 16.676411
_cell_angle_alpha 90.000000
_cell_angle_beta 161.779150
_cell_angle_gamma 90.000000
_cell_volume 1833.412581
_symmetry_space_group_name_H-M "P 21/M"
_symmetry_group_IT_number 11
_symmetry_cell_setting 'monoclinic'
loop_
_space_group_symop_operation_xyz
x,y,z
-x,1/2+y,-z
-x,-y,-z
x,1/2-y,z
loop_
_atom_site_type_symbol
_atom_site_label
_atom_site_fract_x
_atom_site_fract_y
_atom_site_fract_z
Si Si1 0.216743 0.172831 0.785158
Si Si2 0.943450 0.101705 0.057164
Si Si3 0.424941 0.624137 0.574899
Si Si4 0.667614 0.326841 0.334387
Si Si5 0.971029 0.825976 0.028694
Si Si6 0.141215 0.826614 0.857947
Si Si7 0.309612 0.172836 0.691282
Si Si8 0.452663 0.482259 0.547836
O O1 0.217747 0.250000 0.784054
O O2 0.443391 0.153702 0.060293
O O3 0.263044 0.151153 0.738087
O O4 0.941919 0.153685 0.559012
O O5 0.984576 0.143686 0.016542
O O6 0.903393 0.144478 0.097275
O O7 0.193528 0.058232 0.306381
O O8 0.694078 0.058302 0.806829
O O9 0.378030 0.646308 0.620828
O O10 0.697183 0.650596 0.802094
O O11 0.428969 0.548260 0.571976
O O12 0.197704 0.650410 0.302478
O O13 0.664859 0.250000 0.337191
O O14 0.973533 0.750000 0.027030
O O15 0.138423 0.750000 0.860690
O O16 0.916938 0.846347 0.583786
O O17 0.415350 0.846336 0.082202
O O18 0.308516 0.250000 0.692317
O O19 0.500000 0.500000 0.500000
#
# Coordination Sequence:
#
# PCOD9158788 Si02
#       8
#     4   4   4   4   4   4   4   4
#     4   9  17  30  51  78 111 146 175 212 270 339
#     4  12  23  39  59  82 109 148 189 233 280 317
#     4  12  24  38  57  81 111 151 189 232 276 318
#     4  10  19  32  50  79 112 138 176 224 272 329
#     4  12  23  37  57  82 114 146 179 220 287 346
#     4  10  20  34  54  85 118 142 178 230 281 339
#     4   9  17  31  52  80 114 147 175 213 275 342
#     4  12  23  42  60  78 105 150 202 242 264 316
#
# _framework density 17.453792
#
# number of rings (size 3 to 8) (size 9 to 14) (size 15 to 20)
#    0.000    1.250    2.500    4.875    0.000    4.000 
#    0.000    3.750    0.000    0.000    0.000   17.500 
#    0.000    0.000    0.000    0.000    0.000    0.000 
#
# Total GULP energy -178804.059521 kJ/mol
# GULP energy per Si atom -5587.626860 kJ/mol
# Density = 1.741407 g / cm^3
# Si number density = 17.453792 Si / 1000 Ang^3
#
#
#
# Elastic Constant Matrix: (Units=GPa)
#
#
# Indices 1 2 3 4 5 6 
#
# 1 203.1204 53.9474 114.6735 0.0000 -1.3315 0.0000
# 2 53.9474 70.4723 57.8241 0.0000 0.8771 0.0000
# 3 114.6735 57.8241 210.3984 0.0000 2.4993 0.0000
# 4 0.0000 0.0000 0.0000 17.9584 0.0000 3.7429
# 5 -1.3315 0.8771 2.4993 0.0000 41.8563 0.0000
# 6 0.0000 0.0000 0.0000 3.7429 0.0000 -2.7807
#
#
#
# Elastic Compliance Matrix: (Units=1/GPa)
#
#
# Indices 1 2 3 4 5 6 
#
# 1 0.007621 -0.003134 -0.003298 0.000000 0.000505 0.000000
# 2 -0.003134 0.019611 -0.003678 0.000000 -0.000291 0.000000
# 3 -0.003298 -0.003678 0.007567 0.000000 -0.000480 0.000000
# 4 0.000000 0.000000 0.000000 0.043485 0.000000 0.058532
# 5 0.000505 -0.000291 -0.000480 0.000000 0.023942 0.000000
# 6 0.000000 0.000000 0.000000 0.058532 0.000000 -0.280833
#
#
# Mechanical properties :
#
#
# Convention : Reuss Voigt Hill
#
# Bulk Modulus (GPa) = 68.59631 104.09790 86.34710
# Shear Modulus (GPa) = -32.56752 28.57655 -1.99549
#
# Velocity S-wave (km/s) = -4.32433 4.05071 -1.07041
# Velocity P-wave (km/s) = 3.80183 9.03599 6.93192
#
# Compressibility (1/GPa) = 0.01457804
#
# Stress axis : x y z
#
# Youngs Moduli (GPa) = 131.21726 50.99294 132.15008
#
# Poissons Ratio (x) = 0.15980 0.43588
# Poissons Ratio (y) = 0.41121 0.48606
# Poissons Ratio (z) = 0.43280 0.18756
#
# Static dielectric constant tensor:
#      x y z
#    x 1.565650 0.000000 0.003470 
#    y 0.000000 1.580160 0.000000 
#    z 0.003470 0.000000 1.584790 
# 
# From -- ./inp_files/52676.got.cif
#   From: 2010.05.17/outbox.cif.g08.bks.cpg/sg11_27_cif.got.tgz:52676.got - 2010.06.03 12:22:45.
