data_PCOD9158207
_publ_section_title
;
Structure prediction by ZEFSAII (Michael W. Deem and Ramdas Pophale) SiO2 
 PCOD9158207
Probable space group: P 21/M
;
_chemical_formula_sum "Si O2"
_cell_formula_units_Z 32
_cell_length_a 17.180909
_cell_length_b 14.743211
_cell_length_c 12.580720
_cell_angle_alpha 90.000000
_cell_angle_beta 26.321613
_cell_angle_gamma 90.000000
_cell_volume 1413.020760
_symmetry_space_group_name_H-M "P 21/M"
_symmetry_group_IT_number 11
_symmetry_cell_setting 'monoclinic'
loop_
_space_group_symop_operation_xyz
x,y,z
-x,1/2+y,-z
-x,-y,-z
x,1/2-y,z
loop_
_atom_site_type_symbol
_atom_site_label
_atom_site_fract_x
_atom_site_fract_y
_atom_site_fract_z
Si Si1 0.718386 0.034563 0.330707
Si Si2 0.346947 0.648277 0.781948
Si Si3 0.065776 0.357494 0.974633
Si Si4 0.913684 0.150374 0.394058
Si Si5 0.585090 0.351279 0.058183
Si Si6 0.009350 0.607555 0.479932
Si Si7 0.330506 0.000173 0.377951
Si Si8 0.065415 0.350396 0.660716
O O1 0.618812 0.076738 0.351985
O O2 0.891190 0.100011 0.133272
O O3 0.624616 0.038859 0.560487
O O4 0.782982 0.931481 0.231516
O O5 0.378094 0.750000 0.702856
O O6 0.438412 0.641734 0.784762
O O7 0.140499 0.639157 0.064688
O O8 0.093651 0.250000 0.913907
O O9 0.022312 0.362010 0.153453
O O10 0.833723 0.250000 0.489846
O O11 0.035941 0.142242 0.347642
O O12 0.758201 0.077094 0.584223
O O13 0.528225 0.250000 0.094442
O O14 0.480981 0.438011 0.143290
O O15 0.790423 0.360295 0.782742
O O16 0.908451 0.638960 0.498350
O O17 0.000000 0.500000 0.500000
O O18 0.172710 0.072394 0.587425
O O19 0.118220 0.250000 0.629611
#
# Coordination Sequence:
#
# PCOD9158207 Si02
#       8
#     4   4   4   4   4   4   4   4
#     4  10  19  30  53  78 113 148 195 232 274 334
#     4   9  18  34  57  81 109 150 194 237 280 329
#     4   9  18  30  49  81 114 146 183 235 287 329
#     4  10  20  36  57  82 117 152 189 234 286 339
#     4  10  23  40  59  85 118 150 187 236 289 340
#     4  11  21  38  63  85 108 144 189 234 285 340
#     4  11  22  36  55  86 116 156 188 232 286 338
#     4  10  19  34  57  86 115 145 191 241 281 331
#
# _framework density 22.646519999999999
#
# number of rings (size 3 to 8) (size 9 to 14) (size 15 to 20)
#    0.000    2.000    1.250    4.875    1.750    3.500 
#    0.000    0.000    0.000    2.250    0.000    0.000 
#    0.000    0.000    0.000    0.000    0.000    0.000 
#
# Total GULP energy -178758.452414 kJ/mol
# GULP energy per Si atom -5586.201638 kJ/mol
# Density = 2.259498 g / cm^3
# Si number density = 22.646520 Si / 1000 Ang^3
#
#
#
# Elastic Constant Matrix: (Units=GPa)
#
#
# Indices 1 2 3 4 5 6 
#
# 1 73.3767 30.0172 22.1446 0.0000 38.2901 0.0000
# 2 30.0172 127.2141 7.8134 0.0000 10.0719 0.0000
# 3 22.1446 7.8134 25.8036 0.0000 9.5446 0.0000
# 4 0.0000 0.0000 0.0000 28.7067 0.0000 3.3551
# 5 38.2901 10.0719 9.5446 0.0000 35.7391 0.0000
# 6 0.0000 0.0000 0.0000 3.3551 0.0000 10.1004
#
#
#
# Elastic Compliance Matrix: (Units=1/GPa)
#
#
# Indices 1 2 3 4 5 6 
#
# 1 0.041652 -0.005610 -0.020112 0.000000 -0.037673 0.000000
# 2 -0.005610 0.008869 0.000921 0.000000 0.003265 0.000000
# 3 -0.020112 0.000921 0.053107 0.000000 0.007105 0.000000
# 4 0.000000 0.000000 0.000000 0.036242 0.000000 -0.012039
# 5 -0.037673 0.003265 0.007105 0.000000 0.065525 0.000000
# 6 0.000000 0.000000 0.000000 -0.012039 0.000000 0.103005
#
#
# Mechanical properties :
#
#
# Convention : Reuss Voigt Hill
#
# Bulk Modulus (GPa) = 18.50933 38.48278 28.49606
# Shear Modulus (GPa) = 13.29750 26.00383 19.65067
#
# Velocity S-wave (km/s) = 2.42580 3.39226 2.94889
# Velocity P-wave (km/s) = 4.00461 5.68972 4.91985
#
# Compressibility (1/GPa) = 0.05402679
#
# Stress axis : x y z
#
# Youngs Moduli (GPa) = 24.00868 112.74662 18.82985
#
# Poissons Ratio (x) = 0.63253 0.37870
# Poissons Ratio (y) = 0.13469 -0.01735
# Poissons Ratio (z) = 0.48286 -0.10386
#
# Static dielectric constant tensor:
#      x y z
#    x 1.869630 0.000000 0.003210 
#    y 0.000000 0.998620 0.000000 
#    z 0.003210 0.000000 1.856610 
# 
# From -- ./inp_files/41624.got.cif
#   From: 2010.05.17/outbox.cif.g08.bks.cpg/sg11_21_cif.got.tgz:41624.got - 2010.06.03 12:22:45.
