data_PCOD9158030
_publ_section_title
;
Structure prediction by ZEFSAII (Michael W. Deem and Ramdas Pophale) SiO2 
 PCOD9158030
Probable space group: P 21/M
;
_chemical_formula_sum "Si O2"
_cell_formula_units_Z 32
_cell_length_a 15.124457
_cell_length_b 8.592216
_cell_length_c 16.158858
_cell_angle_alpha 90.000000
_cell_angle_beta 117.826937
_cell_angle_gamma 90.000000
_cell_volume 1857.058241
_symmetry_space_group_name_H-M "P 21/M"
_symmetry_group_IT_number 11
_symmetry_cell_setting 'monoclinic'
loop_
_space_group_symop_operation_xyz
x,y,z
-x,1/2+y,-z
-x,-y,-z
x,1/2-y,z
loop_
_atom_site_type_symbol
_atom_site_label
_atom_site_fract_x
_atom_site_fract_y
_atom_site_fract_z
Si Si1 0.586009 0.562651 0.732662
Si Si2 0.075239 0.438968 0.348210
Si Si3 0.277936 0.438728 0.355040
Si Si4 0.821069 0.563503 0.435800
Si Si5 0.347783 0.063865 0.894362
Si Si6 0.144630 0.936023 0.730505
Si Si7 0.448498 0.936124 0.101303
Si Si8 0.372585 0.563270 0.562101
O O1 0.588567 0.750000 0.741114
O O2 0.677349 0.513566 0.713507
O O3 0.583448 0.492661 0.822650
O O4 0.483143 0.521139 0.640564
O O5 0.074554 0.250000 0.346377
O O6 0.164621 0.489104 0.326490
O O7 0.109190 0.483134 0.456083
O O8 0.962796 0.491898 0.281927
O O9 0.281339 0.250000 0.361091
O O10 0.346707 0.502920 0.459216
O O11 0.824820 0.750000 0.428572
O O12 0.850970 0.484367 0.363631
O O13 0.709814 0.512551 0.413754
O O14 0.346709 0.250000 0.894966
O O15 0.437744 0.013249 0.871792
O O16 0.241165 0.004000 0.817812
O O17 0.379124 0.002417 0.998123
O O18 0.148403 0.750000 0.738233
O O19 0.445608 0.750000 0.096805
O O20 0.362501 0.750000 0.559954
#
# Coordination Sequence:
#
# PCOD9158030 Si02
#       8
#     4   4   4   4   4   4   4   4
#     4  10  20  32  50  74 101 133 166 202 245 294
#     4   8  17  32  49  69  97 133 170 207 244 283
#     4   9  18  34  51  69  98 136 172 204 243 288
#     4  10  19  32  48  69 100 137 171 202 243 293
#     4  10  21  37  55  76 102 130 158 193 243 299
#     4  11  20  31  50  75 100 128 165 207 247 288
#     4  10  21  36  55  77 101 128 158 197 243 292
#     4  10  19  30  46  73 104 133 167 206 246 287
#
# _framework density 17.231553000000002
#
# number of rings (size 3 to 8) (size 9 to 14) (size 15 to 20)
#    0.000    2.250    0.000    4.125    0.000    5.000 
#    0.000    5.625    0.000    0.750    0.000    0.000 
#    0.000    0.000    0.000    0.000    0.000    0.000 
#
# Total GULP energy -178591.439217 kJ/mol
# GULP energy per Si atom -5580.982476 kJ/mol
# Density = 1.719233 g / cm^3
# Si number density = 17.231553 Si / 1000 Ang^3
#
#
#
# Elastic Constant Matrix: (Units=GPa)
#
#
# Indices 1 2 3 4 5 6 
#
# 1 138.2370 28.4394 98.5789 0.0000 3.0348 0.0000
# 2 28.4394 22.9365 25.2900 0.0000 -0.0865 0.0000
# 3 98.5789 25.2900 94.1247 0.0000 0.6639 0.0000
# 4 0.0000 0.0000 0.0000 30.2793 0.0000 -2.2029
# 5 3.0348 -0.0865 0.6639 0.0000 30.3567 0.0000
# 6 0.0000 0.0000 0.0000 -2.2029 0.0000 20.3498
#
#
#
# Elastic Compliance Matrix: (Units=1/GPa)
#
#
# Indices 1 2 3 4 5 6 
#
# 1 0.028925 -0.003536 -0.029328 0.000000 -0.002260 0.000000
# 2 -0.003536 0.062393 -0.013066 0.000000 0.000817 0.000000
# 3 -0.029328 -0.013066 0.044838 0.000000 0.001914 0.000000
# 4 0.000000 0.000000 0.000000 0.033288 0.000000 0.003604
# 5 -0.002260 0.000817 0.001914 0.000000 0.033128 0.000000
# 6 0.000000 0.000000 0.000000 0.003604 0.000000 0.049531
#
#
# Mechanical properties :
#
#
# Convention : Reuss Voigt Hill
#
# Bulk Modulus (GPa) = 22.57604 62.21275 42.39440
# Shear Modulus (GPa) = 13.93806 23.06315 18.50060
#
# Velocity S-wave (km/s) = 2.84715 3.66242 3.28021
# Velocity P-wave (km/s) = 4.89268 7.35301 6.24520
#
# Compressibility (1/GPa) = 0.04429474
#
# Stress axis : x y z
#
# Youngs Moduli (GPa) = 34.57157 16.02733 22.30273
#
# Poissons Ratio (x) = 0.05668 0.65410
# Poissons Ratio (y) = 0.12225 0.29142
# Poissons Ratio (z) = 1.01392 0.20942
#
# Static dielectric constant tensor:
#      x y z
#    x 1.607190 0.000000 0.006160 
#    y 0.000000 1.581090 0.000000 
#    z 0.006160 0.000000 1.550140 
# 
# From -- ./inp_files/51647.got.cif
#   From: 2010.05.17/outbox.cif.g08.bks.cpg/sg11_26_cif.got.tgz:51647.got - 2010.06.03 12:22:45.
