data_PCOD9158735
_publ_section_title
;
Structure prediction by ZEFSAII (Michael W. Deem and Ramdas Pophale) SiO2 
 PCOD9158735
Probable space group: P 21/M
;
_chemical_formula_sum "Si O2"
_cell_formula_units_Z 28
_cell_length_a 19.856792
_cell_length_b 8.327080
_cell_length_c 23.526599
_cell_angle_alpha 90.000000
_cell_angle_beta 162.183768
_cell_angle_gamma 90.000000
_cell_volume 1190.235144
_symmetry_space_group_name_H-M "P 21/M"
_symmetry_group_IT_number 11
_symmetry_cell_setting 'monoclinic'
loop_
_space_group_symop_operation_xyz
x,y,z
-x,1/2+y,-z
-x,-y,-z
x,1/2-y,z
loop_
_atom_site_type_symbol
_atom_site_label
_atom_site_fract_x
_atom_site_fract_y
_atom_site_fract_z
Si Si1 0.050370 0.438145 0.447126
Si Si2 0.098614 0.436093 0.266411
Si Si3 0.408639 0.562991 0.287212
Si Si4 0.547887 0.067149 0.282083
Si Si5 0.285313 0.934679 0.969518
Si Si6 0.317629 0.941089 0.771265
Si Si7 0.736721 0.441522 0.713596
O O1 0.050511 0.250000 0.433388
O O2 0.191453 0.528753 0.512712
O O3 0.187957 0.469874 0.615941
O O4 0.805128 0.489012 0.269155
O O5 0.034575 0.250000 0.209168
O O6 0.346731 0.440128 0.488727
O O7 0.093688 0.508127 0.199098
O O8 0.940479 0.507739 0.187615
O O9 0.356688 0.750000 0.232147
O O10 0.436877 0.462044 0.253249
O O11 0.252475 0.499663 0.212472
O O12 0.513859 0.250000 0.235728
O O13 0.433223 0.948430 0.145394
O O14 0.253571 0.750000 0.926714
O O15 0.428459 0.019453 0.036157
O O16 0.716426 0.250000 0.262430
O O17 0.500000 0.500000 0.500000
O O18 0.732057 0.250000 0.713059
#
# Coordination Sequence:
#
# PCOD9158735 Si02
#       7
#     4   4   4   4   4   4   4
#     4   9  16  27  44  65  92 126 159 195 238 279
#     4   9  19  34  53  75  97 125 162 199 238 286
#     4   9  18  34  52  71  96 125 158 196 239 285
#     4  11  21  31  47  73 100 127 161 199 238 283
#     4  10  19  32  50  72 100 131 158 193 243 289
#     4   9  16  26  43  68  94 122 159 198 234 278
#     4   9  17  30  51  74  96 124 159 199 239 281
#
# _framework density 23.524763
#
# number of rings (size 3 to 8) (size 9 to 14) (size 15 to 20)
#    0.000    2.571    0.000    5.571    0.000    5.714 
#    0.000    0.714    0.000    0.857    0.000    0.000 
#    0.000    0.000    0.000    0.000    0.000    0.000 
#
# Total GULP energy -156221.409555 kJ/mol
# GULP energy per Si atom -5579.336056 kJ/mol
# Density = 2.347122 g / cm^3
# Si number density = 23.524763 Si / 1000 Ang^3
#
#
#
# Elastic Constant Matrix: (Units=GPa)
#
#
# Indices 1 2 3 4 5 6 
#
# 1 60.6116 12.8443 69.5378 0.0000 -24.8297 0.0000
# 2 12.8443 43.9245 8.0642 0.0000 2.9120 0.0000
# 3 69.5378 8.0642 62.4053 0.0000 43.2358 0.0000
# 4 0.0000 0.0000 0.0000 10.2228 0.0000 16.3162
# 5 -24.8297 2.9120 43.2358 0.0000 9.1076 0.0000
# 6 0.0000 0.0000 0.0000 16.3162 0.0000 27.5039
#
#
#
# Elastic Compliance Matrix: (Units=1/GPa)
#
#
# Indices 1 2 3 4 5 6 
#
# 1 0.004260 -0.001303 0.005641 0.000000 -0.014751 0.000000
# 2 -0.001303 0.023533 -0.002659 0.000000 0.001545 0.000000
# 3 0.005641 -0.002659 0.000508 0.000000 0.013818 0.000000
# 4 0.000000 0.000000 0.000000 1.839778 0.000000 -1.091411
# 5 -0.014751 0.001545 0.013818 0.000000 0.003491 0.000000
# 6 0.000000 0.000000 0.000000 -1.091411 0.000000 0.683816
#
#
# Mechanical properties :
#
#
# Convention : Reuss Voigt Hill
#
# Bulk Modulus (GPa) = 31.58664 38.64822 35.11743
# Shear Modulus (GPa) = 1.95116 14.46654 8.20885
#
# Velocity S-wave (km/s) = 0.91171 2.48251 1.87003
# Velocity P-wave (km/s) = 3.81633 4.96805 4.42978
#
# Compressibility (1/GPa) = 0.03165895
#
# Stress axis : x y z
#
# Youngs Moduli (GPa) = 234.75131 42.49305 1968.44785
#
# Poissons Ratio (x) = 0.05539 -11.10479
# Poissons Ratio (y) = 0.30599 5.23413
# Poissons Ratio (z) = -1.32432 0.11299
#
# Static dielectric constant tensor:
#      x y z
#    x 1.939310 0.000000 0.043910 
#    y 0.000000 1.806360 0.000000 
#    z 0.043910 0.000000 2.018570 
# 
# From -- ./inp_files/42345.got.cif
#   From: 2010.05.17/outbox.cif.g08.bks.cpg/sg11_22_cif.got.tgz:42345.got - 2010.06.03 12:22:45.
