data_PCOD9158032
_publ_section_title
;
Structure prediction by ZEFSAII (Michael W. Deem and Ramdas Pophale) SiO2 
 PCOD9158032
Probable space group: P 21/M
;
_chemical_formula_sum "Si O2"
_cell_formula_units_Z 32
_cell_length_a 14.477005
_cell_length_b 8.525364
_cell_length_c 15.371496
_cell_angle_alpha 90.000000
_cell_angle_beta 87.393312
_cell_angle_gamma 90.000000
_cell_volume 1895.213671
_symmetry_space_group_name_H-M "P 21/M"
_symmetry_group_IT_number 11
_symmetry_cell_setting 'monoclinic'
loop_
_space_group_symop_operation_xyz
x,y,z
-x,1/2+y,-z
-x,-y,-z
x,1/2-y,z
loop_
_atom_site_type_symbol
_atom_site_label
_atom_site_fract_x
_atom_site_fract_y
_atom_site_fract_z
Si Si1 0.481614 0.940530 0.098801
Si Si2 0.276411 0.935240 0.156392
Si Si3 0.808165 0.939072 0.015082
Si Si4 0.023363 0.062650 0.593726
Si Si5 0.182544 0.068070 0.703833
Si Si6 0.034058 0.431125 0.869193
Si Si7 0.107745 0.067286 0.252821
Si Si8 0.667328 0.939957 0.179050
O O1 0.482219 0.750000 0.095379
O O2 0.381641 0.991473 0.138748
O O3 0.564972 0.993347 0.158302
O O4 0.500000 0.000000 0.000000
O O5 0.277842 0.750000 0.172036
O O6 0.212487 0.014798 0.231626
O O7 0.225240 0.972320 0.068041
O O8 0.810153 0.750000 0.000513
O O9 0.907801 0.986264 0.049757
O O10 0.732007 0.970786 0.092794
O O11 0.030793 0.250000 0.590480
O O12 0.120799 0.998344 0.628952
O O13 0.000000 0.000000 0.500000
O O14 0.943916 0.020490 0.666733
O O15 0.201726 0.250000 0.680389
O O16 0.111653 0.070607 0.788867
O O17 0.277247 0.998281 0.738797
O O18 0.004595 0.250000 0.882587
O O19 0.951122 0.530018 0.832479
O O20 0.103016 0.250000 0.270622
O O21 0.664257 0.750000 0.187964
#
# Coordination Sequence:
#
# PCOD9158032 Si02
#       8
#     4   4   4   4   4   4   4   4
#     4  10  19  30  47  68  93 126 169 214 253 286
#     4  11  22  32  43  65  96 129 165 209 252 287
#     4   9  16  28  47  66  88 125 167 204 244 289
#     4  10  19  34  56  81 106 127 151 187 232 292
#     4   7  12  24  45  71  96 122 152 187 230 281
#     4   8  15  29  47  66  90 122 160 202 243 284
#     4  11  22  35  50  68  93 129 164 198 241 289
#     4   8  13  25  45  67  92 124 162 202 240 282
#
# _framework density 16.884639
#
# number of rings (size 3 to 8) (size 9 to 14) (size 15 to 20)
#    0.000    2.750    1.250    4.125    0.000    1.500 
#    0.000    0.000    0.000    0.750    0.000    0.875 
#    0.000    0.000    0.000    0.000    0.000    0.000 
#
# Total GULP energy -178286.103445 kJ/mol
# GULP energy per Si atom -5571.440733 kJ/mol
# Density = 1.684621 g / cm^3
# Si number density = 16.884639 Si / 1000 Ang^3
#
#
#
# Elastic Constant Matrix: (Units=GPa)
#
#
# Indices 1 2 3 4 5 6 
#
# 1 129.8392 16.1774 55.8850 0.0000 11.4597 0.0000
# 2 16.1774 22.7864 6.8160 0.0000 1.6767 0.0000
# 3 55.8850 6.8160 60.7650 0.0000 20.8206 0.0000
# 4 0.0000 0.0000 0.0000 22.8174 0.0000 1.0805
# 5 11.4597 1.6767 20.8206 0.0000 22.1080 0.0000
# 6 0.0000 0.0000 0.0000 1.0805 0.0000 14.7184
#
#
#
# Elastic Compliance Matrix: (Units=1/GPa)
#
#
# Indices 1 2 3 4 5 6 
#
# 1 0.014219 -0.006188 -0.014791 0.000000 0.007029 0.000000
# 2 -0.006188 0.048162 0.000651 0.000000 -0.001059 0.000000
# 3 -0.014791 0.000651 0.040420 0.000000 -0.030449 0.000000
# 4 0.000000 0.000000 0.000000 0.043979 0.000000 -0.003229
# 5 0.007029 -0.001059 -0.030449 0.000000 0.070345 0.000000
# 6 0.000000 0.000000 0.000000 -0.003229 0.000000 0.068179
#
#
# Mechanical properties :
#
#
# Convention : Reuss Voigt Hill
#
# Bulk Modulus (GPa) = 16.09130 41.23859 28.66495
# Shear Modulus (GPa) = 14.42273 20.89624 17.65948
#
# Velocity S-wave (km/s) = 2.92583 3.52175 3.23753
# Velocity P-wave (km/s) = 4.57873 6.40420 5.56680
#
# Compressibility (1/GPa) = 0.06214538
#
# Stress axis : x y z
#
# Youngs Moduli (GPa) = 70.32940 20.76336 24.74004
#
# Poissons Ratio (x) = 0.12847 0.36594
# Poissons Ratio (y) = 0.43516 -0.01611
# Poissons Ratio (z) = 1.04026 -0.01352
#
# Static dielectric constant tensor:
#      x y z
#    x 1.619660 0.000000 0.016340 
#    y 0.000000 1.561790 0.000000 
#    z 0.016340 0.000000 1.567800 
# 
# From -- ./inp_files/51179.got.cif
#   From: 2010.05.17/outbox.cif.g08.bks.cpg/sg11_26_cif.got.tgz:51179.got - 2010.06.03 12:22:45.
