data_PCOD9158660
_publ_section_title
;
Structure prediction by ZEFSAII (Michael W. Deem and Ramdas Pophale) SiO2 
 PCOD9158660
Probable space group: P 21/M
;
_chemical_formula_sum "Si O2"
_cell_formula_units_Z 24
_cell_length_a 21.091044
_cell_length_b 9.085164
_cell_length_c 30.671954
_cell_angle_alpha 90.000000
_cell_angle_beta 164.074147
_cell_angle_gamma 90.000000
_cell_volume 1612.670178
_symmetry_space_group_name_H-M "P 21/M"
_symmetry_group_IT_number 11
_symmetry_cell_setting 'monoclinic'
loop_
_space_group_symop_operation_xyz
x,y,z
-x,1/2+y,-z
-x,-y,-z
x,1/2-y,z
loop_
_atom_site_type_symbol
_atom_site_label
_atom_site_fract_x
_atom_site_fract_y
_atom_site_fract_z
Si Si1 0.762530 0.574771 0.327802
Si Si2 0.787385 0.577540 0.882584
Si Si3 0.440953 0.923738 0.892222
Si Si4 0.275329 0.577666 0.529014
Si Si5 0.475154 0.424381 0.739405
Si Si6 0.848857 0.423326 0.210046
O O1 0.795106 0.750000 0.344102
O O2 0.669491 0.503336 0.222161
O O3 0.582912 0.550956 0.248824
O O4 0.000000 0.500000 0.500000
O O5 0.831799 0.750000 0.918813
O O6 0.546901 0.564970 0.696104
O O7 0.708655 0.498608 0.875444
O O8 0.000000 0.500000 0.000000
O O9 0.466773 0.750000 0.901137
O O10 0.276246 0.941317 0.825604
O O11 0.684074 0.996506 0.066530
O O12 0.218580 0.750000 0.495757
O O13 0.278995 0.499130 0.578963
O O14 0.097902 0.497581 0.380240
O O15 0.478234 0.250000 0.732915
O O16 0.865346 0.250000 0.211726
#
# Coordination Sequence:
#
# PCOD9158660 Si02
#       6
#     4   4   4   4   4   4
#     4  11  22  33  47  68  96 131 166 200 239 285
#     4   9  18  30  48  73  99 126 156 196 244 292
#     4  10  21  33  47  66  92 126 164 203 241 281
#     4   9  18  29  46  70  95 123 154 193 240 284
#     4   9  18  31  46  67  96 127 159 195 237 284
#     4  10  19  32  48  67  91 124 163 203 242 282
#
# _framework density 14.882149999999999
#
# number of rings (size 3 to 8) (size 9 to 14) (size 15 to 20)
#    1.000    1.333    0.000    3.500    0.000    8.667 
#    0.000    0.000    0.000    0.000    0.000    1.167 
#    0.000    0.000    0.000    0.000    0.000    0.000 
#
# Total GULP energy -133624.473698 kJ/mol
# GULP energy per Si atom -5567.686404 kJ/mol
# Density = 1.484828 g / cm^3
# Si number density = 14.882150 Si / 1000 Ang^3
#
#
#
# Elastic Constant Matrix: (Units=GPa)
#
#
# Indices 1 2 3 4 5 6 
#
# 1 69.7783 63.4819 44.8809 0.0000 -8.4392 0.0000
# 2 63.4819 125.3977 67.5313 0.0000 -1.4258 0.0000
# 3 44.8809 67.5313 83.3096 0.0000 -12.6545 0.0000
# 4 0.0000 0.0000 0.0000 29.4521 0.0000 -2.5863
# 5 -8.4392 -1.4258 -12.6545 0.0000 25.8027 0.0000
# 6 0.0000 0.0000 0.0000 -2.5863 0.0000 23.3437
#
#
#
# Elastic Compliance Matrix: (Units=1/GPa)
#
#
# Indices 1 2 3 4 5 6 
#
# 1 0.029323 -0.012053 -0.005047 0.000000 0.006449 0.000000
# 2 -0.012053 0.019794 -0.010788 0.000000 -0.008139 0.000000
# 3 -0.005047 -0.010788 0.024987 0.000000 0.010008 0.000000
# 4 0.000000 0.000000 0.000000 0.034287 0.000000 0.003799
# 5 0.006449 -0.008139 0.010008 0.000000 0.045323 0.000000
# 6 0.000000 0.000000 0.000000 0.003799 0.000000 0.043259
#
#
# Mechanical properties :
#
#
# Convention : Reuss Voigt Hill
#
# Bulk Modulus (GPa) = 54.56195 70.03044 62.29619
# Shear Modulus (GPa) = 19.31563 22.55914 20.93739
#
# Velocity S-wave (km/s) = 3.60655 3.89762 3.75491
# Velocity P-wave (km/s) = 7.35427 8.21061 7.79421
#
# Compressibility (1/GPa) = 0.01832779
#
# Stress axis : x y z
#
# Youngs Moduli (GPa) = 34.10308 50.52132 40.02084
#
# Poissons Ratio (x) = 0.60895 0.20198
# Poissons Ratio (y) = 0.41106 0.43173
# Poissons Ratio (z) = 0.17211 0.54501
#
# Static dielectric constant tensor:
#      x y z
#    x 1.475020 0.000000 0.010130 
#    y 0.000000 1.495040 0.000000 
#    z 0.010130 0.000000 1.490530 
# 
# From -- ./inp_files/65966.got.cif
#   From: 2010.05.17/outbox.cif.g08.bks.cpg/sg11_33_cif.got.tgz:65966.got - 2010.06.03 12:22:45.
