data_PCOD9158072
_publ_section_title
;
Structure prediction by ZEFSAII (Michael W. Deem and Ramdas Pophale) SiO2 
 PCOD9158072
Probable space group: P 21/M
;
_chemical_formula_sum "Si O2"
_cell_formula_units_Z 32
_cell_length_a 21.821495
_cell_length_b 7.706050
_cell_length_c 11.615342
_cell_angle_alpha 90.000000
_cell_angle_beta 46.618425
_cell_angle_gamma 90.000000
_cell_volume 1419.582397
_symmetry_space_group_name_H-M "P 21/M"
_symmetry_group_IT_number 11
_symmetry_cell_setting 'monoclinic'
loop_
_space_group_symop_operation_xyz
x,y,z
-x,1/2+y,-z
-x,-y,-z
x,1/2-y,z
loop_
_atom_site_type_symbol
_atom_site_label
_atom_site_fract_x
_atom_site_fract_y
_atom_site_fract_z
Si Si1 0.735086 0.458842 0.860924
Si Si2 0.958019 0.460320 0.878432
Si Si3 0.440101 0.050920 0.973641
Si Si4 0.508732 0.947839 0.647721
Si Si5 0.871907 0.957586 0.231936
Si Si6 0.084156 0.958621 0.322252
Si Si7 0.667179 0.039350 0.200995
Si Si8 0.694199 0.951152 0.413917
O O1 0.732748 0.250000 0.855566
O O2 0.830784 0.521278 0.724385
O O3 0.659736 0.526061 0.878053
O O4 0.709187 0.507069 0.025687
O O5 0.958686 0.250000 0.874712
O O6 0.923787 0.521929 0.799578
O O7 0.053891 0.521736 0.780123
O O8 0.904613 0.510380 0.059716
O O9 0.454470 0.250000 0.924740
O O10 0.467559 0.942825 0.827459
O O11 0.500000 0.000000 0.000000
O O12 0.521411 0.750000 0.592896
O O13 0.430783 0.021155 0.674459
O O14 0.600713 0.032237 0.543063
O O15 0.866668 0.750000 0.253594
O O16 0.776917 0.028042 0.367498
O O17 0.091839 0.750000 0.305437
O O18 0.000000 0.000000 0.500000
O O19 0.668771 0.250000 0.207294
O O20 0.711402 0.961596 0.254925
O O21 0.686610 0.750000 0.460768
#
# Coordination Sequence:
#
# PCOD9158072 Si02
#       8
#     4   4   4   4   4   4   4   4
#     4   9  19  37  57  79 108 142 182 228 275 322
#     4   9  18  35  55  74 103 142 180 219 272 329
#     4  11  22  38  60  82 105 138 179 224 269 323
#     4   9  19  35  50  71 107 143 175 214 265 318
#     4   9  18  32  52  78 105 137 178 222 266 321
#     4  10  21  37  57  81 113 147 183 234 285 332
#     4   9  17  30  51  74 102 141 178 217 263 315
#     4  10  19  30  47  75 109 140 171 215 264 312
#
# _framework density 22.541841000000002
#
# number of rings (size 3 to 8) (size 9 to 14) (size 15 to 20)
#    0.000    2.500    0.000    3.000    0.000    5.000 
#    2.250    0.000    0.000    0.000    0.000    0.000 
#    0.000    0.000    0.000    0.000    0.000    0.000 
#
# Total GULP energy -178567.411173 kJ/mol
# GULP energy per Si atom -5580.231599 kJ/mol
# Density = 2.249054 g / cm^3
# Si number density = 22.541841 Si / 1000 Ang^3
#
#
#
# Elastic Constant Matrix: (Units=GPa)
#
#
# Indices 1 2 3 4 5 6 
#
# 1 154.4348 10.6244 32.2358 0.0000 -42.7025 0.0000
# 2 10.6244 57.6795 4.0807 0.0000 -3.7672 0.0000
# 3 32.2358 4.0807 42.0656 0.0000 -33.2296 0.0000
# 4 0.0000 0.0000 0.0000 20.7643 0.0000 1.4698
# 5 -42.7025 -3.7672 -33.2296 0.0000 46.3805 0.0000
# 6 0.0000 0.0000 0.0000 1.4698 0.0000 17.0062
#
#
#
# Elastic Compliance Matrix: (Units=1/GPa)
#
#
# Indices 1 2 3 4 5 6 
#
# 1 0.008764 -0.001076 -0.000706 0.000000 0.007475 0.000000
# 2 -0.001076 0.017594 -0.001235 0.000000 -0.000446 0.000000
# 3 -0.000706 -0.001235 0.054927 0.000000 0.038602 0.000000
# 4 0.000000 0.000000 0.000000 0.048456 0.000000 -0.004188
# 5 0.007475 -0.000446 0.038602 0.000000 0.056064 0.000000
# 6 0.000000 0.000000 0.000000 -0.004188 0.000000 0.059164
#
#
# Mechanical properties :
#
#
# Convention : Reuss Voigt Hill
#
# Bulk Modulus (GPa) = 13.28897 38.67354 25.98125
# Shear Modulus (GPa) = 18.11027 30.64612 24.37820
#
# Velocity S-wave (km/s) = 2.83752 3.69117 3.29213
# Velocity P-wave (km/s) = 4.07963 5.94642 5.09918
#
# Compressibility (1/GPa) = 0.07525040
#
# Stress axis : x y z
#
# Youngs Moduli (GPa) = 114.10766 56.83889 18.20586
#
# Poissons Ratio (x) = 0.06116 0.01286
# Poissons Ratio (y) = 0.12278 0.02248
# Poissons Ratio (z) = 0.08060 0.07018
#
# Static dielectric constant tensor:
#      x y z
#    x 1.849810 0.000000 -0.115530 
#    y 0.000000 1.865910 0.000000 
#    z -0.115530 0.000000 1.776200 
# 
# From -- ./inp_files/42758.got.cif
#   From: 2010.05.17/outbox.cif.g08.bks.cpg/sg11_22_cif.got.tgz:42758.got - 2010.06.03 12:22:45.
