data_PCOD9158204
_publ_section_title
;
Structure prediction by ZEFSAII (Michael W. Deem and Ramdas Pophale) SiO2 
 PCOD9158204
Probable space group: P 21/M
;
_chemical_formula_sum "Si O2"
_cell_formula_units_Z 28
_cell_length_a 14.786075
_cell_length_b 9.384774
_cell_length_c 12.401911
_cell_angle_alpha 90.000000
_cell_angle_beta 127.975271
_cell_angle_gamma 90.000000
_cell_volume 1356.575155
_symmetry_space_group_name_H-M "P 21/M"
_symmetry_group_IT_number 11
_symmetry_cell_setting 'monoclinic'
loop_
_space_group_symop_operation_xyz
x,y,z
-x,1/2+y,-z
-x,-y,-z
x,1/2-y,z
loop_
_atom_site_type_symbol
_atom_site_label
_atom_site_fract_x
_atom_site_fract_y
_atom_site_fract_z
Si Si1 0.585829 0.914449 0.487109
Si Si2 0.206862 0.084032 0.734177
Si Si3 0.843398 0.912908 0.759352
Si Si4 0.968129 0.085890 0.262111
Si Si5 0.371977 0.580707 0.702797
Si Si6 0.374196 0.087137 0.063990
Si Si7 0.798162 0.412019 0.931456
O O1 0.549774 0.750000 0.442110
O O2 0.709716 0.910847 0.634401
O O3 0.500000 0.000000 0.500000
O O4 0.602633 0.001379 0.389810
O O5 0.192647 0.250000 0.695205
O O6 0.089703 0.013668 0.691289
O O7 0.265582 0.993568 0.683309
O O8 0.297820 0.075706 0.900498
O O9 0.882770 0.750000 0.808582
O O10 0.913351 0.963201 0.705395
O O11 0.856084 0.005675 0.875351
O O12 0.978784 0.250000 0.307992
O O13 0.881401 0.085541 0.096142
O O14 0.353640 0.750000 0.676499
O O15 0.491513 0.560700 0.856405
O O16 0.363549 0.250000 0.096006
O O17 0.318225 0.986516 0.112959
O O18 0.775972 0.250000 0.883656
#
# Coordination Sequence:
#
# PCOD9158204 Si02
#       7
#     4   4   4   4   4   4   4
#     4  11  24  41  59  81 108 141 181 224 267 314
#     4  10  20  35  56  83 112 141 175 220 268 319
#     4  10  21  37  56  76 106 146 183 220 267 319
#     4   9  19  36  55  79 110 143 178 219 266 319
#     4  11  22  37  57  80 108 145 183 221 266 317
#     4   9  19  34  53  79 112 146 178 214 265 323
#     4  10  19  30  52  84 113 140 175 220 269 319
#
# _framework density 20.640211999999998
#
# number of rings (size 3 to 8) (size 9 to 14) (size 15 to 20)
#    0.000    2.000    0.000    3.429    0.000    7.429 
#    0.000    0.714    0.000    0.000    0.000    0.000 
#    0.000    0.000    0.000    0.000    0.000    0.000 
#
# Total GULP energy -156448.917196 kJ/mol
# GULP energy per Si atom -5587.461328 kJ/mol
# Density = 2.059323 g / cm^3
# Si number density = 20.640212 Si / 1000 Ang^3
#
#
#
# Elastic Constant Matrix: (Units=GPa)
#
#
# Indices 1 2 3 4 5 6 
#
# 1 176.2648 98.2512 10.1967 0.0000 -23.8207 0.0000
# 2 98.2512 141.9520 23.7279 0.0000 -27.5892 0.0000
# 3 10.1967 23.7279 18.4384 0.0000 -11.5930 0.0000
# 4 0.0000 0.0000 0.0000 17.5682 0.0000 -11.2988
# 5 -23.8207 -27.5892 -11.5930 0.0000 24.3328 0.0000
# 6 0.0000 0.0000 0.0000 -11.2988 0.0000 35.3497
#
#
#
# Elastic Compliance Matrix: (Units=1/GPa)
#
#
# Indices 1 2 3 4 5 6 
#
# 1 0.009828 -0.006955 0.006576 0.000000 0.004868 0.000000
# 2 -0.006955 0.014727 -0.012688 0.000000 0.003843 0.000000
# 3 0.006576 -0.012688 0.088413 0.000000 0.034174 0.000000
# 4 0.000000 0.000000 0.000000 0.071650 0.000000 0.022901
# 5 0.004868 0.003843 0.034174 0.000000 0.066502 0.000000
# 6 0.000000 0.000000 0.000000 0.022901 0.000000 0.035609
#
#
# Mechanical properties :
#
#
# Convention : Reuss Voigt Hill
#
# Bulk Modulus (GPa) = 11.51643 66.77852 39.14747
# Shear Modulus (GPa) = 14.62816 29.08210 21.85513
#
# Velocity S-wave (km/s) = 2.66507 3.75774 3.25755
# Velocity P-wave (km/s) = 3.88096 7.15900 5.75818
#
# Compressibility (1/GPa) = 0.08683249
#
# Stress axis : x y z
#
# Youngs Moduli (GPa) = 101.75382 67.90427 11.31057
#
# Poissons Ratio (x) = 0.47230 -0.07438
# Poissons Ratio (y) = 0.70773 0.14351
# Poissons Ratio (z) = -0.66918 0.86160
#
# Static dielectric constant tensor:
#      x y z
#    x 1.727380 0.000000 0.025090 
#    y 0.000000 1.714210 0.000000 
#    z 0.025090 0.000000 1.762150 
# 
# From -- ./inp_files/37846.got.cif
#   From: 2010.05.17/outbox.cif.g08.bks.cpg/sg11_19_cif.got.tgz:37846.got - 2010.06.03 12:22:45.
