data_PCOD9158319
_publ_section_title
;
Structure prediction by ZEFSAII (Michael W. Deem and Ramdas Pophale) SiO2 
 PCOD9158319
Probable space group: P 21/M
;
_chemical_formula_sum "Si O2"
_cell_formula_units_Z 32
_cell_length_a 24.685946
_cell_length_b 7.547034
_cell_length_c 24.713333
_cell_angle_alpha 90.000000
_cell_angle_beta 161.126049
_cell_angle_gamma 90.000000
_cell_volume 1489.411072
_symmetry_space_group_name_H-M "P 21/M"
_symmetry_group_IT_number 11
_symmetry_cell_setting 'monoclinic'
loop_
_space_group_symop_operation_xyz
x,y,z
-x,1/2+y,-z
-x,-y,-z
x,1/2-y,z
loop_
_atom_site_type_symbol
_atom_site_label
_atom_site_fract_x
_atom_site_fract_y
_atom_site_fract_z
Si Si1 0.123427 0.461242 0.690109
Si Si2 0.980160 0.466532 0.155558
Si Si3 0.659327 0.533461 0.483742
Si Si4 0.576428 0.038217 0.945288
Si Si5 0.374342 0.967144 0.130489
Si Si6 0.466804 0.962337 0.406131
Si Si7 0.761247 0.540914 0.318024
Si Si8 0.904785 0.037689 0.965412
O O1 0.115494 0.250000 0.678992
O O2 0.193504 0.532920 0.698715
O O3 0.930772 0.521801 0.513444
O O4 0.256181 0.506994 0.861779
O O5 0.978773 0.250000 0.154924
O O6 0.150258 0.523792 0.345454
O O7 0.806382 0.523867 0.017895
O O8 0.985474 0.523817 0.097727
O O9 0.658596 0.750000 0.482301
O O10 0.522875 0.476391 0.310949
O O11 0.599753 0.476176 0.487315
O O12 0.555466 0.250000 0.921216
O O13 0.595988 0.972049 0.902633
O O14 0.408762 0.967917 0.816401
O O15 0.373452 0.750000 0.130170
O O16 0.463161 0.750000 0.397698
O O17 0.283951 0.031407 0.217491
O O18 0.500000 0.000000 0.500000
O O19 0.732404 0.750000 0.283089
O O20 0.896029 0.250000 0.961479
O O21 0.000000 0.000000 0.000000
#
# Coordination Sequence:
#
# PCOD9158319 Si02
#       8
#     4   4   4   4   4   4   4   4
#     4  10  20  34  54  79 111 149 184 220 267 325
#     4   9  16  28  47  69  96 128 160 202 256 305
#     4   9  16  28  46  67  95 128 159 199 251 302
#     4  10  20  33  54  81 110 140 178 229 275 318
#     4   9  17  30  47  72 101 130 168 211 257 309
#     4  10  19  31  48  71 100 127 159 203 247 303
#     4   9  19  35  54  80 112 145 182 226 273 315
#     4  10  19  31  48  72 101 128 160 204 250 305
#
# _framework density 21.485001
#
# number of rings (size 3 to 8) (size 9 to 14) (size 15 to 20)
#    0.000    2.500    1.250    1.500    0.000    3.500 
#    0.000    3.750    0.000    1.500    0.000    1.750 
#    0.000    0.000    0.000    0.000    0.000    0.000 
#
# Total GULP energy -178647.984282 kJ/mol
# GULP energy per Si atom -5582.749509 kJ/mol
# Density = 2.143610 g / cm^3
# Si number density = 21.485001 Si / 1000 Ang^3
#
#
#
# Elastic Constant Matrix: (Units=GPa)
#
#
# Indices 1 2 3 4 5 6 
#
# 1 81.1770 -4.8416 57.8758 0.0000 -21.4044 0.0000
# 2 -4.8416 47.6203 -11.1939 0.0000 1.2389 0.0000
# 3 57.8758 -11.1939 170.6609 0.0000 -12.4051 0.0000
# 4 0.0000 0.0000 0.0000 8.6584 0.0000 -0.6652
# 5 -21.4044 1.2389 -12.4051 0.0000 22.6981 0.0000
# 6 0.0000 0.0000 0.0000 -0.6652 0.0000 5.6728
#
#
#
# Elastic Compliance Matrix: (Units=1/GPa)
#
#
# Indices 1 2 3 4 5 6 
#
# 1 0.020846 0.000316 -0.005854 0.000000 0.016442 0.000000
# 2 0.000316 0.021337 0.001280 0.000000 -0.000167 0.000000
# 3 -0.005854 0.001280 0.007834 0.000000 -0.001309 0.000000
# 4 0.000000 0.000000 0.000000 0.116545 0.000000 0.013665
# 5 0.016442 -0.000167 -0.001309 0.000000 0.058855 0.000000
# 6 0.000000 0.000000 0.000000 0.013665 0.000000 0.177882
#
#
# Mechanical properties :
#
#
# Convention : Reuss Voigt Hill
#
# Bulk Modulus (GPa) = 24.09566 42.57098 33.33332
# Shear Modulus (GPa) = 11.74681 24.58040 18.16360
#
# Velocity S-wave (km/s) = 2.34079 3.38608 2.91075
# Velocity P-wave (km/s) = 4.30641 5.92830 5.18121
#
# Compressibility (1/GPa) = 0.04150125
#
# Stress axis : x y z
#
# Youngs Moduli (GPa) = 47.97016 46.86728 127.65557
#
# Poissons Ratio (x) = -0.01479 0.74726
# Poissons Ratio (y) = -0.01514 -0.16344
# Poissons Ratio (z) = 0.28080 -0.06000
#
# Static dielectric constant tensor:
#      x y z
#    x 1.763500 0.000000 0.008980 
#    y 0.000000 1.802490 0.000000 
#    z 0.008980 0.000000 1.744200 
# 
# From -- ./inp_files/70009.got.cif
#   From: 2010.05.17/outbox.cif.g08.bks.cpg/sg11_36_cif.got.tgz:70009.got - 2010.06.03 12:22:45.
