data_PCOD9158825
_publ_section_title
;
Structure prediction by ZEFSAII (Michael W. Deem and Ramdas Pophale) SiO2 
 PCOD9158825
Probable space group: P 21/M
;
_chemical_formula_sum "Si O2"
_cell_formula_units_Z 32
_cell_length_a 15.518301
_cell_length_b 11.750662
_cell_length_c 17.043792
_cell_angle_alpha 90.000000
_cell_angle_beta 22.891922
_cell_angle_gamma 90.000000
_cell_volume 1208.970524
_symmetry_space_group_name_H-M "P 21/M"
_symmetry_group_IT_number 11
_symmetry_cell_setting 'monoclinic'
loop_
_space_group_symop_operation_xyz
x,y,z
-x,1/2+y,-z
-x,-y,-z
x,1/2-y,z
loop_
_atom_site_type_symbol
_atom_site_label
_atom_site_fract_x
_atom_site_fract_y
_atom_site_fract_z
Si Si1 0.734049 0.375151 0.230185
Si Si2 0.728991 0.875052 0.242076
Si Si3 0.632509 0.623453 0.662870
Si Si4 0.252775 0.633153 0.434846
Si Si5 0.890885 0.126671 0.269597
Si Si6 0.376040 0.628106 0.016181
Si Si7 0.861262 0.623567 0.302214
Si Si8 0.845781 0.558724 0.694482
O O1 0.660812 0.250000 0.260469
O O2 0.660365 0.501994 0.264613
O O3 0.732791 0.373368 0.326404
O O4 0.001612 0.375116 0.991179
O O5 0.658192 0.750000 0.271159
O O6 0.703076 0.877250 0.358299
O O7 0.726511 0.750000 0.610238
O O8 0.676791 0.491959 0.650144
O O9 0.395861 0.629546 0.905493
O O10 0.715549 0.621137 0.503739
O O11 0.372943 0.750000 0.308099
O O12 0.238339 0.632054 0.540499
O O13 0.005775 0.639393 0.607966
O O14 0.016153 0.250000 0.159424
O O15 0.990169 0.998043 0.187658
O O16 0.290431 0.750000 0.114758
O O17 0.625819 0.611022 0.840404
O O18 0.230124 0.532960 0.177597
O O19 0.967867 0.750000 0.210585
O O20 0.000000 0.500000 0.500000
#
# Coordination Sequence:
#
# PCOD9158825 Si02
#       8
#     4   4   4   4   4   4   4   4
#     4   8  12  18  28  45  75 111 149 191 232 277
#     4   8  12  17  27  47  74 111 152 188 231 278
#     4   9  17  32  50  73 102 132 167 207 251 301
#     4  10  19  32  51  74  99 131 169 207 255 307
#     4   8  14  23  36  56  83 117 155 196 240 288
#     4  10  22  38  56  78 104 135 173 212 257 310
#     4   8  13  21  36  56  84 119 155 195 237 284
#     4  11  22  38  54  77 104 134 169 213 258 310
#
# _framework density 26.468800999999999
#
# number of rings (size 3 to 8) (size 9 to 14) (size 15 to 20)
#    0.000    3.000    1.250    0.375    0.000    1.500 
#    0.000    0.625    0.000    0.000    0.000    0.000 
#    0.000    1.000    0.000    0.125    0.000   27.000 
#
# Total GULP energy -178140.131381 kJ/mol
# GULP energy per Si atom -5566.879106 kJ/mol
# Density = 2.640856 g / cm^3
# Si number density = 26.468801 Si / 1000 Ang^3
#
#
#
# Elastic Constant Matrix: (Units=GPa)
#
#
# Indices 1 2 3 4 5 6 
#
# 1 63.7672 23.3773 33.7194 0.0000 7.6310 0.0000
# 2 23.3773 370.2141 42.7094 0.0000 -14.0094 0.0000
# 3 33.7194 42.7094 62.4427 0.0000 12.8631 0.0000
# 4 0.0000 0.0000 0.0000 29.0665 0.0000 16.2699
# 5 7.6310 -14.0094 12.8631 0.0000 36.7198 0.0000
# 6 0.0000 0.0000 0.0000 16.2699 0.0000 155.0082
#
#
#
# Elastic Compliance Matrix: (Units=1/GPa)
#
#
# Indices 1 2 3 4 5 6 
#
# 1 0.021957 -0.000052 -0.011723 0.000000 -0.000476 0.000000
# 2 -0.000052 0.003070 -0.002495 0.000000 0.002056 0.000000
# 3 -0.011723 -0.002495 0.025593 0.000000 -0.007481 0.000000
# 4 0.000000 0.000000 0.000000 0.036551 0.000000 -0.003836
# 5 -0.000476 0.002056 -0.007481 0.000000 0.030737 0.000000
# 6 0.000000 0.000000 0.000000 -0.003836 0.000000 0.006854
#
#
# Mechanical properties :
#
#
# Convention : Reuss Voigt Hill
#
# Bulk Modulus (GPa) = 45.29169 77.33735 61.31452
# Shear Modulus (GPa) = 31.12071 70.60007 50.86039
#
# Velocity S-wave (km/s) = 3.43264 5.17019 4.38827
# Velocity P-wave (km/s) = 5.73230 8.05747 6.99221
#
# Compressibility (1/GPa) = 0.02207910
#
# Stress axis : x y z
#
# Youngs Moduli (GPa) = 45.54296 325.72052 39.07278
#
# Poissons Ratio (x) = 0.01696 0.45806
# Poissons Ratio (y) = 0.00237 0.09750
# Poissons Ratio (z) = 0.53392 0.81279
#
# Static dielectric constant tensor:
#      x y z
#    x 2.055370 0.000000 -0.120220 
#    y 0.000000 2.119570 0.000000 
#    z -0.120220 0.000000 1.545580 
# 
# From -- ./inp_files/66536.got.cif
#   From: 2010.05.17/outbox.cif.g08.bks.cpg/sg11_34_cif.got.tgz:66536.got - 2010.06.03 12:22:45.
