data_PCOD9158989
_publ_section_title
;
Structure prediction by ZEFSAII (Michael W. Deem and Ramdas Pophale) SiO2 
 PCOD9158989
Probable space group: P 21/M
;
_chemical_formula_sum "Si O2"
_cell_formula_units_Z 32
_cell_length_a 22.886449
_cell_length_b 8.724675
_cell_length_c 29.026696
_cell_angle_alpha 90.000000
_cell_angle_beta 161.535333
_cell_angle_gamma 90.000000
_cell_volume 1835.694779
_symmetry_space_group_name_H-M "P 21/M"
_symmetry_group_IT_number 11
_symmetry_cell_setting 'monoclinic'
loop_
_space_group_symop_operation_xyz
x,y,z
-x,1/2+y,-z
-x,-y,-z
x,1/2-y,z
loop_
_atom_site_type_symbol
_atom_site_label
_atom_site_fract_x
_atom_site_fract_y
_atom_site_fract_z
Si Si1 0.788033 0.566777 0.234147
Si Si2 0.812301 0.436656 0.988152
Si Si3 0.522694 0.064631 0.847855
Si Si4 0.567333 0.566582 0.979751
Si Si5 0.905748 0.566299 0.475539
Si Si6 0.185749 0.566371 0.116295
Si Si7 0.440781 0.432256 0.382540
Si Si8 0.774940 0.934161 0.684262
O O1 0.798262 0.750000 0.246400
O O2 0.621365 0.505979 0.141570
O O3 0.975287 0.492897 0.392452
O O4 0.726183 0.528733 0.135794
O O5 0.811829 0.250000 0.987228
O O6 0.012659 0.483071 0.157204
O O7 0.647845 0.485791 0.898569
O O8 0.795437 0.486262 0.922528
O O9 0.528465 0.250000 0.854735
O O10 0.308367 0.019340 0.682524
O O11 0.598187 0.997547 0.952083
O O12 0.546654 0.750000 0.963276
O O13 0.914143 0.750000 0.479843
O O14 0.000000 0.500000 0.500000
O O15 0.172094 0.750000 0.106269
O O16 0.356038 0.513169 0.274830
O O17 0.000000 0.500000 0.000000
O O18 0.436594 0.250000 0.373252
O O19 0.310293 0.469853 0.329034
O O20 0.643269 0.487816 0.548502
O O21 0.764848 0.750000 0.671174
#
# Coordination Sequence:
#
# PCOD9158989 Si02
#       8
#     4   4   4   4   4   4   4   4
#     4  10  20  34  54  80 108 140 179 222 270 322
#     4   9  19  37  57  78 107 144 186 226 268 326
#     4  10  21  37  57  79 107 145 185 225 271 329
#     4  10  20  34  54  80 109 139 176 225 275 322
#     4  11  21  33  54  83 111 141 182 229 276 323
#     4  11  20  34  56  82 111 144 183 230 277 323
#     4  10  19  32  52  82 111 136 175 225 272 321
#     4   9  17  33  54  77 105 140 178 221 269 317
#
# _framework density 17.432091
#
# number of rings (size 3 to 8) (size 9 to 14) (size 15 to 20)
#    0.000    2.000    2.500    1.875    0.000    2.500 
#    0.000    3.125    0.000    6.000    0.000    0.000 
#    0.000    0.000    0.000    0.000    0.000    0.000 
#
# Total GULP energy -178608.553839 kJ/mol
# GULP energy per Si atom -5581.517307 kJ/mol
# Density = 1.739241 g / cm^3
# Si number density = 17.432091 Si / 1000 Ang^3
#
#
#
# Elastic Constant Matrix: (Units=GPa)
#
#
# Indices 1 2 3 4 5 6 
#
# 1 137.4503 35.3495 87.8688 0.0000 -5.9820 0.0000
# 2 35.3495 32.8761 39.1099 0.0000 -4.3201 0.0000
# 3 87.8688 39.1099 145.4763 0.0000 -8.2136 0.0000
# 4 0.0000 0.0000 0.0000 29.8781 0.0000 -6.3711
# 5 -5.9820 -4.3201 -8.2136 0.0000 27.0688 0.0000
# 6 0.0000 0.0000 0.0000 -6.3711 0.0000 22.7649
#
#
#
# Elastic Compliance Matrix: (Units=1/GPa)
#
#
# Indices 1 2 3 4 5 6 
#
# 1 0.012783 -0.006708 -0.005920 0.000000 -0.000042 0.000000
# 2 -0.006708 0.048577 -0.008805 0.000000 0.003599 0.000000
# 3 -0.005920 -0.008805 0.012884 0.000000 0.001196 0.000000
# 4 0.000000 0.000000 0.000000 0.035593 0.000000 0.009961
# 5 -0.000042 0.003599 0.001196 0.000000 0.037871 0.000000
# 6 0.000000 0.000000 0.000000 0.009961 0.000000 0.046715
#
#
# Mechanical properties :
#
#
# Convention : Reuss Voigt Hill
#
# Bulk Modulus (GPa) = 31.86836 71.16212 51.51524
# Shear Modulus (GPa) = 20.18171 26.17399 23.17785
#
# Velocity S-wave (km/s) = 3.40624 3.87910 3.65034
# Velocity P-wave (km/s) = 5.81301 7.80861 6.88351
#
# Compressibility (1/GPa) = 0.03137909
#
# Stress axis : x y z
#
# Youngs Moduli (GPa) = 78.22688 20.58601 77.61301
#
# Poissons Ratio (x) = 0.13809 0.45949
# Poissons Ratio (y) = 0.52473 0.68335
# Poissons Ratio (z) = 0.46313 0.18125
#
# Static dielectric constant tensor:
#      x y z
#    x 1.577960 0.000000 -0.009440 
#    y 0.000000 1.596310 0.000000 
#    z -0.009440 0.000000 1.592080 
# 
# From -- ./inp_files/72161.got.cif
#   From: 2010.05.17/outbox.cif.g08.bks.cpg/sg11_37_cif.got.tgz:72161.got - 2010.06.03 12:22:45.
