data_PCOD9158451
_publ_section_title
;
Structure prediction by ZEFSAII (Michael W. Deem and Ramdas Pophale) SiO2 
 PCOD9158451
Probable space group: P 21/M
;
_chemical_formula_sum "Si O2"
_cell_formula_units_Z 28
_cell_length_a 28.150576
_cell_length_b 8.697813
_cell_length_c 9.819298
_cell_angle_alpha 90.000000
_cell_angle_beta 140.315516
_cell_angle_gamma 90.000000
_cell_volume 1535.250047
_symmetry_space_group_name_H-M "P 21/M"
_symmetry_group_IT_number 11
_symmetry_cell_setting 'monoclinic'
loop_
_space_group_symop_operation_xyz
x,y,z
-x,1/2+y,-z
-x,-y,-z
x,1/2-y,z
loop_
_atom_site_type_symbol
_atom_site_label
_atom_site_fract_x
_atom_site_fract_y
_atom_site_fract_z
Si Si1 0.537557 0.068740 0.289639
Si Si2 0.392844 0.572121 0.860050
Si Si3 0.680138 0.436234 0.752789
Si Si4 0.185633 0.565701 0.152505
Si Si5 0.918046 0.566357 0.298478
Si Si6 0.233201 0.068901 0.539798
Si Si7 0.205797 0.935021 0.772334
O O1 0.372211 0.750000 0.837405
O O2 0.578018 0.057921 0.231148
O O3 0.597739 0.009939 0.531976
O O4 0.461094 0.977222 0.106588
O O5 0.478045 0.750000 0.722227
O O6 0.320842 0.469058 0.722068
O O7 0.676223 0.250000 0.742145
O O8 0.739330 0.479147 0.765461
O O9 0.718748 0.481658 0.979431
O O10 0.179456 0.750000 0.131236
O O11 0.194457 0.511227 0.325639
O O12 0.117494 0.489485 0.922365
O O13 0.918750 0.750000 0.306543
O O14 0.862561 0.498870 0.290371
O O15 0.000000 0.500000 0.500000
O O16 0.220763 0.250000 0.507123
O O17 0.205796 0.000332 0.621602
O O18 0.202817 0.750000 0.764879
#
# Coordination Sequence:
#
# PCOD9158451 Si02
#       7
#     4   4   4   4   4   4   4
#     4   9  16  30  50  76 106 139 184 239 288 335
#     4  10  19  31  49  75 108 146 186 235 289 341
#     4   8  15  31  55  79 104 139 186 234 280 332
#     4  10  19  36  60  86 113 149 190 232 277 332
#     4  11  22  40  64  93 121 150 185 225 270 327
#     4  12  23  36  54  82 116 151 190 237 286 341
#     4  10  21  38  60  84 113 152 189 231 284 338
#
# _framework density 18.238071000000001
#
# number of rings (size 3 to 8) (size 9 to 14) (size 15 to 20)
#    0.000    2.000    1.429    4.714    0.000    0.571 
#    0.000    2.857    0.000    0.000    0.000    0.000 
#    0.000    0.000    0.000    0.000    0.000    0.000 
#
# Total GULP energy -156328.812538 kJ/mol
# GULP energy per Si atom -5583.171876 kJ/mol
# Density = 1.819656 g / cm^3
# Si number density = 18.238071 Si / 1000 Ang^3
#
#
#
# Elastic Constant Matrix: (Units=GPa)
#
#
# Indices 1 2 3 4 5 6 
#
# 1 35.2985 10.0075 31.6747 0.0000 -12.5846 0.0000
# 2 10.0075 68.7499 13.3434 0.0000 -1.0140 0.0000
# 3 31.6747 13.3434 118.0214 0.0000 0.6211 0.0000
# 4 0.0000 0.0000 0.0000 28.9631 0.0000 0.6066
# 5 -12.5846 -1.0140 0.6211 0.0000 30.0674 0.0000
# 6 0.0000 0.0000 0.0000 0.6066 0.0000 25.1238
#
#
#
# Elastic Compliance Matrix: (Units=1/GPa)
#
#
# Indices 1 2 3 4 5 6 
#
# 1 0.047939 -0.004256 -0.012491 0.000000 0.020179 0.000000
# 2 -0.004256 0.015258 -0.000576 0.000000 -0.001255 0.000000
# 3 -0.012491 -0.000576 0.011919 0.000000 -0.005494 0.000000
# 4 0.000000 0.000000 0.000000 0.034544 0.000000 -0.000834
# 5 0.020179 -0.001255 -0.005494 0.000000 0.041776 0.000000
# 6 0.000000 0.000000 0.000000 -0.000834 0.000000 0.039823
#
#
# Mechanical properties :
#
#
# Convention : Reuss Voigt Hill
#
# Bulk Modulus (GPa) = 24.70947 36.90234 30.80591
# Shear Modulus (GPa) = 20.88578 27.96713 24.42646
#
# Velocity S-wave (km/s) = 3.38771 3.92017 3.66363
# Velocity P-wave (km/s) = 5.37400 6.38498 5.90118
#
# Compressibility (1/GPa) = 0.04047031
#
# Stress axis : x y z
#
# Youngs Moduli (GPa) = 20.85963 65.53783 83.89655
#
# Poissons Ratio (x) = 0.27895 1.04795
# Poissons Ratio (y) = 0.08878 0.04834
# Poissons Ratio (z) = 0.26056 0.03776
#
# Static dielectric constant tensor:
#      x y z
#    x 1.607560 0.000000 -0.005740 
#    y 0.000000 1.606580 0.000000 
#    z -0.005740 0.000000 1.636150 
# 
# From -- ./inp_files/28140.got.cif
#   From: 2010.05.17/outbox.cif.g08.bks.cpg/sg11_15_cif.got.tgz:28140.got - 2010.06.03 12:22:45.
