data_PCOD9158453
_publ_section_title
;
Structure prediction by ZEFSAII (Michael W. Deem and Ramdas Pophale) SiO2 
 PCOD9158453
Probable space group: P 21/M
;
_chemical_formula_sum "Si O2"
_cell_formula_units_Z 32
_cell_length_a 12.914265
_cell_length_b 8.037470
_cell_length_c 19.443800
_cell_angle_alpha 90.000000
_cell_angle_beta 49.630487
_cell_angle_gamma 90.000000
_cell_volume 1537.653650
_symmetry_space_group_name_H-M "P 21/M"
_symmetry_group_IT_number 11
_symmetry_cell_setting 'monoclinic'
loop_
_space_group_symop_operation_xyz
x,y,z
-x,1/2+y,-z
-x,-y,-z
x,1/2-y,z
loop_
_atom_site_type_symbol
_atom_site_label
_atom_site_fract_x
_atom_site_fract_y
_atom_site_fract_z
Si Si1 0.078708 0.549709 0.536571
Si Si2 0.922918 0.051041 0.178694
Si Si3 0.058183 0.946064 0.261938
Si Si4 0.177396 0.048185 0.989013
Si Si5 0.318954 0.953188 0.220919
Si Si6 0.422639 0.448795 0.965435
Si Si7 0.336068 0.551945 0.781824
Si Si8 0.350448 0.550432 0.357914
O O1 0.072026 0.750000 0.544857
O O2 0.015666 0.475547 0.633173
O O3 0.237191 0.495576 0.461209
O O4 0.000000 0.500000 0.500000
O O5 0.918719 0.250000 0.172054
O O6 0.770602 0.988904 0.230107
O O7 0.027530 0.987533 0.074524
O O8 0.982460 0.018753 0.228576
O O9 0.068053 0.750000 0.245180
O O10 0.210354 0.013898 0.211883
O O11 0.173776 0.250000 0.988031
O O12 0.273670 0.990739 0.011100
O O13 0.257014 0.992292 0.886711
O O14 0.313024 0.750000 0.222190
O O15 0.472203 0.002825 0.138575
O O16 0.292873 0.010811 0.309124
O O17 0.415570 0.250000 0.968210
O O18 0.500000 0.500000 0.000000
O O19 0.346279 0.750000 0.774327
O O20 0.490038 0.489614 0.706490
O O21 0.342953 0.750000 0.359731
#
# Coordination Sequence:
#
# PCOD9158453 Si02
#       8
#     4   4   4   4   4   4   4   4
#     4  11  22  38  63  92 122 155 193 241 296 357
#     4  10  23  41  58  84 121 158 200 250 298 345
#     4  11  22  38  61  89 121 156 197 243 296 358
#     4  10  20  37  60  82 113 159 202 240 293 355
#     4   9  17  33  54  79 113 148 184 230 282 340
#     4  10  19  31  49  75 110 149 187 228 276 337
#     4  11  23  38  59  88 120 153 200 256 296 341
#     4  10  20  39  62  84 115 153 192 236 291 351
#
# _framework density 20.810929000000002
#
# number of rings (size 3 to 8) (size 9 to 14) (size 15 to 20)
#    0.000    1.750    2.500    2.250    0.000    3.000 
#    0.000    1.250    0.000    0.000    0.000    0.000 
#    0.000    0.000    0.000    0.000    0.000    0.000 
#
# Total GULP energy -178484.030679 kJ/mol
# GULP energy per Si atom -5577.625959 kJ/mol
# Density = 2.076356 g / cm^3
# Si number density = 20.810929 Si / 1000 Ang^3
#
#
#
# Elastic Constant Matrix: (Units=GPa)
#
#
# Indices 1 2 3 4 5 6 
#
# 1 122.3027 -5.3955 27.6536 0.0000 -24.0553 0.0000
# 2 -5.3955 12.5571 -7.8116 0.0000 -5.5218 0.0000
# 3 27.6536 -7.8116 64.2923 0.0000 -19.1969 0.0000
# 4 0.0000 0.0000 0.0000 24.6451 0.0000 2.8457
# 5 -24.0553 -5.5218 -19.1969 0.0000 32.3540 0.0000
# 6 0.0000 0.0000 0.0000 2.8457 0.0000 24.0063
#
#
#
# Elastic Compliance Matrix: (Units=1/GPa)
#
#
# Indices 1 2 3 4 5 6 
#
# 1 0.010394 0.007492 -0.001059 0.000000 0.008379 0.000000
# 2 0.007492 0.113035 0.021796 0.000000 0.037795 0.000000
# 3 -0.001059 0.021796 0.023739 0.000000 0.017018 0.000000
# 4 0.000000 0.000000 0.000000 0.041139 0.000000 -0.004877
# 5 0.008379 0.037795 0.017018 0.000000 0.053686 0.000000
# 6 0.000000 0.000000 0.000000 -0.004877 0.000000 0.042234
#
#
# Mechanical properties :
#
#
# Convention : Reuss Voigt Hill
#
# Bulk Modulus (GPa) = 4.91093 25.33833 15.12463
# Shear Modulus (GPa) = 16.91227 28.51476 22.71352
#
# Velocity S-wave (km/s) = 2.85382 3.70561 3.30725
# Velocity P-wave (km/s) = 3.63647 5.52365 4.67625
#
# Compressibility (1/GPa) = 0.20362732
#
# Stress axis : x y z
#
# Youngs Moduli (GPa) = 96.20638 8.84684 42.12465
#
# Poissons Ratio (x) = -0.06628 0.04460
# Poissons Ratio (y) = -0.72078 -0.91816
# Poissons Ratio (z) = 0.10186 -0.19283
#
# Static dielectric constant tensor:
#      x y z
#    x 1.698150 0.000000 0.025540 
#    y 0.000000 1.737320 0.000000 
#    z 0.025540 0.000000 1.774670 
# 
# From -- ./inp_files/64398.got.cif
#   From: 2010.05.17/outbox.cif.g08.bks.cpg/sg11_33_cif.got.tgz:64398.got - 2010.06.03 12:22:45.
