data_PCOD9158373
_publ_section_title
;
Structure prediction by ZEFSAII (Michael W. Deem and Ramdas Pophale) SiO2 
 PCOD9158373
Probable space group: P 21/M
;
_chemical_formula_sum "Si O2"
_cell_formula_units_Z 32
_cell_length_a 18.686398
_cell_length_b 7.584106
_cell_length_c 11.959640
_cell_angle_alpha 90.000000
_cell_angle_beta 85.312554
_cell_angle_gamma 90.000000
_cell_volume 1689.246718
_symmetry_space_group_name_H-M "P 21/M"
_symmetry_group_IT_number 11
_symmetry_cell_setting 'monoclinic'
loop_
_space_group_symop_operation_xyz
x,y,z
-x,1/2+y,-z
-x,-y,-z
x,1/2-y,z
loop_
_atom_site_type_symbol
_atom_site_label
_atom_site_fract_x
_atom_site_fract_y
_atom_site_fract_z
Si Si1 0.557595 0.535473 0.135860
Si Si2 0.748821 0.954374 0.913942
Si Si3 0.711355 0.533567 0.167855
Si Si4 0.084568 0.038182 0.496568
Si Si5 0.119049 0.466402 0.248409
Si Si6 0.155644 0.044164 0.713690
Si Si7 0.979615 0.459503 0.129845
Si Si8 0.404758 0.954143 0.125826
O O1 0.555257 0.750000 0.131493
O O2 0.628082 0.483581 0.196450
O O3 0.477015 0.475445 0.176392
O O4 0.575093 0.471117 0.008181
O O5 0.766907 0.750000 0.930010
O O6 0.814324 0.029941 0.834588
O O7 0.673628 0.962037 0.856576
O O8 0.735137 0.027601 0.040196
O O9 0.712534 0.750000 0.166048
O O10 0.769702 0.470028 0.249273
O O11 0.090693 0.250000 0.498443
O O12 0.120396 0.975714 0.376764
O O13 0.120680 0.967628 0.605372
O O14 0.000000 0.000000 0.500000
O O15 0.119793 0.250000 0.248396
O O16 0.044316 0.522145 0.201145
O O17 0.169401 0.250000 0.689481
O O18 0.095823 0.034220 0.818578
O O19 0.974403 0.250000 0.142706
O O20 0.000000 0.500000 0.000000
O O21 0.396177 0.750000 0.156340
#
# Coordination Sequence:
#
# PCOD9158373 Si02
#       8
#     4   4   4   4   4   4   4   4
#     4   8  14  25  40  57  84 121 148 167 206 267
#     4   9  16  28  44  59  84 120 150 175 214 269
#     4   8  14  26  43  63  87 116 147 176 213 264
#     4  10  19  33  51  69  88 113 151 195 232 268
#     4   9  18  32  48  64  86 120 153 183 223 270
#     4  10  19  31  49  70  90 114 150 192 227 264
#     4  11  21  33  48  65  91 121 150 182 222 274
#     4   9  15  23  38  62  88 111 142 181 215 252
#
# _framework density 18.943356000000001
#
# number of rings (size 3 to 8) (size 9 to 14) (size 15 to 20)
#    0.000    2.750    1.250    2.250    0.000    2.500 
#    0.000    6.875    0.000    0.000    0.000    0.875 
#    0.000    0.000    0.000    0.000    0.000    0.000 
#
# Total GULP energy -178299.331677 kJ/mol
# GULP energy per Si atom -5571.854115 kJ/mol
# Density = 1.890024 g / cm^3
# Si number density = 18.943356 Si / 1000 Ang^3
#
#
#
# Elastic Constant Matrix: (Units=GPa)
#
#
# Indices 1 2 3 4 5 6 
#
# 1 114.7676 -2.0900 28.2933 0.0000 38.8677 0.0000
# 2 -2.0900 42.0377 1.3177 0.0000 1.3564 0.0000
# 3 28.2933 1.3177 70.8860 0.0000 28.5574 0.0000
# 4 0.0000 0.0000 0.0000 5.5827 0.0000 0.3529
# 5 38.8677 1.3564 28.5574 0.0000 23.9936 0.0000
# 6 0.0000 0.0000 0.0000 0.3529 0.0000 16.7286
#
#
#
# Elastic Compliance Matrix: (Units=1/GPa)
#
#
# Indices 1 2 3 4 5 6 
#
# 1 0.023481 0.002480 0.011454 0.000000 -0.051811 0.000000
# 2 0.002480 0.024095 0.001401 0.000000 -0.007048 0.000000
# 3 0.011454 0.001401 0.032692 0.000000 -0.057544 0.000000
# 4 0.000000 0.000000 0.000000 0.179364 0.000000 -0.003784
# 5 -0.051811 -0.007048 -0.057544 0.000000 0.194495 0.000000
# 6 0.000000 0.000000 0.000000 -0.003784 0.000000 0.059858
#
#
# Mechanical properties :
#
#
# Convention : Reuss Voigt Hill
#
# Bulk Modulus (GPa) = 9.01393 31.41483 20.21438
# Shear Modulus (GPa) = 9.60997 22.60566 16.10781
#
# Velocity S-wave (km/s) = 2.25478 3.45821 2.91918
# Velocity P-wave (km/s) = 3.39814 5.70659 4.69641
#
# Compressibility (1/GPa) = 0.11093941
#
# Stress axis : x y z
#
# Youngs Moduli (GPa) = 42.58747 41.50248 30.58878
#
# Poissons Ratio (x) = -0.10293 -0.35037
# Poissons Ratio (y) = -0.10562 -0.04287
# Poissons Ratio (z) = -0.48781 -0.05816
#
# Static dielectric constant tensor:
#      x y z
#    x 1.700630 0.000000 0.016810 
#    y 0.000000 1.731700 0.000000 
#    z 0.016810 0.000000 1.684090 
# 
# From -- ./inp_files/40658.got.cif
#   From: 2010.05.17/outbox.cif.g08.bks.cpg/sg11_21_cif.got.tgz:40658.got - 2010.06.03 12:22:45.
