data_PCOD9158457
_publ_section_title
;
Structure prediction by ZEFSAII (Michael W. Deem and Ramdas Pophale) SiO2 
 PCOD9158457
Probable space group: P 21/M
;
_chemical_formula_sum "Si O2"
_cell_formula_units_Z 28
_cell_length_a 14.474730
_cell_length_b 8.357565
_cell_length_c 18.069217
_cell_angle_alpha 90.000000
_cell_angle_beta 135.828697
_cell_angle_gamma 90.000000
_cell_volume 1523.145584
_symmetry_space_group_name_H-M "P 21/M"
_symmetry_group_IT_number 11
_symmetry_cell_setting 'monoclinic'
loop_
_space_group_symop_operation_xyz
x,y,z
-x,1/2+y,-z
-x,-y,-z
x,1/2-y,z
loop_
_atom_site_type_symbol
_atom_site_label
_atom_site_fract_x
_atom_site_fract_y
_atom_site_fract_z
Si Si1 0.329420 0.445820 0.167901
Si Si2 0.789495 0.941646 0.594803
Si Si3 0.084297 0.058347 0.734665
Si Si4 0.372028 0.556771 0.632025
Si Si5 0.862875 0.942988 0.070416
Si Si6 0.844439 0.556776 0.791845
Si Si7 0.857716 0.059034 0.389412
O O1 0.330063 0.250000 0.168133
O O2 0.480823 0.499145 0.262965
O O3 0.242700 0.496843 0.188903
O O4 0.254696 0.498519 0.050486
O O5 0.790963 0.750000 0.592981
O O6 0.783724 0.992480 0.677471
O O7 0.674430 0.005194 0.476061
O O8 0.930640 0.004428 0.645568
O O9 0.087423 0.250000 0.734220
O O10 0.141703 0.002174 0.846789
O O11 0.155816 0.992624 0.703393
O O12 0.372430 0.750000 0.634415
O O13 0.260693 0.498854 0.626136
O O14 0.860666 0.750000 0.070260
O O15 0.005121 0.995007 0.119931
O O16 0.848894 0.750000 0.795405
O O17 0.858271 0.250000 0.393721
O O18 0.000000 0.000000 0.500000
#
# Coordination Sequence:
#
# PCOD9158457 Si02
#       7
#     4   4   4   4   4   4   4
#     4   9  18  35  54  73 102 139 173 207 250 303
#     4  10  19  31  49  76 106 133 165 210 259 301
#     4  10  19  32  52  78 103 130 168 211 257 302
#     4  10  21  35  52  73 101 137 173 206 251 312
#     4   9  18  33  55  78 101 133 173 212 249 297
#     4   9  18  32  53  78 103 133 170 211 255 299
#     4  11  21  33  53  78 102 132 170 213 256 303
#
# _framework density 18.383009000000001
#
# number of rings (size 3 to 8) (size 9 to 14) (size 15 to 20)
#    0.000    2.286    1.429    1.714    0.000    2.286 
#    0.000    2.143    0.000    0.000    0.000    0.000 
#    0.000    0.000    0.000    0.000    0.000    0.000 
#
# Total GULP energy -156250.971687 kJ/mol
# GULP energy per Si atom -5580.391846 kJ/mol
# Density = 1.834117 g / cm^3
# Si number density = 18.383009 Si / 1000 Ang^3
#
#
#
# Elastic Constant Matrix: (Units=GPa)
#
#
# Indices 1 2 3 4 5 6 
#
# 1 47.0827 11.2571 66.5792 0.0000 -7.4085 0.0000
# 2 11.2571 12.0144 15.2832 0.0000 -0.3040 0.0000
# 3 66.5792 15.2832 178.7384 0.0000 2.2952 0.0000
# 4 0.0000 0.0000 0.0000 16.2447 0.0000 -0.8590
# 5 -7.4085 -0.3040 2.2952 0.0000 19.0824 0.0000
# 6 0.0000 0.0000 0.0000 -0.8590 0.0000 20.0309
#
#
#
# Elastic Compliance Matrix: (Units=1/GPa)
#
#
# Indices 1 2 3 4 5 6 
#
# 1 0.062404 -0.031202 -0.020914 0.000000 0.026246 0.000000
# 2 -0.031202 0.109107 0.002430 0.000000 -0.010668 0.000000
# 3 -0.020914 0.002430 0.013302 0.000000 -0.009681 0.000000
# 4 0.000000 0.000000 0.000000 0.061698 0.000000 0.002646
# 5 0.026246 -0.010668 -0.009681 0.000000 0.063588 0.000000
# 6 0.000000 0.000000 0.000000 0.002646 0.000000 0.050036
#
#
# Mechanical properties :
#
#
# Convention : Reuss Voigt Hill
#
# Bulk Modulus (GPa) = 11.70392 47.11939 29.41165
# Shear Modulus (GPa) = 10.24616 20.71933 15.48275
#
# Velocity S-wave (km/s) = 2.36343 3.36086 2.90527
# Velocity P-wave (km/s) = 3.71864 6.38343 5.22381
#
# Compressibility (1/GPa) = 0.08544149
#
# Stress axis : x y z
#
# Youngs Moduli (GPa) = 16.02471 9.16528 75.17822
#
# Poissons Ratio (x) = 0.28597 1.57229
# Poissons Ratio (y) = 0.50000 -0.18269
# Poissons Ratio (z) = 0.33514 -0.02227
#
# Static dielectric constant tensor:
#      x y z
#    x 1.621240 0.000000 -0.027170 
#    y 0.000000 1.635220 0.000000 
#    z -0.027170 0.000000 1.631180 
# 
# From -- ./inp_files/53210.got.cif
#   From: 2010.05.17/outbox.cif.g08.bks.cpg/sg11_27_cif.got.tgz:53210.got - 2010.06.03 12:22:45.
