data_PCOD9158595
_publ_section_title
;
Structure prediction by ZEFSAII (Michael W. Deem and Ramdas Pophale) SiO2 
 PCOD9158595
Probable space group: P 21/M
;
_chemical_formula_sum "Si O2"
_cell_formula_units_Z 28
_cell_length_a 30.051934
_cell_length_b 8.874007
_cell_length_c 9.476142
_cell_angle_alpha 90.000000
_cell_angle_beta 141.335973
_cell_angle_gamma 90.000000
_cell_volume 1578.816968
_symmetry_space_group_name_H-M "P 21/M"
_symmetry_group_IT_number 11
_symmetry_cell_setting 'monoclinic'
loop_
_space_group_symop_operation_xyz
x,y,z
-x,1/2+y,-z
-x,-y,-z
x,1/2-y,z
loop_
_atom_site_type_symbol
_atom_site_label
_atom_site_fract_x
_atom_site_fract_y
_atom_site_fract_z
Si Si1 0.720078 0.576858 0.129286
Si Si2 0.865094 0.932248 0.821912
Si Si3 0.708211 0.923888 0.442490
Si Si4 0.437386 0.432216 0.251446
Si Si5 0.437745 0.929498 0.939311
Si Si6 0.000320 0.068124 0.655834
Si Si7 0.866130 0.070337 0.513204
O O1 0.732082 0.750000 0.116177
O O2 0.714131 0.575050 0.285864
O O3 0.789104 0.480279 0.264265
O O4 0.641668 0.527539 0.885874
O O5 0.864149 0.750000 0.806929
O O6 0.786530 0.976030 0.683943
O O7 0.875322 0.998868 0.691115
O O8 0.929214 0.976968 0.082593
O O9 0.696216 0.750000 0.455657
O O10 0.640046 0.022525 0.311591
O O11 0.500000 0.500000 0.500000
O O12 0.440658 0.250000 0.252986
O O13 0.443139 0.499848 0.108960
O O14 0.443682 0.750000 0.960430
O O15 0.500000 0.000000 0.000000
O O16 0.000345 0.250000 0.646675
O O17 0.930396 0.022259 0.570908
O O18 0.000000 0.000000 0.500000
O O19 0.867808 0.250000 0.531470
#
# Coordination Sequence:
#
# PCOD9158595 Si02
#       7
#     4   4   4   4   4   4   4
#     4   8  16  31  51  74 102 135 168 203 251 305
#     4   9  18  34  55  76 100 131 168 208 253 304
#     4   8  15  30  51  74  99 129 168 213 254 299
#     4  10  20  35  54  78 106 137 174 214 256 307
#     4  11  21  34  53  77 106 139 173 213 259 307
#     4  10  22  37  51  73 104 137 169 204 250 302
#     4  10  19  31  52  80 103 126 168 217 252 290
#
# _framework density 17.734798000000001
#
# number of rings (size 3 to 8) (size 9 to 14) (size 15 to 20)
#    0.000    2.571    0.000    4.286    0.000    7.429 
#    0.000    1.429    0.000    5.143    0.000    0.000 
#    0.000    0.000    0.000    0.000    0.000    0.000 
#
# Total GULP energy -156117.319378 kJ/mol
# GULP energy per Si atom -5575.618549 kJ/mol
# Density = 1.769443 g / cm^3
# Si number density = 17.734798 Si / 1000 Ang^3
#
#
#
# Elastic Constant Matrix: (Units=GPa)
#
#
# Indices 1 2 3 4 5 6 
#
# 1 115.7148 52.1890 81.5523 0.0000 30.8028 0.0000
# 2 52.1890 63.4213 49.4592 0.0000 16.3902 0.0000
# 3 81.5523 49.4592 147.5045 0.0000 36.2858 0.0000
# 4 0.0000 0.0000 0.0000 29.0116 0.0000 2.8034
# 5 30.8028 16.3902 36.2858 0.0000 28.0451 0.0000
# 6 0.0000 0.0000 0.0000 2.8034 0.0000 28.5958
#
#
#
# Elastic Compliance Matrix: (Units=1/GPa)
#
#
# Indices 1 2 3 4 5 6 
#
# 1 0.018660 -0.009134 -0.005171 0.000000 -0.008465 0.000000
# 2 -0.009134 0.026256 -0.003589 0.000000 -0.000668 0.000000
# 3 -0.005171 -0.003589 0.013097 0.000000 -0.009169 0.000000
# 4 0.000000 0.000000 0.000000 0.034799 0.000000 -0.003412
# 5 -0.008465 -0.000668 -0.009169 0.000000 0.057208 0.000000
# 6 0.000000 0.000000 0.000000 -0.003412 0.000000 0.035305
#
#
# Mechanical properties :
#
#
# Convention : Reuss Voigt Hill
#
# Bulk Modulus (GPa) = 44.99765 77.00461 61.00113
# Shear Modulus (GPa) = 21.87978 26.69318 24.28648
#
# Velocity S-wave (km/s) = 3.51625 3.88381 3.70459
# Velocity P-wave (km/s) = 6.47402 7.97661 7.26427
#
# Compressibility (1/GPa) = 0.02222338
#
# Stress axis : x y z
#
# Youngs Moduli (GPa) = 53.59151 38.08667 76.35053
#
# Poissons Ratio (x) = 0.34790 0.39483
# Poissons Ratio (y) = 0.48952 0.27404
# Poissons Ratio (z) = 0.27714 0.13670
#
# Static dielectric constant tensor:
#      x y z
#    x 1.592050 0.000000 0.028620 
#    y 0.000000 1.596070 0.000000 
#    z 0.028620 0.000000 1.631040 
# 
# From -- ./inp_files/29122.got.cif
#   From: 2010.05.17/outbox.cif.g08.bks.cpg/sg11_15_cif.got.tgz:29122.got - 2010.06.03 12:22:45.
