data_PCOD9158067
_publ_section_title
;
Structure prediction by ZEFSAII (Michael W. Deem and Ramdas Pophale) SiO2 
 PCOD9158067
Probable space group: P 21/M
;
_chemical_formula_sum "Si O2"
_cell_formula_units_Z 32
_cell_length_a 18.524084
_cell_length_b 13.754235
_cell_length_c 18.892621
_cell_angle_alpha 90.000000
_cell_angle_beta 21.647089
_cell_angle_gamma 90.000000
_cell_volume 1775.663208
_symmetry_space_group_name_H-M "P 21/M"
_symmetry_group_IT_number 11
_symmetry_cell_setting 'monoclinic'
loop_
_space_group_symop_operation_xyz
x,y,z
-x,1/2+y,-z
-x,-y,-z
x,1/2-y,z
loop_
_atom_site_type_symbol
_atom_site_label
_atom_site_fract_x
_atom_site_fract_y
_atom_site_fract_z
Si Si1 0.169758 0.026459 0.790344
Si Si2 0.676831 0.636432 0.633547
Si Si3 0.466550 0.864447 0.524855
Si Si4 0.518789 0.365671 0.322677
Si Si5 0.759810 0.362607 0.900628
Si Si6 0.216607 0.475910 0.329663
Si Si7 0.439799 0.866578 0.059276
Si Si8 0.051140 0.632897 0.132993
O O1 0.323588 0.096556 0.691085
O O2 0.287723 0.929252 0.661261
O O3 0.091406 0.080634 0.791883
O O4 0.000000 0.000000 0.000000
O O5 0.738996 0.750000 0.577083
O O6 0.643980 0.596751 0.583933
O O7 0.794454 0.573558 0.582972
O O8 0.453914 0.635980 0.867416
O O9 0.440925 0.750000 0.538713
O O10 0.480189 0.889502 0.596257
O O11 0.488904 0.250000 0.346451
O O12 0.735309 0.383632 0.096366
O O13 0.812219 0.250000 0.843808
O O14 0.709800 0.398492 0.867907
O O15 0.915635 0.401190 0.815822
O O16 0.353343 0.572842 0.203626
O O17 0.000000 0.500000 0.500000
O O18 0.346139 0.402577 0.161913
O O19 0.437455 0.750000 0.068725
O O20 0.012694 0.750000 0.168360
#
# Coordination Sequence:
#
# PCOD9158067 Si02
#       8
#     4   4   4   4   4   4   4   4
#     4  11  21  32  50  76 106 134 167 200 248 301
#     4   8  14  27  48  73 104 133 157 196 252 304
#     4  10  21  35  50  74 107 136 167 204 248 301
#     4   8  14  28  50  73 102 134 157 196 256 305
#     4   7  12  25  46  70  98 130 158 196 251 302
#     4  10  19  30  47  74 106 133 169 204 246 300
#     4   9  18  33  50  71 104 138 168 205 253 303
#     4   9  15  27  49  75 104 132 161 200 248 299
#
# _framework density 18.021436000000001
#
# number of rings (size 3 to 8) (size 9 to 14) (size 15 to 20)
#    0.000    3.000    1.250    3.000    0.000    1.500 
#    2.250    0.000    0.000    0.000    0.000   19.250 
#    0.000    0.000    0.000    0.000    0.000    0.000 
#
# Total GULP energy -178140.245290 kJ/mol
# GULP energy per Si atom -5566.882665 kJ/mol
# Density = 1.798042 g / cm^3
# Si number density = 18.021436 Si / 1000 Ang^3
#
#
#
# Elastic Constant Matrix: (Units=GPa)
#
#
# Indices 1 2 3 4 5 6 
#
# 1 58.6522 30.0993 37.1671 0.0000 -19.0826 0.0000
# 2 30.0993 98.5760 35.0571 0.0000 -13.0922 0.0000
# 3 37.1671 35.0571 85.4323 0.0000 -18.7803 0.0000
# 4 0.0000 0.0000 0.0000 13.8983 0.0000 -16.1421
# 5 -19.0826 -13.0922 -18.7803 0.0000 32.1553 0.0000
# 6 0.0000 0.0000 0.0000 -16.1421 0.0000 24.7695
#
#
#
# Elastic Compliance Matrix: (Units=1/GPa)
#
#
# Indices 1 2 3 4 5 6 
#
# 1 0.027564 -0.004227 -0.008077 0.000000 0.009920 0.000000
# 2 -0.004227 0.012674 -0.003188 0.000000 0.000790 0.000000
# 3 -0.008077 -0.003188 0.017425 0.000000 0.004086 0.000000
# 4 0.000000 0.000000 0.000000 0.295982 0.000000 0.192889
# 5 0.009920 0.000790 0.004086 0.000000 0.039694 0.000000
# 6 0.000000 0.000000 0.000000 0.192889 0.000000 0.166077
#
#
# Mechanical properties :
#
#
# Convention : Reuss Voigt Hill
#
# Bulk Modulus (GPa) = 37.48086 49.70084 43.59085
# Shear Modulus (GPa) = 8.34317 23.52042 15.93179
#
# Velocity S-wave (km/s) = 2.15398 3.61659 2.97652
# Velocity P-wave (km/s) = 5.19897 6.71403 6.00448
#
# Compressibility (1/GPa) = 0.02668028
#
# Stress axis : x y z
#
# Youngs Moduli (GPa) = 36.27885 78.90311 57.38728
#
# Poissons Ratio (x) = 0.33350 0.46350
# Poissons Ratio (y) = 0.15334 0.18297
# Poissons Ratio (z) = 0.29301 0.25156
#
# Static dielectric constant tensor:
#      x y z
#    x 1.688710 0.000000 0.016590 
#    y 0.000000 1.610900 0.000000 
#    z 0.016590 0.000000 1.717940 
# 
# From -- ./inp_files/66272.got.cif
#   From: 2010.05.17/outbox.cif.g08.bks.cpg/sg11_34_cif.got.tgz:66272.got - 2010.06.03 12:22:45.
