data_PCOD9158168
_publ_section_title
;
Structure prediction by ZEFSAII (Michael W. Deem and Ramdas Pophale) SiO2 
 PCOD9158168
Probable space group: P 21/M
;
_chemical_formula_sum "Si O2"
_cell_formula_units_Z 26
_cell_length_a 15.600459
_cell_length_b 9.577963
_cell_length_c 12.010527
_cell_angle_alpha 90.000000
_cell_angle_beta 38.372825
_cell_angle_gamma 90.000000
_cell_volume 1114.057279
_symmetry_space_group_name_H-M "P 21/M"
_symmetry_group_IT_number 11
_symmetry_cell_setting 'monoclinic'
loop_
_space_group_symop_operation_xyz
x,y,z
-x,1/2+y,-z
-x,-y,-z
x,1/2-y,z
loop_
_atom_site_type_symbol
_atom_site_label
_atom_site_fract_x
_atom_site_fract_y
_atom_site_fract_z
Si Si1 0.989575 0.250000 0.002843
Si Si2 0.282840 0.591077 0.187220
Si Si3 0.923811 0.081789 0.419014
Si Si4 0.630954 0.909695 0.333620
Si Si5 0.513383 0.909694 0.151275
Si Si6 0.301260 0.088817 0.488639
Si Si7 0.105873 0.490015 0.049133
O O1 0.031235 0.368973 0.054321
O O2 0.943687 0.130391 0.958305
O O3 0.273693 0.750000 0.151560
O O4 0.139712 0.551931 0.394201
O O5 0.397610 0.595571 0.170561
O O6 0.350277 0.479612 0.036905
O O7 0.918547 0.250000 0.414654
O O8 0.815071 0.004256 0.448809
O O9 0.064403 0.026542 0.220919
O O10 0.590934 0.750000 0.352653
O O11 0.719948 0.906838 0.357611
O O12 0.500000 0.000000 0.500000
O O13 0.731030 0.969394 0.138445
O O14 0.533404 0.750000 0.166961
O O15 0.443492 0.011013 0.313082
O O16 0.301817 0.250000 0.448147
#
# Coordination Sequence:
#
# PCOD9158168 Si02
#       7
#     2   4   4   4   4   4   4
#     4  10  20  32  56  78 106 134 170 222 268 314
#     4   8  15  26  41  67 101 135 164 199 258 316
#     4  10  19  30  50  77 106 136 169 214 265 319
#     4  11  25  40  54  74 105 144 186 222 260 308
#     4   9  16  28  44  67  98 135 169 207 256 315
#     4  10  20  32  50  74 101 134 178 218 260 313
#     4  11  21  36  53  80 107 139 176 218 269 318
#
# _framework density 23.338118000000001
#
# number of rings (size 3 to 8) (size 9 to 14) (size 15 to 20)
#    0.000    2.154    1.538    3.692    4.308    4.923 
#    0.000    0.000    0.000    0.000    0.000    1.077 
#    0.000    0.000    0.000    0.000    0.000    0.000 
#
# Total GULP energy -144783.189123 kJ/mol
# GULP energy per Si atom -5568.584197 kJ/mol
# Density = 2.328500 g / cm^3
# Si number density = 23.338118 Si / 1000 Ang^3
#
#
#
# Elastic Constant Matrix: (Units=GPa)
#
#
# Indices 1 2 3 4 5 6 
#
# 1 51.3728 16.4970 25.8651 0.0000 1.1037 0.0000
# 2 16.4970 90.8409 37.7628 0.0000 -11.1500 0.0000
# 3 25.8651 37.7628 196.6589 0.0000 -8.8080 0.0000
# 4 0.0000 0.0000 0.0000 3.7455 0.0000 18.0328
# 5 1.1037 -11.1500 -8.8080 0.0000 34.7080 0.0000
# 6 0.0000 0.0000 0.0000 18.0328 0.0000 -3.2021
#
#
#
# Elastic Compliance Matrix: (Units=1/GPa)
#
#
# Indices 1 2 3 4 5 6 
#
# 1 0.021740 -0.003263 -0.002337 0.000000 -0.002333 0.000000
# 2 -0.003263 0.012838 -0.001868 0.000000 0.003754 0.000000
# 3 -0.002337 -0.001868 0.005793 0.000000 0.000944 0.000000
# 4 0.000000 0.000000 0.000000 0.009497 0.000000 0.053482
# 5 -0.002333 0.003754 0.000944 0.000000 0.030332 0.000000
# 6 0.000000 0.000000 0.000000 0.053482 0.000000 -0.011109
#
#
# Mechanical properties :
#
#
# Convention : Reuss Voigt Hill
#
# Bulk Modulus (GPa) = 39.31495 55.45804 47.38649
# Shear Modulus (GPa) = 54.05063 24.30015 39.17539
#
# Velocity S-wave (km/s) = 4.81768 3.23030 4.10152
# Velocity P-wave (km/s) = 6.91586 6.14227 6.54052
#
# Compressibility (1/GPa) = 0.02543562
#
# Stress axis : x y z
#
# Youngs Moduli (GPa) = 45.99772 77.89343 172.61221
#
# Poissons Ratio (x) = 0.25415 0.40344
# Poissons Ratio (y) = 0.15008 0.32243
# Poissons Ratio (z) = 0.10751 0.14550
#
# Static dielectric constant tensor:
#      x y z
#    x 1.927270 0.000000 -0.019860 
#    y 0.000000 1.791670 0.000000 
#    z -0.019860 0.000000 1.937850 
# 
# From -- ./inp_files/54169.got.cif
#   From: 2010.05.17/outbox.cif.g08.bks.cpg/sg11_28_cif.got.tgz:54169.got - 2010.06.03 12:22:45.
