data_PCOD9158639
_publ_section_title
;
Structure prediction by ZEFSAII (Michael W. Deem and Ramdas Pophale) SiO2 
 PCOD9158639
Probable space group: P 21/M
;
_chemical_formula_sum "Si O2"
_cell_formula_units_Z 24
_cell_length_a 11.178676
_cell_length_b 17.493709
_cell_length_c 15.451546
_cell_angle_alpha 90.000000
_cell_angle_beta 153.143690
_cell_angle_gamma 90.000000
_cell_volume 1365.044291
_symmetry_space_group_name_H-M "P 21/M"
_symmetry_group_IT_number 11
_symmetry_cell_setting 'monoclinic'
loop_
_space_group_symop_operation_xyz
x,y,z
-x,1/2+y,-z
-x,-y,-z
x,1/2-y,z
loop_
_atom_site_type_symbol
_atom_site_label
_atom_site_fract_x
_atom_site_fract_y
_atom_site_fract_z
Si Si1 0.416945 0.546703 0.295852
Si Si2 0.527024 0.835813 0.518416
Si Si3 0.159203 0.950613 0.533831
Si Si4 0.369838 0.160006 0.114394
Si Si5 0.084048 0.396326 0.103709
Si Si6 0.000040 0.338746 0.709724
O O1 0.495643 0.602704 0.423371
O O2 0.667014 0.507944 0.412640
O O3 0.229876 0.478127 0.209971
O O4 0.227470 0.590443 0.105522
O O5 0.492634 0.750000 0.462129
O O6 0.802691 0.844968 0.746706
O O7 0.294271 0.847808 0.439055
O O8 0.371088 0.892496 0.713602
O O9 0.980302 0.898322 0.355409
O O10 0.000000 0.000000 0.500000
O O11 0.433585 0.250000 0.162897
O O12 0.187545 0.136695 0.078744
O O13 0.204384 0.147727 0.919851
O O14 0.025161 0.250000 0.698395
#
# Coordination Sequence:
#
# PCOD9158639 Si02
#       6
#     4   4   4   4   4   4
#     4  10  21  34  53  82 115 140 176 227 285 328
#     4  11  20  32  55  86 115 142 175 227 291 345
#     4  11  24  39  57  79 112 159 197 227 265 327
#     4  10  19  35  60  86 110 141 186 237 281 330
#     4  10  19  31  55  86 114 138 171 226 289 341
#     4  10  20  35  60  87 110 139 186 238 280 330
#
# _framework density 17.581845999999999
#
# number of rings (size 3 to 8) (size 9 to 14) (size 15 to 20)
#    0.000    1.667    5.000    1.500    0.000    1.333 
#    0.000    1.667    0.000    2.000    0.000    0.000 
#    0.000    0.000    0.000    0.000    0.000    0.000 
#
# Total GULP energy -133977.630526 kJ/mol
# GULP energy per Si atom -5582.401272 kJ/mol
# Density = 1.754183 g / cm^3
# Si number density = 17.581846 Si / 1000 Ang^3
#
#
#
# Elastic Constant Matrix: (Units=GPa)
#
#
# Indices 1 2 3 4 5 6 
#
# 1 49.6123 57.8471 27.5859 0.0000 -15.0570 0.0000
# 2 57.8471 121.0832 52.3468 0.0000 -20.5652 0.0000
# 3 27.5859 52.3468 75.3078 0.0000 -23.7423 0.0000
# 4 0.0000 0.0000 0.0000 35.6387 0.0000 -11.4054
# 5 -15.0570 -20.5652 -23.7423 0.0000 18.5680 0.0000
# 6 0.0000 0.0000 0.0000 -11.4054 0.0000 25.2608
#
#
#
# Elastic Compliance Matrix: (Units=1/GPa)
#
#
# Indices 1 2 3 4 5 6 
#
# 1 0.050036 -0.021853 0.003389 0.000000 0.020705 0.000000
# 2 -0.021853 0.021562 -0.008445 0.000000 -0.004638 0.000000
# 3 0.003389 -0.008445 0.026514 0.000000 0.027296 0.000000
# 4 0.000000 0.000000 0.000000 0.032799 0.000000 0.014809
# 5 0.020705 -0.004638 0.027296 0.000000 0.100412 0.000000
# 6 0.000000 0.000000 0.000000 0.014809 0.000000 0.046273
#
#
# Mechanical properties :
#
#
# Convention : Reuss Voigt Hill
#
# Bulk Modulus (GPa) = 22.57682 57.95141 40.26412
# Shear Modulus (GPa) = 14.44341 23.10840 18.77590
#
# Velocity S-wave (km/s) = 2.86928 3.62931 3.27144
# Velocity P-wave (km/s) = 4.88323 7.11301 6.10086
#
# Compressibility (1/GPa) = 0.04429321
#
# Stress axis : x y z
#
# Youngs Moduli (GPa) = 19.98562 46.37698 37.71653
#
# Poissons Ratio (x) = 1.01348 -0.12783
# Poissons Ratio (y) = 0.43675 0.31853
# Poissons Ratio (z) = -0.06774 0.39167
#
# Static dielectric constant tensor:
#      x y z
#    x 1.555440 0.000000 -0.007570 
#    y 0.000000 1.620610 0.000000 
#    z -0.007570 0.000000 1.631610 
# 
# From -- ./inp_files/35830.got.cif
#   From: 2010.05.17/outbox.cif.g08.bks.cpg/sg11_18_cif.got.tgz:35830.got - 2010.06.03 12:22:45.
