data_PCOD9158104
_publ_section_title
;
Structure prediction by ZEFSAII (Michael W. Deem and Ramdas Pophale) SiO2 
 PCOD9158104
Probable space group: P 21/M
;
_chemical_formula_sum "Si O2"
_cell_formula_units_Z 32
_cell_length_a 16.554068
_cell_length_b 8.703913
_cell_length_c 25.040245
_cell_angle_alpha 90.000000
_cell_angle_beta 153.532221
_cell_angle_gamma 90.000000
_cell_volume 1608.033495
_symmetry_space_group_name_H-M "P 21/M"
_symmetry_group_IT_number 11
_symmetry_cell_setting 'monoclinic'
loop_
_space_group_symop_operation_xyz
x,y,z
-x,1/2+y,-z
-x,-y,-z
x,1/2-y,z
loop_
_atom_site_type_symbol
_atom_site_label
_atom_site_fract_x
_atom_site_fract_y
_atom_site_fract_z
Si Si1 0.946441 0.569974 0.195826
Si Si2 0.586040 0.930046 0.381135
Si Si3 0.307962 0.075651 0.377794
Si Si4 0.955892 0.065503 0.634406
Si Si5 0.445620 0.931935 0.748935
Si Si6 0.148239 0.434988 0.977597
Si Si7 0.213237 0.077725 0.196805
Si Si8 0.105795 0.567935 0.613474
O O1 0.900946 0.750000 0.169936
O O2 0.863021 0.506994 0.090984
O O3 0.158730 0.539162 0.312314
O O4 0.927302 0.509479 0.244998
O O5 0.590711 0.750000 0.393398
O O6 0.747243 0.007048 0.510620
O O7 0.626108 0.971959 0.343417
O O8 0.382548 0.991214 0.270797
O O9 0.295100 0.250000 0.392208
O O10 0.269857 0.086417 0.292366
O O11 0.500000 0.000000 0.500000
O O12 0.950637 0.250000 0.632787
O O13 0.044954 0.009791 0.632176
O O14 0.434224 0.750000 0.728297
O O15 0.317279 0.955377 0.723970
O O16 0.653754 0.971267 0.883213
O O17 0.126587 0.250000 0.963477
O O18 0.985069 0.501067 0.917040
O O19 0.200041 0.250000 0.166328
O O20 0.070965 0.750000 0.596418
O O21 0.000000 0.500000 0.500000
#
# Coordination Sequence:
#
# PCOD9158104 Si02
#       8
#     4   4   4   4   4   4   4   4
#     4   9  19  35  56  80 109 147 187 229 278 331
#     4  12  24  36  56  85 115 150 194 239 284 340
#     4  10  19  30  48  74 106 145 187 231 279 330
#     4  11  22  37  58  86 120 151 184 234 290 340
#     4  10  22  40  62  84 112 148 187 237 290 338
#     4   9  19  39  62  83 110 150 197 235 275 333
#     4  10  21  36  53  78 114 152 189 233 283 334
#     4  11  22  38  61  88 116 149 186 232 288 343
#
# _framework density 19.900082000000001
#
# number of rings (size 3 to 8) (size 9 to 14) (size 15 to 20)
#    0.000    1.750    1.250    3.375    0.000    7.000 
#    0.000    0.625    0.000    0.000    0.000    0.000 
#    0.000    0.000    0.000    0.000    0.000    0.000 
#
# Total GULP energy -178560.970101 kJ/mol
# GULP energy per Si atom -5580.030316 kJ/mol
# Density = 1.985479 g / cm^3
# Si number density = 19.900082 Si / 1000 Ang^3
#
#
#
# Elastic Constant Matrix: (Units=GPa)
#
#
# Indices 1 2 3 4 5 6 
#
# 1 82.8960 16.1092 3.0874 0.0000 -1.1758 0.0000
# 2 16.1092 54.4111 19.7406 0.0000 6.0829 0.0000
# 3 3.0874 19.7406 51.3165 0.0000 7.4755 0.0000
# 4 0.0000 0.0000 0.0000 19.5006 0.0000 7.1210
# 5 -1.1758 6.0829 7.4755 0.0000 30.6569 0.0000
# 6 0.0000 0.0000 0.0000 7.1210 0.0000 24.1779
#
#
#
# Elastic Compliance Matrix: (Units=1/GPa)
#
#
# Indices 1 2 3 4 5 6 
#
# 1 0.012867 -0.004181 0.000665 0.000000 0.001161 0.000000
# 2 -0.004181 0.022878 -0.008154 0.000000 -0.002711 0.000000
# 3 0.000665 -0.008154 0.023167 0.000000 -0.004006 0.000000
# 4 0.000000 0.000000 0.000000 0.057460 0.000000 -0.016923
# 5 0.001161 -0.002711 -0.004006 0.000000 0.034178 0.000000
# 6 0.000000 0.000000 0.000000 -0.016923 0.000000 0.046344
#
#
# Mechanical properties :
#
#
# Convention : Reuss Voigt Hill
#
# Bulk Modulus (GPa) = 28.11143 29.61088 28.86116
# Shear Modulus (GPa) = 21.54308 24.84618 23.19463
#
# Velocity S-wave (km/s) = 3.29380 3.53731 3.41773
# Velocity P-wave (km/s) = 5.35000 5.62099 5.48717
#
# Compressibility (1/GPa) = 0.03557271
#
# Stress axis : x y z
#
# Youngs Moduli (GPa) = 77.71560 43.71038 43.16438
#
# Poissons Ratio (x) = 0.18274 -0.02870
# Poissons Ratio (y) = 0.32490 0.35197
# Poissons Ratio (z) = -0.05168 0.35643
#
# Static dielectric constant tensor:
#      x y z
#    x 1.733820 0.000000 -0.034080 
#    y 0.000000 1.699280 0.000000 
#    z -0.034080 0.000000 1.686190 
# 
# From -- ./inp_files/55620.got.cif
#   From: 2010.05.17/outbox.cif.g08.bks.cpg/sg11_28_cif.got.tgz:55620.got - 2010.06.03 12:22:45.
