data_PCOD9158682
_publ_section_title
;
Structure prediction by ZEFSAII (Michael W. Deem and Ramdas Pophale) SiO2 
 PCOD9158682
Probable space group: P 21/M
;
_chemical_formula_sum "Si O2"
_cell_formula_units_Z 28
_cell_length_a 15.336141
_cell_length_b 8.570956
_cell_length_c 19.641082
_cell_angle_alpha 90.000000
_cell_angle_beta 142.228100
_cell_angle_gamma 90.000000
_cell_volume 1581.359664
_symmetry_space_group_name_H-M "P 21/M"
_symmetry_group_IT_number 11
_symmetry_cell_setting 'monoclinic'
loop_
_space_group_symop_operation_xyz
x,y,z
-x,1/2+y,-z
-x,-y,-z
x,1/2-y,z
loop_
_atom_site_type_symbol
_atom_site_label
_atom_site_fract_x
_atom_site_fract_y
_atom_site_fract_z
Si Si1 0.121267 0.063226 0.875645
Si Si2 0.182913 0.433952 0.061595
Si Si3 0.571153 0.064375 0.976194
Si Si4 0.511111 0.061850 0.791372
Si Si5 0.410398 0.438375 0.589157
Si Si6 0.171032 0.063432 0.337803
Si Si7 0.733621 0.063620 0.748531
O O1 0.126638 0.250000 0.879894
O O2 0.270229 0.000276 0.939058
O O3 0.102296 0.011686 0.943411
O O4 0.986175 0.005180 0.750515
O O5 0.159532 0.250000 0.056592
O O6 0.345887 0.469742 0.139845
O O7 0.171200 0.517730 0.127063
O O8 0.580218 0.250000 0.986807
O O9 0.481997 0.027003 0.852161
O O10 0.500000 0.000000 0.000000
O O11 0.540477 0.250000 0.804427
O O12 0.400501 0.022827 0.663290
O O13 0.407217 0.250000 0.582443
O O14 0.285784 0.497175 0.463603
O O15 0.569309 0.483466 0.662803
O O16 0.163987 0.250000 0.337742
O O17 0.221798 0.014866 0.293995
O O18 0.740201 0.250000 0.745108
#
# Coordination Sequence:
#
# PCOD9158682 Si02
#       7
#     4   4   4   4   4   4   4
#     4  10  21  36  51  71 101 132 163 200 246 298
#     4   9  17  30  48  69  94 125 163 207 248 287
#     4  10  19  33  57  84 106 127 153 192 241 295
#     4   8  15  30  51  74  99 127 158 194 241 290
#     4   8  16  31  50  71  96 129 169 208 243 283
#     4  11  21  32  48  70  98 132 169 208 247 288
#     4  10  19  32  49  69  96 130 170 212 250 289
#
# _framework density 17.706281000000001
#
# number of rings (size 3 to 8) (size 9 to 14) (size 15 to 20)
#    0.000    2.571    0.000    3.429    0.000    2.857 
#    0.000    6.429    0.000    0.857    0.000    0.000 
#    0.000    0.000    0.000    0.000    0.000    0.000 
#
# Total GULP energy -156073.242900 kJ/mol
# GULP energy per Si atom -5574.044389 kJ/mol
# Density = 1.766598 g / cm^3
# Si number density = 17.706281 Si / 1000 Ang^3
#
#
#
# Elastic Constant Matrix: (Units=GPa)
#
#
# Indices 1 2 3 4 5 6 
#
# 1 100.6006 22.9465 57.6670 0.0000 -17.2670 0.0000
# 2 22.9465 33.5003 23.3286 0.0000 -2.8916 0.0000
# 3 57.6670 23.3286 134.6780 0.0000 -7.0212 0.0000
# 4 0.0000 0.0000 0.0000 17.7739 0.0000 0.1625
# 5 -17.2670 -2.8916 -7.0212 0.0000 19.3420 0.0000
# 6 0.0000 0.0000 0.0000 0.1625 0.0000 26.5875
#
#
#
# Elastic Compliance Matrix: (Units=1/GPa)
#
#
# Indices 1 2 3 4 5 6 
#
# 1 0.016523 -0.006594 -0.005316 0.000000 0.011835 0.000000
# 2 -0.006594 0.036748 -0.003631 0.000000 -0.001711 0.000000
# 3 -0.005316 -0.003631 0.010248 0.000000 -0.001568 0.000000
# 4 0.000000 0.000000 0.000000 0.056265 0.000000 -0.000344
# 5 0.011835 -0.001711 -0.001568 0.000000 0.061441 0.000000
# 6 0.000000 0.000000 0.000000 -0.000344 0.000000 0.037614
#
#
# Mechanical properties :
#
#
# Convention : Reuss Voigt Hill
#
# Bulk Modulus (GPa) = 30.82858 52.96255 41.89557
# Shear Modulus (GPa) = 19.17664 23.72981 21.45322
#
# Velocity S-wave (km/s) = 3.29453 3.66483 3.48460
# Velocity P-wave (km/s) = 5.64985 6.91988 6.31686
#
# Compressibility (1/GPa) = 0.03243743
#
# Stress axis : x y z
#
# Youngs Moduli (GPa) = 60.52262 27.21222 97.57654
#
# Poissons Ratio (x) = 0.17945 0.51867
# Poissons Ratio (y) = 0.39911 0.35431
# Poissons Ratio (z) = 0.32171 0.09881
#
# Static dielectric constant tensor:
#      x y z
#    x 1.594930 0.000000 -0.014530 
#    y 0.000000 1.597020 0.000000 
#    z -0.014530 0.000000 1.649780 
# 
# From -- ./inp_files/37142.got.cif
#   From: 2010.05.17/outbox.cif.g08.bks.cpg/sg11_19_cif.got.tgz:37142.got - 2010.06.03 12:22:45.
