data_PCOD9158939
_publ_section_title
;
Structure prediction by ZEFSAII (Michael W. Deem and Ramdas Pophale) SiO2 
 PCOD9158939
Probable space group: P 21/M
;
_chemical_formula_sum "Si O2"
_cell_formula_units_Z 28
_cell_length_a 14.575794
_cell_length_b 8.787580
_cell_length_c 19.402175
_cell_angle_alpha 90.000000
_cell_angle_beta 42.226859
_cell_angle_gamma 90.000000
_cell_volume 1670.186664
_symmetry_space_group_name_H-M "P 21/M"
_symmetry_group_IT_number 11
_symmetry_cell_setting 'monoclinic'
loop_
_space_group_symop_operation_xyz
x,y,z
-x,1/2+y,-z
-x,-y,-z
x,1/2-y,z
loop_
_atom_site_type_symbol
_atom_site_label
_atom_site_fract_x
_atom_site_fract_y
_atom_site_fract_z
Si Si1 0.706518 0.568025 0.393483
Si Si2 0.487188 0.430461 0.619500
Si Si3 0.523065 0.932732 0.880770
Si Si4 0.283642 0.068415 0.098878
Si Si5 0.002295 0.068353 0.708767
Si Si6 0.617087 0.568330 0.675123
Si Si7 0.084904 0.568216 0.516326
O O1 0.686462 0.750000 0.416001
O O2 0.612857 0.479692 0.500328
O O3 0.647298 0.533465 0.350739
O O4 0.863885 0.533070 0.320011
O O5 0.492409 0.250000 0.628781
O O6 0.507049 0.518488 0.679495
O O7 0.505083 0.750000 0.893426
O O8 0.639258 0.972578 0.872267
O O9 0.570019 0.974262 0.778111
O O10 0.384363 0.011130 0.983048
O O11 0.270185 0.250000 0.103834
O O12 0.136398 0.991925 0.180889
O O13 0.995617 0.250000 0.703588
O O14 0.024711 0.992262 0.621776
O O15 0.637900 0.750000 0.660996
O O16 0.759361 0.487785 0.577364
O O17 0.078258 0.750000 0.518527
O O18 0.000000 0.500000 0.500000
#
# Coordination Sequence:
#
# PCOD9158939 Si02
#       7
#     4   4   4   4   4   4   4
#     4   9  19  34  52  75 106 142 179 218 266 319
#     4  10  19  32  52  78 106 139 179 223 265 316
#     4   9  20  37  55  75 103 140 179 218 264 317
#     4  10  20  35  56  80 105 136 179 225 265 313
#     4  11  21  35  55  78 108 143 177 217 266 320
#     4  11  21  35  54  78 109 143 177 218 268 323
#     4  12  24  36  51  76 109 144 178 215 263 319
#
# _framework density 16.764593000000001
#
# number of rings (size 3 to 8) (size 9 to 14) (size 15 to 20)
#    0.000    1.714    1.429    3.857    0.000    4.000 
#    0.000    0.000    0.000    0.857    0.000    0.000 
#    0.000    0.000    0.000    0.000    0.000    0.000 
#
# Total GULP energy -156378.626515 kJ/mol
# GULP energy per Si atom -5584.950947 kJ/mol
# Density = 1.672644 g / cm^3
# Si number density = 16.764593 Si / 1000 Ang^3
#
#
#
# Elastic Constant Matrix: (Units=GPa)
#
#
# Indices 1 2 3 4 5 6 
#
# 1 75.7735 25.4088 17.6905 0.0000 -18.5305 0.0000
# 2 25.4088 51.8945 22.0522 0.0000 -11.8714 0.0000
# 3 17.6905 22.0522 50.5251 0.0000 -16.6633 0.0000
# 4 0.0000 0.0000 0.0000 24.1377 0.0000 1.2926
# 5 -18.5305 -11.8714 -16.6633 0.0000 26.0024 0.0000
# 6 0.0000 0.0000 0.0000 1.2926 0.0000 27.4915
#
#
#
# Elastic Compliance Matrix: (Units=1/GPa)
#
#
# Indices 1 2 3 4 5 6 
#
# 1 0.017737 -0.006383 -0.000275 0.000000 0.009550 0.000000
# 2 -0.006383 0.026546 -0.008692 0.000000 0.002001 0.000000
# 3 -0.000275 -0.008692 0.028287 0.000000 0.013963 0.000000
# 4 0.000000 0.000000 0.000000 0.041534 0.000000 -0.001953
# 5 0.009550 0.002001 0.013963 0.000000 0.055125 0.000000
# 6 0.000000 0.000000 0.000000 -0.001953 0.000000 0.036467
#
#
# Mechanical properties :
#
#
# Convention : Reuss Voigt Hill
#
# Bulk Modulus (GPa) = 23.88247 34.27731 29.07989
# Shear Modulus (GPa) = 19.97184 23.06245 21.51714
#
# Velocity S-wave (km/s) = 3.45528 3.71302 3.58647
# Velocity P-wave (km/s) = 5.49503 6.23479 5.87656
#
# Compressibility (1/GPa) = 0.04187172
#
# Stress axis : x y z
#
# Youngs Moduli (GPa) = 56.37842 37.66998 35.35187
#
# Poissons Ratio (x) = 0.24045 0.00971
# Poissons Ratio (y) = 0.35987 0.30726
# Poissons Ratio (z) = 0.01549 0.32741
#
# Static dielectric constant tensor:
#      x y z
#    x 1.577480 0.000000 0.000330 
#    y 0.000000 1.557540 0.000000 
#    z 0.000330 0.000000 1.527780 
# 
# From -- ./inp_files/60075.got.cif
#   From: 2010.05.17/outbox.cif.g08.bks.cpg/sg11_31_cif.got.tgz:60075.got - 2010.06.03 12:22:45.
