data_PCOD9158129
_publ_section_title
;
Structure prediction by ZEFSAII (Michael W. Deem and Ramdas Pophale) SiO2 
 PCOD9158129
Probable space group: P 21/M
;
_chemical_formula_sum "Si O2"
_cell_formula_units_Z 32
_cell_length_a 15.312637
_cell_length_b 8.657099
_cell_length_c 15.483551
_cell_angle_alpha 90.000000
_cell_angle_beta 100.538994
_cell_angle_gamma 90.000000
_cell_volume 2017.921086
_symmetry_space_group_name_H-M "P 21/M"
_symmetry_group_IT_number 11
_symmetry_cell_setting 'monoclinic'
loop_
_space_group_symop_operation_xyz
x,y,z
-x,1/2+y,-z
-x,-y,-z
x,1/2-y,z
loop_
_atom_site_type_symbol
_atom_site_label
_atom_site_fract_x
_atom_site_fract_y
_atom_site_fract_z
Si Si1 0.756946 0.435797 0.251920
Si Si2 0.373152 0.563596 0.917525
Si Si3 0.882704 0.066509 0.562205
Si Si4 0.697978 0.567556 0.568383
Si Si5 0.084031 0.066233 0.620726
Si Si6 0.439231 0.563671 0.111815
Si Si7 0.616216 0.065692 0.378227
Si Si8 0.577602 0.065133 0.696826
O O1 0.768335 0.250000 0.253801
O O2 0.711417 0.485204 0.153964
O O3 0.849392 0.514313 0.292676
O O4 0.686305 0.473092 0.315245
O O5 0.376161 0.750000 0.914557
O O6 0.462699 0.501934 0.888837
O O7 0.379182 0.516311 0.018959
O O8 0.868315 0.250000 0.565456
O O9 0.980379 0.028892 0.616791
O O10 0.801050 0.979818 0.590964
O O11 0.886654 0.018564 0.462114
O O12 0.689224 0.750000 0.554861
O O13 0.656629 0.483836 0.477077
O O14 0.644451 0.513779 0.642568
O O15 0.090445 0.250000 0.607591
O O16 0.445178 0.750000 0.112406
O O17 0.407417 0.516796 0.200860
O O18 0.602167 0.250000 0.374083
O O19 0.522869 0.982383 0.345278
O O20 0.586603 0.250000 0.691922
#
# Coordination Sequence:
#
# PCOD9158129 Si02
#       8
#     4   4   4   4   4   4   4   4
#     4  10  19  30  49  73 102 135 162 195 240 288
#     4   9  17  31  49  71  98 127 160 198 241 287
#     4  10  20  35  51  71  97 127 161 202 246 287
#     4  12  24  36  51  70  94 131 171 208 243 286
#     4  10  20  32  51  74  99 127 160 199 241 292
#     4   9  18  31  49  71  95 126 163 201 242 285
#     4  11  21  34  49  70 100 135 169 203 237 281
#     4  11  22  35  50  70  98 133 169 207 243 286
#
# _framework density 15.857905000000001
#
# number of rings (size 3 to 8) (size 9 to 14) (size 15 to 20)
#    0.000    1.750    2.500    3.000    0.000    3.000 
#    0.000    0.000    0.000    0.000    0.000    0.875 
#    0.000    0.000    0.000    0.000    0.000    0.000 
#
# Total GULP energy -178621.729329 kJ/mol
# GULP energy per Si atom -5581.929042 kJ/mol
# Density = 1.582181 g / cm^3
# Si number density = 15.857905 Si / 1000 Ang^3
#
#
#
# Elastic Constant Matrix: (Units=GPa)
#
#
# Indices 1 2 3 4 5 6 
#
# 1 63.7332 4.6269 39.3513 0.0000 12.4546 0.0000
# 2 4.6269 10.4345 5.4234 0.0000 0.9211 0.0000
# 3 39.3513 5.4234 93.2411 0.0000 16.8323 0.0000
# 4 0.0000 0.0000 0.0000 15.3402 0.0000 2.9510
# 5 12.4546 0.9211 16.8323 0.0000 25.4720 0.0000
# 6 0.0000 0.0000 0.0000 2.9510 0.0000 26.9471
#
#
#
# Elastic Compliance Matrix: (Units=1/GPa)
#
#
# Indices 1 2 3 4 5 6 
#
# 1 0.022074 -0.005130 -0.008065 0.000000 -0.005278 0.000000
# 2 -0.005130 0.100018 -0.003920 0.000000 0.001482 0.000000
# 3 -0.008065 -0.003920 0.015464 0.000000 -0.006134 0.000000
# 4 0.000000 0.000000 0.000000 0.066591 0.000000 -0.007292
# 5 -0.005278 0.001482 -0.006134 0.000000 0.045839 0.000000
# 6 0.000000 0.000000 0.000000 -0.007292 0.000000 0.037908
#
#
# Mechanical properties :
#
#
# Convention : Reuss Voigt Hill
#
# Bulk Modulus (GPa) = 9.67816 29.57909 19.62862
# Shear Modulus (GPa) = 14.02266 21.41901 17.72083
#
# Velocity S-wave (km/s) = 2.97689 3.67915 3.34649
# Velocity P-wave (km/s) = 4.23464 6.06146 5.22845
#
# Compressibility (1/GPa) = 0.10332544
#
# Stress axis : x y z
#
# Youngs Moduli (GPa) = 45.30265 9.99822 64.66720
#
# Poissons Ratio (x) = 0.05129 0.52152
# Poissons Ratio (y) = 0.23242 0.25349
# Poissons Ratio (z) = 0.36535 0.03919
#
# Static dielectric constant tensor:
#      x y z
#    x 1.510750 0.000000 0.016120 
#    y 0.000000 1.531560 0.000000 
#    z 0.016120 0.000000 1.537690 
# 
# From -- ./inp_files/51397.got.cif
#   From: 2010.05.17/outbox.cif.g08.bks.cpg/sg11_26_cif.got.tgz:51397.got - 2010.06.03 12:22:45.
