data_PCOD9158229
_publ_section_title
;
Structure prediction by ZEFSAII (Michael W. Deem and Ramdas Pophale) SiO2 
 PCOD9158229
Probable space group: P 21/M
;
_chemical_formula_sum "Si O2"
_cell_formula_units_Z 28
_cell_length_a 22.092284
_cell_length_b 8.444120
_cell_length_c 11.798515
_cell_angle_alpha 90.000000
_cell_angle_beta 130.042379
_cell_angle_gamma 90.000000
_cell_volume 1685.025918
_symmetry_space_group_name_H-M "P 21/M"
_symmetry_group_IT_number 11
_symmetry_cell_setting 'monoclinic'
loop_
_space_group_symop_operation_xyz
x,y,z
-x,1/2+y,-z
-x,-y,-z
x,1/2-y,z
loop_
_atom_site_type_symbol
_atom_site_label
_atom_site_fract_x
_atom_site_fract_y
_atom_site_fract_z
Si Si1 0.933979 0.057826 0.279591
Si Si2 0.896299 0.562680 0.486389
Si Si3 0.544089 0.558926 0.384553
Si Si4 0.764631 0.442485 0.023242
Si Si5 0.731351 0.061842 0.242509
Si Si6 0.379665 0.558670 0.301340
Si Si7 0.427984 0.439017 0.837273
O O1 0.933443 0.250000 0.294677
O O2 0.856566 0.015180 0.113563
O O3 0.023166 0.014684 0.350805
O O4 0.917332 0.978555 0.381170
O O5 0.885124 0.750000 0.485875
O O6 0.812756 0.479296 0.405496
O O7 0.544927 0.750000 0.385387
O O8 0.456329 0.508910 0.319724
O O9 0.604621 0.500634 0.553109
O O10 0.562990 0.501868 0.281125
O O11 0.761363 0.250000 0.019594
O O12 0.741169 0.492913 0.123053
O O13 0.700344 0.498400 0.855344
O O14 0.721836 0.250000 0.227873
O O15 0.655021 0.988542 0.208581
O O16 0.378692 0.750000 0.301717
O O17 0.432509 0.250000 0.839586
O O18 0.500000 0.500000 0.000000
#
# Coordination Sequence:
#
# PCOD9158229 Si02
#       7
#     4   4   4   4   4   4   4
#     4   8  14  24  39  60  89 122 151 184 227 271
#     4   9  15  24  39  61  89 120 154 186 221 269
#     4   9  19  33  46  64  91 119 146 181 224 262
#     4   8  14  26  44  66  91 119 149 183 225 266
#     4  10  19  31  46  65  93 125 154 185 224 268
#     4   9  16  29  49  67  85 114 151 184 216 262
#     4  11  22  35  50  68  92 120 150 184 222 265
#
# _framework density 16.616954
#
# number of rings (size 3 to 8) (size 9 to 14) (size 15 to 20)
#    0.000    2.857    0.000    3.000    0.000    4.000 
#    0.000    6.429    0.000    0.000    0.000    1.000 
#    0.000    0.000    0.000    0.000    0.000    0.000 
#
# Total GULP energy -155887.725756 kJ/mol
# GULP energy per Si atom -5567.418777 kJ/mol
# Density = 1.657913 g / cm^3
# Si number density = 16.616954 Si / 1000 Ang^3
#
#
#
# Elastic Constant Matrix: (Units=GPa)
#
#
# Indices 1 2 3 4 5 6 
#
# 1 83.4434 15.3117 71.0428 0.0000 13.1488 0.0000
# 2 15.3117 15.7701 16.3810 0.0000 1.3257 0.0000
# 3 71.0428 16.3810 156.9856 0.0000 23.0241 0.0000
# 4 0.0000 0.0000 0.0000 22.7498 0.0000 3.5722
# 5 13.1488 1.3257 23.0241 0.0000 24.4376 0.0000
# 6 0.0000 0.0000 0.0000 3.5722 0.0000 21.2164
#
#
#
# Elastic Compliance Matrix: (Units=1/GPa)
#
#
# Indices 1 2 3 4 5 6 
#
# 1 0.021586 -0.012389 -0.007973 0.000000 -0.003431 0.000000
# 2 -0.012389 0.078509 -0.003410 0.000000 0.005620 0.000000
# 3 -0.007973 -0.003410 0.011229 0.000000 -0.006105 0.000000
# 4 0.000000 0.000000 0.000000 0.045150 0.000000 -0.007602
# 5 -0.003431 0.005620 -0.006105 0.000000 0.048214 0.000000
# 6 0.000000 0.000000 0.000000 -0.007602 0.000000 0.048413
#
#
# Mechanical properties :
#
#
# Convention : Reuss Voigt Hill
#
# Bulk Modulus (GPa) = 15.67843 51.29668 33.48756
# Shear Modulus (GPa) = 15.53255 23.91166 19.72211
#
# Velocity S-wave (km/s) = 3.06067 3.79752 3.44883
# Velocity P-wave (km/s) = 4.68465 7.08275 6.00463
#
# Compressibility (1/GPa) = 0.06378188
#
# Stress axis : x y z
#
# Youngs Moduli (GPa) = 46.32647 12.73734 89.05347
#
# Poissons Ratio (x) = 0.15780 0.71000
# Poissons Ratio (y) = 0.57392 0.30368
# Poissons Ratio (z) = 0.36935 0.04344
#
# Static dielectric constant tensor:
#      x y z
#    x 1.554120 0.000000 0.031340 
#    y 0.000000 1.573500 0.000000 
#    z 0.031340 0.000000 1.586130 
# 
# From -- ./inp_files/42379.got.cif
#   From: 2010.05.17/outbox.cif.g08.bks.cpg/sg11_22_cif.got.tgz:42379.got - 2010.06.03 12:22:45.
