data_PCOD9158260
_publ_section_title
;
Structure prediction by ZEFSAII (Michael W. Deem and Ramdas Pophale) SiO2 
 PCOD9158260
Probable space group: P 21/M
;
_chemical_formula_sum "Si O2"
_cell_formula_units_Z 32
_cell_length_a 24.688014
_cell_length_b 7.376964
_cell_length_c 24.687860
_cell_angle_alpha 90.000000
_cell_angle_beta 160.956292
_cell_angle_gamma 90.000000
_cell_volume 1467.067715
_symmetry_space_group_name_H-M "P 21/M"
_symmetry_group_IT_number 11
_symmetry_cell_setting 'monoclinic'
loop_
_space_group_symop_operation_xyz
x,y,z
-x,1/2+y,-z
-x,-y,-z
x,1/2-y,z
loop_
_atom_site_type_symbol
_atom_site_label
_atom_site_fract_x
_atom_site_fract_y
_atom_site_fract_z
Si Si1 0.215203 0.533459 0.150604
Si Si2 0.535398 0.966451 0.096147
Si Si3 0.849358 0.533470 0.784760
Si Si4 0.017146 0.028678 0.342000
Si Si5 0.629007 0.971119 0.371042
Si Si6 0.342045 0.971322 0.017190
Si Si7 0.434442 0.028017 0.565596
Si Si8 0.096131 0.466450 0.535380
O O1 0.213886 0.750000 0.141520
O O2 0.211610 0.499970 0.211607
O O3 0.385578 0.466298 0.285468
O O4 0.039056 0.463626 0.960902
O O5 0.540400 0.750000 0.107104
O O6 0.401935 0.029536 0.013915
O O7 0.717059 0.037942 0.282959
O O8 0.500000 0.000000 0.000000
O O9 0.858454 0.750000 0.786070
O O10 0.714461 0.466290 0.614366
O O11 0.018017 0.250000 0.341661
O O12 0.190724 0.970268 0.480007
O O13 0.013886 0.970464 0.401905
O O14 0.847221 0.970486 0.152732
O O15 0.629768 0.750000 0.370285
O O16 0.480058 0.029732 0.190773
O O17 0.597331 0.025907 0.402701
O O18 0.341709 0.750000 0.018064
O O19 0.435227 0.250000 0.564820
O O20 0.107086 0.250000 0.540379
O O21 0.000000 0.500000 0.500000
#
# Coordination Sequence:
#
# PCOD9158260 Si02
#       8
#     4   4   4   4   4   4   4   4
#     4   9  17  29  45  67  95 124 153 188 229 271
#     4  10  19  31  47  69  96 121 151 192 233 280
#     4   9  17  29  45  67  95 124 153 188 229 271
#     4   9  16  27  43  62  88 120 150 184 228 275
#     4   9  16  27  41  62  90 120 152 188 230 278
#     4   9  16  27  43  62  88 120 150 184 228 275
#     4   9  17  27  42  64  92 122 154 192 230 268
#     4  10  19  31  47  69  96 121 151 192 233 280
#
# _framework density 21.812215999999999
#
# number of rings (size 3 to 8) (size 9 to 14) (size 15 to 20)
#    0.000    2.750    1.250    1.125    0.000    2.500 
#    0.000    5.000    0.000    0.000    0.000    3.500 
#    0.000    4.000    0.000    0.000    0.000    0.000 
#
# Total GULP energy -178681.699969 kJ/mol
# GULP energy per Si atom -5583.803124 kJ/mol
# Density = 2.176257 g / cm^3
# Si number density = 21.812216 Si / 1000 Ang^3
#
#
#
# Elastic Constant Matrix: (Units=GPa)
#
#
# Indices 1 2 3 4 5 6 
#
# 1 162.0300 -1.0928 131.7727 0.0000 11.1400 0.0000
# 2 -1.0928 76.9533 7.9537 0.0000 1.6748 0.0000
# 3 131.7727 7.9537 243.7477 0.0000 3.8182 0.0000
# 4 0.0000 0.0000 0.0000 -5.9783 0.0000 -3.5135
# 5 11.1400 1.6748 3.8182 0.0000 44.2517 0.0000
# 6 0.0000 0.0000 0.0000 -3.5135 0.0000 13.3042
#
#
#
# Elastic Compliance Matrix: (Units=1/GPa)
#
#
# Indices 1 2 3 4 5 6 
#
# 1 0.011299 0.000842 -0.006099 0.000000 -0.002350 0.000000
# 2 0.000842 0.013111 -0.000873 0.000000 -0.000633 0.000000
# 3 -0.006099 -0.000873 0.007414 0.000000 0.000929 0.000000
# 4 0.000000 0.000000 0.000000 -0.144799 0.000000 -0.038240
# 5 -0.002350 -0.000633 0.000929 0.000000 0.023133 0.000000
# 6 0.000000 0.000000 0.000000 -0.038240 0.000000 0.065066
#
#
# Mechanical properties :
#
#
# Convention : Reuss Voigt Hill
#
# Bulk Modulus (GPa) = 51.11593 84.44425 67.78009
# Shear Modulus (GPa) = -834.12302 33.25533 -400.43384
#
# Velocity S-wave (km/s) = -19.57655 3.90887 -13.56396
# Velocity P-wave (km/s) = 22.07946 7.69225 14.63441
#
# Compressibility (1/GPa) = 0.01956337
#
# Stress axis : x y z
#
# Youngs Moduli (GPa) = 88.50262 76.27261 134.88398
#
# Poissons Ratio (x) = -0.06422 0.82267
# Poissons Ratio (y) = -0.07452 0.11777
# Poissons Ratio (z) = 0.53978 0.06659
#
# Static dielectric constant tensor:
#      x y z
#    x 1.739280 0.000000 0.003070 
#    y 0.000000 1.885290 0.000000 
#    z 0.003070 0.000000 1.756070 
# 
# From -- ./inp_files/26290.got.cif
#   From: 2010.05.17/outbox.cif.g08.bks.cpg/sg11_14_cif.got.tgz:26290.got - 2010.06.03 12:22:45.
