data_PCOD9158655
_publ_section_title
;
Structure prediction by ZEFSAII (Michael W. Deem and Ramdas Pophale) SiO2 
 PCOD9158655
Probable space group: P 21/M
;
_chemical_formula_sum "Si O2"
_cell_formula_units_Z 32
_cell_length_a 28.010219
_cell_length_b 8.590514
_cell_length_c 19.806121
_cell_angle_alpha 90.000000
_cell_angle_beta 155.482106
_cell_angle_gamma 90.000000
_cell_volume 1977.696021
_symmetry_space_group_name_H-M "P 21/M"
_symmetry_group_IT_number 11
_symmetry_cell_setting 'monoclinic'
loop_
_space_group_symop_operation_xyz
x,y,z
-x,1/2+y,-z
-x,-y,-z
x,1/2-y,z
loop_
_atom_site_type_symbol
_atom_site_label
_atom_site_fract_x
_atom_site_fract_y
_atom_site_fract_z
Si Si1 0.726930 0.061929 0.818231
Si Si2 0.005855 0.935854 0.820966
Si Si3 0.096843 0.563401 0.175489
Si Si4 0.982404 0.062391 0.644335
Si Si5 0.332920 0.560289 0.410815
Si Si6 0.119191 0.936144 0.622587
Si Si7 0.775325 0.562558 0.114775
Si Si8 0.588282 0.561802 0.767698
O O1 0.721854 0.250000 0.815275
O O2 0.683494 0.013144 0.688357
O O3 0.650750 0.992736 0.779896
O O4 0.860268 0.015053 0.998608
O O5 0.002202 0.750000 0.822310
O O6 0.933456 0.008531 0.788521
O O7 0.965412 0.987547 0.695052
O O8 0.094388 0.750000 0.169268
O O9 0.222072 0.509730 0.310824
O O10 0.000000 0.500000 0.000000
O O11 0.982712 0.250000 0.651424
O O12 0.888886 0.019050 0.466629
O O13 0.108522 0.016829 0.776947
O O14 0.332870 0.750000 0.411274
O O15 0.456263 0.508130 0.597263
O O16 0.117957 0.750000 0.624167
O O17 0.215022 0.999302 0.796816
O O18 0.000000 0.000000 0.500000
O O19 0.776174 0.750000 0.119159
O O20 0.665561 0.509731 0.930529
O O21 0.588701 0.750000 0.768771
#
# Coordination Sequence:
#
# PCOD9158655 Si02
#       8
#     4   4   4   4   4   4   4   4
#     4  10  19  32  47  69 100 128 162 201 240 286
#     4  11  21  32  49  73  98 129 164 201 245 287
#     4  11  21  36  54  71  94 126 165 208 250 288
#     4   9  17  30  45  68  97 126 161 196 234 286
#     4   9  19  35  51  68  94 127 164 205 243 283
#     4   9  17  28  44  66  95 128 160 192 233 285
#     4   9  17  28  44  69  98 127 160 191 232 289
#     4  10  19  32  50  71  97 130 165 197 235 288
#
# _framework density 16.180444999999999
#
# number of rings (size 3 to 8) (size 9 to 14) (size 15 to 20)
#    0.000    2.250    2.500    2.250    0.000    3.500 
#    0.000    1.250    0.000    0.000    0.000    0.875 
#    0.000    0.000    0.000    0.000    0.000    0.000 
#
# Total GULP energy -178425.496275 kJ/mol
# GULP energy per Si atom -5575.796759 kJ/mol
# Density = 1.614362 g / cm^3
# Si number density = 16.180445 Si / 1000 Ang^3
#
#
#
# Elastic Constant Matrix: (Units=GPa)
#
#
# Indices 1 2 3 4 5 6 
#
# 1 103.1402 26.0470 95.8526 0.0000 -19.3353 0.0000
# 2 26.0470 16.7962 25.9319 0.0000 -4.7397 0.0000
# 3 95.8526 25.9319 137.0688 0.0000 -13.4926 0.0000
# 4 0.0000 0.0000 0.0000 17.1669 0.0000 -6.5416
# 5 -19.3353 -4.7397 -13.4926 0.0000 30.0663 0.0000
# 6 0.0000 0.0000 0.0000 -6.5416 0.0000 25.3838
#
#
#
# Elastic Compliance Matrix: (Units=1/GPa)
#
#
# Indices 1 2 3 4 5 6 
#
# 1 0.035301 -0.021557 -0.019572 0.000000 0.010520 0.000000
# 2 -0.021557 0.098462 -0.003546 0.000000 0.000067 0.000000
# 3 -0.019572 -0.003546 0.021300 0.000000 -0.003587 0.000000
# 4 0.000000 0.000000 0.000000 0.064595 0.000000 0.016646
# 5 0.010520 0.000067 -0.003587 0.000000 0.038426 0.000000
# 6 0.000000 0.000000 0.000000 0.016646 0.000000 0.043685
#
#
# Mechanical properties :
#
#
# Convention : Reuss Voigt Hill
#
# Bulk Modulus (GPa) = 15.21796 61.40759 38.31278
# Shear Modulus (GPa) = 12.10581 21.80166 16.95374
#
# Velocity S-wave (km/s) = 2.73825 3.67469 3.24047
# Velocity P-wave (km/s) = 4.40714 7.48589 6.14253
#
# Compressibility (1/GPa) = 0.06571182
#
# Stress axis : x y z
#
# Youngs Moduli (GPa) = 28.32776 10.15621 46.94782
#
# Poissons Ratio (x) = 0.21894 0.91887
# Poissons Ratio (y) = 0.61068 0.16648
# Poissons Ratio (z) = 0.55443 0.03601
#
# Static dielectric constant tensor:
#      x y z
#    x 1.520820 0.000000 -0.020350 
#    y 0.000000 1.528540 0.000000 
#    z -0.020350 0.000000 1.557880 
# 
# From -- ./inp_files/61787.got.cif
#   From: 2010.05.17/outbox.cif.g08.bks.cpg/sg11_31_cif.got.tgz:61787.got - 2010.06.03 12:22:45.
