data_PCOD9158631
_publ_section_title
;
Structure prediction by ZEFSAII (Michael W. Deem and Ramdas Pophale) SiO2 
 PCOD9158631
Probable space group: P 21/M
;
_chemical_formula_sum "Si O2"
_cell_formula_units_Z 32
_cell_length_a 11.672898
_cell_length_b 14.125617
_cell_length_c 10.224582
_cell_angle_alpha 90.000000
_cell_angle_beta 78.234890
_cell_angle_gamma 90.000000
_cell_volume 1650.481666
_symmetry_space_group_name_H-M "P 21/M"
_symmetry_group_IT_number 11
_symmetry_cell_setting 'monoclinic'
loop_
_space_group_symop_operation_xyz
x,y,z
-x,1/2+y,-z
-x,-y,-z
x,1/2-y,z
loop_
_atom_site_type_symbol
_atom_site_label
_atom_site_fract_x
_atom_site_fract_y
_atom_site_fract_z
Si Si1 0.807505 0.952196 0.764051
Si Si2 0.232611 0.643126 0.811693
Si Si3 0.957286 0.140774 0.370430
Si Si4 0.583203 0.140822 0.461242
Si Si5 0.847459 0.640272 0.310162
Si Si6 0.880731 0.142990 0.670188
Si Si7 0.137225 0.032062 0.963917
Si Si8 0.337137 0.444507 0.447611
O O1 0.808758 0.065807 0.764212
O O2 0.929342 0.922894 0.666894
O O3 0.705861 0.921756 0.689309
O O4 0.821973 0.920335 0.910045
O O5 0.231550 0.750000 0.865165
O O6 0.343654 0.631737 0.690876
O O7 0.214599 0.561357 0.919954
O O8 0.121805 0.632965 0.739157
O O9 0.996246 0.250000 0.375171
O O10 0.880685 0.120550 0.515805
O O11 0.600454 0.250000 0.502980
O O12 0.448329 0.118348 0.462196
O O13 0.626249 0.054839 0.543672
O O14 0.810999 0.750000 0.323115
O O15 0.843453 0.598747 0.165368
O O16 0.766995 0.580423 0.427114
O O17 0.982867 0.636188 0.321904
O O18 0.841434 0.250000 0.700115
O O19 0.000000 0.000000 0.000000
#
# Coordination Sequence:
#
# PCOD9158631 Si02
#       8
#     4   4   4   4   4   4   4   4
#     4  12  23  35  57  89 127 157 196 252 292 364
#     4  10  20  37  60  84 119 163 206 246 297 363
#     4  10  19  31  54  87 118 154 197 249 304 352
#     4  10  22  42  68  93 116 152 206 261 310 359
#     4  11  22  38  59  86 125 163 202 246 299 360
#     4  10  20  32  53  86 123 159 196 246 303 353
#     4  12  23  37  55  89 130 167 201 238 295 365
#     4  11  23  40  68  94 117 156 203 260 309 358
#
# _framework density 19.388280000000002
#
# number of rings (size 3 to 8) (size 9 to 14) (size 15 to 20)
#    0.000    1.250    5.000    1.500    0.000    3.500 
#    0.000    0.625    0.000    0.000    0.000    0.000 
#    0.000    0.000    0.000    0.000    0.000    0.000 
#
# Total GULP energy -178746.151946 kJ/mol
# GULP energy per Si atom -5585.817248 kJ/mol
# Density = 1.934415 g / cm^3
# Si number density = 19.388280 Si / 1000 Ang^3
#
#
#
# Elastic Constant Matrix: (Units=GPa)
#
#
# Indices 1 2 3 4 5 6 
#
# 1 42.5175 4.4175 9.7532 0.0000 10.2050 0.0000
# 2 4.4175 74.9509 15.4453 0.0000 1.5525 0.0000
# 3 9.7532 15.4453 79.1307 0.0000 21.2648 0.0000
# 4 0.0000 0.0000 0.0000 9.6661 0.0000 0.3245
# 5 10.2050 1.5525 21.2648 0.0000 18.4934 0.0000
# 6 0.0000 0.0000 0.0000 0.3245 0.0000 18.3775
#
#
#
# Elastic Compliance Matrix: (Units=1/GPa)
#
#
# Indices 1 2 3 4 5 6 
#
# 1 0.027334 -0.001553 0.001378 0.000000 -0.016538 0.000000
# 2 -0.001553 0.014092 -0.003577 0.000000 0.003787 0.000000
# 3 0.001378 -0.003577 0.019232 0.000000 -0.022575 0.000000
# 4 0.000000 0.000000 0.000000 0.103515 0.000000 -0.001828
# 5 -0.016538 0.003787 -0.022575 0.000000 0.088839 0.000000
# 6 0.000000 0.000000 0.000000 -0.001828 0.000000 0.054447
#
#
# Mechanical properties :
#
#
# Convention : Reuss Voigt Hill
#
# Bulk Modulus (GPa) = 18.81236 28.42567 23.61902
# Shear Modulus (GPa) = 15.02941 20.43960 17.73451
#
# Velocity S-wave (km/s) = 2.78723 3.25041 3.02769
# Velocity P-wave (km/s) = 4.48132 5.36469 4.94278
#
# Compressibility (1/GPa) = 0.05315655
#
# Stress axis : x y z
#
# Youngs Moduli (GPa) = 36.58401 70.96110 51.99644
#
# Poissons Ratio (x) = 0.11017 -0.07167
# Poissons Ratio (y) = 0.05680 0.18598
# Poissons Ratio (z) = -0.05042 0.25382
#
# Static dielectric constant tensor:
#      x y z
#    x 1.671250 0.000000 0.021910 
#    y 0.000000 1.736400 0.000000 
#    z 0.021910 0.000000 1.690260 
# 
# From -- ./inp_files/18057.got.cif
#   From: 2010.05.17/outbox.cif.g08.bks.cpg/sg11_10_cif.got.tgz:18057.got - 2010.06.03 12:22:45.
