data_PCOD9158987
_publ_section_title
;
Structure prediction by ZEFSAII (Michael W. Deem and Ramdas Pophale) SiO2 
 PCOD9158987
Probable space group: P 21/M
;
_chemical_formula_sum "Si O2"
_cell_formula_units_Z 32
_cell_length_a 7.422077
_cell_length_b 15.002234
_cell_length_c 14.492517
_cell_angle_alpha 90.000000
_cell_angle_beta 110.872924
_cell_angle_gamma 90.000000
_cell_volume 1507.806001
_symmetry_space_group_name_H-M "P 21/M"
_symmetry_group_IT_number 11
_symmetry_cell_setting 'monoclinic'
loop_
_space_group_symop_operation_xyz
x,y,z
-x,1/2+y,-z
-x,-y,-z
x,1/2-y,z
loop_
_atom_site_type_symbol
_atom_site_label
_atom_site_fract_x
_atom_site_fract_y
_atom_site_fract_z
Si Si1 0.268083 0.517004 0.471867
Si Si2 0.339418 0.155657 0.235182
Si Si3 0.803584 0.351112 0.907905
Si Si4 0.984659 0.357722 0.445670
Si Si5 0.239027 0.975434 0.920144
Si Si6 0.741507 0.345873 0.231846
Si Si7 0.829231 0.474392 0.750045
Si Si8 0.262751 0.345202 0.003827
O O1 0.500000 0.500000 0.500000
O O2 0.185531 0.592065 0.527789
O O3 0.173288 0.550967 0.357367
O O4 0.171174 0.422689 0.487202
O O5 0.261668 0.250000 0.257267
O O6 0.567829 0.161228 0.271408
O O7 0.284838 0.066579 0.273952
O O8 0.274560 0.147313 0.116390
O O9 0.727624 0.250000 0.904351
O O10 0.736704 0.401905 0.802790
O O11 0.035320 0.342309 0.941563
O O12 0.776796 0.415404 0.991235
O O13 0.003487 0.250000 0.468967
O O14 0.925665 0.364965 0.326858
O O15 0.323277 0.917446 0.853641
O O16 0.029822 0.999614 0.837297
O O17 0.336851 0.068619 0.963932
O O18 0.765990 0.250000 0.188650
O O19 0.351745 0.250000 0.993964
#
# Coordination Sequence:
#
# PCOD9158987 Si02
#       8
#     4   4   4   4   4   4   4   4
#     4  11  24  42  70  98 125 167 221 272 331 394
#     4  10  19  32  52  81 116 152 195 248 298 358
#     4  10  19  32  52  82 119 155 194 241 296 368
#     4  10  23  45  66  93 131 164 208 276 334 386
#     4  11  18  33  56  82 115 157 195 240 301 363
#     4  10  21  35  56  84 116 154 196 246 313 372
#     4  11  20  36  58  87 112 154 202 247 309 368
#     4   9  17  30  48  75 112 150 194 237 280 346
#
# _framework density 21.222888999999999
#
# number of rings (size 3 to 8) (size 9 to 14) (size 15 to 20)
#    0.000    1.750    3.750    1.875    0.000    2.500 
#    0.000    0.000    0.000    0.000    0.000    0.000 
#    0.000    0.000    0.000    0.000    0.000    0.000 
#
# Total GULP energy -178321.770866 kJ/mol
# GULP energy per Si atom -5572.555340 kJ/mol
# Density = 2.117458 g / cm^3
# Si number density = 21.222889 Si / 1000 Ang^3
#
#
#
# Elastic Constant Matrix: (Units=GPa)
#
#
# Indices 1 2 3 4 5 6 
#
# 1 77.7418 39.4210 12.6910 0.0000 1.2188 0.0000
# 2 39.4210 168.3791 61.8202 0.0000 -13.6960 0.0000
# 3 12.6910 61.8202 83.3257 0.0000 -19.8116 0.0000
# 4 0.0000 0.0000 0.0000 -16.0596 0.0000 -9.9161
# 5 1.2188 -13.6960 -19.8116 0.0000 21.5620 0.0000
# 6 0.0000 0.0000 0.0000 -9.9161 0.0000 21.3442
#
#
#
# Elastic Compliance Matrix: (Units=1/GPa)
#
#
# Indices 1 2 3 4 5 6 
#
# 1 0.014812 -0.003599 -0.000420 0.000000 -0.003509 0.000000
# 2 -0.003599 0.009041 -0.006072 0.000000 0.000367 0.000000
# 3 -0.000420 -0.006072 0.020036 0.000000 0.014576 0.000000
# 4 0.000000 0.000000 0.000000 -0.048388 0.000000 -0.022480
# 5 -0.003509 0.000367 0.014576 0.000000 0.060202 0.000000
# 6 0.000000 0.000000 0.000000 -0.022480 0.000000 0.036407
#
#
# Mechanical properties :
#
#
# Convention : Reuss Voigt Hill
#
# Bulk Modulus (GPa) = 42.18403 61.92345 52.05374
# Shear Modulus (GPa) = 41.59954 19.73695 30.66825
#
# Velocity S-wave (km/s) = 4.43213 3.05287 3.80551
# Velocity P-wave (km/s) = 6.79055 6.45505 6.62493
#
# Compressibility (1/GPa) = 0.02370565
#
# Stress axis : x y z
#
# Youngs Moduli (GPa) = 67.51458 110.61041 49.91118
#
# Poissons Ratio (x) = 0.39807 0.02097
# Poissons Ratio (y) = 0.24298 0.30306
# Poissons Ratio (z) = 0.02837 0.67163
#
# Static dielectric constant tensor:
#      x y z
#    x 1.838280 0.000000 0.022010 
#    y 0.000000 1.823900 0.000000 
#    z 0.022010 0.000000 1.770420 
# 
# From -- ./inp_files/47659.got.cif
#   From: 2010.05.17/outbox.cif.g08.bks.cpg/sg11_24_cif.got.tgz:47659.got - 2010.06.03 12:22:45.
