data_PCOD9158687
_publ_section_title
;
Structure prediction by ZEFSAII (Michael W. Deem and Ramdas Pophale) SiO2 
 PCOD9158687
Probable space group: P 21/M
;
_chemical_formula_sum "Si O2"
_cell_formula_units_Z 32
_cell_length_a 18.726383
_cell_length_b 18.333277
_cell_length_c 6.360415
_cell_angle_alpha 90.000000
_cell_angle_beta 56.389961
_cell_angle_gamma 90.000000
_cell_volume 1818.581739
_symmetry_space_group_name_H-M "P 21/M"
_symmetry_group_IT_number 11
_symmetry_cell_setting 'monoclinic'
loop_
_space_group_symop_operation_xyz
x,y,z
-x,1/2+y,-z
-x,-y,-z
x,1/2-y,z
loop_
_atom_site_type_symbol
_atom_site_label
_atom_site_fract_x
_atom_site_fract_y
_atom_site_fract_z
Si Si1 0.942802 0.169207 0.129711
Si Si2 0.701122 0.534499 0.721795
Si Si3 0.887227 0.468541 0.461426
Si Si4 0.004276 0.910745 0.340361
Si Si5 0.584283 0.587033 0.295238
Si Si6 0.710134 0.664829 0.372229
Si Si7 0.441753 0.971324 0.287357
Si Si8 0.888754 0.833460 0.861606
O O1 0.907803 0.250000 0.225626
O O2 0.889018 0.103514 0.316444
O O3 0.036616 0.165805 0.085055
O O4 0.957722 0.152892 0.861995
O O5 0.796211 0.507058 0.609707
O O6 0.700523 0.608414 0.581233
O O7 0.651285 0.471642 0.669292
O O8 0.650381 0.552197 0.019169
O O9 0.921772 0.443923 0.633866
O O10 0.959880 0.526652 0.274413
O O11 0.927780 0.881581 0.612714
O O12 0.632363 0.652947 0.333684
O O13 0.566302 0.531089 0.515087
O O14 0.495018 0.594277 0.310221
O O15 0.715570 0.750000 0.426807
O O16 0.798499 0.644239 0.108245
O O17 0.500000 0.000000 0.000000
O O18 0.878631 0.750000 0.803377
#
# Coordination Sequence:
#
# PCOD9158687 Si02
#       8
#     4   4   4   4   4   4   4   4
#     4  10  20  34  51  68  94 133 171 211 256 299
#     4  10  19  32  51  74 102 134 169 210 251 296
#     4  10  21  32  48  74  99 127 168 214 253 295
#     4  10  19  32  49  70  98 131 170 214 259 297
#     4   9  17  31  51  75 101 129 163 197 241 296
#     4  10  20  31  47  74 107 138 166 201 248 305
#     4   8  16  31  52  76  98 122 155 199 245 295
#     4   9  18  31  46  69 100 134 171 204 244 302
#
# _framework density 17.596131
#
# number of rings (size 3 to 8) (size 9 to 14) (size 15 to 20)
#    0.000    2.500    0.000    2.250    0.000    5.000 
#    0.000    3.125    0.000    1.500    0.000   18.375 
#    0.000    0.000    0.000    0.000    0.000    0.000 
#
# Total GULP energy -178143.609679 kJ/mol
# GULP energy per Si atom -5566.987802 kJ/mol
# Density = 1.755608 g / cm^3
# Si number density = 17.596131 Si / 1000 Ang^3
#
#
#
# Elastic Constant Matrix: (Units=GPa)
#
#
# Indices 1 2 3 4 5 6 
#
# 1 75.3674 23.9671 41.0978 0.0000 -10.7922 0.0000
# 2 23.9671 66.7767 37.4962 0.0000 2.1779 0.0000
# 3 41.0978 37.4962 83.9974 0.0000 10.5681 0.0000
# 4 0.0000 0.0000 0.0000 16.3962 0.0000 -0.3546
# 5 -10.7922 2.1779 10.5681 0.0000 15.5803 0.0000
# 6 0.0000 0.0000 0.0000 -0.3546 0.0000 26.1440
#
#
#
# Elastic Compliance Matrix: (Units=1/GPa)
#
#
# Indices 1 2 3 4 5 6 
#
# 1 0.026865 -0.001504 -0.016225 0.000000 0.029825 0.000000
# 2 -0.001504 0.020251 -0.008546 0.000000 0.001924 0.000000
# 3 -0.016225 -0.008546 0.027248 0.000000 -0.028527 0.000000
# 4 0.000000 0.000000 0.000000 0.061007 0.000000 0.000828
# 5 0.029825 0.001924 -0.028527 0.000000 0.103923 0.000000
# 6 0.000000 0.000000 0.000000 0.000828 0.000000 0.038261
#
#
# Mechanical properties :
#
#
# Convention : Reuss Voigt Hill
#
# Bulk Modulus (GPa) = 45.84491 47.91820 46.88155
# Shear Modulus (GPa) = 14.82014 19.86282 17.34148
#
# Velocity S-wave (km/s) = 2.90528 3.36343 3.14272
# Velocity P-wave (km/s) = 6.11267 6.50960 6.31426
#
# Compressibility (1/GPa) = 0.02181267
#
# Stress axis : x y z
#
# Youngs Moduli (GPa) = 37.22292 49.37968 36.70003
#
# Poissons Ratio (x) = 0.07427 0.59547
# Poissons Ratio (y) = 0.05599 0.31365
# Poissons Ratio (z) = 0.60396 0.42201
#
# Static dielectric constant tensor:
#      x y z
#    x 1.635390 0.000000 0.016940 
#    y 0.000000 1.628850 0.000000 
#    z 0.016940 0.000000 1.596620 
# 
# From -- ./inp_files/8296.got.cif
#   From: 2010.05.17/outbox.cif.g08.bks.cpg/sg11_5_cif.got.tgz:8296.got - 2010.06.03 12:22:45.
