data_PCOD9158246
_publ_section_title
;
Structure prediction by ZEFSAII (Michael W. Deem and Ramdas Pophale) SiO2 
 PCOD9158246
Probable space group: P 21/M
;
_chemical_formula_sum "Si O2"
_cell_formula_units_Z 32
_cell_length_a 19.065577
_cell_length_b 9.036442
_cell_length_c 27.289926
_cell_angle_alpha 90.000000
_cell_angle_beta 28.459525
_cell_angle_gamma 90.000000
_cell_volume 2240.511387
_symmetry_space_group_name_H-M "P 21/M"
_symmetry_group_IT_number 11
_symmetry_cell_setting 'monoclinic'
loop_
_space_group_symop_operation_xyz
x,y,z
-x,1/2+y,-z
-x,-y,-z
x,1/2-y,z
loop_
_atom_site_type_symbol
_atom_site_label
_atom_site_fract_x
_atom_site_fract_y
_atom_site_fract_z
Si Si1 0.639429 0.073885 0.475873
Si Si2 0.741809 0.926280 0.512184
Si Si3 0.093360 0.926450 0.870257
Si Si4 0.467665 0.427585 0.266903
Si Si5 0.799860 0.427580 0.085809
Si Si6 0.978090 0.573238 0.442279
Si Si7 0.701339 0.926496 0.336107
Si Si8 0.235586 0.574726 0.347178
O O1 0.657827 0.250000 0.460674
O O2 0.464036 0.041489 0.581977
O O3 0.706745 0.013115 0.484639
O O4 0.707863 0.995116 0.386322
O O5 0.726538 0.750000 0.512871
O O6 0.626119 0.966705 0.626583
O O7 0.904292 0.953961 0.435029
O O8 0.089546 0.750000 0.866269
O O9 0.175170 0.958558 0.871787
O O10 0.181522 0.001810 0.772265
O O11 0.929698 0.990951 0.977218
O O12 0.461606 0.250000 0.266968
O O13 0.636585 0.472692 0.169853
O O14 0.385855 0.495569 0.270155
O O15 0.814433 0.250000 0.070532
O O16 0.955924 0.750000 0.465940
O O17 0.879410 0.480250 0.540737
O O18 0.148165 0.540605 0.350349
O O19 0.719546 0.750000 0.326984
O O20 0.256039 0.750000 0.337606
#
# Coordination Sequence:
#
# PCOD9158246 Si02
#       8
#     4   4   4   4   4   4   4   4
#     4  10  20  31  44  64  85 106 139 178 209 242
#     4   9  16  27  42  59  83 114 143 171 208 250
#     4  10  19  31  47  64  83 108 140 178 212 243
#     4   9  17  28  41  58  84 116 144 171 206 249
#     4   9  18  31  45  62  85 113 142 171 208 252
#     4   8  15  26  37  52  78 111 141 168 204 249
#     4  10  20  33  47  61  82 112 140 169 210 255
#     4   9  15  23  37  56  78 106 141 176 205 238
#
# _framework density 14.282453
#
# number of rings (size 3 to 8) (size 9 to 14) (size 15 to 20)
#    0.000    2.750    0.000    3.000    0.000    6.000 
#    0.000    0.000    0.000    0.000    0.000    0.000 
#    0.000    1.000    0.000    3.000    0.000    4.875 
#
# Total GULP energy -178207.396619 kJ/mol
# GULP energy per Si atom -5568.981144 kJ/mol
# Density = 1.424995 g / cm^3
# Si number density = 14.282453 Si / 1000 Ang^3
#
#
#
# Elastic Constant Matrix: (Units=GPa)
#
#
# Indices 1 2 3 4 5 6 
#
# 1 125.5693 48.6936 61.8086 0.0000 -16.5816 0.0000
# 2 48.6936 38.2206 41.2257 0.0000 -1.8349 0.0000
# 3 61.8086 41.2257 89.4392 0.0000 -5.6698 0.0000
# 4 0.0000 0.0000 0.0000 20.2378 0.0000 -0.3570
# 5 -16.5816 -1.8349 -5.6698 0.0000 23.2915 0.0000
# 6 0.0000 0.0000 0.0000 -0.3570 0.0000 26.3549
#
#
#
# Elastic Compliance Matrix: (Units=1/GPa)
#
#
# Indices 1 2 3 4 5 6 
#
# 1 0.018629 -0.020029 -0.002947 0.000000 0.010967 0.000000
# 2 -0.020029 0.073640 -0.020961 0.000000 -0.013560 0.000000
# 3 -0.002947 -0.020961 0.022996 0.000000 0.001849 0.000000
# 4 0.000000 0.000000 0.000000 0.049424 0.000000 0.000670
# 5 0.010967 -0.013560 0.001849 0.000000 0.050124 0.000000
# 6 0.000000 0.000000 0.000000 0.000670 0.000000 0.037953
#
#
# Mechanical properties :
#
#
# Convention : Reuss Voigt Hill
#
# Bulk Modulus (GPa) = 36.50848 61.85388 49.18118
# Shear Modulus (GPa) = 14.29508 20.74359 17.51933
#
# Velocity S-wave (km/s) = 3.16711 3.81515 3.50613
# Velocity P-wave (km/s) = 6.24431 7.92520 7.13443
#
# Compressibility (1/GPa) = 0.02739089
#
# Stress axis : x y z
#
# Youngs Moduli (GPa) = 53.67844 13.57964 43.48546
#
# Poissons Ratio (x) = 0.27199 0.12814
# Poissons Ratio (y) = 1.07513 0.91151
# Poissons Ratio (z) = 0.15818 0.28465
#
# Static dielectric constant tensor:
#      x y z
#    x 1.491220 0.000000 -0.023750 
#    y 0.000000 1.475080 0.000000 
#    z -0.023750 0.000000 1.442700 
# 
# From -- ./inp_files/42528.got.cif
#   From: 2010.05.17/outbox.cif.g08.bks.cpg/sg11_22_cif.got.tgz:42528.got - 2010.06.03 12:22:45.
