data_PCOD9158786
_publ_section_title
;
Structure prediction by ZEFSAII (Michael W. Deem and Ramdas Pophale) SiO2 
 PCOD9158786
Probable space group: P 21/M
;
_chemical_formula_sum "Si O2"
_cell_formula_units_Z 28
_cell_length_a 12.067296
_cell_length_b 16.598487
_cell_length_c 7.810520
_cell_angle_alpha 90.000000
_cell_angle_beta 117.905319
_cell_angle_gamma 90.000000
_cell_volume 1382.528764
_symmetry_space_group_name_H-M "P 21/M"
_symmetry_group_IT_number 11
_symmetry_cell_setting 'monoclinic'
loop_
_space_group_symop_operation_xyz
x,y,z
-x,1/2+y,-z
-x,-y,-z
x,1/2-y,z
loop_
_atom_site_type_symbol
_atom_site_label
_atom_site_fract_x
_atom_site_fract_y
_atom_site_fract_z
Si Si1 0.528840 0.842934 0.293845
Si Si2 0.273251 0.599606 0.255288
Si Si3 0.972270 0.425897 0.107150
Si Si4 0.232491 0.429477 0.402020
Si Si5 0.793848 0.483999 0.252431
Si Si6 0.425518 0.076791 0.021835
Si Si7 0.645728 0.343100 0.326044
O O1 0.507848 0.750000 0.314090
O O2 0.398857 0.888070 0.237273
O O3 0.643818 0.876769 0.487523
O O4 0.568315 0.858178 0.126137
O O5 0.263660 0.507271 0.309959
O O6 0.291351 0.649549 0.442867
O O7 0.145787 0.620363 0.061470
O O8 0.920167 0.461385 0.247909
O O9 0.107393 0.386758 0.240600
O O10 0.000000 0.500000 0.000000
O O11 0.201403 0.466384 0.567812
O O12 0.712955 0.540440 0.064345
O O13 0.723233 0.400648 0.252758
O O14 0.507575 0.115211 0.231769
O O15 0.500000 0.000000 0.000000
O O16 0.639288 0.250000 0.268540
#
# Coordination Sequence:
#
# PCOD9158786 Si02
#       7
#     4   4   4   4   4   4   4
#     4  11  21  35  55  84 113 140 176 226 276 324
#     4  10  20  34  54  81 113 144 182 226 266 318
#     4  10  20  35  57  83 106 138 183 232 274 318
#     4   9  20  36  57  80 109 145 184 224 270 326
#     4   9  18  34  55  79 105 139 185 230 269 323
#     4   9  18  32  52  77 105 137 178 223 268 319
#     4  10  19  32  50  78 111 147 181 219 271 328
#
# _framework density 20.252742000000001
#
# number of rings (size 3 to 8) (size 9 to 14) (size 15 to 20)
#    0.000    2.286    0.000    4.286    0.000    2.286 
#    0.000    2.857    0.000    0.000    0.000   19.000 
#    0.000    0.000    0.000    0.000    0.000    0.000 
#
# Total GULP energy -156179.082787 kJ/mol
# GULP energy per Si atom -5577.824385 kJ/mol
# Density = 2.020665 g / cm^3
# Si number density = 20.252742 Si / 1000 Ang^3
#
#
#
# Elastic Constant Matrix: (Units=GPa)
#
#
# Indices 1 2 3 4 5 6 
#
# 1 81.8710 30.7542 36.9841 0.0000 17.8689 0.0000
# 2 30.7542 43.9930 40.9245 0.0000 8.9115 0.0000
# 3 36.9841 40.9245 114.5174 0.0000 31.9414 0.0000
# 4 0.0000 0.0000 0.0000 7.6071 0.0000 -6.5323
# 5 17.8689 8.9115 31.9414 0.0000 47.9741 0.0000
# 6 0.0000 0.0000 0.0000 -6.5323 0.0000 4.0549
#
#
#
# Elastic Compliance Matrix: (Units=1/GPa)
#
#
# Indices 1 2 3 4 5 6 
#
# 1 0.017438 -0.010759 -0.000654 0.000000 -0.004061 0.000000
# 2 -0.010759 0.040876 -0.012444 0.000000 0.004700 0.000000
# 3 -0.000654 -0.012444 0.015569 0.000000 -0.007811 0.000000
# 4 0.000000 0.000000 0.000000 -0.342897 0.000000 -0.552401
# 5 -0.004061 0.004700 -0.007811 0.000000 0.026685 0.000000
# 6 0.000000 0.000000 0.000000 -0.552401 0.000000 -0.643289
#
#
# Mechanical properties :
#
#
# Convention : Reuss Voigt Hill
#
# Bulk Modulus (GPa) = 38.21301 50.85635 44.53468
# Shear Modulus (GPa) = -6.03004 20.70844 7.33920
#
# Velocity S-wave (km/s) = -1.72739 3.20113 1.90569
# Velocity P-wave (km/s) = 3.86401 6.23124 5.18454
#
# Compressibility (1/GPa) = 0.02616910
#
# Stress axis : x y z
#
# Youngs Moduli (GPa) = 57.34686 24.46407 64.22987
#
# Poissons Ratio (x) = 0.26322 0.04200
# Poissons Ratio (y) = 0.61701 0.79926
# Poissons Ratio (z) = 0.03750 0.30443
#
# Static dielectric constant tensor:
#      x y z
#    x 1.733520 0.000000 0.006440 
#    y 0.000000 1.684700 0.000000 
#    z 0.006440 0.000000 1.811900 
# 
# From -- ./inp_files/18139.got.cif
#   From: 2010.05.17/outbox.cif.g08.bks.cpg/sg11_10_cif.got.tgz:18139.got - 2010.06.03 12:22:45.
