data_PCOD9158575
_publ_section_title
;
Structure prediction by ZEFSAII (Michael W. Deem and Ramdas Pophale) SiO2 
 PCOD9158575
Probable space group: P 21/M
;
_chemical_formula_sum "Si O2"
_cell_formula_units_Z 32
_cell_length_a 16.224653
_cell_length_b 14.171831
_cell_length_c 9.912217
_cell_angle_alpha 90.000000
_cell_angle_beta 144.126033
_cell_angle_gamma 90.000000
_cell_volume 1335.589342
_symmetry_space_group_name_H-M "P 21/M"
_symmetry_group_IT_number 11
_symmetry_cell_setting 'monoclinic'
loop_
_space_group_symop_operation_xyz
x,y,z
-x,1/2+y,-z
-x,-y,-z
x,1/2-y,z
loop_
_atom_site_type_symbol
_atom_site_label
_atom_site_fract_x
_atom_site_fract_y
_atom_site_fract_z
Si Si1 0.929135 0.859178 0.349223
Si Si2 0.660672 0.605497 0.160853
Si Si3 0.517373 0.443070 0.330257
Si Si4 0.831276 0.073031 0.676711
Si Si5 0.099655 0.140234 0.195278
Si Si6 0.225347 0.599715 0.689322
Si Si7 0.726416 0.858981 0.844268
Si Si8 0.488835 0.652622 0.193057
O O1 0.968967 0.750000 0.378028
O O2 0.812445 0.859818 0.311741
O O3 0.076660 0.911165 0.567280
O O4 0.845167 0.897140 0.106385
O O5 0.685892 0.495221 0.216922
O O6 0.598120 0.648185 0.213050
O O7 0.550497 0.610938 0.890719
O O8 0.681966 0.423527 0.553838
O O9 0.418022 0.411634 0.319668
O O10 0.498705 0.553981 0.280197
O O11 0.815605 0.129111 0.515732
O O12 0.869668 0.962011 0.692446
O O13 0.949979 0.119814 0.926069
O O14 0.101503 0.250000 0.252562
O O15 0.213053 0.137784 0.224590
O O16 0.334123 0.656158 0.922758
O O17 0.707216 0.750000 0.858197
O O18 0.514087 0.750000 0.304862
#
# Coordination Sequence:
#
# PCOD9158575 Si02
#       8
#     4   4   4   4   4   4   4   4
#     4  10  19  31  51  80 110 146 187 229 276 329
#     4  10  19  35  52  81 117 147 188 230 269 336
#     4  10  20  37  56  86 118 148 190 226 290 339
#     4  11  21  38  63  84 114 149 187 241 294 329
#     4  10  23  41  61  87 111 143 196 243 289 344
#     4  11  19  35  54  81 113 152 191 226 281 335
#     4   9  19  36  58  83 112 145 188 241 285 336
#     4  11  21  34  55  85 122 155 190 232 272 335
#
# _framework density 23.95946
#
# number of rings (size 3 to 8) (size 9 to 14) (size 15 to 20)
#    0.000    1.750    3.750    1.875    0.000    2.500 
#    0.000    0.000    0.000    3.000    0.000    0.000 
#    0.000    0.000    0.000    0.000    0.000    0.000 
#
# Total GULP energy -178866.622803 kJ/mol
# GULP energy per Si atom -5589.581963 kJ/mol
# Density = 2.390493 g / cm^3
# Si number density = 23.959460 Si / 1000 Ang^3
#
#
#
# Elastic Constant Matrix: (Units=GPa)
#
#
# Indices 1 2 3 4 5 6 
#
# 1 67.4136 25.3534 33.8912 0.0000 23.9130 0.0000
# 2 25.3534 101.9351 13.0025 0.0000 17.9099 0.0000
# 3 33.8912 13.0025 129.7229 0.0000 34.2131 0.0000
# 4 0.0000 0.0000 0.0000 10.3077 0.0000 0.3144
# 5 23.9130 17.9099 34.2131 0.0000 45.1884 0.0000
# 6 0.0000 0.0000 0.0000 0.3144 0.0000 47.6334
#
#
#
# Elastic Compliance Matrix: (Units=1/GPa)
#
#
# Indices 1 2 3 4 5 6 
#
# 1 0.020132 -0.003388 -0.003079 0.000000 -0.006979 0.000000
# 2 -0.003388 0.011115 0.000575 0.000000 -0.003048 0.000000
# 3 -0.003079 0.000575 0.010103 0.000000 -0.006248 0.000000
# 4 0.000000 0.000000 0.000000 0.097034 0.000000 -0.000641
# 5 -0.006979 -0.003048 -0.006248 0.000000 0.031761 0.000000
# 6 0.000000 0.000000 0.000000 -0.000641 0.000000 0.020998
#
#
# Mechanical properties :
#
#
# Convention : Reuss Voigt Hill
#
# Bulk Modulus (GPa) = 33.82380 49.28509 41.55444
# Shear Modulus (GPa) = 23.49807 35.74753 29.62280
#
# Velocity S-wave (km/s) = 3.13508 3.86683 3.52002
# Velocity P-wave (km/s) = 5.22041 6.36800 5.82255
#
# Compressibility (1/GPa) = 0.02956498
#
# Stress axis : x y z
#
# Youngs Moduli (GPa) = 49.67275 89.96846 98.97640
#
# Poissons Ratio (x) = 0.30483 0.30478
# Poissons Ratio (y) = 0.16830 -0.05690
# Poissons Ratio (z) = 0.15296 -0.05172
#
# Static dielectric constant tensor:
#      x y z
#    x 1.902670 0.000000 -0.040250 
#    y 0.000000 1.958620 0.000000 
#    z -0.040250 0.000000 1.951260 
# 
# From -- ./inp_files/41731.got.cif
#   From: 2010.05.17/outbox.cif.g08.bks.cpg/sg11_21_cif.got.tgz:41731.got - 2010.06.03 12:22:45.
