data_PCOD9158765
_publ_section_title
;
Structure prediction by ZEFSAII (Michael W. Deem and Ramdas Pophale) SiO2 
 PCOD9158765
Probable space group: P 21/M
;
_chemical_formula_sum "Si O2"
_cell_formula_units_Z 32
_cell_length_a 14.876764
_cell_length_b 8.669285
_cell_length_c 16.205573
_cell_angle_alpha 90.000000
_cell_angle_beta 62.812521
_cell_angle_gamma 90.000000
_cell_volume 1859.131154
_symmetry_space_group_name_H-M "P 21/M"
_symmetry_group_IT_number 11
_symmetry_cell_setting 'monoclinic'
loop_
_space_group_symop_operation_xyz
x,y,z
-x,1/2+y,-z
-x,-y,-z
x,1/2-y,z
loop_
_atom_site_type_symbol
_atom_site_label
_atom_site_fract_x
_atom_site_fract_y
_atom_site_fract_z
Si Si1 0.737978 0.934365 0.341033
Si Si2 0.888648 0.064470 0.532083
Si Si3 0.343626 0.434577 0.102034
Si Si4 0.583227 0.435236 0.527710
Si Si5 0.149131 0.564593 0.272677
Si Si6 0.428359 0.064019 0.726172
Si Si7 0.925271 0.435206 0.335177
Si Si8 0.447367 0.934508 0.899529
O O1 0.741665 0.750000 0.339332
O O2 0.664475 0.982405 0.295720
O O3 0.682745 0.991921 0.447622
O O4 0.850890 0.001830 0.295802
O O5 0.887292 0.250000 0.532554
O O6 0.830505 0.016237 0.639644
O O7 0.872286 0.017243 0.444610
O O8 0.000000 0.000000 0.500000
O O9 0.336561 0.250000 0.104754
O O10 0.240050 0.504682 0.178891
O O11 0.438677 0.479937 0.120536
O O12 0.373294 0.493288 0.998781
O O13 0.500000 0.500000 0.500000
O O14 0.590886 0.250000 0.520512
O O15 0.535218 0.475934 0.636449
O O16 0.144360 0.750000 0.271944
O O17 0.039510 0.499854 0.290793
O O18 0.425112 0.250000 0.733559
O O19 0.423617 0.991300 0.817885
O O20 0.929843 0.250000 0.329490
O O21 0.440688 0.750000 0.906673
#
# Coordination Sequence:
#
# PCOD9158765 Si02
#       8
#     4   4   4   4   4   4   4   4
#     4  10  20  33  49  73 105 142 180 214 252 298
#     4   8  16  29  45  67  96 130 167 206 246 288
#     4  10  21  37  55  77 104 131 162 205 257 310
#     4   9  17  30  47  69  98 133 171 209 250 293
#     4  10  19  33  53  76 103 136 173 212 254 303
#     4   9  19  34  52  74 103 137 171 211 257 304
#     4  10  19  32  50  74 105 141 178 214 254 298
#     4  10  21  36  56  80 102 128 165 208 255 308
#
# _framework density 17.212340000000001
#
# number of rings (size 3 to 8) (size 9 to 14) (size 15 to 20)
#    0.000    2.500    0.000    3.000    0.000    6.500 
#    0.000    3.750    0.000    0.750    0.000    0.000 
#    0.000    0.000    0.000    0.000    0.000    0.000 
#
# Total GULP energy -178193.695447 kJ/mol
# GULP energy per Si atom -5568.552983 kJ/mol
# Density = 1.717316 g / cm^3
# Si number density = 17.212340 Si / 1000 Ang^3
#
#
#
# Elastic Constant Matrix: (Units=GPa)
#
#
# Indices 1 2 3 4 5 6 
#
# 1 105.4494 34.8827 71.4576 0.0000 -4.3180 0.0000
# 2 34.8827 41.9129 40.9957 0.0000 -1.2639 0.0000
# 3 71.4576 40.9957 128.3900 0.0000 -3.9048 0.0000
# 4 0.0000 0.0000 0.0000 27.8119 0.0000 -3.2030
# 5 -4.3180 -1.2639 -3.9048 0.0000 24.3382 0.0000
# 6 0.0000 0.0000 0.0000 -3.2030 0.0000 22.9358
#
#
#
# Elastic Compliance Matrix: (Units=1/GPa)
#
#
# Indices 1 2 3 4 5 6 
#
# 1 0.016546 -0.006926 -0.006953 0.000000 0.001460 0.000000
# 2 -0.006926 0.037594 -0.008167 0.000000 -0.000587 0.000000
# 3 -0.006953 -0.008167 0.014286 0.000000 0.000634 0.000000
# 4 0.000000 0.000000 0.000000 0.036544 0.000000 0.005103
# 5 0.001460 -0.000587 0.000634 0.000000 0.041418 0.000000
# 6 0.000000 0.000000 0.000000 0.005103 0.000000 0.044313
#
#
# Mechanical properties :
#
#
# Convention : Reuss Voigt Hill
#
# Bulk Modulus (GPa) = 41.09545 63.38047 52.23796
# Shear Modulus (GPa) = 20.58444 23.57828 22.08136
#
# Velocity S-wave (km/s) = 3.46195 3.70516 3.58562
# Velocity P-wave (km/s) = 6.31724 7.43014 6.89617
#
# Compressibility (1/GPa) = 0.02433359
#
# Stress axis : x y z
#
# Youngs Moduli (GPa) = 60.43874 26.60019 70.00002
#
# Poissons Ratio (x) = 0.18422 0.48671
# Poissons Ratio (y) = 0.41857 0.57171
# Poissons Ratio (z) = 0.42023 0.21725
#
# Static dielectric constant tensor:
#      x y z
#    x 1.589590 0.000000 0.009150 
#    y 0.000000 1.575400 0.000000 
#    z 0.009150 0.000000 1.583180 
# 
# From -- ./inp_files/51635.got.cif
#   From: 2010.05.17/outbox.cif.g08.bks.cpg/sg11_26_cif.got.tgz:51635.got - 2010.06.03 12:22:45.
