data_PCOD9158122
_publ_section_title
;
Structure prediction by ZEFSAII (Michael W. Deem and Ramdas Pophale) SiO2 
 PCOD9158122
Probable space group: P 21/M
;
_chemical_formula_sum "Si O2"
_cell_formula_units_Z 32
_cell_length_a 27.458293
_cell_length_b 8.174144
_cell_length_c 21.347388
_cell_angle_alpha 90.000000
_cell_angle_beta 20.041892
_cell_angle_gamma 90.000000
_cell_volume 1642.039799
_symmetry_space_group_name_H-M "P 21/M"
_symmetry_group_IT_number 11
_symmetry_cell_setting 'monoclinic'
loop_
_space_group_symop_operation_xyz
x,y,z
-x,1/2+y,-z
-x,-y,-z
x,1/2-y,z
loop_
_atom_site_type_symbol
_atom_site_label
_atom_site_fract_x
_atom_site_fract_y
_atom_site_fract_z
Si Si1 0.291174 0.447013 0.917881
Si Si2 0.275700 0.947876 0.283540
Si Si3 0.475182 0.946119 0.268228
Si Si4 0.346932 0.942975 0.709138
Si Si5 0.464636 0.946000 0.942514
Si Si6 0.065713 0.054226 0.986093
Si Si7 0.154887 0.550187 0.641441
Si Si8 0.021431 0.949684 0.670352
O O1 0.289172 0.250000 0.925591
O O2 0.422221 0.509871 0.801190
O O3 0.309070 0.485369 0.823126
O O4 0.140338 0.507262 0.127461
O O5 0.276362 0.750000 0.282594
O O6 0.119734 0.003307 0.493661
O O7 0.391105 0.002165 0.195941
O O8 0.336767 0.002541 0.142709
O O9 0.466962 0.750000 0.285262
O O10 0.313338 0.008819 0.465228
O O11 0.536978 0.982850 0.124928
O O12 0.349714 0.750000 0.712119
O O13 0.500000 0.000000 0.500000
O O14 0.222954 0.990841 0.810552
O O15 0.461433 0.750000 0.942386
O O16 0.070285 0.250000 0.982747
O O17 0.960397 0.996242 0.168524
O O18 0.000000 0.000000 0.000000
O O19 0.157101 0.750000 0.639394
O O20 0.103874 0.501909 0.634120
O O21 0.017599 0.750000 0.673778
#
# Coordination Sequence:
#
# PCOD9158122 Si02
#       8
#     4   4   4   4   4   4   4   4
#     4  10  21  38  61  85 111 146 192 238 282 344
#     4   9  17  31  53  76 106 147 187 228 284 341
#     4  10  20  35  56  81 111 150 187 227 282 343
#     4  12  26  44  64  87 119 159 197 240 295 355
#     4  10  19  30  48  79 112 142 183 237 284 330
#     4  11  23  41  63  92 123 154 195 243 294 349
#     4   9  17  32  57  82 108 144 187 232 275 334
#     4   9  15  31  57  81 104 141 188 231 277 335
#
# _framework density 19.487954999999999
#
# number of rings (size 3 to 8) (size 9 to 14) (size 15 to 20)
#    0.000    2.000    2.500    1.875    1.750    1.000 
#    0.000    3.750    0.000    0.000    0.000    0.000 
#    0.000    0.000    0.000    0.000    0.000    0.000 
#
# Total GULP energy -178634.953112 kJ/mol
# GULP energy per Si atom -5582.342285 kJ/mol
# Density = 1.944360 g / cm^3
# Si number density = 19.487955 Si / 1000 Ang^3
#
#
#
# Elastic Constant Matrix: (Units=GPa)
#
#
# Indices 1 2 3 4 5 6 
#
# 1 64.7845 -7.7672 40.2417 0.0000 -21.8525 0.0000
# 2 -7.7672 6.7118 8.6072 0.0000 -8.2924 0.0000
# 3 40.2417 8.6072 156.0765 0.0000 -13.4905 0.0000
# 4 0.0000 0.0000 0.0000 18.8591 0.0000 5.4543
# 5 -21.8525 -8.2924 -13.4905 0.0000 31.6251 0.0000
# 6 0.0000 0.0000 0.0000 5.4543 0.0000 23.2630
#
#
#
# Elastic Compliance Matrix: (Units=1/GPa)
#
#
# Indices 1 2 3 4 5 6 
#
# 1 -0.196400 -0.653991 0.062455 0.000000 -0.280550 0.000000
# 2 -0.653991 -1.948697 0.200244 0.000000 -0.877444 0.000000
# 3 0.062455 0.200244 -0.012948 0.000000 0.090138 0.000000
# 4 0.000000 0.000000 0.000000 0.056882 0.000000 -0.013337
# 5 -0.280550 -0.877444 0.090138 0.000000 -0.353858 0.000000
# 6 0.000000 0.000000 0.000000 -0.013337 0.000000 0.046114
#
#
# Mechanical properties :
#
#
# Convention : Reuss Voigt Hill
#
# Bulk Modulus (GPa) = -0.34006 34.41514 17.03754
# Shear Modulus (GPa) = -1.91826 27.18218 12.63196
#
# Velocity S-wave (km/s) = -0.99321 3.73878 2.54873
# Velocity P-wave (km/s) = 1.22072 6.02794 4.17408
#
# Compressibility (1/GPa) = -2.94062876
#
# Stress axis : x y z
#
# Youngs Moduli (GPa) = -5.09164 -0.51316 -77.23377
#
# Poissons Ratio (x) = -0.33560 4.82364
# Poissons Ratio (y) = -3.32988 15.46560
# Poissons Ratio (z) = 0.31800 0.10276
#
# Static dielectric constant tensor:
#      x y z
#    x 1.793640 0.000000 0.065870 
#    y 0.000000 1.685030 0.000000 
#    z 0.065870 0.000000 1.726870 
# 
# From -- ./inp_files/66931.got.cif
#   From: 2010.05.17/outbox.cif.g08.bks.cpg/sg11_34_cif.got.tgz:66931.got - 2010.06.03 12:22:45.
