data_PCOD9158823
_publ_section_title
;
Structure prediction by ZEFSAII (Michael W. Deem and Ramdas Pophale) SiO2 
 PCOD9158823
Probable space group: P 21/M
;
_chemical_formula_sum "Si O2"
_cell_formula_units_Z 32
_cell_length_a 15.272131
_cell_length_b 8.863896
_cell_length_c 23.757727
_cell_angle_alpha 90.000000
_cell_angle_beta 39.677626
_cell_angle_gamma 90.000000
_cell_volume 2053.373021
_symmetry_space_group_name_H-M "P 21/M"
_symmetry_group_IT_number 11
_symmetry_cell_setting 'monoclinic'
loop_
_space_group_symop_operation_xyz
x,y,z
-x,1/2+y,-z
-x,-y,-z
x,1/2-y,z
loop_
_atom_site_type_symbol
_atom_site_label
_atom_site_fract_x
_atom_site_fract_y
_atom_site_fract_z
Si Si1 0.271868 0.431330 0.928626
Si Si2 0.292154 0.430857 0.788528
Si Si3 0.294459 0.931053 0.579199
Si Si4 0.010252 0.431273 0.239719
Si Si5 0.708427 0.429647 0.869226
Si Si6 0.545154 0.429709 0.066089
Si Si7 0.534047 0.069999 0.394457
Si Si8 0.996264 0.431329 0.882181
O O1 0.263373 0.250000 0.936612
O O2 0.299956 0.473668 0.850059
O O3 0.388053 0.492445 0.913045
O O4 0.128773 0.502197 0.020084
O O5 0.305978 0.250000 0.777811
O O6 0.405509 0.505567 0.692893
O O7 0.141611 0.469824 0.838786
O O8 0.305999 0.750000 0.568642
O O9 0.362468 0.974748 0.605679
O O10 0.134664 0.971354 0.659841
O O11 0.386676 0.006585 0.485750
O O12 0.019254 0.250000 0.231515
O O13 0.142178 0.496933 0.205944
O O14 0.009170 0.499686 0.177493
O O15 0.715273 0.250000 0.858065
O O16 0.601278 0.502490 0.878927
O O17 0.644945 0.458145 0.963016
O O18 0.536426 0.250000 0.078049
O O19 0.530136 0.250000 0.394238
O O20 0.983243 0.250000 0.885299
#
# Coordination Sequence:
#
# PCOD9158823 Si02
#       8
#     4   4   4   4   4   4   4   4
#     4  11  22  35  51  71  99 137 175 211 251 294
#     4  10  22  36  50  70 100 138 175 211 251 294
#     4   9  19  33  49  72 101 132 165 205 254 301
#     4  11  20  32  51  75 103 135 168 204 250 302
#     4  10  20  33  51  74 101 131 165 206 254 300
#     4  10  20  34  51  73  99 131 168 208 253 296
#     4  10  19  32  51  74  97 130 170 211 253 294
#     4  11  21  33  48  70 101 137 175 211 245 289
#
# _framework density 15.584113
#
# number of rings (size 3 to 8) (size 9 to 14) (size 15 to 20)
#    0.000    1.750    2.500    2.625    0.000    4.000 
#    0.000    0.000    0.000    0.000    0.000    0.875 
#    0.000    0.000    0.000    0.000    0.000    0.000 
#
# Total GULP energy -178681.101305 kJ/mol
# GULP energy per Si atom -5583.784416 kJ/mol
# Density = 1.554864 g / cm^3
# Si number density = 15.584113 Si / 1000 Ang^3
#
#
#
# Elastic Constant Matrix: (Units=GPa)
#
#
# Indices 1 2 3 4 5 6 
#
# 1 86.4565 41.9017 74.5555 0.0000 -10.6898 0.0000
# 2 41.9017 47.6108 53.9015 0.0000 -7.1616 0.0000
# 3 74.5555 53.9015 142.5866 0.0000 -11.4250 0.0000
# 4 0.0000 0.0000 0.0000 23.0354 0.0000 -1.8323
# 5 -10.6898 -7.1616 -11.4250 0.0000 23.7296 0.0000
# 6 0.0000 0.0000 0.0000 -1.8323 0.0000 25.7101
#
#
#
# Elastic Compliance Matrix: (Units=1/GPa)
#
#
# Indices 1 2 3 4 5 6 
#
# 1 0.024947 -0.012186 -0.008146 0.000000 0.003638 0.000000
# 2 -0.012186 0.043154 -0.009713 0.000000 0.002858 0.000000
# 3 -0.008146 -0.009713 0.014994 0.000000 0.000618 0.000000
# 4 0.000000 0.000000 0.000000 0.043659 0.000000 0.003111
# 5 0.003638 0.002858 0.000618 0.000000 0.044941 0.000000
# 6 0.000000 0.000000 0.000000 0.003111 0.000000 0.039117
#
#
# Mechanical properties :
#
#
# Convention : Reuss Voigt Hill
#
# Bulk Modulus (GPa) = 43.46735 68.59682 56.03208
# Shear Modulus (GPa) = 17.94878 21.58135 19.76507
#
# Velocity S-wave (km/s) = 3.39741 3.72537 3.56516
# Velocity P-wave (km/s) = 6.58350 7.91310 7.27872
#
# Compressibility (1/GPa) = 0.02300578
#
# Stress axis : x y z
#
# Youngs Moduli (GPa) = 40.08454 23.17270 66.69337
#
# Poissons Ratio (x) = 0.28238 0.54330
# Poissons Ratio (y) = 0.48846 0.64777
# Poissons Ratio (z) = 0.32654 0.22507
#
# Static dielectric constant tensor:
#      x y z
#    x 1.505170 0.000000 -0.009580 
#    y 0.000000 1.518300 0.000000 
#    z -0.009580 0.000000 1.498470 
# 
# From -- ./inp_files/51385.got.cif
#   From: 2010.05.17/outbox.cif.g08.bks.cpg/sg11_26_cif.got.tgz:51385.got - 2010.06.03 12:22:45.
