data_PCOD9158215
_publ_section_title
;
Structure prediction by ZEFSAII (Michael W. Deem and Ramdas Pophale) SiO2 
 PCOD9158215
Probable space group: P 21/M
;
_chemical_formula_sum "Si O2"
_cell_formula_units_Z 32
_cell_length_a 21.417627
_cell_length_b 7.799706
_cell_length_c 15.295043
_cell_angle_alpha 90.000000
_cell_angle_beta 43.380989
_cell_angle_gamma 90.000000
_cell_volume 1754.930441
_symmetry_space_group_name_H-M "P 21/M"
_symmetry_group_IT_number 11
_symmetry_cell_setting 'monoclinic'
loop_
_space_group_symop_operation_xyz
x,y,z
-x,1/2+y,-z
-x,-y,-z
x,1/2-y,z
loop_
_atom_site_type_symbol
_atom_site_label
_atom_site_fract_x
_atom_site_fract_y
_atom_site_fract_z
Si Si1 0.824098 0.955948 0.003472
Si Si2 0.483851 0.953180 0.916602
Si Si3 0.661675 0.046570 0.066644
Si Si4 0.986740 0.042522 0.115847
Si Si5 0.531169 0.551790 0.355454
Si Si6 0.792570 0.051204 0.372968
Si Si7 0.306294 0.041118 0.702395
Si Si8 0.384343 0.543741 0.374137
O O1 0.826569 0.750000 0.000060
O O2 0.925872 0.018236 0.918164
O O3 0.762778 0.007471 0.149356
O O4 0.767477 0.012508 0.976311
O O5 0.484416 0.750000 0.911941
O O6 0.387123 0.009871 0.973183
O O7 0.561781 0.013064 0.770034
O O8 0.500000 0.000000 0.000000
O O9 0.647035 0.250000 0.092984
O O10 0.605462 0.953483 0.200605
O O11 0.984426 0.250000 0.122181
O O12 0.891269 0.974919 0.251323
O O13 0.000000 0.000000 0.000000
O O14 0.512600 0.750000 0.393500
O O15 0.591967 0.481903 0.373887
O O16 0.444536 0.471067 0.394333
O O17 0.808197 0.250000 0.380450
O O18 0.719049 0.977834 0.516184
O O19 0.735520 0.039101 0.341254
O O20 0.306884 0.250000 0.694962
O O21 0.381401 0.750000 0.389008
#
# Coordination Sequence:
#
# PCOD9158215 Si02
#       8
#     4   4   4   4   4   4   4   4
#     4   9  17  29  44  62  90 127 163 199 242 281
#     4  10  20  34  54  79 101 122 147 180 226 284
#     4   9  17  28  45  71  96 116 148 190 229 271
#     4  10  19  31  45  64  90 125 169 211 245 278
#     4   8  15  28  43  58  85 123 157 187 227 276
#     4  10  20  30  43  64  90 122 163 204 239 273
#     4   9  16  26  40  59  84 121 163 198 234 273
#     4   9  18  33  48  65  93 126 155 189 232 279
#
# _framework density 18.234341000000001
#
# number of rings (size 3 to 8) (size 9 to 14) (size 15 to 20)
#    0.000    2.750    1.250    1.500    0.000    5.000 
#    0.000    0.000    0.000    0.000    0.000    0.875 
#    0.000    0.000    0.000    0.000    0.000    0.000 
#
# Total GULP energy -178288.589041 kJ/mol
# GULP energy per Si atom -5571.518408 kJ/mol
# Density = 1.819284 g / cm^3
# Si number density = 18.234341 Si / 1000 Ang^3
#
#
#
# Elastic Constant Matrix: (Units=GPa)
#
#
# Indices 1 2 3 4 5 6 
#
# 1 126.0242 10.0632 72.8185 0.0000 -20.0472 0.0000
# 2 10.0632 32.8941 8.7293 0.0000 -3.5296 0.0000
# 3 72.8185 8.7293 99.5131 0.0000 -27.7393 0.0000
# 4 0.0000 0.0000 0.0000 10.4190 0.0000 3.1888
# 5 -20.0472 -3.5296 -27.7393 0.0000 37.5224 0.0000
# 6 0.0000 0.0000 0.0000 3.1888 0.0000 20.2539
#
#
#
# Elastic Compliance Matrix: (Units=1/GPa)
#
#
# Indices 1 2 3 4 5 6 
#
# 1 0.013829 -0.001588 -0.010028 0.000000 -0.000175 0.000000
# 2 -0.001588 0.031347 -0.001262 0.000000 0.001167 0.000000
# 3 -0.010028 -0.001262 0.020117 0.000000 0.009395 0.000000
# 4 0.000000 0.000000 0.000000 0.100837 0.000000 -0.015876
# 5 -0.000175 0.001167 0.009395 0.000000 0.033613 0.000000
# 6 0.000000 0.000000 0.000000 -0.015876 0.000000 0.051873
#
#
# Mechanical properties :
#
#
# Convention : Reuss Voigt Hill
#
# Bulk Modulus (GPa) = 25.29450 49.07260 37.18355
# Shear Modulus (GPa) = 17.20870 24.76041 20.98456
#
# Velocity S-wave (km/s) = 3.07539 3.68897 3.39606
# Velocity P-wave (km/s) = 5.14905 6.71679 5.98448
#
# Compressibility (1/GPa) = 0.03953429
#
# Stress axis : x y z
#
# Youngs Moduli (GPa) = 72.31417 31.90136 49.70943
#
# Poissons Ratio (x) = 0.05066 0.49851
# Poissons Ratio (y) = 0.11483 0.06276
# Poissons Ratio (z) = 0.72520 0.04027
#
# Static dielectric constant tensor:
#      x y z
#    x 1.597040 0.000000 -0.119560 
#    y 0.000000 1.660050 0.000000 
#    z -0.119560 0.000000 1.587940 
# 
# From -- ./inp_files/54283.got.cif
#   From: 2010.05.17/outbox.cif.g08.bks.cpg/sg11_28_cif.got.tgz:54283.got - 2010.06.03 12:22:45.
