data_PCOD9158175
_publ_section_title
;
Structure prediction by ZEFSAII (Michael W. Deem and Ramdas Pophale) SiO2 
 PCOD9158175
Probable space group: P 21/M
;
_chemical_formula_sum "Si O2"
_cell_formula_units_Z 32
_cell_length_a 10.654890
_cell_length_b 20.186894
_cell_length_c 11.782033
_cell_angle_alpha 90.000000
_cell_angle_beta 137.547660
_cell_angle_gamma 90.000000
_cell_volume 1710.517344
_symmetry_space_group_name_H-M "P 21/M"
_symmetry_group_IT_number 11
_symmetry_cell_setting 'monoclinic'
loop_
_space_group_symop_operation_xyz
x,y,z
-x,1/2+y,-z
-x,-y,-z
x,1/2-y,z
loop_
_atom_site_type_symbol
_atom_site_label
_atom_site_fract_x
_atom_site_fract_y
_atom_site_fract_z
Si Si1 0.883363 0.322387 0.260279
Si Si2 0.508686 0.675067 0.267563
Si Si3 0.437977 0.175156 0.946109
Si Si4 0.256442 0.547519 0.122247
Si Si5 0.164935 0.458855 0.256160
Si Si6 0.651100 0.536173 0.022766
Si Si7 0.006109 0.532118 0.626655
Si Si8 0.230176 0.178758 0.337464
O O1 0.919033 0.250000 0.339486
O O2 0.015819 0.322467 0.237853
O O3 0.663633 0.326543 0.091373
O O4 0.936436 0.391297 0.353695
O O5 0.429421 0.750000 0.205360
O O6 0.357353 0.617746 0.180182
O O7 0.646700 0.675617 0.466143
O O8 0.618193 0.663005 0.222565
O O9 0.383228 0.250000 0.943219
O O10 0.370828 0.114866 0.978838
O O11 0.251019 0.519729 0.245959
O O12 0.358930 0.494314 0.109398
O O13 0.045438 0.549429 0.933387
O O14 0.263160 0.389053 0.293875
O O15 0.158971 0.466411 0.389238
O O16 0.500000 0.500000 0.000000
O O17 0.842052 0.510470 0.203846
O O18 0.000000 0.500000 0.500000
O O19 0.265583 0.250000 0.305169
#
# Coordination Sequence:
#
# PCOD9158175 Si02
#       8
#     4   4   4   4   4   4   4   4
#     4   9  17  31  49  71 101 136 172 211 256 309
#     4  10  19  30  50  79 105 133 169 218 264 306
#     4  10  19  32  50  75 106 138 174 214 263 310
#     4  10  20  36  55  74 105 137 179 216 254 311
#     4   9  20  36  53  76 100 140 177 211 257 308
#     4  11  19  32  51  79 105 132 169 217 261 301
#     4  10  20  32  52  79 106 133 170 219 264 315
#     4   9  18  31  49  76 105 131 169 214 261 311
#
# _framework density 18.707789999999999
#
# number of rings (size 3 to 8) (size 9 to 14) (size 15 to 20)
#    0.000    2.250    2.500    1.500    3.500    2.000 
#    0.000    0.625    0.000    5.250    0.000    0.000 
#    0.000    0.000    0.000    0.000    0.000    0.000 
#
# Total GULP energy -178190.951792 kJ/mol
# GULP energy per Si atom -5568.467243 kJ/mol
# Density = 1.866521 g / cm^3
# Si number density = 18.707790 Si / 1000 Ang^3
#
#
#
# Elastic Constant Matrix: (Units=GPa)
#
#
# Indices 1 2 3 4 5 6 
#
# 1 42.2486 42.7529 15.7631 0.0000 -11.2313 0.0000
# 2 42.7529 175.4612 26.7017 0.0000 -13.7754 0.0000
# 3 15.7631 26.7017 26.2366 0.0000 -14.0386 0.0000
# 4 0.0000 0.0000 0.0000 27.1429 0.0000 -3.9658
# 5 -11.2313 -13.7754 -14.0386 0.0000 21.0984 0.0000
# 6 0.0000 0.0000 0.0000 -3.9658 0.0000 29.8910
#
#
#
# Elastic Compliance Matrix: (Units=1/GPa)
#
#
# Indices 1 2 3 4 5 6 
#
# 1 0.036560 -0.006612 -0.011076 0.000000 0.007775 0.000000
# 2 -0.006612 0.007941 -0.004997 0.000000 -0.001660 0.000000
# 3 -0.011076 -0.004997 0.069808 0.000000 0.037291 0.000000
# 4 0.000000 0.000000 0.000000 0.037570 0.000000 0.004985
# 5 0.007775 -0.001660 0.037291 0.000000 0.075264 0.000000
# 6 0.000000 0.000000 0.000000 0.004985 0.000000 0.034116
#
#
# Mechanical properties :
#
#
# Convention : Reuss Voigt Hill
#
# Bulk Modulus (GPa) = 14.50569 46.04243 30.27406
# Shear Modulus (GPa) = 15.16947 26.20837 20.68892
#
# Velocity S-wave (km/s) = 2.85066 3.74696 3.32911
# Velocity P-wave (km/s) = 4.31343 6.58669 5.56732
#
# Compressibility (1/GPa) = 0.06893848
#
# Stress axis : x y z
#
# Youngs Moduli (GPa) = 27.35236 125.93656 14.32494
#
# Poissons Ratio (x) = 0.83273 0.15866
# Poissons Ratio (y) = 0.18086 0.07158
# Poissons Ratio (z) = 0.30295 0.62931
#
# Static dielectric constant tensor:
#      x y z
#    x 1.794520 0.000000 0.072340 
#    y 0.000000 1.667640 0.000000 
#    z 0.072340 0.000000 1.717430 
# 
# From -- ./inp_files/36377.got.cif
#   From: 2010.05.17/outbox.cif.g08.bks.cpg/sg11_19_cif.got.tgz:36377.got - 2010.06.03 12:22:45.
