data_PCOD9158497
_publ_section_title
;
Structure prediction by ZEFSAII (Michael W. Deem and Ramdas Pophale) SiO2 
 PCOD9158497
Probable space group: P 21/M
;
_chemical_formula_sum "Si O2"
_cell_formula_units_Z 32
_cell_length_a 12.934738
_cell_length_b 8.703523
_cell_length_c 12.166656
_cell_angle_alpha 90.000000
_cell_angle_beta 90.225509
_cell_angle_gamma 90.000000
_cell_volume 1369.684631
_symmetry_space_group_name_H-M "P 21/M"
_symmetry_group_IT_number 11
_symmetry_cell_setting 'monoclinic'
loop_
_space_group_symop_operation_xyz
x,y,z
-x,1/2+y,-z
-x,-y,-z
x,1/2-y,z
loop_
_atom_site_type_symbol
_atom_site_label
_atom_site_fract_x
_atom_site_fract_y
_atom_site_fract_z
Si Si1 0.315050 0.065807 0.693237
Si Si2 0.702406 0.423476 0.747789
Si Si3 0.391569 0.576139 0.019733
Si Si4 0.522495 0.568409 0.619712
Si Si5 0.096201 0.933110 0.113830
Si Si6 0.196096 0.430471 0.906540
Si Si7 0.149928 0.434183 0.522894
Si Si8 0.023145 0.431585 0.319616
O O1 0.327342 0.250000 0.706225
O O2 0.231330 0.014176 0.785120
O O3 0.261500 0.035797 0.575070
O O4 0.427538 0.990186 0.696001
O O5 0.724545 0.250000 0.707084
O O6 0.635770 0.518805 0.661843
O O7 0.803749 0.483523 0.812460
O O8 0.625027 0.411316 0.850868
O O9 0.381657 0.750000 0.973939
O O10 0.302954 0.468569 0.970184
O O11 0.500000 0.500000 0.000000
O O12 0.500000 0.500000 0.500000
O O13 0.518534 0.750000 0.614635
O O14 0.097705 0.750000 0.102954
O O15 0.011135 0.983501 0.202895
O O16 0.112158 0.000480 0.992174
O O17 0.174271 0.250000 0.899252
O O18 0.130847 0.250000 0.533338
O O19 0.122708 0.474918 0.397147
O O20 0.069660 0.523507 0.599869
O O21 0.026630 0.250000 0.298549
#
# Coordination Sequence:
#
# PCOD9158497 Si02
#       8
#     4   4   4   4   4   4   4   4
#     4  10  22  41  62  85 118 156 195 240 291 349
#     4   9  20  37  53  76 109 147 190 236 282 332
#     4  10  19  31  50  75 105 142 187 235 283 333
#     4  12  26  40  57  82 115 155 198 242 288 346
#     4  10  21  37  60  87 120 156 195 245 294 345
#     4  10  20  35  56  83 115 151 193 240 289 346
#     4   9  20  39  62  88 117 153 190 235 296 352
#     4  10  20  36  61  92 120 147 192 243 291 352
#
# _framework density 23.363042
#
# number of rings (size 3 to 8) (size 9 to 14) (size 15 to 20)
#    0.000    2.000    0.000    4.125    1.750    8.000 
#    0.000    0.625    0.000    0.000    0.000    0.000 
#    0.000    0.000    0.000    0.000    0.000    0.000 
#
# Total GULP energy -178708.219063 kJ/mol
# GULP energy per Si atom -5584.631846 kJ/mol
# Density = 2.330987 g / cm^3
# Si number density = 23.363042 Si / 1000 Ang^3
#
#
#
# Elastic Constant Matrix: (Units=GPa)
#
#
# Indices 1 2 3 4 5 6 
#
# 1 53.0701 -0.3771 17.6628 0.0000 -1.5694 0.0000
# 2 -0.3771 37.4798 40.7849 0.0000 2.8491 0.0000
# 3 17.6628 40.7849 154.5099 0.0000 -5.8979 0.0000
# 4 0.0000 0.0000 0.0000 30.9850 0.0000 -6.5355
# 5 -1.5694 2.8491 -5.8979 0.0000 45.0353 0.0000
# 6 0.0000 0.0000 0.0000 -6.5355 0.0000 21.6694
#
#
#
# Elastic Compliance Matrix: (Units=1/GPa)
#
#
# Indices 1 2 3 4 5 6 
#
# 1 0.019960 0.003761 -0.003273 0.000000 0.000029 0.000000
# 2 0.003761 0.038759 -0.010803 0.000000 -0.003736 0.000000
# 3 -0.003273 -0.010803 0.009769 0.000000 0.001849 0.000000
# 4 0.000000 0.000000 0.000000 0.034466 0.000000 0.010395
# 5 0.000029 -0.003736 0.001849 0.000000 0.022684 0.000000
# 6 0.000000 0.000000 0.000000 0.010395 0.000000 0.049283
#
#
# Mechanical properties :
#
#
# Convention : Reuss Voigt Hill
#
# Bulk Modulus (GPa) = 20.89639 40.13345 30.51492
# Shear Modulus (GPa) = 23.64008 32.00388 27.82198
#
# Velocity S-wave (km/s) = 3.18442 3.70516 3.45462
# Velocity P-wave (km/s) = 4.74177 5.95985 5.38536
#
# Compressibility (1/GPa) = 0.04785515
#
# Stress axis : x y z
#
# Youngs Moduli (GPa) = 50.10027 25.80047 102.36954
#
# Poissons Ratio (x) = -0.09702 0.33508
# Poissons Ratio (y) = -0.18840 1.10594
# Poissons Ratio (z) = 0.16399 0.27873
#
# Static dielectric constant tensor:
#      x y z
#    x 1.930510 0.000000 -0.011520 
#    y 0.000000 1.810780 0.000000 
#    z -0.011520 0.000000 1.895160 
# 
# From -- ./inp_files/38158.got.cif
#   From: 2010.05.17/outbox.cif.g08.bks.cpg/sg11_20_cif.got.tgz:38158.got - 2010.06.03 12:22:45.
