data_PCOD9158433
_publ_section_title
;
Structure prediction by ZEFSAII (Michael W. Deem and Ramdas Pophale) SiO2 
 PCOD9158433
Probable space group: P 21/M
;
_chemical_formula_sum "Si O2"
_cell_formula_units_Z 28
_cell_length_a 12.297897
_cell_length_b 7.558280
_cell_length_c 14.330102
_cell_angle_alpha 90.000000
_cell_angle_beta 64.466269
_cell_angle_gamma 90.000000
_cell_volume 1201.902709
_symmetry_space_group_name_H-M "P 21/M"
_symmetry_group_IT_number 11
_symmetry_cell_setting 'monoclinic'
loop_
_space_group_symop_operation_xyz
x,y,z
-x,1/2+y,-z
-x,-y,-z
x,1/2-y,z
loop_
_atom_site_type_symbol
_atom_site_label
_atom_site_fract_x
_atom_site_fract_y
_atom_site_fract_z
Si Si1 0.438584 0.036521 0.299616
Si Si2 0.213897 0.466037 0.019158
Si Si3 0.975083 0.047085 0.664805
Si Si4 0.699567 0.454438 0.211302
Si Si5 0.179590 0.540134 0.446609
Si Si6 0.041075 0.952118 0.843773
Si Si7 0.388831 0.461310 0.109607
O O1 0.448537 0.250000 0.290960
O O2 0.568963 0.969596 0.285234
O O3 0.411525 0.967662 0.204691
O O4 0.320866 0.993488 0.402923
O O5 0.215530 0.250000 0.015056
O O6 0.271983 0.523410 0.095610
O O7 0.076169 0.528766 0.061790
O O8 0.291681 0.536401 0.904426
O O9 0.947811 0.250000 0.698261
O O10 0.870304 0.974647 0.635589
O O11 0.095411 0.040700 0.556877
O O12 0.001727 0.949592 0.750443
O O13 0.700276 0.250000 0.243201
O O14 0.826892 0.536738 0.195990
O O15 0.157113 0.750000 0.456730
O O16 0.053392 0.750000 0.872037
O O17 0.377957 0.250000 0.122390
O O18 0.500000 0.500000 0.000000
#
# Coordination Sequence:
#
# PCOD9158433 Si02
#       7
#     4   4   4   4   4   4   4
#     4  10  20  35  54  79 112 148 183 222 271 322
#     4  10  20  33  52  78 108 146 187 228 275 321
#     4  10  21  38  60  86 111 137 174 222 274 326
#     4  10  21  36  54  77 109 150 189 225 267 318
#     4  10  21  37  60  87 111 138 173 219 274 330
#     4  10  21  37  56  79 109 145 186 229 271 318
#     4  10  19  31  49  74 106 142 178 220 269 316
#
# _framework density 23.296396000000001
#
# number of rings (size 3 to 8) (size 9 to 14) (size 15 to 20)
#    0.000    2.000    1.429    2.143    0.000    5.143 
#    0.000    0.714    0.000    0.000    0.000    0.000 
#    0.000    0.000    0.000    0.000    0.000    0.000 
#
# Total GULP energy -156461.041503 kJ/mol
# GULP energy per Si atom -5587.894339 kJ/mol
# Density = 2.324337 g / cm^3
# Si number density = 23.296396 Si / 1000 Ang^3
#
#
#
# Elastic Constant Matrix: (Units=GPa)
#
#
# Indices 1 2 3 4 5 6 
#
# 1 129.1019 5.8589 15.2590 0.0000 -46.5382 0.0000
# 2 5.8589 70.5845 -5.1171 0.0000 2.0320 0.0000
# 3 15.2590 -5.1171 40.9803 0.0000 -23.7550 0.0000
# 4 0.0000 0.0000 0.0000 18.3300 0.0000 2.5177
# 5 -46.5382 2.0320 -23.7550 0.0000 46.2446 0.0000
# 6 0.0000 0.0000 0.0000 2.5177 0.0000 8.5627
#
#
#
# Elastic Compliance Matrix: (Units=1/GPa)
#
#
# Indices 1 2 3 4 5 6 
#
# 1 0.012653 -0.001209 0.003631 0.000000 0.014652 0.000000
# 2 -0.001209 0.014418 0.001678 0.000000 -0.000988 0.000000
# 3 0.003631 0.001678 0.036077 0.000000 0.022112 0.000000
# 4 0.000000 0.000000 0.000000 0.056851 0.000000 -0.016716
# 5 0.014652 -0.000988 0.022112 0.000000 0.047771 0.000000
# 6 0.000000 0.000000 0.000000 -0.016716 0.000000 0.121701
#
#
# Mechanical properties :
#
#
# Convention : Reuss Voigt Hill
#
# Bulk Modulus (GPa) = 14.01596 30.29646 22.15621
# Shear Modulus (GPa) = 16.39044 29.60517 22.99781
#
# Velocity S-wave (km/s) = 2.65535 3.56870 3.14536
# Velocity P-wave (km/s) = 3.92818 5.47849 4.76678
#
# Compressibility (1/GPa) = 0.07134723
#
# Stress axis : x y z
#
# Youngs Moduli (GPa) = 79.03189 69.35864 27.71816
#
# Poissons Ratio (x) = 0.08384 -0.10064
# Poissons Ratio (y) = 0.09554 -0.04650
# Poissons Ratio (z) = -0.28695 -0.11635
#
# Static dielectric constant tensor:
#      x y z
#    x 1.938770 0.000000 -0.020370 
#    y 0.000000 1.854380 0.000000 
#    z -0.020370 0.000000 1.848490 
# 
# From -- ./inp_files/37338.got.cif
#   From: 2010.05.17/outbox.cif.g08.bks.cpg/sg11_19_cif.got.tgz:37338.got - 2010.06.03 12:22:45.
