data_PCOD9158906
_publ_section_title
;
Structure prediction by ZEFSAII (Michael W. Deem and Ramdas Pophale) SiO2 
 PCOD9158906
Probable space group: P 21/M
;
_chemical_formula_sum "Si O2"
_cell_formula_units_Z 32
_cell_length_a 15.391991
_cell_length_b 8.763357
_cell_length_c 15.391962
_cell_angle_alpha 90.000000
_cell_angle_beta 78.558164
_cell_angle_gamma 90.000000
_cell_volume 2034.892440
_symmetry_space_group_name_H-M "P 21/M"
_symmetry_group_IT_number 11
_symmetry_cell_setting 'monoclinic'
loop_
_space_group_symop_operation_xyz
x,y,z
-x,1/2+y,-z
-x,-y,-z
x,1/2-y,z
loop_
_atom_site_type_symbol
_atom_site_label
_atom_site_fract_x
_atom_site_fract_y
_atom_site_fract_z
Si Si1 0.197453 0.567449 0.925037
Si Si2 0.055914 0.067565 0.609047
Si Si3 0.869609 0.568801 0.588397
Si Si4 0.756173 0.430506 0.756173
Si Si5 0.925041 0.932550 0.197451
Si Si6 0.390953 0.567564 0.944085
Si Si7 0.118455 0.432592 0.118452
Si Si8 0.588398 0.931199 0.869609
O O1 0.185910 0.750000 0.929802
O O2 0.148616 0.499996 0.851384
O O3 0.302397 0.533606 0.908373
O O4 0.154418 0.496569 0.020212
O O5 0.037258 0.250000 0.608337
O O6 0.120165 0.031155 0.515699
O O7 0.091624 0.033608 0.697605
O O8 0.963705 0.980537 0.611495
O O9 0.857987 0.750000 0.600299
O O10 0.793729 0.482921 0.656067
O O11 0.764688 0.250000 0.764688
O O12 0.817377 0.509983 0.817377
O O13 0.656067 0.482921 0.793729
O O14 0.929812 0.750000 0.185907
O O15 0.020212 0.003440 0.154415
O O16 0.391661 0.750000 0.962740
O O17 0.484302 0.531156 0.879835
O O18 0.388505 0.480537 0.036294
O O19 0.117299 0.250000 0.117291
O O20 0.600300 0.750000 0.857988
#
# Coordination Sequence:
#
# PCOD9158906 Si02
#       8
#     4   4   4   4   4   4   4   4
#     4  11  22  36  52  72 101 137 172 209 248 293
#     4   9  19  34  51  72 100 131 165 208 252 292
#     4  10  19  32  52  75  98 129 168 206 248 300
#     4  12  22  33  49  74 105 137 165 203 255 303
#     4  11  22  36  52  72 101 137 172 209 248 293
#     4   9  19  34  51  72 100 131 165 208 252 292
#     4  12  23  35  50  72  99 135 177 213 244 291
#     4  10  19  32  52  75  98 129 168 206 248 300
#
# _framework density 15.725647
#
# number of rings (size 3 to 8) (size 9 to 14) (size 15 to 20)
#    0.000    1.500    2.500    4.125    0.000    2.000 
#    0.000    0.000    0.000    0.000    0.000    0.875 
#    0.000    0.000    0.000    0.000    0.000    0.000 
#
# Total GULP energy -178706.265499 kJ/mol
# GULP energy per Si atom -5584.570797 kJ/mol
# Density = 1.568985 g / cm^3
# Si number density = 15.725647 Si / 1000 Ang^3
#
#
#
# Elastic Constant Matrix: (Units=GPa)
#
#
# Indices 1 2 3 4 5 6 
#
# 1 103.4752 52.0997 72.0025 0.0000 -6.0821 0.0000
# 2 52.0997 81.3392 54.0036 0.0000 -5.4164 0.0000
# 3 72.0025 54.0036 108.4516 0.0000 -8.0648 0.0000
# 4 0.0000 0.0000 0.0000 23.1466 0.0000 -1.4791
# 5 -6.0821 -5.4164 -8.0648 0.0000 22.4290 0.0000
# 6 0.0000 0.0000 0.0000 -1.4791 0.0000 22.6253
#
#
#
# Elastic Compliance Matrix: (Units=1/GPa)
#
#
# Indices 1 2 3 4 5 6 
#
# 1 0.019677 -0.005864 -0.010123 0.000000 0.000280 0.000000
# 2 -0.005864 0.020144 -0.006056 0.000000 0.001097 0.000000
# 3 -0.010123 -0.006056 0.019157 0.000000 0.002681 0.000000
# 4 0.000000 0.000000 0.000000 0.043384 0.000000 0.002836
# 5 0.000280 0.001097 0.002681 0.000000 0.045890 0.000000
# 6 0.000000 0.000000 0.000000 0.002836 0.000000 0.044384
#
#
# Mechanical properties :
#
#
# Convention : Reuss Voigt Hill
#
# Bulk Modulus (GPa) = 67.15261 72.16417 69.65839
# Shear Modulus (GPa) = 20.68803 21.31753 21.00278
#
# Velocity S-wave (km/s) = 3.63100 3.68583 3.65852
# Velocity P-wave (km/s) = 7.77008 8.00643 7.88914
#
# Compressibility (1/GPa) = 0.01489145
#
# Stress axis : x y z
#
# Youngs Moduli (GPa) = 50.81993 49.64244 52.20147
#
# Poissons Ratio (x) = 0.29111 0.52845
# Poissons Ratio (y) = 0.29801 0.31613
# Poissons Ratio (z) = 0.51446 0.30063
#
# Static dielectric constant tensor:
#      x y z
#    x 1.513050 0.000000 -0.014140 
#    y 0.000000 1.526440 0.000000 
#    z -0.014140 0.000000 1.518030 
# 
# From -- ./inp_files/51270.got.cif
#   From: 2010.05.17/outbox.cif.g08.bks.cpg/sg11_26_cif.got.tgz:51270.got - 2010.06.03 12:22:45.
