data_PCOD9158751
_publ_section_title
;
Structure prediction by ZEFSAII (Michael W. Deem and Ramdas Pophale) SiO2 
 PCOD9158751
Probable space group: P 21/M
;
_chemical_formula_sum "Si O2"
_cell_formula_units_Z 32
_cell_length_a 12.408217
_cell_length_b 7.615653
_cell_length_c 22.313676
_cell_angle_alpha 90.000000
_cell_angle_beta 46.746694
_cell_angle_gamma 90.000000
_cell_volume 1535.736491
_symmetry_space_group_name_H-M "P 21/M"
_symmetry_group_IT_number 11
_symmetry_cell_setting 'monoclinic'
loop_
_space_group_symop_operation_xyz
x,y,z
-x,1/2+y,-z
-x,-y,-z
x,1/2-y,z
loop_
_atom_site_type_symbol
_atom_site_label
_atom_site_fract_x
_atom_site_fract_y
_atom_site_fract_z
Si Si1 0.933133 0.035042 0.256994
Si Si2 0.091309 0.960267 0.524992
Si Si3 0.443400 0.454441 0.216519
Si Si4 0.233067 0.962562 0.925296
Si Si5 0.393913 0.541299 0.596287
Si Si6 0.036331 0.540890 0.889996
Si Si7 0.130183 0.465484 0.288127
Si Si8 0.589546 0.456071 0.633867
O O1 0.933930 0.250000 0.256409
O O2 0.775356 0.978861 0.344893
O O3 0.943916 0.972756 0.184529
O O4 0.070523 0.981798 0.245937
O O5 0.103154 0.750000 0.528249
O O6 0.257575 0.027767 0.452726
O O7 0.994211 0.025595 0.617194
O O8 0.000000 0.000000 0.500000
O O9 0.444046 0.250000 0.198791
O O10 0.599735 0.530224 0.135335
O O11 0.291324 0.528895 0.247566
O O12 0.440673 0.462232 0.289901
O O13 0.237668 0.750000 0.920088
O O14 0.152302 0.027786 0.895302
O O15 0.125770 0.009423 0.020811
O O16 0.500000 0.500000 0.500000
O O17 0.387514 0.750000 0.602793
O O18 0.463706 0.477195 0.632085
O O19 0.059810 0.750000 0.877930
O O20 0.132836 0.250000 0.289616
O O21 0.610239 0.250000 0.637879
#
# Coordination Sequence:
#
# PCOD9158751 Si02
#       8
#     4   4   4   4   4   4   4   4
#     4   9  18  34  55  77 104 139 178 217 258 314
#     4  10  19  32  50  73 102 137 177 218 257 306
#     4  10  19  33  54  78 104 137 176 215 263 320
#     4   9  18  32  51  77 105 130 166 218 268 316
#     4  11  22  37  56  78 109 143 179 222 266 316
#     4   9  17  32  54  76  98 132 173 211 261 318
#     4   9  17  31  52  75 101 136 177 215 256 309
#     4  11  22  34  52  79 110 139 176 225 270 313
#
# _framework density 20.836908000000001
#
# number of rings (size 3 to 8) (size 9 to 14) (size 15 to 20)
#    0.000    2.250    1.250    2.250    0.000    5.000 
#    0.000    4.375    0.000    2.250    0.000    0.000 
#    0.000    0.000    0.000    0.000    0.000    0.000 
#
# Total GULP energy -178677.340715 kJ/mol
# GULP energy per Si atom -5583.666897 kJ/mol
# Density = 2.078948 g / cm^3
# Si number density = 20.836908 Si / 1000 Ang^3
#
#
#
# Elastic Constant Matrix: (Units=GPa)
#
#
# Indices 1 2 3 4 5 6 
#
# 1 114.1143 -9.7899 53.4468 0.0000 -8.2545 0.0000
# 2 -9.7899 39.0247 -5.1254 0.0000 -2.2910 0.0000
# 3 53.4468 -5.1254 111.3781 0.0000 -2.9255 0.0000
# 4 0.0000 0.0000 0.0000 17.0727 0.0000 2.4751
# 5 -8.2545 -2.2910 -2.9255 0.0000 35.4537 0.0000
# 6 0.0000 0.0000 0.0000 2.4751 0.0000 6.8240
#
#
#
# Elastic Compliance Matrix: (Units=1/GPa)
#
#
# Indices 1 2 3 4 5 6 
#
# 1 0.011687 0.002360 -0.005436 0.000000 0.002425 0.000000
# 2 0.002360 0.026368 0.000140 0.000000 0.002265 0.000000
# 3 -0.005436 0.000140 0.011586 0.000000 -0.000301 0.000000
# 4 0.000000 0.000000 0.000000 0.061824 0.000000 -0.022423
# 5 0.002425 0.002265 -0.000301 0.000000 0.028892 0.000000
# 6 0.000000 0.000000 0.000000 -0.022423 0.000000 0.154674
#
#
# Mechanical properties :
#
#
# Convention : Reuss Voigt Hill
#
# Bulk Modulus (GPa) = 22.84666 37.95337 30.40001
# Shear Modulus (GPa) = 15.84831 26.93578 21.39204
#
# Velocity S-wave (km/s) = 2.76087 3.59931 3.20760
# Velocity P-wave (km/s) = 4.59908 5.96049 5.32348
#
# Compressibility (1/GPa) = 0.04377007
#
# Stress axis : x y z
#
# Youngs Moduli (GPa) = 85.56494 37.92437 86.31467
#
# Poissons Ratio (x) = -0.08951 0.46920
# Poissons Ratio (y) = -0.20196 -0.01211
# Poissons Ratio (z) = 0.46512 -0.00532
#
# Static dielectric constant tensor:
#      x y z
#    x 1.730780 0.000000 -0.027000 
#    y 0.000000 1.821680 0.000000 
#    z -0.027000 0.000000 1.725650 
# 
# From -- ./inp_files/64364.got.cif
#   From: 2010.05.17/outbox.cif.g08.bks.cpg/sg11_33_cif.got.tgz:64364.got - 2010.06.03 12:22:45.
