data_PCOD9158372
_publ_section_title
;
Structure prediction by ZEFSAII (Michael W. Deem and Ramdas Pophale) SiO2 
 PCOD9158372
Probable space group: P 21/M
;
_chemical_formula_sum "Si O2"
_cell_formula_units_Z 28
_cell_length_a 11.370650
_cell_length_b 9.044712
_cell_length_c 21.766863
_cell_angle_alpha 90.000000
_cell_angle_beta 129.534490
_cell_angle_gamma 90.000000
_cell_volume 1726.498859
_symmetry_space_group_name_H-M "P 21/M"
_symmetry_group_IT_number 11
_symmetry_cell_setting 'monoclinic'
loop_
_space_group_symop_operation_xyz
x,y,z
-x,1/2+y,-z
-x,-y,-z
x,1/2-y,z
loop_
_atom_site_type_symbol
_atom_site_label
_atom_site_fract_x
_atom_site_fract_y
_atom_site_fract_z
Si Si1 0.789184 0.926116 0.881833
Si Si2 0.345729 0.572876 0.923666
Si Si3 0.778879 0.573355 0.434071
Si Si4 0.134255 0.573288 0.967433
Si Si5 0.023174 0.575393 0.606389
Si Si6 0.503369 0.924288 0.264726
Si Si7 0.744006 0.925661 0.234016
O O1 0.781993 0.750000 0.883578
O O2 0.955801 0.968173 0.910822
O O3 0.650061 0.985783 0.795561
O O4 0.783012 0.994743 0.948050
O O5 0.362853 0.750000 0.925604
O O6 0.214565 0.538928 0.930029
O O7 0.303580 0.506873 0.843751
O O8 0.500000 0.500000 0.000000
O O9 0.804431 0.750000 0.429107
O O10 0.874214 0.475495 0.417617
O O11 0.603281 0.544414 0.358980
O O12 0.851126 0.546284 0.525056
O O13 0.144932 0.750000 0.980676
O O14 0.040241 0.750000 0.622943
O O15 0.095247 0.486020 0.686524
O O16 0.467972 0.750000 0.251709
O O17 0.617254 0.954006 0.244995
O O18 0.750819 0.750000 0.227102
#
# Coordination Sequence:
#
# PCOD9158372 Si02
#       7
#     4   4   4   4   4   4   4
#     4  10  19  31  49  70  89 114 151 188 221 264
#     4  11  22  35  50  68  92 121 152 186 225 268
#     4   8  15  26  40  61  91 123 151 183 225 270
#     4   9  20  36  49  64  90 120 147 183 230 268
#     4   9  15  25  42  63  88 120 156 187 220 267
#     4   9  17  29  44  65  95 125 148 179 226 268
#     4  10  20  32  45  65  95 126 154 186 226 270
#
# _framework density 16.217791999999999
#
# number of rings (size 3 to 8) (size 9 to 14) (size 15 to 20)
#    0.000    2.571    0.000    3.429    0.000    8.571 
#    0.000    0.000    0.000    0.000    0.000    1.000 
#    0.000    0.000    0.000    0.000    0.000    0.000 
#
# Total GULP energy -155998.676947 kJ/mol
# GULP energy per Si atom -5571.381320 kJ/mol
# Density = 1.618088 g / cm^3
# Si number density = 16.217792 Si / 1000 Ang^3
#
#
#
# Elastic Constant Matrix: (Units=GPa)
#
#
# Indices 1 2 3 4 5 6 
#
# 1 32.4984 25.3572 33.0280 0.0000 3.7398 0.0000
# 2 25.3572 40.3139 46.1771 0.0000 3.7973 0.0000
# 3 33.0280 46.1771 138.8627 0.0000 14.5869 0.0000
# 4 0.0000 0.0000 0.0000 32.8444 0.0000 3.7114
# 5 3.7398 3.7973 14.5869 0.0000 20.4917 0.0000
# 6 0.0000 0.0000 0.0000 3.7114 0.0000 19.4624
#
#
#
# Elastic Compliance Matrix: (Units=1/GPa)
#
#
# Indices 1 2 3 4 5 6 
#
# 1 0.061261 -0.035401 -0.002500 0.000000 -0.002841 0.000000
# 2 -0.035401 0.060619 -0.012145 0.000000 0.003873 0.000000
# 3 -0.002500 -0.012145 0.012484 0.000000 -0.006180 0.000000
# 4 0.000000 0.000000 0.000000 0.031117 0.000000 -0.005934
# 5 -0.002841 0.003873 -0.006180 0.000000 0.053000 0.000000
# 6 0.000000 0.000000 0.000000 -0.005934 0.000000 0.052513
#
#
# Mechanical properties :
#
#
# Convention : Reuss Voigt Hill
#
# Bulk Modulus (GPa) = 29.17925 46.75550 37.96738
# Shear Modulus (GPa) = 13.07158 21.70055 17.38607
#
# Velocity S-wave (km/s) = 2.84210 3.66193 3.27775
# Velocity P-wave (km/s) = 5.36668 6.83901 6.14708
#
# Compressibility (1/GPa) = 0.03427092
#
# Stress axis : x y z
#
# Youngs Moduli (GPa) = 16.32371 16.49647 80.10429
#
# Poissons Ratio (x) = 0.58400 0.20025
# Poissons Ratio (y) = 0.57788 0.97286
# Poissons Ratio (z) = 0.04081 0.20035
#
# Static dielectric constant tensor:
#      x y z
#    x 1.531070 0.000000 0.020330 
#    y 0.000000 1.540590 0.000000 
#    z 0.020330 0.000000 1.571190 
# 
# From -- ./inp_files/42610.got.cif
#   From: 2010.05.17/outbox.cif.g08.bks.cpg/sg11_22_cif.got.tgz:42610.got - 2010.06.03 12:22:45.
