data_PCOD9158220
_publ_section_title
;
Structure prediction by ZEFSAII (Michael W. Deem and Ramdas Pophale) SiO2 
 PCOD9158220
Probable space group: P 21/M
;
_chemical_formula_sum "Si O2"
_cell_formula_units_Z 28
_cell_length_a 20.984869
_cell_length_b 7.475990
_cell_length_c 24.207679
_cell_angle_alpha 90.000000
_cell_angle_beta 164.642316
_cell_angle_gamma 90.000000
_cell_volume 1005.815397
_symmetry_space_group_name_H-M "P 21/M"
_symmetry_group_IT_number 11
_symmetry_cell_setting 'monoclinic'
loop_
_space_group_symop_operation_xyz
x,y,z
-x,1/2+y,-z
-x,-y,-z
x,1/2-y,z
loop_
_atom_site_type_symbol
_atom_site_label
_atom_site_fract_x
_atom_site_fract_y
_atom_site_fract_z
Si Si1 0.329956 0.539831 0.125617
Si Si2 0.785738 0.038004 0.860715
Si Si3 0.259815 0.035565 0.746109
Si Si4 0.838131 0.033700 0.613863
Si Si5 0.944427 0.535573 0.314796
Si Si6 0.657183 0.444803 0.575812
Si Si7 0.538384 0.964743 0.194038
O O1 0.298980 0.750000 0.091700
O O2 0.151135 0.482684 0.024524
O O3 0.586163 0.514779 0.372060
O O4 0.355173 0.457224 0.086405
O O5 0.732215 0.250000 0.815340
O O6 0.566741 0.933638 0.652938
O O7 0.000000 0.000000 0.000000
O O8 0.284522 0.250000 0.770038
O O9 0.443963 0.963467 0.853533
O O10 0.239960 0.964566 0.792240
O O11 0.000000 0.000000 0.500000
O O12 0.851802 0.250000 0.628121
O O13 0.029400 0.968142 0.726596
O O14 0.831546 0.966006 0.672624
O O15 0.920879 0.750000 0.292230
O O16 0.202981 0.497846 0.560290
O O17 0.500000 0.500000 0.500000
O O18 0.750299 0.250000 0.667322
O O19 0.512307 0.750000 0.168263
#
# Coordination Sequence:
#
# PCOD9158220 Si02
#       7
#     4   4   4   4   4   4   4
#     4   8  14  23  35  50  70  96 127 160 195 234
#     4  10  19  31  46  64  85 111 142 177 214 253
#     4   8  12  16  24  38  58  84 115 148 181 216
#     4   8  14  23  35  50  70  96 127 160 195 234
#     4   8  12  18  27  41  61  87 118 151 184 221
#     4  10  19  31  46  64  85 111 142 177 214 253
#     4   8  12  18  27  41  61  87 118 151 184 221
#
# _framework density 27.83811
#
# number of rings (size 3 to 8) (size 9 to 14) (size 15 to 20)
#    0.000    3.429    0.000    0.857    0.000    1.143 
#    0.000    0.000    0.000    0.000    0.000    0.000 
#    0.000    0.000    0.000    1.286    0.000   10.571 
#
# Total GULP energy -156100.090903 kJ/mol
# GULP energy per Si atom -5575.003247 kJ/mol
# Density = 2.777475 g / cm^3
# Si number density = 27.838110 Si / 1000 Ang^3
#
#
#
# Elastic Constant Matrix: (Units=GPa)
#
#
# Indices 1 2 3 4 5 6 
#
# 1 392.4817 19.0241 58.8654 0.0000 48.2882 0.0000
# 2 19.0241 144.7820 30.2067 0.0000 1.3246 0.0000
# 3 58.8654 30.2067 45.4946 0.0000 -0.2442 0.0000
# 4 0.0000 0.0000 0.0000 31.4641 0.0000 -2.9239
# 5 48.2882 1.3246 -0.2442 0.0000 77.5325 0.0000
# 6 0.0000 0.0000 0.0000 -2.9239 0.0000 12.8712
#
#
#
# Elastic Compliance Matrix: (Units=1/GPa)
#
#
# Indices 1 2 3 4 5 6 
#
# 1 0.003542 0.000596 -0.004991 0.000000 -0.002232 0.000000
# 2 0.000596 0.008120 -0.006166 0.000000 -0.000530 0.000000
# 3 -0.004991 -0.006166 0.032550 0.000000 0.003316 0.000000
# 4 0.000000 0.000000 0.000000 0.032468 0.000000 0.007376
# 5 -0.002232 -0.000530 0.003316 0.000000 0.014307 0.000000
# 6 0.000000 0.000000 0.000000 0.007376 0.000000 0.079368
#
#
# Mechanical properties :
#
#
# Convention : Reuss Voigt Hill
#
# Bulk Modulus (GPa) = 43.30644 88.77228 66.03936
# Shear Modulus (GPa) = 25.10376 56.01771 40.56074
#
# Velocity S-wave (km/s) = 3.00622 4.49070 3.82124
# Velocity P-wave (km/s) = 5.25739 7.67114 6.57596
#
# Compressibility (1/GPa) = 0.02309125
#
# Stress axis : x y z
#
# Youngs Moduli (GPa) = 282.31208 123.15571 30.72177
#
# Poissons Ratio (x) = -0.07344 0.15334
# Poissons Ratio (y) = -0.16835 0.18942
# Poissons Ratio (z) = 1.40906 0.75934
#
# Static dielectric constant tensor:
#      x y z
#    x 2.390520 0.000000 0.259740 
#    y 0.000000 1.490470 0.000000 
#    z 0.259740 0.000000 2.690220 
# 
# From -- ./inp_files/43676.got.cif
#   From: 2010.05.17/outbox.cif.g08.bks.cpg/sg11_22_cif.got.tgz:43676.got - 2010.06.03 12:22:45.
