data_PCOD9158148
_publ_section_title
;
Structure prediction by ZEFSAII (Michael W. Deem and Ramdas Pophale) SiO2 
 PCOD9158148
Probable space group: P 21/M
;
_chemical_formula_sum "Si O2"
_cell_formula_units_Z 28
_cell_length_a 15.555824
_cell_length_b 9.110062
_cell_length_c 14.443068
_cell_angle_alpha 90.000000
_cell_angle_beta 140.966977
_cell_angle_gamma 90.000000
_cell_volume 1289.004811
_symmetry_space_group_name_H-M "P 21/M"
_symmetry_group_IT_number 11
_symmetry_cell_setting 'monoclinic'
loop_
_space_group_symop_operation_xyz
x,y,z
-x,1/2+y,-z
-x,-y,-z
x,1/2-y,z
loop_
_atom_site_type_symbol
_atom_site_label
_atom_site_fract_x
_atom_site_fract_y
_atom_site_fract_z
Si Si1 0.201620 0.925643 0.027012
Si Si2 0.506549 0.925714 0.289753
Si Si3 0.917357 0.924080 0.586554
Si Si4 0.371861 0.925014 0.441559
Si Si5 0.658558 0.576413 0.239729
Si Si6 0.927603 0.425501 0.795420
Si Si7 0.776339 0.422513 0.170072
O O1 0.180443 0.750000 0.013957
O O2 0.219142 0.969041 0.933311
O O3 0.351826 0.956428 0.191642
O O4 0.066100 0.003425 0.949947
O O5 0.530904 0.750000 0.321832
O O6 0.534488 0.959225 0.205326
O O7 0.608679 0.019029 0.437133
O O8 0.907866 0.750000 0.603491
O O9 0.793895 0.957290 0.414323
O O10 0.066557 0.945491 0.666404
O O11 0.915945 0.016644 0.679785
O O12 0.383964 0.750000 0.444701
O O13 0.218551 0.965597 0.281860
O O14 0.500000 0.000000 0.500000
O O15 0.655495 0.750000 0.220751
O O16 0.674383 0.497978 0.155502
O O17 0.939195 0.250000 0.806918
O O18 0.746341 0.250000 0.144413
#
# Coordination Sequence:
#
# PCOD9158148 Si02
#       7
#     4   4   4   4   4   4   4
#     4   9  20  38  58  81 114 157 196 230 278 334
#     4  10  21  39  61  84 114 151 191 235 283 337
#     4   9  17  31  50  74 108 150 191 233 283 334
#     4  11  24  41  64  93 118 142 179 227 282 342
#     4  10  19  30  49  77 110 150 193 235 283 330
#     4  10  20  35  58  87 114 144 185 232 278 332
#     4   9  18  30  46  73 111 153 195 236 274 323
#
# _framework density 21.722183000000001
#
# number of rings (size 3 to 8) (size 9 to 14) (size 15 to 20)
#    0.000    2.286    1.429    2.143    0.000    6.286 
#    0.000    0.714    0.000    0.000    0.000    0.000 
#    0.000    0.000    0.000    0.000    0.000    0.000 
#
# Total GULP energy -156354.048365 kJ/mol
# GULP energy per Si atom -5584.073156 kJ/mol
# Density = 2.167274 g / cm^3
# Si number density = 21.722183 Si / 1000 Ang^3
#
#
#
# Elastic Constant Matrix: (Units=GPa)
#
#
# Indices 1 2 3 4 5 6 
#
# 1 106.0156 30.5561 28.9546 0.0000 25.0497 0.0000
# 2 30.5561 25.6748 36.5950 0.0000 17.5444 0.0000
# 3 28.9546 36.5950 104.3081 0.0000 31.8073 0.0000
# 4 0.0000 0.0000 0.0000 17.3535 0.0000 8.2762
# 5 25.0497 17.5444 31.8073 0.0000 35.3051 0.0000
# 6 0.0000 0.0000 0.0000 8.2762 0.0000 29.3394
#
#
#
# Elastic Compliance Matrix: (Units=1/GPa)
#
#
# Indices 1 2 3 4 5 6 
#
# 1 0.015645 -0.022754 0.004932 0.000000 -0.004236 0.000000
# 2 -0.022754 0.122032 -0.031613 0.000000 -0.016017 0.000000
# 3 0.004932 -0.031613 0.021489 0.000000 -0.007150 0.000000
# 4 0.000000 0.000000 0.000000 0.066583 0.000000 -0.018782
# 5 -0.004236 -0.016017 -0.007150 0.000000 0.045731 0.000000
# 6 0.000000 0.000000 0.000000 -0.018782 0.000000 0.039382
#
#
# Mechanical properties :
#
#
# Convention : Reuss Voigt Hill
#
# Bulk Modulus (GPa) = 16.58473 47.57887 32.08180
# Shear Modulus (GPa) = 11.63249 25.72578 18.67914
#
# Velocity S-wave (km/s) = 2.31662 3.44511 2.93560
# Velocity P-wave (km/s) = 3.84801 6.14622 5.12753
#
# Compressibility (1/GPa) = 0.06029644
#
# Stress axis : x y z
#
# Youngs Moduli (GPa) = 63.91932 8.19455 46.53528
#
# Poissons Ratio (x) = 0.18646 -0.22951
# Poissons Ratio (y) = 1.45441 1.47111
# Poissons Ratio (z) = -0.31524 0.25905
#
# Static dielectric constant tensor:
#      x y z
#    x 1.834930 0.000000 -0.001340 
#    y 0.000000 1.717610 0.000000 
#    z -0.001340 0.000000 1.859670 
# 
# From -- ./inp_files/60128.got.cif
#   From: 2010.05.17/outbox.cif.g08.bks.cpg/sg11_31_cif.got.tgz:60128.got - 2010.06.03 12:22:45.
