data_PCOD9158754
_publ_section_title
;
Structure prediction by ZEFSAII (Michael W. Deem and Ramdas Pophale) SiO2 
 PCOD9158754
Probable space group: P 21/M
;
_chemical_formula_sum "Si O2"
_cell_formula_units_Z 24
_cell_length_a 16.903705
_cell_length_b 8.824909
_cell_length_c 15.697009
_cell_angle_alpha 90.000000
_cell_angle_beta 143.100924
_cell_angle_gamma 90.000000
_cell_volume 1405.901948
_symmetry_space_group_name_H-M "P 21/M"
_symmetry_group_IT_number 11
_symmetry_cell_setting 'monoclinic'
loop_
_space_group_symop_operation_xyz
x,y,z
-x,1/2+y,-z
-x,-y,-z
x,1/2-y,z
loop_
_atom_site_type_symbol
_atom_site_label
_atom_site_fract_x
_atom_site_fract_y
_atom_site_fract_z
Si Si1 0.674532 0.071696 0.569258
Si Si2 0.364027 0.070417 0.917641
Si Si3 0.612948 0.068680 0.697367
Si Si4 0.857330 0.069759 0.393697
Si Si5 0.405939 0.571978 0.130674
Si Si6 0.719334 0.571910 0.434750
O O1 0.692937 0.250000 0.570368
O O2 0.704399 0.037473 0.694369
O O3 0.519751 0.028646 0.427818
O O4 0.741924 0.979363 0.551521
O O5 0.365993 0.250000 0.906521
O O6 0.245436 0.998175 0.762608
O O7 0.500000 0.000000 0.000000
O O8 0.356178 0.028032 0.010291
O O9 0.578639 0.250000 0.664006
O O10 0.659861 0.041081 0.834019
O O11 0.861118 0.250000 0.389783
O O12 0.804046 0.021267 0.440528
O O13 0.000000 0.000000 0.500000
O O14 0.388152 0.750000 0.094650
O O15 0.563570 0.547871 0.279521
O O16 0.745349 0.750000 0.447288
#
# Coordination Sequence:
#
# PCOD9158754 Si02
#       6
#     4   4   4   4   4   4
#     4   9  15  24  41  66  97 134 173 212 259 312
#     4  12  23  36  55  80 108 142 182 223 267 318
#     4   8  15  26  40  63  99 136 170 212 261 311
#     4  12  25  41  59  79 106 140 179 224 271 322
#     4   9  17  30  49  73 104 139 177 219 264 311
#     4  10  19  32  50  73 104 139 176 217 263 315
#
# _framework density 17.070889999999999
#
# number of rings (size 3 to 8) (size 9 to 14) (size 15 to 20)
#    0.000    2.000    1.667    5.000    0.000    3.333 
#    0.000    0.000    0.000    0.000    0.000    1.167 
#    0.000    0.000    0.000    0.000    0.000    0.000 
#
# Total GULP energy -133824.573636 kJ/mol
# GULP energy per Si atom -5576.023902 kJ/mol
# Density = 1.703204 g / cm^3
# Si number density = 17.070890 Si / 1000 Ang^3
#
#
#
# Elastic Constant Matrix: (Units=GPa)
#
#
# Indices 1 2 3 4 5 6 
#
# 1 102.1668 62.8644 58.1916 0.0000 -26.8910 0.0000
# 2 62.8644 118.4867 50.6984 0.0000 -8.8916 0.0000
# 3 58.1916 50.6984 72.5135 0.0000 -6.9602 0.0000
# 4 0.0000 0.0000 0.0000 21.5423 0.0000 -5.2730
# 5 -26.8910 -8.8916 -6.9602 0.0000 23.8343 0.0000
# 6 0.0000 0.0000 0.0000 -5.2730 0.0000 29.5751
#
#
#
# Elastic Compliance Matrix: (Units=1/GPa)
#
#
# Indices 1 2 3 4 5 6 
#
# 1 0.031518 -0.007073 -0.017684 0.000000 0.027758 0.000000
# 2 -0.007073 0.013732 -0.004320 0.000000 -0.004119 0.000000
# 3 -0.017684 -0.004320 0.029767 0.000000 -0.012871 0.000000
# 4 0.000000 0.000000 0.000000 0.048538 0.000000 0.008654
# 5 0.027758 -0.004119 -0.012871 0.000000 0.067979 0.000000
# 6 0.000000 0.000000 0.000000 0.008654 0.000000 0.035355
#
#
# Mechanical properties :
#
#
# Convention : Reuss Voigt Hill
#
# Bulk Modulus (GPa) = 59.30071 70.74175 65.02123
# Shear Modulus (GPa) = 17.20204 23.08452 20.14328
#
# Velocity S-wave (km/s) = 3.17785 3.68132 3.43881
# Velocity P-wave (km/s) = 6.94826 7.72007 7.34431
#
# Compressibility (1/GPa) = 0.01686321
#
# Stress axis : x y z
#
# Youngs Moduli (GPa) = 31.72787 72.82433 33.59450
#
# Poissons Ratio (x) = 0.51506 0.59408
# Poissons Ratio (y) = 0.22440 0.14513
# Poissons Ratio (z) = 0.56107 0.31462
#
# Static dielectric constant tensor:
#      x y z
#    x 1.614530 0.000000 -0.042920 
#    y 0.000000 1.569420 0.000000 
#    z -0.042920 0.000000 1.556020 
# 
# From -- ./inp_files/51822.got.cif
#   From: 2010.05.17/outbox.cif.g08.bks.cpg/sg11_26_cif.got.tgz:51822.got - 2010.06.03 12:22:45.
