data_PCOD9158730
_publ_section_title
;
Structure prediction by ZEFSAII (Michael W. Deem and Ramdas Pophale) SiO2 
 PCOD9158730
Probable space group: P 21/M
;
_chemical_formula_sum "Si O2"
_cell_formula_units_Z 32
_cell_length_a 15.946656
_cell_length_b 8.820907
_cell_length_c 21.988164
_cell_angle_alpha 90.000000
_cell_angle_beta 138.761422
_cell_angle_gamma 90.000000
_cell_volume 2038.855036
_symmetry_space_group_name_H-M "P 21/M"
_symmetry_group_IT_number 11
_symmetry_cell_setting 'monoclinic'
loop_
_space_group_symop_operation_xyz
x,y,z
-x,1/2+y,-z
-x,-y,-z
x,1/2-y,z
loop_
_atom_site_type_symbol
_atom_site_label
_atom_site_fract_x
_atom_site_fract_y
_atom_site_fract_z
Si Si1 0.611785 0.568881 0.602061
Si Si2 0.444332 0.570255 0.296624
Si Si3 0.711710 0.068067 0.405207
Si Si4 0.988782 0.068958 0.901740
Si Si5 0.040651 0.568149 0.377997
Si Si6 0.207954 0.429946 0.110660
Si Si7 0.110279 0.569067 0.602576
Si Si8 0.882101 0.067727 0.714087
O O1 0.500000 0.500000 0.500000
O O2 0.605787 0.750000 0.597922
O O3 0.592952 0.508935 0.660208
O O4 0.747089 0.511808 0.650913
O O5 0.439446 0.750000 0.301993
O O6 0.584223 0.516750 0.353791
O O7 0.339480 0.516949 0.190689
O O8 0.691930 0.250000 0.398686
O O9 0.828135 0.029686 0.514570
O O10 0.760946 0.031654 0.363826
O O11 0.966724 0.250000 0.898496
O O12 0.969030 0.035124 0.820216
O O13 0.884113 0.980443 0.884167
O O14 0.126112 0.034842 0.005616
O O15 0.027701 0.750000 0.374664
O O16 0.056748 0.523132 0.316768
O O17 0.922507 0.494780 0.349135
O O18 0.230006 0.250000 0.125662
O O19 0.098869 0.750000 0.596619
O O20 0.000000 0.500000 0.500000
O O21 0.860692 0.250000 0.700480
#
# Coordination Sequence:
#
# PCOD9158730 Si02
#       8
#     4   4   4   4   4   4   4   4
#     4  12  24  36  49  67  95 133 168 200 237 283
#     4  12  23  34  49  71  97 129 165 204 246 293
#     4   9  18  32  48  69  97 130 164 199 239 287
#     4   9  18  32  51  72  96 126 164 205 247 290
#     4   9  18  31  49  72 100 130 159 194 239 287
#     4  10  19  32  50  71  95 127 164 206 249 290
#     4   9  17  30  49  70  95 125 159 199 241 282
#     4  10  19  33  51  73 100 130 163 201 240 286
#
# _framework density 15.695083
#
# number of rings (size 3 to 8) (size 9 to 14) (size 15 to 20)
#    0.000    2.000    1.250    4.500    0.000    4.500 
#    0.000    0.000    0.000    0.000    0.000    0.875 
#    0.000    0.000    0.000    0.000    0.000    0.000 
#
# Total GULP energy -178513.071921 kJ/mol
# GULP energy per Si atom -5578.533498 kJ/mol
# Density = 1.565936 g / cm^3
# Si number density = 15.695083 Si / 1000 Ang^3
#
#
#
# Elastic Constant Matrix: (Units=GPa)
#
#
# Indices 1 2 3 4 5 6 
#
# 1 99.7456 35.2153 32.6564 0.0000 -26.5460 0.0000
# 2 35.2153 51.5231 28.8980 0.0000 -10.2569 0.0000
# 3 32.6564 28.8980 75.2286 0.0000 -20.5743 0.0000
# 4 0.0000 0.0000 0.0000 20.5025 0.0000 2.5335
# 5 -26.5460 -10.2569 -20.5743 0.0000 13.9674 0.0000
# 6 0.0000 0.0000 0.0000 2.5335 0.0000 28.2064
#
#
#
# Elastic Compliance Matrix: (Units=1/GPa)
#
#
# Indices 1 2 3 4 5 6 
#
# 1 0.024699 -0.010996 0.006920 0.000000 0.049059 0.000000
# 2 -0.010996 0.030047 -0.010801 0.000000 -0.014743 0.000000
# 3 0.006920 -0.010801 0.026569 0.000000 0.044356 0.000000
# 4 0.000000 0.000000 0.000000 0.049322 0.000000 -0.004430
# 5 0.049059 -0.014743 0.044356 0.000000 0.219346 0.000000
# 6 0.000000 0.000000 0.000000 -0.004430 0.000000 0.035851
#
#
# Mechanical properties :
#
#
# Convention : Reuss Voigt Hill
#
# Bulk Modulus (GPa) = 19.39473 46.67074 33.03274
# Shear Modulus (GPa) = 11.55333 21.18379 16.36856
#
# Velocity S-wave (km/s) = 2.71608 3.67782 3.23292
# Velocity P-wave (km/s) = 4.71383 6.91633 5.91844
#
# Compressibility (1/GPa) = 0.05156039
#
# Stress axis : x y z
#
# Youngs Moduli (GPa) = 40.48822 33.28087 37.63752
#
# Poissons Ratio (x) = 0.36595 -0.26043
# Poissons Ratio (y) = 0.44520 0.40653
# Poissons Ratio (z) = -0.28016 0.35947
#
# Static dielectric constant tensor:
#      x y z
#    x 1.527360 0.000000 -0.018880 
#    y 0.000000 1.526320 0.000000 
#    z -0.018880 0.000000 1.524710 
# 
# From -- ./inp_files/65227.got.cif
#   From: 2010.05.17/outbox.cif.g08.bks.cpg/sg11_33_cif.got.tgz:65227.got - 2010.06.03 12:22:45.
