data_PCOD9158226
_publ_section_title
;
Structure prediction by ZEFSAII (Michael W. Deem and Ramdas Pophale) SiO2 
 PCOD9158226
Probable space group: P 21/M
;
_chemical_formula_sum "Si O2"
_cell_formula_units_Z 24
_cell_length_a 12.574885
_cell_length_b 8.292434
_cell_length_c 14.840623
_cell_angle_alpha 90.000000
_cell_angle_beta 109.412475
_cell_angle_gamma 90.000000
_cell_volume 1459.550386
_symmetry_space_group_name_H-M "P 21/M"
_symmetry_group_IT_number 11
_symmetry_cell_setting 'monoclinic'
loop_
_space_group_symop_operation_xyz
x,y,z
-x,1/2+y,-z
-x,-y,-z
x,1/2-y,z
loop_
_atom_site_type_symbol
_atom_site_label
_atom_site_fract_x
_atom_site_fract_y
_atom_site_fract_z
Si Si1 0.941620 0.444940 0.349589
Si Si2 0.167036 0.942116 0.490742
Si Si3 0.250461 0.554975 0.832237
Si Si4 0.419089 0.058214 0.556166
Si Si5 0.605557 0.444600 0.968944
Si Si6 0.538950 0.945544 0.230627
O O1 0.945404 0.250000 0.351441
O O2 0.875425 0.497848 0.421985
O O3 0.867681 0.499515 0.243549
O O4 0.068191 0.508070 0.394545
O O5 0.175114 0.750000 0.495793
O O6 0.289393 0.010624 0.504258
O O7 0.248991 0.750000 0.832164
O O8 0.350062 0.502494 0.792147
O O9 0.286351 0.499628 0.942754
O O10 0.426091 0.250000 0.561740
O O11 0.455598 0.995126 0.665450
O O12 0.500000 0.000000 0.500000
O O13 0.609101 0.250000 0.968441
O O14 0.570343 0.498058 0.858756
O O15 0.500000 0.500000 0.000000
O O16 0.540778 0.750000 0.231645
#
# Coordination Sequence:
#
# PCOD9158226 Si02
#       6
#     4   4   4   4   4   4
#     4   9  17  28  44  67  94 122 149 179 220 269
#     4  10  19  31  46  65  90 120 154 188 224 266
#     4   9  15  25  43  66  92 120 146 175 215 267
#     4  11  22  34  48  65  89 121 157 193 227 265
#     4   8  14  24  39  61  88 116 144 174 215 264
#     4   9  17  28  42  62  89 118 148 184 222 262
#
# _framework density 16.44342
#
# number of rings (size 3 to 8) (size 9 to 14) (size 15 to 20)
#    0.000    2.667    1.667    1.000    0.000    2.000 
#    0.000    0.000    0.000    0.000    0.000    1.167 
#    0.000    0.000    0.000    0.000    0.000    0.000 
#
# Total GULP energy -133614.587985 kJ/mol
# GULP energy per Si atom -5567.274499 kJ/mol
# Density = 1.640599 g / cm^3
# Si number density = 16.443420 Si / 1000 Ang^3
#
#
#
# Elastic Constant Matrix: (Units=GPa)
#
#
# Indices 1 2 3 4 5 6 
#
# 1 83.7025 13.4610 70.5929 0.0000 13.5329 0.0000
# 2 13.4610 9.8790 16.0219 0.0000 4.7095 0.0000
# 3 70.5929 16.0219 155.1267 0.0000 35.4978 0.0000
# 4 0.0000 0.0000 0.0000 12.2613 0.0000 1.2140
# 5 13.5329 4.7095 35.4978 0.0000 24.1198 0.0000
# 6 0.0000 0.0000 0.0000 1.2140 0.0000 20.6940
#
#
#
# Elastic Compliance Matrix: (Units=1/GPa)
#
#
# Indices 1 2 3 4 5 6 
#
# 1 0.021636 -0.016821 -0.009171 0.000000 0.004642 0.000000
# 2 -0.016821 0.135683 -0.003704 0.000000 -0.011604 0.000000
# 3 -0.009171 -0.003704 0.014564 0.000000 -0.015566 0.000000
# 4 0.000000 0.000000 0.000000 0.082034 0.000000 -0.004813
# 5 0.004642 -0.011604 -0.015566 0.000000 0.064030 0.000000
# 6 0.000000 0.000000 0.000000 -0.004813 0.000000 0.048606
#
#
# Mechanical properties :
#
#
# Convention : Reuss Voigt Hill
#
# Bulk Modulus (GPa) = 8.88946 49.87332 29.38139
# Shear Modulus (GPa) = 10.78887 21.32385 16.05636
#
# Velocity S-wave (km/s) = 2.56426 3.60502 3.12823
# Velocity P-wave (km/s) = 3.76631 6.90828 5.56370
#
# Compressibility (1/GPa) = 0.11249273
#
# Stress axis : x y z
#
# Youngs Moduli (GPa) = 46.21899 7.37012 68.66171
#
# Poissons Ratio (x) = 0.12397 0.62968
# Poissons Ratio (y) = 0.77743 0.25431
# Poissons Ratio (z) = 0.42386 0.02730
#
# Static dielectric constant tensor:
#      x y z
#    x 1.504740 0.000000 0.034230 
#    y 0.000000 1.544690 0.000000 
#    z 0.034230 0.000000 1.627690 
# 
# From -- ./inp_files/36968.got.cif
#   From: 2010.05.17/outbox.cif.g08.bks.cpg/sg11_19_cif.got.tgz:36968.got - 2010.06.03 12:22:45.
