data_PCOD9158565
_publ_section_title
;
Structure prediction by ZEFSAII (Michael W. Deem and Ramdas Pophale) SiO2 
 PCOD9158565
Probable space group: P 21/M
;
_chemical_formula_sum "Si O2"
_cell_formula_units_Z 24
_cell_length_a 11.497443
_cell_length_b 8.884640
_cell_length_c 24.473941
_cell_angle_alpha 90.000000
_cell_angle_beta 145.364408
_cell_angle_gamma 90.000000
_cell_volume 1420.903774
_symmetry_space_group_name_H-M "P 21/M"
_symmetry_group_IT_number 11
_symmetry_cell_setting 'monoclinic'
loop_
_space_group_symop_operation_xyz
x,y,z
-x,1/2+y,-z
-x,-y,-z
x,1/2-y,z
loop_
_atom_site_type_symbol
_atom_site_label
_atom_site_fract_x
_atom_site_fract_y
_atom_site_fract_z
Si Si1 0.295808 0.929574 0.353038
Si Si2 0.866960 0.929734 0.820616
Si Si3 0.151038 0.069924 0.013120
Si Si4 0.227857 0.070463 0.443612
Si Si5 0.076035 0.429132 0.586109
Si Si6 0.485653 0.429282 0.225435
O O1 0.267110 0.750000 0.343946
O O2 0.540537 0.959219 0.445832
O O3 0.189174 0.998805 0.258874
O O4 0.217033 0.004387 0.378424
O O5 0.885288 0.750000 0.823874
O O6 0.680024 0.961904 0.790770
O O7 0.072504 0.998540 0.926631
O O8 0.126086 0.250000 0.002049
O O9 0.374728 0.038170 0.124578
O O10 0.000000 0.000000 0.000000
O O11 0.197237 0.250000 0.430958
O O12 0.066581 0.993077 0.421014
O O13 0.060071 0.250000 0.577245
O O14 0.000000 0.500000 0.500000
O O15 0.308875 0.479344 0.686347
O O16 0.528468 0.250000 0.244245
#
# Coordination Sequence:
#
# PCOD9158565 Si02
#       6
#     4   4   4   4   4   4
#     4  10  20  34  54  78 103 133 170 211 253 300
#     4  10  19  31  51  78 106 136 171 211 253 300
#     4   9  17  30  49  73 102 134 168 210 256 302
#     4  10  21  37  55  75 102 135 170 210 255 301
#     4  12  24  36  53  76 104 137 172 209 250 302
#     4   9  19  34  51  74 105 138 171 209 254 302
#
# _framework density 16.890658999999999
#
# number of rings (size 3 to 8) (size 9 to 14) (size 15 to 20)
#    0.000    2.000    0.000    5.500    0.000    8.667 
#    0.000    0.000    0.000    1.000    0.000    0.000 
#    0.000    0.000    0.000    0.000    0.000    0.000 
#
# Total GULP energy -133951.631739 kJ/mol
# GULP energy per Si atom -5581.317989 kJ/mol
# Density = 1.685221 g / cm^3
# Si number density = 16.890659 Si / 1000 Ang^3
#
#
#
# Elastic Constant Matrix: (Units=GPa)
#
#
# Indices 1 2 3 4 5 6 
#
# 1 76.2305 55.9704 65.6230 0.0000 -8.8150 0.0000
# 2 55.9704 101.4657 85.5210 0.0000 -5.0186 0.0000
# 3 65.6230 85.5210 157.6117 0.0000 -27.3858 0.0000
# 4 0.0000 0.0000 0.0000 33.3013 0.0000 -3.4573
# 5 -8.8150 -5.0186 -27.3858 0.0000 28.2091 0.0000
# 6 0.0000 0.0000 0.0000 -3.4573 0.0000 28.6723
#
#
#
# Elastic Compliance Matrix: (Units=1/GPa)
#
#
# Indices 1 2 3 4 5 6 
#
# 1 0.024198 -0.009159 -0.004901 0.000000 0.001174 0.000000
# 2 -0.009159 0.023101 -0.010230 0.000000 -0.008684 0.000000
# 3 -0.004901 -0.010230 0.016064 0.000000 0.012243 0.000000
# 4 0.000000 0.000000 0.000000 0.030409 0.000000 0.003667
# 5 0.001174 -0.008684 0.012243 0.000000 0.046157 0.000000
# 6 0.000000 0.000000 0.000000 0.003667 0.000000 0.035319
#
#
# Mechanical properties :
#
#
# Convention : Reuss Voigt Hill
#
# Bulk Modulus (GPa) = 67.65134 83.28185 75.46660
# Shear Modulus (GPa) = 21.85739 26.58278 24.22009
#
# Velocity S-wave (km/s) = 3.60120 3.97144 3.79084
# Velocity P-wave (km/s) = 7.57832 8.39305 7.99607
#
# Compressibility (1/GPa) = 0.01478167
#
# Stress axis : x y z
#
# Youngs Moduli (GPa) = 41.32606 43.28890 62.25218
#
# Poissons Ratio (x) = 0.39647 0.30513
# Poissons Ratio (y) = 0.37849 0.63684
# Poissons Ratio (z) = 0.20256 0.44285
#
# Static dielectric constant tensor:
#      x y z
#    x 1.630540 0.000000 -0.053430 
#    y 0.000000 1.557320 0.000000 
#    z -0.053430 0.000000 1.606600 
# 
# From -- ./inp_files/42652.got.cif
#   From: 2010.05.17/outbox.cif.g08.bks.cpg/sg11_22_cif.got.tgz:42652.got - 2010.06.03 12:22:45.
