data_PCOD9158356
_publ_section_title
;
Structure prediction by ZEFSAII (Michael W. Deem and Ramdas Pophale) SiO2 
 PCOD9158356
Probable space group: P 21/M
;
_chemical_formula_sum "Si O2"
_cell_formula_units_Z 32
_cell_length_a 22.268816
_cell_length_b 8.805914
_cell_length_c 12.505663
_cell_angle_alpha 90.000000
_cell_angle_beta 46.860287
_cell_angle_gamma 90.000000
_cell_volume 1789.434453
_symmetry_space_group_name_H-M "P 21/M"
_symmetry_group_IT_number 11
_symmetry_cell_setting 'monoclinic'
loop_
_space_group_symop_operation_xyz
x,y,z
-x,1/2+y,-z
-x,-y,-z
x,1/2-y,z
loop_
_atom_site_type_symbol
_atom_site_label
_atom_site_fract_x
_atom_site_fract_y
_atom_site_fract_z
Si Si1 0.513273 0.929093 0.789190
Si Si2 0.549530 0.924302 0.344670
Si Si3 0.356201 0.430207 0.054831
Si Si4 0.223589 0.568805 0.054498
Si Si5 0.696044 0.564784 0.496989
Si Si6 0.909621 0.068977 0.608030
Si Si7 0.733428 0.923856 0.211420
Si Si8 0.781438 0.568625 0.603937
O O1 0.517624 0.750000 0.805748
O O2 0.606368 0.984596 0.651387
O O3 0.467090 0.968335 0.734909
O O4 0.448429 0.004769 0.949287
O O5 0.523788 0.750000 0.352681
O O6 0.642531 0.918962 0.271271
O O7 0.500000 0.000000 0.500000
O O8 0.362012 0.250000 0.031356
O O9 0.300672 0.497154 0.025702
O O10 0.301658 0.461038 0.226320
O O11 0.233521 0.750000 0.044894
O O12 0.143838 0.525672 0.221982
O O13 0.217541 0.513925 0.939522
O O14 0.690633 0.750000 0.497459
O O15 0.720687 0.513886 0.347485
O O16 0.762962 0.523966 0.504844
O O17 0.914926 0.250000 0.598875
O O18 0.856173 0.012067 0.572398
O O19 0.000000 0.000000 0.500000
O O20 0.764253 0.750000 0.181629
O O21 0.795023 0.750000 0.591464
#
# Coordination Sequence:
#
# PCOD9158356 Si02
#       8
#     4   4   4   4   4   4   4   4
#     4  11  20  31  47  68  99 141 186 231 270 306
#     4  11  20  30  45  68  98 136 183 233 273 306
#     4  10  19  31  48  73 101 135 180 226 270 312
#     4  10  20  33  52  80 109 135 167 212 263 309
#     4   9  19  35  51  71 101 144 187 218 259 311
#     4  10  21  38  62  90 113 131 160 204 256 315
#     4  10  19  32  50  72 103 141 181 220 260 310
#     4   9  19  37  58  76 104 141 174 212 261 317
#
# _framework density 17.882746000000001
#
# number of rings (size 3 to 8) (size 9 to 14) (size 15 to 20)
#    0.000    2.000    2.500    1.875    0.000    3.000 
#    0.000    1.875    0.000    0.750    0.000    0.000 
#    0.000    0.000    0.000    0.000    0.000    0.000 
#
# Total GULP energy -178388.082450 kJ/mol
# GULP energy per Si atom -5574.627577 kJ/mol
# Density = 1.784204 g / cm^3
# Si number density = 17.882746 Si / 1000 Ang^3
#
#
#
# Elastic Constant Matrix: (Units=GPa)
#
#
# Indices 1 2 3 4 5 6 
#
# 1 95.9951 26.1110 70.1360 0.0000 4.4885 0.0000
# 2 26.1110 25.3735 33.2588 0.0000 2.2988 0.0000
# 3 70.1360 33.2588 97.1657 0.0000 -5.2587 0.0000
# 4 0.0000 0.0000 0.0000 26.7240 0.0000 -2.9364
# 5 4.4885 2.2988 -5.2587 0.0000 16.3104 0.0000
# 6 0.0000 0.0000 0.0000 -2.9364 0.0000 17.4858
#
#
#
# Elastic Compliance Matrix: (Units=1/GPa)
#
#
# Indices 1 2 3 4 5 6 
#
# 1 0.024338 0.000028 -0.018259 0.000000 -0.012589 0.000000
# 2 0.000028 0.077274 -0.027540 0.000000 -0.019778 0.000000
# 3 -0.018259 -0.027540 0.033973 0.000000 0.019860 0.000000
# 4 0.000000 0.000000 0.000000 0.038123 0.000000 0.006402
# 5 -0.012589 -0.019778 0.019860 0.000000 0.073966 0.000000
# 6 0.000000 0.000000 0.000000 0.006402 0.000000 0.058265
#
#
# Mechanical properties :
#
#
# Convention : Reuss Voigt Hill
#
# Bulk Modulus (GPa) = 22.70557 53.06066 37.88312
# Shear Modulus (GPa) = 12.13116 18.03925 15.08521
#
# Velocity S-wave (km/s) = 2.60738 3.17953 2.90757
# Velocity P-wave (km/s) = 4.66788 6.57382 5.70106
#
# Compressibility (1/GPa) = 0.04404205
#
# Stress axis : x y z
#
# Youngs Moduli (GPa) = 41.08721 12.94102 29.43537
#
# Poissons Ratio (x) = -0.00036 0.53745
# Poissons Ratio (y) = -0.00113 0.81066
# Poissons Ratio (z) = 0.75020 0.35640
#
# Static dielectric constant tensor:
#      x y z
#    x 1.596830 0.000000 0.024930 
#    y 0.000000 1.614050 0.000000 
#    z 0.024930 0.000000 1.656620 
# 
# From -- ./inp_files/42560.got.cif
#   From: 2010.05.17/outbox.cif.g08.bks.cpg/sg11_22_cif.got.tgz:42560.got - 2010.06.03 12:22:45.
