data_PCOD9158998
_publ_section_title
;
Structure prediction by ZEFSAII (Michael W. Deem and Ramdas Pophale) SiO2 
 PCOD9158998
Probable space group: P 21/M
;
_chemical_formula_sum "Si O2"
_cell_formula_units_Z 32
_cell_length_a 21.602630
_cell_length_b 17.837982
_cell_length_c 7.984830
_cell_angle_alpha 90.000000
_cell_angle_beta 147.006160
_cell_angle_gamma 90.000000
_cell_volume 1675.540307
_symmetry_space_group_name_H-M "P 21/M"
_symmetry_group_IT_number 11
_symmetry_cell_setting 'monoclinic'
loop_
_space_group_symop_operation_xyz
x,y,z
-x,1/2+y,-z
-x,-y,-z
x,1/2-y,z
loop_
_atom_site_type_symbol
_atom_site_label
_atom_site_fract_x
_atom_site_fract_y
_atom_site_fract_z
Si Si1 0.527060 0.457583 0.295608
Si Si2 0.266150 0.540276 0.430105
Si Si3 0.654255 0.336515 0.168106
Si Si4 0.156751 0.338790 0.211795
Si Si5 0.334162 0.958438 0.060084
Si Si6 0.945604 0.518213 0.198055
Si Si7 0.155558 0.048152 0.488886
Si Si8 0.422636 0.163343 0.820705
O O1 0.611453 0.491237 0.347059
O O2 0.614447 0.439099 0.643787
O O3 0.436278 0.510895 0.175049
O O4 0.461629 0.388635 0.063088
O O5 0.289785 0.624453 0.542537
O O6 0.213686 0.497986 0.469744
O O7 0.172120 0.527126 0.078400
O O8 0.680869 0.250000 0.215997
O O9 0.699625 0.382377 0.111632
O O10 0.517976 0.344791 0.891702
O O11 0.128839 0.250000 0.135401
O O12 0.145934 0.370348 0.379570
O O13 0.291130 0.348444 0.472842
O O14 0.084984 0.396365 0.930404
O O15 0.239777 0.024511 0.832874
O O16 0.000000 0.500000 0.500000
O O17 0.033933 0.483634 0.264872
O O18 0.430033 0.250000 0.892121
#
# Coordination Sequence:
#
# PCOD9158998 Si02
#       8
#     4   4   4   4   4   4   4   4
#     4  10  19  32  52  84 110 144 179 222 273 334
#     4   9  19  34  59  77 104 143 188 225 268 327
#     4   9  19  33  51  78 111 146 185 224 276 335
#     4  10  20  37  60  85 111 147 192 234 284 336
#     4  10  20  31  52  79 114 143 182 222 276 329
#     4  11  23  40  60  83 115 148 188 241 289 335
#     4  10  20  38  58  83 110 147 194 231 272 329
#     4   9  18  33  54  81 113 145 180 228 277 332
#
# _framework density 19.098317000000002
#
# number of rings (size 3 to 8) (size 9 to 14) (size 15 to 20)
#    0.000    2.250    1.250    2.250    3.500    2.000 
#    0.000    6.875    0.000    1.500    0.000    0.000 
#    0.000    0.000    0.000    0.000    0.000    0.000 
#
# Total GULP energy -178197.592862 kJ/mol
# GULP energy per Si atom -5568.674777 kJ/mol
# Density = 1.905485 g / cm^3
# Si number density = 19.098317 Si / 1000 Ang^3
#
#
#
# Elastic Constant Matrix: (Units=GPa)
#
#
# Indices 1 2 3 4 5 6 
#
# 1 59.1391 20.6549 18.3599 0.0000 9.9361 0.0000
# 2 20.6549 127.2401 44.2202 0.0000 -3.3949 0.0000
# 3 18.3599 44.2202 112.7727 0.0000 -4.9169 0.0000
# 4 0.0000 0.0000 0.0000 26.8305 0.0000 3.5699
# 5 9.9361 -3.3949 -4.9169 0.0000 36.8808 0.0000
# 6 0.0000 0.0000 0.0000 3.5699 0.0000 15.3718
#
#
#
# Elastic Compliance Matrix: (Units=1/GPa)
#
#
# Indices 1 2 3 4 5 6 
#
# 1 0.019512 -0.002466 -0.002463 0.000000 -0.005812 0.000000
# 2 -0.002466 0.009416 -0.003243 0.000000 0.001099 0.000000
# 3 -0.002463 -0.003243 0.010617 0.000000 0.001781 0.000000
# 4 0.000000 0.000000 0.000000 0.038459 0.000000 -0.008932
# 5 -0.005812 0.001099 0.001781 0.000000 0.029019 0.000000
# 6 0.000000 0.000000 0.000000 -0.008932 0.000000 0.067129
#
#
# Mechanical properties :
#
#
# Convention : Reuss Voigt Hill
#
# Bulk Modulus (GPa) = 43.10138 51.73578 47.41858
# Shear Modulus (GPa) = 25.22328 30.21108 27.71718
#
# Velocity S-wave (km/s) = 3.63810 3.98159 3.81371
# Velocity P-wave (km/s) = 6.34546 6.94877 6.65395
#
# Compressibility (1/GPa) = 0.02320111
#
# Stress axis : x y z
#
# Youngs Moduli (GPa) = 51.25095 106.20463 94.18422
#
# Poissons Ratio (x) = 0.26195 0.23196
# Poissons Ratio (y) = 0.12641 0.30540
# Poissons Ratio (z) = 0.12622 0.34438
#
# Static dielectric constant tensor:
#      x y z
#    x 1.708270 0.000000 -0.025180 
#    y 0.000000 1.681860 0.000000 
#    z -0.025180 0.000000 1.754200 
# 
# From -- ./inp_files/27857.got.cif
#   From: 2010.05.17/outbox.cif.g08.bks.cpg/sg11_14_cif.got.tgz:27857.got - 2010.06.03 12:22:45.
