data_PCOD9158400
_publ_section_title
;
Structure prediction by ZEFSAII (Michael W. Deem and Ramdas Pophale) SiO2 
 PCOD9158400
Probable space group: P 21/M
;
_chemical_formula_sum "Si O2"
_cell_formula_units_Z 32
_cell_length_a 20.828159
_cell_length_b 8.298795
_cell_length_c 12.706977
_cell_angle_alpha 90.000000
_cell_angle_beta 53.968377
_cell_angle_gamma 90.000000
_cell_volume 1776.198739
_symmetry_space_group_name_H-M "P 21/M"
_symmetry_group_IT_number 11
_symmetry_cell_setting 'monoclinic'
loop_
_space_group_symop_operation_xyz
x,y,z
-x,1/2+y,-z
-x,-y,-z
x,1/2-y,z
loop_
_atom_site_type_symbol
_atom_site_label
_atom_site_fract_x
_atom_site_fract_y
_atom_site_fract_z
Si Si1 0.952660 0.444848 0.893534
Si Si2 0.708831 0.558682 0.392924
Si Si3 0.885799 0.441595 0.186735
Si Si4 0.632472 0.555437 0.683122
Si Si5 0.197255 0.553602 0.081831
Si Si6 0.312580 0.555440 0.150703
Si Si7 0.548135 0.446465 0.140076
Si Si8 0.663294 0.443865 0.210724
O O1 0.957211 0.250000 0.888997
O O2 0.891397 0.497918 0.862292
O O3 0.041440 0.511945 0.807580
O O4 0.913102 0.495163 0.043303
O O5 0.702134 0.750000 0.401314
O O6 0.801421 0.513534 0.298150
O O7 0.668757 0.495164 0.538338
O O8 0.667373 0.499969 0.325992
O O9 0.877008 0.250000 0.191405
O O10 0.630153 0.750000 0.681773
O O11 0.683094 0.505645 0.735413
O O12 0.541752 0.496936 0.784620
O O13 0.197068 0.750000 0.081925
O O14 0.237669 0.502148 0.151983
O O15 0.257924 0.504712 0.930008
O O16 0.312514 0.750000 0.151651
O O17 0.391854 0.502795 0.010448
O O18 0.547610 0.250000 0.139347
O O19 0.588653 0.495754 0.211498
O O20 0.335991 0.750000 0.789599
#
# Coordination Sequence:
#
# PCOD9158400 Si02
#       8
#     4   4   4   4   4   4   4   4
#     4   9  16  29  50  75 102 127 153 192 246 296
#     4  11  22  33  46  67 102 139 167 198 240 291
#     4  10  19  31  49  73 100 130 163 197 235 289
#     4  10  21  35  48  68 100 136 167 201 249 292
#     4   8  14  28  50  75 100 124 154 196 247 294
#     4   9  17  31  54  77  94 122 167 209 241 286
#     4   8  16  32  54  74  96 126 161 206 255 297
#     4   9  16  31  52  72  95 128 165 199 243 295
#
# _framework density 18.016003000000001
#
# number of rings (size 3 to 8) (size 9 to 14) (size 15 to 20)
#    0.000    2.750    1.250    2.625    0.000    2.000 
#    0.000    3.750    0.000    0.750    0.000    0.000 
#    0.000    0.000    0.000    0.000    0.000    0.000 
#
# Total GULP energy -178385.728757 kJ/mol
# GULP energy per Si atom -5574.554024 kJ/mol
# Density = 1.797500 g / cm^3
# Si number density = 18.016003 Si / 1000 Ang^3
#
#
#
# Elastic Constant Matrix: (Units=GPa)
#
#
# Indices 1 2 3 4 5 6 
#
# 1 100.5769 2.4894 23.2858 0.0000 26.2231 0.0000
# 2 2.4894 4.6580 2.7985 0.0000 4.1922 0.0000
# 3 23.2858 2.7985 42.2285 0.0000 26.5044 0.0000
# 4 0.0000 0.0000 0.0000 15.6232 0.0000 0.7021
# 5 26.2231 4.1922 26.5044 0.0000 24.1272 0.0000
# 6 0.0000 0.0000 0.0000 0.7021 0.0000 19.1832
#
#
#
# Elastic Compliance Matrix: (Units=1/GPa)
#
#
# Indices 1 2 3 4 5 6 
#
# 1 0.014798 0.011368 0.007797 0.000000 -0.026623 0.000000
# 2 0.011368 0.280423 0.043425 0.000000 -0.108784 0.000000
# 3 0.007797 0.043425 0.085528 0.000000 -0.109974 0.000000
# 4 0.000000 0.000000 0.000000 0.064113 0.000000 -0.002347
# 5 -0.026623 -0.108784 -0.109974 0.000000 0.210094 0.000000
# 6 0.000000 0.000000 0.000000 -0.002347 0.000000 0.052215
#
#
# Mechanical properties :
#
#
# Convention : Reuss Voigt Hill
#
# Bulk Modulus (GPa) = 1.97657 22.73454 12.35555
# Shear Modulus (GPa) = 6.66104 19.71269 13.18686
#
# Velocity S-wave (km/s) = 1.92492 3.31142 2.70840
# Velocity P-wave (km/s) = 2.45762 5.22180 4.08088
#
# Compressibility (1/GPa) = 0.50592750
#
# Stress axis : x y z
#
# Youngs Moduli (GPa) = 67.57888 3.56604 11.69210
#
# Poissons Ratio (x) = -0.04054 -0.09116
# Poissons Ratio (y) = -0.76825 -0.50772
# Poissons Ratio (z) = -0.52689 -0.15485
#
# Static dielectric constant tensor:
#      x y z
#    x 1.636220 0.000000 0.002920 
#    y 0.000000 1.628760 0.000000 
#    z 0.002920 0.000000 1.599070 
# 
# From -- ./inp_files/42798.got.cif
#   From: 2010.05.17/outbox.cif.g08.bks.cpg/sg11_22_cif.got.tgz:42798.got - 2010.06.03 12:22:45.
