data_PCOD9158403
_publ_section_title
;
Structure prediction by ZEFSAII (Michael W. Deem and Ramdas Pophale) SiO2 
 PCOD9158403
Probable space group: P 21/M
;
_chemical_formula_sum "Si O2"
_cell_formula_units_Z 28
_cell_length_a 12.875350
_cell_length_b 7.811825
_cell_length_c 15.637267
_cell_angle_alpha 90.000000
_cell_angle_beta 73.964464
_cell_angle_gamma 90.000000
_cell_volume 1511.599398
_symmetry_space_group_name_H-M "P 21/M"
_symmetry_group_IT_number 11
_symmetry_cell_setting 'monoclinic'
loop_
_space_group_symop_operation_xyz
x,y,z
-x,1/2+y,-z
-x,-y,-z
x,1/2-y,z
loop_
_atom_site_type_symbol
_atom_site_label
_atom_site_fract_x
_atom_site_fract_y
_atom_site_fract_z
Si Si1 0.982747 0.044251 0.404857
Si Si2 0.584720 0.458082 0.098829
Si Si3 0.383662 0.948925 0.387638
Si Si4 0.257058 0.539316 0.584993
Si Si5 0.381709 0.949244 0.721498
Si Si6 0.210042 0.049739 0.288030
Si Si7 0.342174 0.953066 0.099686
O O1 0.979196 0.250000 0.397723
O O2 0.866038 0.981262 0.400483
O O3 0.088885 0.982912 0.330269
O O4 0.000000 0.000000 0.500000
O O5 0.585676 0.250000 0.099324
O O6 0.625116 0.523001 0.181291
O O7 0.460399 0.510991 0.112816
O O8 0.650246 0.515732 0.999979
O O9 0.411973 0.750000 0.393017
O O10 0.330017 0.014036 0.487493
O O11 0.493312 0.040920 0.335539
O O12 0.294411 0.962623 0.333412
O O13 0.258074 0.750000 0.583703
O O14 0.308947 0.478447 0.661851
O O15 0.351193 0.750000 0.735848
O O16 0.211369 0.250000 0.310838
O O17 0.253393 0.030723 0.182273
O O18 0.325583 0.750000 0.102228
#
# Coordination Sequence:
#
# PCOD9158403 Si02
#       7
#     4   4   4   4   4   4   4
#     4  10  20  35  53  73  98 130 171 211 249 289
#     4   9  18  31  49  74 101 129 164 202 249 304
#     4  11  20  31  49  74 104 134 165 202 246 296
#     4   9  19  34  51  72 100 134 168 204 246 296
#     4  10  19  33  52  73 102 134 164 200 247 304
#     4  11  21  32  50  74 101 133 168 207 249 297
#     4  10  19  31  49  73 101 131 162 206 255 297
#
# _framework density 18.523426000000001
#
# number of rings (size 3 to 8) (size 9 to 14) (size 15 to 20)
#    0.000    2.000    2.857    1.714    0.000    1.143 
#    0.000    1.429    0.000    0.857    0.000    0.000 
#    0.000    0.000    0.000    0.000    0.000    0.571 
#
# Total GULP energy -156271.238746 kJ/mol
# GULP energy per Si atom -5581.115669 kJ/mol
# Density = 1.848127 g / cm^3
# Si number density = 18.523426 Si / 1000 Ang^3
#
#
#
# Elastic Constant Matrix: (Units=GPa)
#
#
# Indices 1 2 3 4 5 6 
#
# 1 93.5629 -8.3208 70.4046 0.0000 17.0509 0.0000
# 2 -8.3208 22.4676 -6.6892 0.0000 2.2184 0.0000
# 3 70.4046 -6.6892 159.6007 0.0000 8.2993 0.0000
# 4 0.0000 0.0000 0.0000 13.3685 0.0000 2.0273
# 5 17.0509 2.2184 8.2993 0.0000 27.2313 0.0000
# 6 0.0000 0.0000 0.0000 2.0273 0.0000 3.1786
#
#
#
# Elastic Compliance Matrix: (Units=1/GPa)
#
#
# Indices 1 2 3 4 5 6 
#
# 1 0.018588 0.005635 -0.007452 0.000000 -0.009827 0.000000
# 2 0.005635 0.047284 -0.000122 0.000000 -0.007343 0.000000
# 3 -0.007452 -0.000122 0.009455 0.000000 0.001795 0.000000
# 4 0.000000 0.000000 0.000000 0.082813 0.000000 -0.052819
# 5 -0.009827 -0.007343 0.001795 0.000000 0.042927 0.000000
# 6 0.000000 0.000000 0.000000 -0.052819 0.000000 0.348295
#
#
# Mechanical properties :
#
#
# Convention : Reuss Voigt Hill
#
# Bulk Modulus (GPa) = 13.99619 42.93559 28.46589
# Shear Modulus (GPa) = 8.66467 23.43812 16.05139
#
# Velocity S-wave (km/s) = 2.16514 3.56100 2.94691
# Velocity P-wave (km/s) = 3.71790 6.33538 5.19422
#
# Compressibility (1/GPa) = 0.07144803
#
# Stress axis : x y z
#
# Youngs Moduli (GPa) = 53.79866 21.14871 105.76778
#
# Poissons Ratio (x) = -0.11918 0.78823
# Poissons Ratio (y) = -0.30318 0.01294
# Poissons Ratio (z) = 0.40093 0.00259
#
# Static dielectric constant tensor:
#      x y z
#    x 1.613590 0.000000 0.005510 
#    y 0.000000 1.683990 0.000000 
#    z 0.005510 0.000000 1.656140 
# 
# From -- ./inp_files/37464.got.cif
#   From: 2010.05.17/outbox.cif.g08.bks.cpg/sg11_19_cif.got.tgz:37464.got - 2010.06.03 12:22:45.
