data_PCOD9158066
_publ_section_title
;
Structure prediction by ZEFSAII (Michael W. Deem and Ramdas Pophale) SiO2 
 PCOD9158066
Probable space group: P 21/M
;
_chemical_formula_sum "Si O2"
_cell_formula_units_Z 32
_cell_length_a 11.193992
_cell_length_b 7.924516
_cell_length_c 20.050864
_cell_angle_alpha 90.000000
_cell_angle_beta 119.492273
_cell_angle_gamma 90.000000
_cell_volume 1548.177451
_symmetry_space_group_name_H-M "P 21/M"
_symmetry_group_IT_number 11
_symmetry_cell_setting 'monoclinic'
loop_
_space_group_symop_operation_xyz
x,y,z
-x,1/2+y,-z
-x,-y,-z
x,1/2-y,z
loop_
_atom_site_type_symbol
_atom_site_label
_atom_site_fract_x
_atom_site_fract_y
_atom_site_fract_z
Si Si1 0.220854 0.449840 0.531584
Si Si2 0.311862 0.551750 0.912754
Si Si3 0.801311 0.057648 0.330516
Si Si4 0.587317 0.446512 0.920899
Si Si5 0.940116 0.558047 0.239120
Si Si6 0.535458 0.454781 0.617959
Si Si7 0.482860 0.544987 0.239255
Si Si8 0.800767 0.045206 0.619084
O O1 0.225104 0.250000 0.544648
O O2 0.159086 0.528717 0.581502
O O3 0.378866 0.514123 0.567238
O O4 0.155807 0.486014 0.442274
O O5 0.348618 0.750000 0.923320
O O6 0.428286 0.462249 0.900284
O O7 0.164018 0.531490 0.839297
O O8 0.327514 0.484597 0.992726
O O9 0.829450 0.250000 0.319336
O O10 0.871621 0.944995 0.293856
O O11 0.638398 0.022332 0.282106
O O12 0.624868 0.250000 0.925770
O O13 0.593573 0.518259 0.848028
O O14 0.952813 0.750000 0.219226
O O15 0.090987 0.487561 0.295351
O O16 0.531684 0.250000 0.611862
O O17 0.578717 0.497682 0.705602
O O18 0.648572 0.515740 0.596921
O O19 0.491676 0.750000 0.238487
O O20 0.801964 0.250000 0.619165
#
# Coordination Sequence:
#
# PCOD9158066 Si02
#       8
#     4   4   4   4   4   4   4   4
#     4  10  20  35  56  78 101 127 160 208 261 305
#     4  10  19  30  47  74 104 135 168 205 247 297
#     4  11  21  33  51  75 102 132 166 205 251 301
#     4   9  17  29  49  76 105 133 163 202 252 301
#     4  11  22  35  50  69 101 141 172 205 248 297
#     4   8  16  32  54  78 100 126 164 209 252 297
#     4   9  16  30  53  78 104 130 160 204 256 303
#     4  10  21  36  53  73  98 132 174 211 247 295
#
# _framework density 20.669464000000001
#
# number of rings (size 3 to 8) (size 9 to 14) (size 15 to 20)
#    0.000    2.250    1.250    3.375    0.000    2.000 
#    0.000    2.500    0.000    0.750    0.000    0.000 
#    0.000    0.000    0.000    0.000    0.000    0.500 
#
# Total GULP energy -178557.823650 kJ/mol
# GULP energy per Si atom -5579.931989 kJ/mol
# Density = 2.062242 g / cm^3
# Si number density = 20.669464 Si / 1000 Ang^3
#
#
#
# Elastic Constant Matrix: (Units=GPa)
#
#
# Indices 1 2 3 4 5 6 
#
# 1 31.2887 -4.6423 2.3719 0.0000 -0.2119 0.0000
# 2 -4.6423 32.7658 -1.2300 0.0000 1.8159 0.0000
# 3 2.3719 -1.2300 119.7539 0.0000 -6.9191 0.0000
# 4 0.0000 0.0000 0.0000 21.7173 0.0000 -0.5597
# 5 -0.2119 1.8159 -6.9191 0.0000 27.1781 0.0000
# 6 0.0000 0.0000 0.0000 -0.5597 0.0000 7.4149
#
#
#
# Elastic Compliance Matrix: (Units=1/GPa)
#
#
# Indices 1 2 3 4 5 6 
#
# 1 0.032691 0.004620 -0.000612 0.000000 -0.000210 0.000000
# 2 0.004620 0.031291 0.000113 0.000000 -0.002026 0.000000
# 3 -0.000612 0.000113 0.008488 0.000000 0.002149 0.000000
# 4 0.000000 0.000000 0.000000 0.046136 0.000000 0.003482
# 5 -0.000210 -0.002026 0.002149 0.000000 0.037475 0.000000
# 6 0.000000 0.000000 0.000000 0.003482 0.000000 0.135126
#
#
# Mechanical properties :
#
#
# Convention : Reuss Voigt Hill
#
# Bulk Modulus (GPa) = 12.38982 19.64530 16.01756
# Shear Modulus (GPa) = 16.13590 23.74934 19.94262
#
# Velocity S-wave (km/s) = 2.79707 3.39338 3.10955
# Velocity P-wave (km/s) = 4.05447 4.98783 4.54517
#
# Compressibility (1/GPa) = 0.08071144
#
# Stress axis : x y z
#
# Youngs Moduli (GPa) = 30.58955 31.95837 117.81505
#
# Poissons Ratio (x) = -0.14766 0.07212
# Poissons Ratio (y) = -0.14133 -0.01329
# Poissons Ratio (z) = 0.01873 -0.00361
#
# Static dielectric constant tensor:
#      x y z
#    x 1.723080 0.000000 0.007960 
#    y 0.000000 1.742560 0.000000 
#    z 0.007960 0.000000 1.785880 
# 
# From -- ./inp_files/64229.got.cif
#   From: 2010.05.17/outbox.cif.g08.bks.cpg/sg11_33_cif.got.tgz:64229.got - 2010.06.03 12:22:45.
