data_PCOD9158891
_publ_section_title
;
Structure prediction by ZEFSAII (Michael W. Deem and Ramdas Pophale) SiO2 
 PCOD9158891
Probable space group: P 21/M
;
_chemical_formula_sum "Si O2"
_cell_formula_units_Z 32
_cell_length_a 26.043859
_cell_length_b 9.479585
_cell_length_c 15.372835
_cell_angle_alpha 90.000000
_cell_angle_beta 27.687268
_cell_angle_gamma 90.000000
_cell_volume 1763.478471
_symmetry_space_group_name_H-M "P 21/M"
_symmetry_group_IT_number 11
_symmetry_cell_setting 'monoclinic'
loop_
_space_group_symop_operation_xyz
x,y,z
-x,1/2+y,-z
-x,-y,-z
x,1/2-y,z
loop_
_atom_site_type_symbol
_atom_site_label
_atom_site_fract_x
_atom_site_fract_y
_atom_site_fract_z
Si Si1 0.091957 0.922229 0.418516
Si Si2 0.331827 0.590461 0.541201
Si Si3 0.139386 0.918396 0.541718
Si Si4 0.653426 0.897717 0.770815
Si Si5 0.494068 0.422025 0.417142
Si Si6 0.674957 0.089731 0.010366
Si Si7 0.903917 0.079809 0.195395
Si Si8 0.506989 0.497981 0.845473
O O1 0.084284 0.750000 0.424806
O O2 0.083397 0.960948 0.534106
O O3 0.211252 0.969015 0.199697
O O4 0.000000 0.000000 0.500000
O O5 0.323855 0.750000 0.589626
O O6 0.386446 0.481172 0.527035
O O7 0.213744 0.551565 0.675842
O O8 0.419805 0.590353 0.330650
O O9 0.138108 0.750000 0.545414
O O10 0.098184 0.964999 0.699250
O O11 0.264143 0.973016 0.346538
O O12 0.715788 0.750000 0.685511
O O13 0.590634 0.906947 0.774130
O O14 0.560815 0.908116 0.983309
O O15 0.500000 0.500000 0.500000
O O16 0.491219 0.250000 0.426207
O O17 0.604705 0.468014 0.197197
O O18 0.701453 0.250000 0.994174
O O19 0.583956 0.083926 0.071067
O O20 0.919485 0.250000 0.169689
O O21 0.000000 0.000000 0.000000
#
# Coordination Sequence:
#
# PCOD9158891 Si02
#       8
#     4   4   4   4   4   4   4   4
#     4  10  21  40  62  83 112 151 193 242 291 343
#     4  10  20  37  60  84 115 152 189 235 293 346
#     4  10  21  40  62  82 116 158 192 233 296 357
#     4  11  21  29  51  89 122 149 182 223 267 336
#     4  10  21  38  60  87 118 153 195 239 288 347
#     4   9  18  35  58  81 111 150 186 227 284 343
#     4  10  22  41  62  85 114 154 198 244 295 350
#     4  10  19  32  51  83 122 151 180 216 283 343
#
# _framework density 18.145955000000001
#
# number of rings (size 3 to 8) (size 9 to 14) (size 15 to 20)
#    0.000    2.000    2.500    1.125    0.000    4.000 
#    2.250    1.250    0.000    0.000    0.000    0.000 
#    0.000    0.000    0.000    0.000    0.000    0.000 
#
# Total GULP energy -178177.875727 kJ/mol
# GULP energy per Si atom -5568.058616 kJ/mol
# Density = 1.810465 g / cm^3
# Si number density = 18.145955 Si / 1000 Ang^3
#
#
#
# Elastic Constant Matrix: (Units=GPa)
#
#
# Indices 1 2 3 4 5 6 
#
# 1 145.3811 42.6602 69.1071 0.0000 7.9144 0.0000
# 2 42.6602 39.3532 30.4339 0.0000 8.5020 0.0000
# 3 69.1071 30.4339 103.9185 0.0000 -2.5007 0.0000
# 4 0.0000 0.0000 0.0000 6.7310 0.0000 -26.4973
# 5 7.9144 8.5020 -2.5007 0.0000 27.1981 0.0000
# 6 0.0000 0.0000 0.0000 -26.4973 0.0000 -19.1866
#
#
#
# Elastic Compliance Matrix: (Units=1/GPa)
#
#
# Indices 1 2 3 4 5 6 
#
# 1 0.012108 -0.008499 -0.005596 0.000000 -0.001381 0.000000
# 2 -0.008499 0.042599 -0.007100 0.000000 -0.011496 0.000000
# 3 -0.005596 -0.007100 0.015551 0.000000 0.005278 0.000000
# 4 0.000000 0.000000 0.000000 0.023082 0.000000 -0.031876
# 5 -0.001381 -0.011496 0.005278 0.000000 0.041248 0.000000
# 6 0.000000 0.000000 0.000000 -0.031876 0.000000 -0.008097
#
#
# Mechanical properties :
#
#
# Convention : Reuss Voigt Hill
#
# Bulk Modulus (GPa) = 35.88526 63.67281 49.77904
# Shear Modulus (GPa) = 28.06336 12.71196 20.38766
#
# Velocity S-wave (km/s) = 3.93687 2.64964 3.35556
# Velocity P-wave (km/s) = 6.36271 6.67280 6.51960
#
# Compressibility (1/GPa) = 0.02786659
#
# Stress axis : x y z
#
# Youngs Moduli (GPa) = 82.59270 23.47485 64.30613
#
# Poissons Ratio (x) = 0.19952 0.35985
# Poissons Ratio (y) = 0.70197 0.45659
# Poissons Ratio (z) = 0.46218 0.16668
#
# Static dielectric constant tensor:
#      x y z
#    x 1.633860 0.000000 0.024440 
#    y 0.000000 1.637930 0.000000 
#    z 0.024440 0.000000 1.620520 
# 
# From -- ./inp_files/55604.got.cif
#   From: 2010.05.17/outbox.cif.g08.bks.cpg/sg11_28_cif.got.tgz:55604.got - 2010.06.03 12:22:45.
