data_PCOD9158258
_publ_section_title
;
Structure prediction by ZEFSAII (Michael W. Deem and Ramdas Pophale) SiO2 
 PCOD9158258
Probable space group: P 21/M
;
_chemical_formula_sum "Si O2"
_cell_formula_units_Z 32
_cell_length_a 28.520513
_cell_length_b 13.910625
_cell_length_c 9.433387
_cell_angle_alpha 90.000000
_cell_angle_beta 154.859777
_cell_angle_gamma 90.000000
_cell_volume 1589.981117
_symmetry_space_group_name_H-M "P 21/M"
_symmetry_group_IT_number 11
_symmetry_cell_setting 'monoclinic'
loop_
_space_group_symop_operation_xyz
x,y,z
-x,1/2+y,-z
-x,-y,-z
x,1/2-y,z
loop_
_atom_site_type_symbol
_atom_site_label
_atom_site_fract_x
_atom_site_fract_y
_atom_site_fract_z
Si Si1 0.560115 0.859535 0.391462
Si Si2 0.240207 0.856272 0.891996
Si Si3 0.273186 0.359560 0.878523
Si Si4 0.125928 0.464405 0.683779
Si Si5 0.097479 0.481918 0.067987
Si Si6 0.399289 0.969331 0.125061
Si Si7 0.236330 0.364642 0.242661
Si Si8 0.950779 0.356411 0.862431
O O1 0.522143 0.750000 0.268890
O O2 0.456391 0.926625 0.142161
O O3 0.641652 0.884586 0.485583
O O4 0.640831 0.859500 0.751704
O O5 0.262320 0.750000 0.012673
O O6 0.134425 0.850150 0.500833
O O7 0.207809 0.942463 0.910202
O O8 0.335479 0.890715 0.045615
O O9 0.262809 0.250000 0.800749
O O10 0.163514 0.404061 0.648070
O O11 0.321396 0.437326 0.901089
O O12 0.001871 0.499424 0.317288
O O13 0.152086 0.395632 0.886239
O O14 0.051608 0.412052 0.065488
O O15 0.198487 0.431121 0.267847
O O16 0.109401 0.583013 0.180170
O O17 0.500000 0.000000 0.500000
O O18 0.227128 0.250000 0.245019
O O19 0.980292 0.250000 0.991159
#
# Coordination Sequence:
#
# PCOD9158258 Si02
#       8
#     4   4   4   4   4   4   4   4
#     4   8  14  24  39  61  87 115 147 180 218 271
#     4   9  17  30  48  69  96 127 157 193 236 280
#     4   8  14  24  38  60  91 121 147 179 222 271
#     4   9  17  29  45  70  98 124 155 192 237 287
#     4  10  19  32  50  69  92 124 163 200 236 280
#     4   9  15  24  42  67  93 119 152 189 230 280
#     4  10  19  31  47  68  97 127 155 193 239 287
#     4   9  19  34  50  69  91 119 160 204 240 278
#
# _framework density 20.126026
#
# number of rings (size 3 to 8) (size 9 to 14) (size 15 to 20)
#    0.000    3.000    0.000    3.000    0.000    2.000 
#    0.000    0.625    0.000    2.250    0.000    0.000 
#    0.000    0.000    0.000    0.000    0.000    0.000 
#
# Total GULP energy -178357.711319 kJ/mol
# GULP energy per Si atom -5573.678479 kJ/mol
# Density = 2.008022 g / cm^3
# Si number density = 20.126026 Si / 1000 Ang^3
#
#
#
# Elastic Constant Matrix: (Units=GPa)
#
#
# Indices 1 2 3 4 5 6 
#
# 1 70.6856 30.2337 1.7881 0.0000 15.7439 0.0000
# 2 30.2337 120.3665 -5.6745 0.0000 13.4283 0.0000
# 3 1.7881 -5.6745 15.5332 0.0000 1.2393 0.0000
# 4 0.0000 0.0000 0.0000 18.4025 0.0000 0.4376
# 5 15.7439 13.4283 1.2393 0.0000 22.5270 0.0000
# 6 0.0000 0.0000 0.0000 0.4376 0.0000 22.6790
#
#
#
# Elastic Compliance Matrix: (Units=1/GPa)
#
#
# Indices 1 2 3 4 5 6 
#
# 1 0.018012 -0.003486 -0.002519 0.000000 -0.010372 0.000000
# 2 -0.003486 0.009790 0.004268 0.000000 -0.003634 0.000000
# 3 -0.002519 0.004268 0.066582 0.000000 -0.004446 0.000000
# 4 0.000000 0.000000 0.000000 0.054365 0.000000 -0.001049
# 5 -0.010372 -0.003634 -0.004446 0.000000 0.054051 0.000000
# 6 0.000000 0.000000 0.000000 -0.001049 0.000000 0.044114
#
#
# Mechanical properties :
#
#
# Convention : Reuss Voigt Hill
#
# Bulk Modulus (GPa) = 10.99999 28.80888 19.90444
# Shear Modulus (GPa) = 17.81306 24.73756 21.27531
#
# Velocity S-wave (km/s) = 2.97825 3.50970 3.25484
# Velocity P-wave (km/s) = 4.15981 5.54701 4.90272
#
# Compressibility (1/GPa) = 0.09090915
#
# Stress axis : x y z
#
# Youngs Moduli (GPa) = 55.51842 102.14264 15.01906
#
# Poissons Ratio (x) = 0.35606 0.03784
# Poissons Ratio (y) = 0.19353 -0.06410
# Poissons Ratio (z) = 0.13988 -0.43592
#
# Static dielectric constant tensor:
#      x y z
#    x 1.734380 0.000000 0.011860 
#    y 0.000000 1.747570 0.000000 
#    z 0.011860 0.000000 1.748970 
# 
# From -- ./inp_files/28868.got.cif
#   From: 2010.05.17/outbox.cif.g08.bks.cpg/sg11_15_cif.got.tgz:28868.got - 2010.06.03 12:22:45.
