data_PCOD9158228
_publ_section_title
;
Structure prediction by ZEFSAII (Michael W. Deem and Ramdas Pophale) SiO2 
 PCOD9158228
Probable space group: P 21/M
;
_chemical_formula_sum "Si O2"
_cell_formula_units_Z 32
_cell_length_a 14.977861
_cell_length_b 8.452124
_cell_length_c 14.109636
_cell_angle_alpha 90.000000
_cell_angle_beta 101.387225
_cell_angle_gamma 90.000000
_cell_volume 1751.044615
_symmetry_space_group_name_H-M "P 21/M"
_symmetry_group_IT_number 11
_symmetry_cell_setting 'monoclinic'
loop_
_space_group_symop_operation_xyz
x,y,z
-x,1/2+y,-z
-x,-y,-z
x,1/2-y,z
loop_
_atom_site_type_symbol
_atom_site_label
_atom_site_fract_x
_atom_site_fract_y
_atom_site_fract_z
Si Si1 0.396027 0.565530 0.785930
Si Si2 0.283067 0.062066 0.376577
Si Si3 0.949586 0.440030 0.084542
Si Si4 0.398258 0.434552 0.981080
Si Si5 0.388689 0.935142 0.576545
Si Si6 0.777247 0.940971 0.958274
Si Si7 0.126209 0.442786 0.216302
Si Si8 0.445468 0.564782 0.295144
O O1 0.393721 0.750000 0.810225
O O2 0.362371 0.465291 0.866800
O O3 0.347348 0.542239 0.673989
O O4 0.499757 0.514793 0.779979
O O5 0.281999 0.250000 0.390974
O O6 0.184356 0.006876 0.319305
O O7 0.322527 0.981441 0.478607
O O8 0.354431 0.021746 0.307673
O O9 0.944094 0.250000 0.081982
O O10 0.020646 0.488867 0.181746
O O11 0.848973 0.509672 0.054700
O O12 0.000000 0.500000 0.000000
O O13 0.405419 0.250000 0.001675
O O14 0.500000 0.500000 0.000000
O O15 0.323116 0.502613 0.037295
O O16 0.414262 0.750000 0.575033
O O17 0.480988 0.038213 0.603878
O O18 0.774489 0.750000 0.954374
O O19 0.818789 0.995754 0.866653
O O20 0.128138 0.250000 0.215625
O O21 0.431193 0.750000 0.276804
#
# Coordination Sequence:
#
# PCOD9158228 Si02
#       8
#     4   4   4   4   4   4   4   4
#     4   9  20  36  51  65  92 130 167 208 250 286
#     4  11  19  28  46  70  97 130 163 200 248 301
#     4   9  16  31  52  73  97 128 165 205 246 300
#     4  11  23  36  53  76 104 135 172 211 249 291
#     4   9  19  33  47  65  92 129 166 206 249 295
#     4   9  19  35  52  72 100 135 167 203 248 297
#     4   8  17  31  48  72 102 131 160 197 250 298
#     4  10  19  31  46  65  92 126 167 206 242 292
#
# _framework density 18.274806999999999
#
# number of rings (size 3 to 8) (size 9 to 14) (size 15 to 20)
#    0.750    1.750    0.000    3.750    1.750    1.000 
#    0.000    6.250    0.000    0.000    0.000    0.875 
#    0.000    0.000    0.000    0.000    0.000    0.000 
#
# Total GULP energy -178182.565396 kJ/mol
# GULP energy per Si atom -5568.205169 kJ/mol
# Density = 1.823321 g / cm^3
# Si number density = 18.274807 Si / 1000 Ang^3
#
#
#
# Elastic Constant Matrix: (Units=GPa)
#
#
# Indices 1 2 3 4 5 6 
#
# 1 66.3953 4.6420 17.9608 0.0000 17.0872 0.0000
# 2 4.6420 29.4106 -5.8567 0.0000 0.6385 0.0000
# 3 17.9608 -5.8567 41.4166 0.0000 16.1333 0.0000
# 4 0.0000 0.0000 0.0000 21.2537 0.0000 2.7896
# 5 17.0872 0.6385 16.1333 0.0000 27.9666 0.0000
# 6 0.0000 0.0000 0.0000 2.7896 0.0000 18.0377
#
#
#
# Elastic Compliance Matrix: (Units=1/GPa)
#
#
# Indices 1 2 3 4 5 6 
#
# 1 0.018973 -0.003919 -0.005548 0.000000 -0.008302 0.000000
# 2 -0.003919 0.036284 0.008023 0.000000 -0.003062 0.000000
# 3 -0.005548 0.008023 0.034099 0.000000 -0.016464 0.000000
# 4 0.000000 0.000000 0.000000 0.048026 0.000000 -0.007427
# 5 -0.008302 -0.003062 -0.016464 0.000000 0.050397 0.000000
# 6 0.000000 0.000000 0.000000 -0.007427 0.000000 0.056588
#
#
# Mechanical properties :
#
#
# Convention : Reuss Voigt Hill
#
# Bulk Modulus (GPa) = 11.56492 18.96830 15.26661
# Shear Modulus (GPa) = 18.11090 21.48335 19.79713
#
# Velocity S-wave (km/s) = 3.15148 3.43238 3.29493
# Velocity P-wave (km/s) = 4.42544 5.10983 4.77990
#
# Compressibility (1/GPa) = 0.08646838
#
# Stress axis : x y z
#
# Youngs Moduli (GPa) = 52.70730 27.56021 29.32647
#
# Poissons Ratio (x) = 0.10801 0.16270
# Poissons Ratio (y) = 0.20657 -0.23530
# Poissons Ratio (z) = 0.29242 -0.22113
#
# Static dielectric constant tensor:
#      x y z
#    x 1.608400 0.000000 0.037410 
#    y 0.000000 1.617870 0.000000 
#    z 0.037410 0.000000 1.698910 
# 
# From -- ./inp_files/51402.got.cif
#   From: 2010.05.17/outbox.cif.g08.bks.cpg/sg11_26_cif.got.tgz:51402.got - 2010.06.03 12:22:45.
