data_PCOD9158734
_publ_section_title
;
Structure prediction by ZEFSAII (Michael W. Deem and Ramdas Pophale) SiO2 
 PCOD9158734
Probable space group: P 21/M
;
_chemical_formula_sum "Si O2"
_cell_formula_units_Z 32
_cell_length_a 23.688774
_cell_length_b 9.052992
_cell_length_c 15.273491
_cell_angle_alpha 90.000000
_cell_angle_beta 39.531192
_cell_angle_gamma 90.000000
_cell_volume 2084.827922
_symmetry_space_group_name_H-M "P 21/M"
_symmetry_group_IT_number 11
_symmetry_cell_setting 'monoclinic'
loop_
_space_group_symop_operation_xyz
x,y,z
-x,1/2+y,-z
-x,-y,-z
x,1/2-y,z
loop_
_atom_site_type_symbol
_atom_site_label
_atom_site_fract_x
_atom_site_fract_y
_atom_site_fract_z
Si Si1 0.710595 0.926311 0.206652
Si Si2 0.622269 0.573119 0.499955
Si Si3 0.892888 0.425841 0.035021
Si Si4 0.740247 0.073061 0.509976
Si Si5 0.631718 0.574404 0.787920
Si Si6 0.582062 0.072487 0.221153
Si Si7 0.923238 0.073713 0.203690
Si Si8 0.431553 0.573753 0.964533
O O1 0.716867 0.750000 0.191547
O O2 0.661676 0.960348 0.357390
O O3 0.807862 0.997020 0.094968
O O4 0.652318 0.992547 0.198393
O O5 0.629675 0.750000 0.506646
O O6 0.677993 0.490131 0.507356
O O7 0.518538 0.534396 0.630283
O O8 0.887886 0.250000 0.030340
O O9 0.894085 0.458659 0.138213
O O10 0.985801 0.488140 0.888214
O O11 0.732844 0.250000 0.521007
O O12 0.841410 0.034696 0.364065
O O13 0.705982 0.003881 0.641059
O O14 0.644266 0.750000 0.773270
O O15 0.535961 0.543289 0.856966
O O16 0.622771 0.511707 0.896430
O O17 0.591465 0.250000 0.218455
O O18 0.591620 0.034557 0.107187
O O19 0.939075 0.250000 0.189857
O O20 0.419581 0.750000 0.990242
#
# Coordination Sequence:
#
# PCOD9158734 Si02
#       8
#     4   4   4   4   4   4   4   4
#     4  11  22  33  49  72 100 134 172 210 247 291
#     4  10  20  34  48  68 100 136 172 208 243 284
#     4  10  19  33  51  71  96 130 167 204 249 295
#     4  11  20  31  50  75 102 132 165 202 247 300
#     4  10  19  32  50  72 100 129 163 205 250 298
#     4  10  20  35  51  68  98 135 173 211 245 288
#     4   9  19  33  49  72  99 127 163 206 249 293
#     4   9  18  33  50  70  96 130 167 207 250 289
#
# _framework density 15.348988
#
# number of rings (size 3 to 8) (size 9 to 14) (size 15 to 20)
#    0.000    2.000    2.500    1.875    0.000    3.500 
#    0.000    0.000    0.000    0.000    0.000    0.875 
#    0.000    0.000    0.000    0.000    0.000    0.000 
#
# Total GULP energy -178608.096948 kJ/mol
# GULP energy per Si atom -5581.503030 kJ/mol
# Density = 1.531405 g / cm^3
# Si number density = 15.348988 Si / 1000 Ang^3
#
#
#
# Elastic Constant Matrix: (Units=GPa)
#
#
# Indices 1 2 3 4 5 6 
#
# 1 95.0539 49.4007 72.2803 0.0000 -9.2431 0.0000
# 2 49.4007 46.5960 63.8467 0.0000 -3.0919 0.0000
# 3 72.2803 63.8467 142.9704 0.0000 -5.9893 0.0000
# 4 0.0000 0.0000 0.0000 22.0290 0.0000 -1.4034
# 5 -9.2431 -3.0919 -5.9893 0.0000 18.2464 0.0000
# 6 0.0000 0.0000 0.0000 -1.4034 0.0000 27.5879
#
#
#
# Elastic Compliance Matrix: (Units=1/GPa)
#
#
# Indices 1 2 3 4 5 6 
#
# 1 0.024742 -0.023242 -0.001794 0.000000 0.008006 0.000000
# 2 -0.023242 0.077160 -0.022969 0.000000 -0.006238 0.000000
# 3 -0.001794 -0.022969 0.018208 0.000000 0.001176 0.000000
# 4 0.000000 0.000000 0.000000 0.045542 0.000000 0.002317
# 5 0.008006 -0.006238 0.001176 0.000000 0.058190 0.000000
# 6 0.000000 0.000000 0.000000 0.002317 0.000000 0.036366
#
#
# Mechanical properties :
#
#
# Convention : Reuss Voigt Hill
#
# Bulk Modulus (GPa) = 41.49235 72.85287 57.17261
# Shear Modulus (GPa) = 13.72678 20.17884 16.95281
#
# Velocity S-wave (km/s) = 2.99375 3.62977 3.32699
# Velocity P-wave (km/s) = 6.24831 8.07058 7.21719
#
# Compressibility (1/GPa) = 0.02410083
#
# Stress axis : x y z
#
# Youngs Moduli (GPa) = 40.41663 12.96005 54.92102
#
# Poissons Ratio (x) = 0.30122 0.09854
# Poissons Ratio (y) = 0.93936 1.26147
# Poissons Ratio (z) = 0.07251 0.29768
#
# Static dielectric constant tensor:
#      x y z
#    x 1.478020 0.000000 0.005480 
#    y 0.000000 1.507770 0.000000 
#    z 0.005480 0.000000 1.504950 
# 
# From -- ./inp_files/51193.got.cif
#   From: 2010.05.17/outbox.cif.g08.bks.cpg/sg11_26_cif.got.tgz:51193.got - 2010.06.03 12:22:45.
