data_PCOD9158913
_publ_section_title
;
Structure prediction by ZEFSAII (Michael W. Deem and Ramdas Pophale) SiO2 
 PCOD9158913
Probable space group: P 21/M
;
_chemical_formula_sum "Si O2"
_cell_formula_units_Z 28
_cell_length_a 8.543543
_cell_length_b 11.355475
_cell_length_c 14.974221
_cell_angle_alpha 90.000000
_cell_angle_beta 109.437296
_cell_angle_gamma 90.000000
_cell_volume 1369.941812
_symmetry_space_group_name_H-M "P 21/M"
_symmetry_group_IT_number 11
_symmetry_cell_setting 'monoclinic'
loop_
_space_group_symop_operation_xyz
x,y,z
-x,1/2+y,-z
-x,-y,-z
x,1/2-y,z
loop_
_atom_site_type_symbol
_atom_site_label
_atom_site_fract_x
_atom_site_fract_y
_atom_site_fract_z
Si Si1 0.083202 0.382838 0.654048
Si Si2 0.280426 0.613815 0.422487
Si Si3 0.321722 0.553849 0.942240
Si Si4 0.429911 0.379132 0.374817
Si Si5 0.618497 0.456344 0.243142
Si Si6 0.315456 0.879767 0.134857
Si Si7 0.021550 0.115527 0.853972
O O1 0.141893 0.250000 0.641903
O O2 0.228041 0.478968 0.678235
O O3 0.031700 0.382236 0.748992
O O4 0.905648 0.405224 0.574393
O O5 0.280733 0.750000 0.384985
O O6 0.324953 0.499798 0.369772
O O7 0.421667 0.614627 0.524703
O O8 0.326622 0.600866 0.841136
O O9 0.181294 0.454312 0.915711
O O10 0.500000 0.500000 0.000000
O O11 0.286825 0.628830 0.023380
O O12 0.345387 0.250000 0.370665
O O13 0.517544 0.381611 0.295213
O O14 0.486001 0.555177 0.187762
O O15 0.328982 0.750000 0.177037
O O16 0.151435 0.938048 0.145431
O O17 0.029296 0.250000 0.888292
#
# Coordination Sequence:
#
# PCOD9158913 Si02
#       7
#     4   4   4   4   4   4   4
#     4   9  17  31  53  81 110 139 178 228 276 323
#     4   9  19  37  60  83 108 143 186 228 269 322
#     4   9  19  32  47  70 101 135 170 213 262 315
#     4  10  21  37  56  81 113 146 182 225 275 329
#     4  10  20  33  51  77 109 142 175 219 275 330
#     4  10  19  32  52  75  99 133 181 228 266 314
#     4   9  17  30  50  74 100 131 171 222 271 316
#
# _framework density 20.438824
#
# number of rings (size 3 to 8) (size 9 to 14) (size 15 to 20)
#    0.000    2.571    0.000    1.714    0.000    6.857 
#    0.000    2.857    0.000   12.000    0.000    0.000 
#    0.000    0.000    0.000    0.000    0.000    0.000 
#
# Total GULP energy -155868.220982 kJ/mol
# GULP energy per Si atom -5566.722178 kJ/mol
# Density = 2.039230 g / cm^3
# Si number density = 20.438824 Si / 1000 Ang^3
#
#
#
# Elastic Constant Matrix: (Units=GPa)
#
#
# Indices 1 2 3 4 5 6 
#
# 1 69.7550 30.1074 0.8268 0.0000 15.4683 0.0000
# 2 30.1074 92.4280 23.3554 0.0000 7.5601 0.0000
# 3 0.8268 23.3554 37.2815 0.0000 2.1521 0.0000
# 4 0.0000 0.0000 0.0000 14.0923 0.0000 -6.6943
# 5 15.4683 7.5601 2.1521 0.0000 34.5280 0.0000
# 6 0.0000 0.0000 0.0000 -6.6943 0.0000 1.4035
#
#
#
# Elastic Compliance Matrix: (Units=1/GPa)
#
#
# Indices 1 2 3 4 5 6 
#
# 1 0.018708 -0.006540 0.004098 0.000000 -0.007204 0.000000
# 2 -0.006540 0.015328 -0.009467 0.000000 0.000164 0.000000
# 3 0.004098 -0.009467 0.032767 0.000000 -0.001805 0.000000
# 4 0.000000 0.000000 0.000000 -0.056062 0.000000 -0.267398
# 5 -0.007204 0.000164 -0.001805 0.000000 0.032266 0.000000
# 6 0.000000 0.000000 0.000000 -0.267398 0.000000 -0.562906
#
#
# Mechanical properties :
#
#
# Convention : Reuss Voigt Hill
#
# Bulk Modulus (GPa) = 23.26389 34.22706 28.74547
# Shear Modulus (GPa) = -10.37878 19.68308 4.65215
#
# Velocity S-wave (km/s) = -2.25588 3.10663 1.51032
# Velocity P-wave (km/s) = 2.14979 5.44524 4.13958
#
# Compressibility (1/GPa) = 0.04298508
#
# Stress axis : x y z
#
# Youngs Moduli (GPa) = 53.45392 65.23837 30.51848
#
# Poissons Ratio (x) = 0.42666 -0.12507
# Poissons Ratio (y) = 0.34959 0.28892
# Poissons Ratio (z) = -0.21906 0.61761
#
# Static dielectric constant tensor:
#      x y z
#    x 1.740060 0.000000 -0.023510 
#    y 0.000000 7.814130 0.000000 
#    z -0.023510 0.000000 1.764980 
# 
# From -- ./inp_files/47021.got.cif
#   From: 2010.05.17/outbox.cif.g08.bks.cpg/sg11_24_cif.got.tgz:47021.got - 2010.06.03 12:22:45.
