data_PCOD9158772
_publ_section_title
;
Structure prediction by ZEFSAII (Michael W. Deem and Ramdas Pophale) SiO2 
 PCOD9158772
Probable space group: P 21/M
;
_chemical_formula_sum "Si O2"
_cell_formula_units_Z 28
_cell_length_a 23.799197
_cell_length_b 13.731133
_cell_length_c 5.157020
_cell_angle_alpha 90.000000
_cell_angle_beta 93.934574
_cell_angle_gamma 90.000000
_cell_volume 1681.290182
_symmetry_space_group_name_H-M "P 21/M"
_symmetry_group_IT_number 11
_symmetry_cell_setting 'monoclinic'
loop_
_space_group_symop_operation_xyz
x,y,z
-x,1/2+y,-z
-x,-y,-z
x,1/2-y,z
loop_
_atom_site_type_symbol
_atom_site_label
_atom_site_fract_x
_atom_site_fract_y
_atom_site_fract_z
Si Si1 0.114502 0.446862 0.996202
Si Si2 0.496634 0.364933 0.265177
Si Si3 0.955091 0.750000 0.059625
Si Si4 0.433763 0.055742 0.750085
Si Si5 0.236220 0.364636 0.104451
Si Si6 0.935830 0.461348 0.518489
Si Si7 0.687684 0.864499 0.380707
Si Si8 0.029306 0.750000 0.584666
O O1 0.081762 0.344842 0.001535
O O2 0.103275 0.486560 0.705376
O O3 0.179585 0.427020 0.075385
O O4 0.085528 0.515205 0.201210
O O5 0.510178 0.250000 0.255000
O O6 0.547622 0.442213 0.243180
O O7 0.468625 0.391359 0.531842
O O8 0.452608 0.394595 0.025420
O O9 0.978064 0.750000 0.360160
O O10 0.005551 0.750000 0.868184
O O11 0.368332 0.073368 0.677508
O O12 0.220885 0.250000 0.133130
O O13 0.277279 0.391248 0.353082
O O14 0.271021 0.373330 0.850659
O O15 0.936909 0.347492 0.460851
O O16 0.000000 0.500000 0.500000
O O17 0.671038 0.750000 0.398490
#
# Coordination Sequence:
#
# PCOD9158772 Si02
#       8
#     4   4   2   4   4   4   4   2
#     4  12  22  37  55  80 108 138 170 210 264 310
#     4  10  19  32  51  78 110 143 178 212 256 310
#     4  12  20  34  58  76 112 136 164 214 249 314
#     4  10  20  32  51  79 110 143 174 213 262 309
#     4  10  21  34  52  78 104 135 173 211 258 312
#     4  12  23  37  55  81 106 138 169 207 263 317
#     4  10  19  32  50  75 107 139 171 212 260 306
#     4  12  24  36  54  82 106 134 172 208 249 324
#
# _framework density 16.653877999999999
#
# number of rings (size 3 to 8) (size 9 to 14) (size 15 to 20)
#    0.000    1.143    3.571    4.286    0.000    1.143 
#    0.000    0.000    0.000    0.000   11.143    0.000 
#    0.000    0.000    0.000    0.000    0.000    0.000 
#
# Total GULP energy -156420.072373 kJ/mol
# GULP energy per Si atom -5586.431156 kJ/mol
# Density = 1.661597 g / cm^3
# Si number density = 16.653878 Si / 1000 Ang^3
#
#
#
# Elastic Constant Matrix: (Units=GPa)
#
#
# Indices 1 2 3 4 5 6 
#
# 1 5.0469 15.6212 -74.2270 0.0000 1.2784 0.0000
# 2 15.6212 102.6390 -4.9403 0.0000 6.3184 0.0000
# 3 -74.2270 -4.9403 -7.8096 0.0000 -3.2169 0.0000
# 4 0.0000 0.0000 0.0000 2.4829 0.0000 -0.2628
# 5 1.2784 6.3184 -3.2169 0.0000 15.0122 0.0000
# 6 0.0000 0.0000 0.0000 -0.2628 0.0000 11.7278
#
#
#
# Elastic Compliance Matrix: (Units=1/GPa)
#
#
# Indices 1 2 3 4 5 6 
#
# 1 0.001594 -0.000727 -0.013564 0.000000 -0.002736 0.000000
# 2 -0.000727 0.010184 0.002029 0.000000 -0.003790 0.000000
# 3 -0.013564 0.002029 -0.000492 0.000000 0.000196 0.000000
# 4 0.000000 0.000000 0.000000 0.403711 0.000000 0.009047
# 5 -0.002736 -0.003790 0.000196 0.000000 0.068482 0.000000
# 6 0.000000 0.000000 0.000000 0.009047 0.000000 0.085470
#
#
# Mechanical properties :
#
#
# Convention : Reuss Voigt Hill
#
# Bulk Modulus (GPa) = -75.53971 -3.02398 -39.28185
# Shear Modulus (GPa) = 8.48807 16.73941 12.61374
#
# Velocity S-wave (km/s) = 2.26005 3.17383 2.75509
# Velocity P-wave (km/s) = 6.21664 3.40752 3.67665
#
# Compressibility (1/GPa) = -0.01323807
#
# Stress axis : x y z
#
# Youngs Moduli (GPa) = 627.32456 98.18864 -2032.74598
#
# Poissons Ratio (x) = 0.07139 -27.57204
# Poissons Ratio (y) = 0.45609 4.12370
# Poissons Ratio (z) = 8.50899 -0.19919
#
# Static dielectric constant tensor:
#      x y z
#    x 1.534600 0.000000 0.002600 
#    y 0.000000 1.554440 0.000000 
#    z 0.002600 0.000000 1.559550 
# 
# From -- ./inp_files/8645.got.cif
#   From: 2010.05.17/outbox.cif.g08.bks.cpg/sg11_5_cif.got.tgz:8645.got - 2010.06.03 12:22:45.
