data_PCOD9158994
_publ_section_title
;
Structure prediction by ZEFSAII (Michael W. Deem and Ramdas Pophale) SiO2 
 PCOD9158994
Probable space group: P 21/M
;
_chemical_formula_sum "Si O2"
_cell_formula_units_Z 32
_cell_length_a 14.365545
_cell_length_b 8.779006
_cell_length_c 13.129963
_cell_angle_alpha 90.000000
_cell_angle_beta 85.893433
_cell_angle_gamma 90.000000
_cell_volume 1651.636628
_symmetry_space_group_name_H-M "P 21/M"
_symmetry_group_IT_number 11
_symmetry_cell_setting 'monoclinic'
loop_
_space_group_symop_operation_xyz
x,y,z
-x,1/2+y,-z
-x,-y,-z
x,1/2-y,z
loop_
_atom_site_type_symbol
_atom_site_label
_atom_site_fract_x
_atom_site_fract_y
_atom_site_fract_z
Si Si1 0.817166 0.930603 0.527744
Si Si2 0.539630 0.928802 0.395156
Si Si3 0.759348 0.425986 0.860607
Si Si4 0.134259 0.932720 0.695287
Si Si5 0.313420 0.434153 0.771990
Si Si6 0.656830 0.076560 0.652822
Si Si7 0.400394 0.565367 0.969782
Si Si8 0.079310 0.432742 0.271791
O O1 0.828332 0.750000 0.512326
O O2 0.879406 0.982013 0.620612
O O3 0.843683 0.014048 0.421824
O O4 0.711608 0.967468 0.571641
O O5 0.552674 0.750000 0.411706
O O6 0.632325 0.986788 0.334739
O O7 0.452446 0.951936 0.326107
O O8 0.500000 0.000000 0.500000
O O9 0.780419 0.250000 0.883067
O O10 0.703870 0.432472 0.758439
O O11 0.855192 0.509746 0.824830
O O12 0.685903 0.483133 0.949884
O O13 0.141144 0.750000 0.700476
O O14 0.028054 0.979447 0.728151
O O15 0.208577 0.007453 0.765936
O O16 0.316261 0.250000 0.777172
O O17 0.369334 0.503838 0.862176
O O18 0.667505 0.250000 0.612838
O O19 0.405648 0.750000 0.970520
O O20 0.500000 0.500000 0.000000
O O21 0.083882 0.250000 0.272563
#
# Coordination Sequence:
#
# PCOD9158994 Si02
#       8
#     4   4   4   4   4   4   4   4
#     4  10  19  32  52  82 115 149 189 233 279 334
#     4  10  21  35  52  75 108 146 184 223 270 328
#     4   9  19  36  59  84 110 140 183 233 281 332
#     4  11  22  37  55  79 113 153 193 236 285 340
#     4  11  24  41  59  84 115 149 191 238 284 338
#     4   9  17  32  52  75 105 142 178 222 277 331
#     4  11  23  41  65  92 118 148 185 230 282 339
#     4   9  20  36  56  83 115 149 191 239 285 334
#
# _framework density 19.374721000000001
#
# number of rings (size 3 to 8) (size 9 to 14) (size 15 to 20)
#    0.000    2.000    0.000    3.375    0.000    8.000 
#    0.000    3.125    0.000    0.000    0.000    0.000 
#    0.000    0.000    0.000    0.000    0.000    0.000 
#
# Total GULP energy -178557.693915 kJ/mol
# GULP energy per Si atom -5579.927935 kJ/mol
# Density = 1.933062 g / cm^3
# Si number density = 19.374721 Si / 1000 Ang^3
#
#
#
# Elastic Constant Matrix: (Units=GPa)
#
#
# Indices 1 2 3 4 5 6 
#
# 1 120.1393 38.3840 52.7120 0.0000 -4.5144 0.0000
# 2 38.3840 42.0474 28.3524 0.0000 0.1079 0.0000
# 3 52.7120 28.3524 85.2570 0.0000 -9.6789 0.0000
# 4 0.0000 0.0000 0.0000 27.7911 0.0000 -1.5315
# 5 -4.5144 0.1079 -9.6789 0.0000 29.3919 0.0000
# 6 0.0000 0.0000 0.0000 -1.5315 0.0000 31.5419
#
#
#
# Elastic Compliance Matrix: (Units=1/GPa)
#
#
# Indices 1 2 3 4 5 6 
#
# 1 0.013477 -0.008649 -0.005420 0.000000 0.000317 0.000000
# 2 -0.008649 0.036579 -0.007255 0.000000 -0.003852 0.000000
# 3 -0.005420 -0.007255 0.018077 0.000000 0.005147 0.000000
# 4 0.000000 0.000000 0.000000 0.036079 0.000000 0.001752
# 5 0.000317 -0.003852 0.005147 0.000000 0.035781 0.000000
# 6 0.000000 0.000000 0.000000 0.001752 0.000000 0.031789
#
#
# Mechanical properties :
#
#
# Convention : Reuss Voigt Hill
#
# Bulk Modulus (GPa) = 39.23642 54.03784 46.63713
# Shear Modulus (GPa) = 22.42901 26.27799 24.35350
#
# Velocity S-wave (km/s) = 3.40611 3.68680 3.54923
# Velocity P-wave (km/s) = 5.98031 6.78784 6.39683
#
# Compressibility (1/GPa) = 0.02548653
#
# Stress axis : x y z
#
# Youngs Moduli (GPa) = 74.20034 27.33773 55.31794
#
# Poissons Ratio (x) = 0.23644 0.29984
# Poissons Ratio (y) = 0.64174 0.40131
# Poissons Ratio (z) = 0.40219 0.19832
#
# Static dielectric constant tensor:
#      x y z
#    x 1.709050 0.000000 0.010310 
#    y 0.000000 1.684740 0.000000 
#    z 0.010310 0.000000 1.693000 
# 
# From -- ./inp_files/38217.got.cif
#   From: 2010.05.17/outbox.cif.g08.bks.cpg/sg11_20_cif.got.tgz:38217.got - 2010.06.03 12:22:45.
