data_PCOD9158781
_publ_section_title
;
Structure prediction by ZEFSAII (Michael W. Deem and Ramdas Pophale) SiO2 
 PCOD9158781
Probable space group: P 21/M
;
_chemical_formula_sum "Si O2"
_cell_formula_units_Z 28
_cell_length_a 22.294259
_cell_length_b 13.472365
_cell_length_c 4.998966
_cell_angle_alpha 90.000000
_cell_angle_beta 98.968614
_cell_angle_gamma 90.000000
_cell_volume 1483.114243
_symmetry_space_group_name_H-M "P 21/M"
_symmetry_group_IT_number 11
_symmetry_cell_setting 'monoclinic'
loop_
_space_group_symop_operation_xyz
x,y,z
-x,1/2+y,-z
-x,-y,-z
x,1/2-y,z
loop_
_atom_site_type_symbol
_atom_site_label
_atom_site_fract_x
_atom_site_fract_y
_atom_site_fract_z
Si Si1 0.887854 0.131648 0.820985
Si Si2 0.346490 0.250000 0.576321
Si Si3 0.065902 0.977461 0.661066
Si Si4 0.567289 0.533990 0.983241
Si Si5 0.780499 0.515195 0.797777
Si Si6 0.172025 0.370133 0.684813
Si Si7 0.347729 0.027361 0.461849
Si Si8 0.586655 0.750000 0.881236
O O1 0.887775 0.250000 0.843242
O O2 0.902027 0.095659 0.530729
O O3 0.824738 0.079021 0.859509
O O4 0.935070 0.079288 0.057087
O O5 0.324034 0.142678 0.468897
O O6 0.350467 0.250000 0.900508
O O7 0.407917 0.250000 0.433892
O O8 0.107148 0.077442 0.707958
O O9 0.000000 0.000000 0.500000
O O10 0.617214 0.505882 0.240290
O O11 0.557778 0.651817 0.968604
O O12 0.500000 0.500000 0.000000
O O13 0.600704 0.512783 0.726717
O O14 0.809387 0.586819 0.591084
O O15 0.714558 0.476329 0.663634
O O16 0.781668 0.580284 0.069386
O O17 0.171606 0.250000 0.693055
#
# Coordination Sequence:
#
# PCOD9158781 Si02
#       8
#     4   2   4   4   4   4   4   2
#     4  10  21  38  60  81 109 153 193 229 272 316
#     4   8  16  26  44  70  94 122 158 198 242 306
#     4  10  21  38  57  85 115 144 188 234 270 326
#     4  10  19  33  53  72 102 134 167 212 265 321
#     4  10  21  36  53  78 113 142 184 231 266 331
#     4  10  21  34  52  81 114 146 174 223 286 327
#     4  10  19  32  50  77 101 133 173 213 266 318
#     4   8  16  30  44  68  94 120 158 198 236 300
#
# _framework density 18.879192
#
# number of rings (size 3 to 8) (size 9 to 14) (size 15 to 20)
#    0.000    2.286    0.000    2.571    2.000    1.143 
#    2.571    0.000    3.143    0.000    0.000    0.000 
#    0.000    0.000    0.000    0.000    0.000    0.000 
#
# Total GULP energy -155877.971421 kJ/mol
# GULP energy per Si atom -5567.070408 kJ/mol
# Density = 1.883622 g / cm^3
# Si number density = 18.879192 Si / 1000 Ang^3
#
#
#
# Elastic Constant Matrix: (Units=GPa)
#
#
# Indices 1 2 3 4 5 6 
#
# 1 33.0332 11.8331 -25.8539 0.0000 14.3574 0.0000
# 2 11.8331 78.1332 5.9165 0.0000 2.8762 0.0000
# 3 -25.8539 5.9165 62.3786 0.0000 -13.6148 0.0000
# 4 0.0000 0.0000 0.0000 15.4889 0.0000 -2.1213
# 5 14.3574 2.8762 -13.6148 0.0000 27.0574 0.0000
# 6 0.0000 0.0000 0.0000 -2.1213 0.0000 11.7883
#
#
#
# Elastic Compliance Matrix: (Units=1/GPa)
#
#
# Indices 1 2 3 4 5 6 
#
# 1 0.058684 -0.009757 0.020982 0.000000 -0.019544 0.000000
# 2 -0.009757 0.014634 -0.005214 0.000000 0.000998 0.000000
# 3 0.020982 -0.005214 0.025740 0.000000 0.002372 0.000000
# 4 0.000000 0.000000 0.000000 0.066194 0.000000 0.011912
# 5 -0.019544 0.000998 0.002372 0.000000 0.048417 0.000000
# 6 0.000000 0.000000 0.000000 0.011912 0.000000 0.086973
#
#
# Mechanical properties :
#
#
# Convention : Reuss Voigt Hill
#
# Bulk Modulus (GPa) = 9.00241 17.48182 13.24211
# Shear Modulus (GPa) = 15.35401 22.97687 19.16544
#
# Velocity S-wave (km/s) = 2.85489 3.49240 3.18962
# Velocity P-wave (km/s) = 3.95550 5.05395 4.53809
#
# Compressibility (1/GPa) = 0.11108142
#
# Stress axis : x y z
#
# Youngs Moduli (GPa) = 17.04028 68.33197 38.84998
#
# Poissons Ratio (x) = 0.66672 -0.81517
# Poissons Ratio (y) = 0.16626 0.20257
# Poissons Ratio (z) = -0.35755 0.35630
#
# Static dielectric constant tensor:
#      x y z
#    x 1.679150 0.000000 0.028680 
#    y 0.000000 0.813020 0.000000 
#    z 0.028680 0.000000 1.720840 
# 
# From -- ./inp_files/8866.got.cif
#   From: 2010.05.17/outbox.cif.g08.bks.cpg/sg11_5_cif.got.tgz:8866.got - 2010.06.03 12:22:45.
