data_PCOD9158927
_publ_section_title
;
Structure prediction by ZEFSAII (Michael W. Deem and Ramdas Pophale) SiO2 
 PCOD9158927
Probable space group: P 21/M
;
_chemical_formula_sum "Si O2"
_cell_formula_units_Z 28
_cell_length_a 14.728931
_cell_length_b 8.897770
_cell_length_c 19.655812
_cell_angle_alpha 90.000000
_cell_angle_beta 41.119916
_cell_angle_gamma 90.000000
_cell_volume 1694.063665
_symmetry_space_group_name_H-M "P 21/M"
_symmetry_group_IT_number 11
_symmetry_cell_setting 'monoclinic'
loop_
_space_group_symop_operation_xyz
x,y,z
-x,1/2+y,-z
-x,-y,-z
x,1/2-y,z
loop_
_atom_site_type_symbol
_atom_site_label
_atom_site_fract_x
_atom_site_fract_y
_atom_site_fract_z
Si Si1 0.719401 0.570794 0.377084
Si Si2 0.473064 0.569745 0.619884
Si Si3 0.501370 0.071373 0.889045
Si Si4 0.286149 0.069841 0.127695
Si Si5 0.033188 0.930315 0.685047
Si Si6 0.582008 0.569769 0.705736
Si Si7 0.116301 0.569316 0.483123
O O1 0.725392 0.750000 0.370506
O O2 0.607045 0.528048 0.498804
O O3 0.657644 0.505992 0.342174
O O4 0.864562 0.505199 0.318949
O O5 0.457979 0.750000 0.624598
O O6 0.504333 0.527535 0.679738
O O7 0.510272 0.250000 0.873980
O O8 0.632630 0.014017 0.858273
O O9 0.502518 0.988034 0.816764
O O10 0.368954 0.038794 0.011326
O O11 0.294341 0.250000 0.135616
O O12 0.126370 0.026646 0.215260
O O13 0.043040 0.750000 0.686121
O O14 0.080490 0.969440 0.581677
O O15 0.596488 0.750000 0.699097
O O16 0.733929 0.496578 0.619165
O O17 0.116878 0.750000 0.476277
O O18 0.000000 0.500000 0.500000
#
# Coordination Sequence:
#
# PCOD9158927 Si02
#       7
#     4   4   4   4   4   4   4
#     4  10  19  32  52  77 103 132 169 213 256 307
#     4   9  19  34  51  73 102 137 171 208 257 310
#     4  10  20  34  54  79 104 135 178 222 260 303
#     4   9  19  36  55  76 104 139 177 216 260 309
#     4  10  20  34  52  74 103 138 170 207 257 311
#     4  11  21  35  53  74 105 140 174 212 258 310
#     4  11  22  33  49  75 107 140 172 208 255 311
#
# _framework density 16.528303999999999
#
# number of rings (size 3 to 8) (size 9 to 14) (size 15 to 20)
#    0.000    2.000    1.429    2.571    0.000    4.571 
#    0.000    0.000    0.000    0.857    0.000    0.000 
#    0.000    0.000    0.000    0.000    0.000    0.000 
#
# Total GULP energy -156320.397615 kJ/mol
# GULP energy per Si atom -5582.871343 kJ/mol
# Density = 1.649069 g / cm^3
# Si number density = 16.528304 Si / 1000 Ang^3
#
#
#
# Elastic Constant Matrix: (Units=GPa)
#
#
# Indices 1 2 3 4 5 6 
#
# 1 97.2788 33.2746 33.7875 0.0000 17.5694 0.0000
# 2 33.2746 33.1231 24.5479 0.0000 9.4702 0.0000
# 3 33.7875 24.5479 55.5727 0.0000 11.5274 0.0000
# 4 0.0000 0.0000 0.0000 21.9206 0.0000 0.9154
# 5 17.5694 9.4702 11.5274 0.0000 25.7408 0.0000
# 6 0.0000 0.0000 0.0000 0.9154 0.0000 31.7210
#
#
#
# Elastic Compliance Matrix: (Units=1/GPa)
#
#
# Indices 1 2 3 4 5 6 
#
# 1 0.016814 -0.012827 -0.003479 0.000000 -0.005200 0.000000
# 2 -0.012827 0.056386 -0.016119 0.000000 -0.004771 0.000000
# 3 -0.003479 -0.016119 0.028119 0.000000 -0.004288 0.000000
# 4 0.000000 0.000000 0.000000 0.045674 0.000000 -0.001318
# 5 -0.005200 -0.004771 -0.004288 0.000000 0.046074 0.000000
# 6 0.000000 0.000000 0.000000 -0.001318 0.000000 0.031563
#
#
# Mechanical properties :
#
#
# Convention : Reuss Voigt Hill
#
# Bulk Modulus (GPa) = 27.41902 41.02163 34.22033
# Shear Modulus (GPa) = 16.57632 22.16744 19.37188
#
# Velocity S-wave (km/s) = 3.17030 3.66619 3.42723
# Velocity P-wave (km/s) = 5.47962 6.54172 6.03409
#
# Compressibility (1/GPa) = 0.03647103
#
# Stress axis : x y z
#
# Youngs Moduli (GPa) = 59.47257 17.73498 35.56328
#
# Poissons Ratio (x) = 0.22748 0.12371
# Poissons Ratio (y) = 0.76284 0.57324
# Poissons Ratio (z) = 0.20688 0.28587
#
# Static dielectric constant tensor:
#      x y z
#    x 1.531460 0.000000 0.007970 
#    y 0.000000 1.549590 0.000000 
#    z 0.007970 0.000000 1.547430 
# 
# From -- ./inp_files/37147.got.cif
#   From: 2010.05.17/outbox.cif.g08.bks.cpg/sg11_19_cif.got.tgz:37147.got - 2010.06.03 12:22:45.
