data_PCOD9158771
_publ_section_title
;
Structure prediction by ZEFSAII (Michael W. Deem and Ramdas Pophale) SiO2 
 PCOD9158771
Probable space group: P 21/M
;
_chemical_formula_sum "Si O2"
_cell_formula_units_Z 32
_cell_length_a 23.770120
_cell_length_b 8.971426
_cell_length_c 16.061254
_cell_angle_alpha 90.000000
_cell_angle_beta 148.403147
_cell_angle_gamma 90.000000
_cell_volume 1794.539958
_symmetry_space_group_name_H-M "P 21/M"
_symmetry_group_IT_number 11
_symmetry_cell_setting 'monoclinic'
loop_
_space_group_symop_operation_xyz
x,y,z
-x,1/2+y,-z
-x,-y,-z
x,1/2-y,z
loop_
_atom_site_type_symbol
_atom_site_label
_atom_site_fract_x
_atom_site_fract_y
_atom_site_fract_z
Si Si1 0.098438 0.426567 0.673134
Si Si2 0.808875 0.582788 0.375477
Si Si3 0.135535 0.430552 0.908902
Si Si4 0.425775 0.082669 0.841541
Si Si5 0.691199 0.569730 0.466704
Si Si6 0.355866 0.573412 0.247257
Si Si7 0.425585 0.573339 0.526541
Si Si8 0.897789 0.426773 0.642707
O O1 0.078057 0.250000 0.655172
O O2 0.192329 0.450368 0.723858
O O3 0.122826 0.480641 0.796368
O O4 0.000000 0.500000 0.500000
O O5 0.856596 0.750000 0.445963
O O6 0.690220 0.588390 0.261408
O O7 0.872404 0.469512 0.514462
O O8 0.146251 0.250000 0.923683
O O9 0.022908 0.467362 0.812967
O O10 0.241432 0.503637 0.079966
O O11 0.467778 0.250000 0.882745
O O12 0.396305 0.019177 0.713550
O O13 0.500000 0.000000 0.000000
O O14 0.694115 0.750000 0.469313
O O15 0.650536 0.506973 0.502737
O O16 0.807960 0.509808 0.584702
O O17 0.356866 0.750000 0.231546
O O18 0.379602 0.551627 0.375378
O O19 0.454629 0.495460 0.323478
O O20 0.430278 0.750000 0.549204
O O21 0.885785 0.250000 0.638790
#
# Coordination Sequence:
#
# PCOD9158771 Si02
#       8
#     4   4   4   4   4   4   4   4
#     4  10  19  32  50  75 106 143 185 228 272 321
#     4   9  18  32  49  69 101 142 182 224 273 322
#     4  10  21  35  53  82 118 151 189 234 281 334
#     4   9  19  33  48  73 106 140 179 223 268 318
#     4  10  21  37  58  83 110 144 188 230 276 333
#     4  10  22  39  61  88 114 144 181 226 281 339
#     4  10  21  40  64  87 112 142 182 229 282 338
#     4  10  19  33  53  79 111 146 187 228 272 327
#
# _framework density 17.831868
#
# number of rings (size 3 to 8) (size 9 to 14) (size 15 to 20)
#    0.000    2.250    1.250    2.250    0.000    6.500 
#    0.000    1.875    0.000    0.000    0.000    0.000 
#    0.000    0.000    0.000    0.000    0.000    0.000 
#
# Total GULP energy -178324.086702 kJ/mol
# GULP energy per Si atom -5572.627709 kJ/mol
# Density = 1.779128 g / cm^3
# Si number density = 17.831868 Si / 1000 Ang^3
#
#
#
# Elastic Constant Matrix: (Units=GPa)
#
#
# Indices 1 2 3 4 5 6 
#
# 1 108.5321 48.5139 37.5449 0.0000 3.8043 0.0000
# 2 48.5139 60.0161 49.5757 0.0000 5.3495 0.0000
# 3 37.5449 49.5757 106.2533 0.0000 16.3909 0.0000
# 4 0.0000 0.0000 0.0000 32.0225 0.0000 0.2609
# 5 3.8043 5.3495 16.3909 0.0000 14.9298 0.0000
# 6 0.0000 0.0000 0.0000 0.2609 0.0000 26.6794
#
#
#
# Elastic Compliance Matrix: (Units=1/GPa)
#
#
# Indices 1 2 3 4 5 6 
#
# 1 0.014447 -0.012136 0.000547 0.000000 0.000066 0.000000
# 2 -0.012136 0.037623 -0.014041 0.000000 0.005027 0.000000
# 3 0.000547 -0.014041 0.018076 0.000000 -0.014954 0.000000
# 4 0.000000 0.000000 0.000000 0.031231 0.000000 -0.000305
# 5 0.000066 0.005027 -0.014954 0.000000 0.081579 0.000000
# 6 0.000000 0.000000 0.000000 -0.000305 0.000000 0.037485
#
#
# Mechanical properties :
#
#
# Convention : Reuss Voigt Hill
#
# Bulk Modulus (GPa) = 52.94930 60.67449 56.81190
# Shear Modulus (GPa) = 17.98578 24.00415 20.99496
#
# Velocity S-wave (km/s) = 3.17934 3.67296 3.43503
# Velocity P-wave (km/s) = 6.57539 7.21715 6.90373
#
# Compressibility (1/GPa) = 0.01888599
#
# Stress axis : x y z
#
# Youngs Moduli (GPa) = 69.21781 26.57933 55.32128
#
# Poissons Ratio (x) = 0.32258 -0.03029
# Poissons Ratio (y) = 0.84006 0.77678
# Poissons Ratio (z) = -0.03789 0.37321
#
# Static dielectric constant tensor:
#      x y z
#    x 1.638760 0.000000 0.001250 
#    y 0.000000 1.629830 0.000000 
#    z 0.001250 0.000000 1.601900 
# 
# From -- ./inp_files/55724.got.cif
#   From: 2010.05.17/outbox.cif.g08.bks.cpg/sg11_28_cif.got.tgz:55724.got - 2010.06.03 12:22:45.
