data_PCOD9158881
_publ_section_title
;
Structure prediction by ZEFSAII (Michael W. Deem and Ramdas Pophale) SiO2 
 PCOD9158881
Probable space group: P 21/M
;
_chemical_formula_sum "Si O2"
_cell_formula_units_Z 24
_cell_length_a 22.775765
_cell_length_b 8.508240
_cell_length_c 9.884262
_cell_angle_alpha 90.000000
_cell_angle_beta 136.591797
_cell_angle_gamma 90.000000
_cell_volume 1316.238985
_symmetry_space_group_name_H-M "P 21/M"
_symmetry_group_IT_number 11
_symmetry_cell_setting 'monoclinic'
loop_
_space_group_symop_operation_xyz
x,y,z
-x,1/2+y,-z
-x,-y,-z
x,1/2-y,z
loop_
_atom_site_type_symbol
_atom_site_label
_atom_site_fract_x
_atom_site_fract_y
_atom_site_fract_z
Si Si1 0.469408 0.940316 0.302855
Si Si2 0.213781 0.437872 0.116267
Si Si3 0.904670 0.436786 0.856682
Si Si4 0.760980 0.561526 0.414320
Si Si5 0.726010 0.437936 0.063317
Si Si6 0.633585 0.559483 0.426478
O O1 0.470282 0.750000 0.306330
O O2 0.539283 0.994673 0.309268
O O3 0.500000 0.000000 0.500000
O O4 0.373012 0.992123 0.112194
O O5 0.206250 0.250000 0.112862
O O6 0.135988 0.514576 0.067389
O O7 0.300230 0.484408 0.342874
O O8 0.223819 0.490306 0.979336
O O9 0.903327 0.250000 0.840471
O O10 0.842018 0.511767 0.639667
O O11 0.000000 0.500000 0.000000
O O12 0.758765 0.750000 0.401422
O O13 0.761778 0.489324 0.267557
O O14 0.677382 0.506998 0.360256
O O15 0.727605 0.250000 0.054554
O O16 0.631856 0.750000 0.419588
#
# Coordination Sequence:
#
# PCOD9158881 Si02
#       6
#     4   4   4   4   4   4
#     4  10  19  32  51  78 111 149 197 243 281 328
#     4  10  19  35  59  83 112 151 192 230 280 338
#     4  11  22  40  65  91 116 142 181 227 277 339
#     4  10  21  38  58  81 113 153 192 232 286 340
#     4  11  22  34  52  83 119 153 192 241 289 331
#     4   8  16  32  53  76 106 146 194 237 276 327
#
# _framework density 18.233771999999998
#
# number of rings (size 3 to 8) (size 9 to 14) (size 15 to 20)
#    0.000    2.000    1.667    4.000    0.000    1.333 
#    0.000    1.667    0.000    0.000    0.000    0.000 
#    0.000    0.000    0.000    0.000    0.000    0.000 
#
# Total GULP energy -133989.194392 kJ/mol
# GULP energy per Si atom -5582.883100 kJ/mol
# Density = 1.819227 g / cm^3
# Si number density = 18.233772 Si / 1000 Ang^3
#
#
#
# Elastic Constant Matrix: (Units=GPa)
#
#
# Indices 1 2 3 4 5 6 
#
# 1 120.9959 0.7776 40.1443 0.0000 2.2590 0.0000
# 2 0.7776 28.5758 -9.8604 0.0000 2.9293 0.0000
# 3 40.1443 -9.8604 47.8301 0.0000 -8.0081 0.0000
# 4 0.0000 0.0000 0.0000 25.9590 0.0000 -4.3617
# 5 2.2590 2.9293 -8.0081 0.0000 35.4235 0.0000
# 6 0.0000 0.0000 0.0000 -4.3617 0.0000 24.9574
#
#
#
# Elastic Compliance Matrix: (Units=1/GPa)
#
#
# Indices 1 2 3 4 5 6 
#
# 1 0.012185 -0.004009 -0.011566 0.000000 -0.003060 0.000000
# 2 -0.004009 0.039062 0.011349 0.000000 -0.000409 0.000000
# 3 -0.011566 0.011349 0.034216 0.000000 0.007534 0.000000
# 4 0.000000 0.000000 0.000000 0.039688 0.000000 0.006936
# 5 -0.003060 -0.000409 0.007534 0.000000 0.030162 0.000000
# 6 0.000000 0.000000 0.000000 0.006936 0.000000 0.041281
#
#
# Mechanical properties :
#
#
# Convention : Reuss Voigt Hill
#
# Bulk Modulus (GPa) = 12.98511 28.83606 20.91059
# Shear Modulus (GPa) = 21.67183 28.35733 25.01458
#
# Velocity S-wave (km/s) = 3.45128 3.94789 3.70791
# Velocity P-wave (km/s) = 4.79778 6.05228 5.46117
#
# Compressibility (1/GPa) = 0.07701126
#
# Stress axis : x y z
#
# Youngs Moduli (GPa) = 82.06851 25.60047 29.22637
#
# Poissons Ratio (x) = 0.10263 0.33802
# Poissons Ratio (y) = 0.32899 -0.33169
# Poissons Ratio (z) = 0.94918 -0.29054
#
# Static dielectric constant tensor:
#      x y z
#    x 1.633090 0.000000 0.006190 
#    y 0.000000 1.619260 0.000000 
#    z 0.006190 0.000000 1.593820 
# 
# From -- ./inp_files/25936.got.cif
#   From: 2010.05.17/outbox.cif.g08.bks.cpg/sg11_13_cif.got.tgz:25936.got - 2010.06.03 12:22:45.
