data_PCOD9158710
_publ_section_title
;
Structure prediction by ZEFSAII (Michael W. Deem and Ramdas Pophale) SiO2 
 PCOD9158710
Probable space group: P 21/M
;
_chemical_formula_sum "Si O2"
_cell_formula_units_Z 32
_cell_length_a 12.601894
_cell_length_b 7.770676
_cell_length_c 19.303942
_cell_angle_alpha 90.000000
_cell_angle_beta 122.837052
_cell_angle_gamma 90.000000
_cell_volume 1588.296706
_symmetry_space_group_name_H-M "P 21/M"
_symmetry_group_IT_number 11
_symmetry_cell_setting 'monoclinic'
loop_
_space_group_symop_operation_xyz
x,y,z
-x,1/2+y,-z
-x,-y,-z
x,1/2-y,z
loop_
_atom_site_type_symbol
_atom_site_label
_atom_site_fract_x
_atom_site_fract_y
_atom_site_fract_z
Si Si1 0.276949 0.542311 0.858139
Si Si2 0.677076 0.049421 0.979129
Si Si3 0.647721 0.047529 0.266924
Si Si4 0.808629 0.055905 0.759814
Si Si5 0.993469 0.041845 0.716009
Si Si6 0.924039 0.955031 0.404488
Si Si7 0.977414 0.053075 0.070309
Si Si8 0.619619 0.450225 0.806774
O O1 0.287649 0.750000 0.863603
O O2 0.334824 0.480091 0.805922
O O3 0.126830 0.504287 0.799886
O O4 0.345027 0.474110 0.951742
O O5 0.635083 0.250000 0.964834
O O6 0.635461 0.973254 0.890258
O O7 0.829160 0.044658 0.030542
O O8 0.621293 0.250000 0.253779
O O9 0.528435 0.960447 0.260344
O O10 0.781048 0.022754 0.351758
O O11 0.764315 0.250000 0.727226
O O12 0.869102 0.975104 0.711906
O O13 0.704010 0.975485 0.774133
O O14 0.934602 0.062199 0.851261
O O15 0.985214 0.250000 0.713848
O O16 0.008563 0.981470 0.642232
O O17 0.915961 0.750000 0.396120
O O18 0.000000 0.000000 0.500000
O O19 0.017703 0.250000 0.096288
O O20 0.000000 0.000000 0.000000
O O21 0.661409 0.250000 0.827703
#
# Coordination Sequence:
#
# PCOD9158710 Si02
#       8
#     4   4   4   4   4   4   4   4
#     4   9  17  31  49  69  99 136 175 221 267 303
#     4   9  17  29  45  67  96 136 180 220 263 302
#     4  10  21  36  53  76 105 136 173 215 255 305
#     4  10  19  32  49  73 103 138 176 216 261 307
#     4   9  18  31  51  80 109 131 163 210 259 307
#     4  10  20  37  62  89 110 131 157 198 255 313
#     4  11  19  29  45  67  97 135 180 230 270 303
#     4  10  20  34  49  67 101 146 183 214 255 304
#
# _framework density 20.147371
#
# number of rings (size 3 to 8) (size 9 to 14) (size 15 to 20)
#    0.000    2.250    2.500    1.125    0.000    2.000 
#    0.000    0.625    0.000    0.750    0.000    0.000 
#    0.000    0.000    0.000    0.000    0.000    0.000 
#
# Total GULP energy -178396.540691 kJ/mol
# GULP energy per Si atom -5574.891897 kJ/mol
# Density = 2.010151 g / cm^3
# Si number density = 20.147371 Si / 1000 Ang^3
#
#
#
# Elastic Constant Matrix: (Units=GPa)
#
#
# Indices 1 2 3 4 5 6 
#
# 1 124.7017 2.4810 64.2397 0.0000 4.4083 0.0000
# 2 2.4810 42.3801 0.9633 0.0000 2.6915 0.0000
# 3 64.2397 0.9633 85.6084 0.0000 -14.8740 0.0000
# 4 0.0000 0.0000 0.0000 16.5191 0.0000 7.1424
# 5 4.4083 2.6915 -14.8740 0.0000 19.8267 0.0000
# 6 0.0000 0.0000 0.0000 7.1424 0.0000 7.4470
#
#
#
# Elastic Compliance Matrix: (Units=1/GPa)
#
#
# Indices 1 2 3 4 5 6 
#
# 1 0.016020 0.000315 -0.014547 0.000000 -0.014518 0.000000
# 2 0.000315 0.023875 -0.001242 0.000000 -0.004243 0.000000
# 3 -0.014547 -0.001242 0.026680 0.000000 0.023418 0.000000
# 4 0.000000 0.000000 0.000000 0.103424 0.000000 -0.099193
# 5 -0.014518 -0.004243 0.023418 0.000000 0.071809 0.000000
# 6 0.000000 0.000000 0.000000 -0.099193 0.000000 0.229417
#
#
# Mechanical properties :
#
#
# Convention : Reuss Voigt Hill
#
# Bulk Modulus (GPa) = 28.06914 43.11758 35.59336
# Shear Modulus (GPa) = 9.72667 21.09231 15.40949
#
# Velocity S-wave (km/s) = 2.19960 3.23910 2.76857
# Velocity P-wave (km/s) = 4.51809 5.95286 5.28440
#
# Compressibility (1/GPa) = 0.03562632
#
# Stress axis : x y z
#
# Youngs Moduli (GPa) = 62.42167 41.88436 37.48125
#
# Poissons Ratio (x) = -0.01319 0.54525
# Poissons Ratio (y) = -0.01965 0.04655
# Poissons Ratio (z) = 0.90806 0.05202
#
# Static dielectric constant tensor:
#      x y z
#    x 1.773200 0.000000 -0.053320 
#    y 0.000000 1.767160 0.000000 
#    z -0.053320 0.000000 1.701820 
# 
# From -- ./inp_files/64350.got.cif
#   From: 2010.05.17/outbox.cif.g08.bks.cpg/sg11_33_cif.got.tgz:64350.got - 2010.06.03 12:22:45.
