data_PCOD9158658
_publ_section_title
;
Structure prediction by ZEFSAII (Michael W. Deem and Ramdas Pophale) SiO2 
 PCOD9158658
Probable space group: P 21/M
;
_chemical_formula_sum "Si O2"
_cell_formula_units_Z 32
_cell_length_a 35.339172
_cell_length_b 8.690462
_cell_length_c 23.566587
_cell_angle_alpha 90.000000
_cell_angle_beta 162.930090
_cell_angle_gamma 90.000000
_cell_volume 2124.519622
_symmetry_space_group_name_H-M "P 21/M"
_symmetry_group_IT_number 11
_symmetry_cell_setting 'monoclinic'
loop_
_space_group_symop_operation_xyz
x,y,z
-x,1/2+y,-z
-x,-y,-z
x,1/2-y,z
loop_
_atom_site_type_symbol
_atom_site_label
_atom_site_fract_x
_atom_site_fract_y
_atom_site_fract_z
Si Si1 0.820423 0.934423 0.276302
Si Si2 0.246553 0.566022 0.267319
Si Si3 0.325507 0.432984 0.093723
Si Si4 0.485655 0.066468 0.542247
Si Si5 0.077065 0.567522 0.695740
Si Si6 0.426408 0.567183 0.118263
Si Si7 0.699180 0.065774 0.521792
Si Si8 0.017406 0.565393 0.088403
O O1 0.822756 0.750000 0.270021
O O2 0.924416 0.968349 0.474682
O O3 0.873129 0.019884 0.295592
O O4 0.674317 0.992353 0.070410
O O5 0.251159 0.750000 0.268358
O O6 0.351726 0.489004 0.378067
O O7 0.282284 0.529078 0.384420
O O8 0.101787 0.506220 0.048623
O O9 0.339758 0.250000 0.112633
O O10 0.401906 0.501843 0.256030
O O11 0.387623 0.501154 0.124891
O O12 0.174808 0.479565 0.876931
O O13 0.490767 0.250000 0.548621
O O14 0.500000 0.000000 0.500000
O O15 0.411184 0.750000 0.097005
O O16 0.093215 0.750000 0.726529
O O17 0.573618 0.519517 0.319393
O O18 0.679822 0.250000 0.490549
O O19 0.834223 0.027370 0.684461
O O20 0.005892 0.750000 0.070750
O O21 0.000000 0.500000 0.000000
#
# Coordination Sequence:
#
# PCOD9158658 Si02
#       8
#     4   4   4   4   4   4   4   4
#     4   9  16  25  37  54  79 108 138 174 211 249
#     4  10  19  32  48  64  84 110 141 179 221 264
#     4  11  20  31  45  60  81 109 141 178 220 259
#     4  12  24  37  51  66  85 110 145 186 226 265
#     4   9  16  26  40  57  76 103 140 175 210 252
#     4  11  19  25  39  60  84 114 147 179 213 253
#     4   9  17  28  42  60  86 115 145 177 214 257
#     4   9  17  28  43  62  84 110 142 179 216 258
#
# _framework density 15.062229
#
# number of rings (size 3 to 8) (size 9 to 14) (size 15 to 20)
#    0.000    2.000    1.250    7.125    0.000    4.000 
#    0.000    0.000    0.000    0.000    0.000    0.000 
#    0.000    0.000    0.000    1.125    0.000   14.750 
#
# Total GULP energy -178324.610370 kJ/mol
# GULP energy per Si atom -5572.644074 kJ/mol
# Density = 1.502795 g / cm^3
# Si number density = 15.062229 Si / 1000 Ang^3
#
#
#
# Elastic Constant Matrix: (Units=GPa)
#
#
# Indices 1 2 3 4 5 6 
#
# 1 37.5173 21.7778 36.4382 0.0000 1.3972 0.0000
# 2 21.7778 80.9331 48.8483 0.0000 3.3638 0.0000
# 3 36.4382 48.8483 144.7357 0.0000 5.5200 0.0000
# 4 0.0000 0.0000 0.0000 28.7005 0.0000 1.6531
# 5 1.3972 3.3638 5.5200 0.0000 9.3387 0.0000
# 6 0.0000 0.0000 0.0000 1.6531 0.0000 14.6175
#
#
#
# Elastic Compliance Matrix: (Units=1/GPa)
#
#
# Indices 1 2 3 4 5 6 
#
# 1 0.037114 -0.005480 -0.007527 0.000000 0.000870 0.000000
# 2 -0.005480 0.016385 -0.004048 0.000000 -0.002690 0.000000
# 3 -0.007527 -0.004048 0.010304 0.000000 -0.003506 0.000000
# 4 0.000000 0.000000 0.000000 0.035071 0.000000 -0.003966
# 5 0.000870 -0.002690 -0.003506 0.000000 0.109993 0.000000
# 6 0.000000 0.000000 0.000000 -0.003966 0.000000 0.068860
#
#
# Mechanical properties :
#
#
# Convention : Reuss Voigt Hill
#
# Bulk Modulus (GPa) = 33.67781 53.03497 43.35639
# Shear Modulus (GPa) = 15.54077 20.93945 18.24011
#
# Velocity S-wave (km/s) = 3.21560 3.73258 3.48369
# Velocity P-wave (km/s) = 6.01618 7.33916 6.71035
#
# Compressibility (1/GPa) = 0.02969314
#
# Stress axis : x y z
#
# Youngs Moduli (GPa) = 26.94431 61.03016 97.04837
#
# Poissons Ratio (x) = 0.33442 0.73053
# Poissons Ratio (y) = 0.14764 0.39285
# Poissons Ratio (z) = 0.20282 0.24705
#
# Static dielectric constant tensor:
#      x y z
#    x 1.450720 0.000000 0.008890 
#    y 0.000000 1.497800 0.000000 
#    z 0.008890 0.000000 1.568050 
# 
# From -- ./inp_files/67445.got.cif
#   From: 2010.05.17/outbox.cif.g08.bks.cpg/sg11_34_cif.got.tgz:67445.got - 2010.06.03 12:22:45.
