data_PCOD9158810
_publ_section_title
;
Structure prediction by ZEFSAII (Michael W. Deem and Ramdas Pophale) SiO2 
 PCOD9158810
Probable space group: P 21/M
;
_chemical_formula_sum "Si O2"
_cell_formula_units_Z 20
_cell_length_a 11.778026
_cell_length_b 8.915641
_cell_length_c 11.778148
_cell_angle_alpha 90.000000
_cell_angle_beta 71.595288
_cell_angle_gamma 90.000000
_cell_volume 1173.544799
_symmetry_space_group_name_H-M "P 21/M"
_symmetry_group_IT_number 11
_symmetry_cell_setting 'monoclinic'
loop_
_space_group_symop_operation_xyz
x,y,z
-x,1/2+y,-z
-x,-y,-z
x,1/2-y,z
loop_
_atom_site_type_symbol
_atom_site_label
_atom_site_fract_x
_atom_site_fract_y
_atom_site_fract_z
Si Si1 0.843909 0.430424 0.452697
Si Si2 0.606831 0.069070 0.393167
Si Si3 0.114828 0.071039 0.317518
Si Si4 0.682482 0.071039 0.885175
Si Si5 0.547307 0.430425 0.156089
O O1 0.840130 0.250000 0.470304
O O2 0.733664 0.474789 0.407977
O O3 0.837562 0.508050 0.577291
O O4 0.973783 0.467215 0.359120
O O5 0.599279 0.250000 0.400719
O O6 0.592019 0.025209 0.266337
O O7 0.500000 0.000000 0.500000
O O8 0.126922 0.250000 0.311953
O O9 0.193474 0.999995 0.193477
O O10 0.688039 0.250000 0.873087
O O11 0.577290 0.008044 0.837569
O O12 0.640887 0.032778 0.026218
O O13 0.529706 0.250000 0.159865
#
# Coordination Sequence:
#
# PCOD9158810 Si02
#       5
#     4   4   4   4   4
#     4   9  19  34  51  72  98 128 162 199 239 286
#     4  10  20  34  51  72  98 126 157 196 243 288
#     4  10  19  32  51  73  98 128 162 200 240 283
#     4  10  19  32  51  73  98 128 162 200 240 283
#     4   9  19  34  51  72  98 128 162 199 239 286
#
# _framework density 17.042383000000001
#
# number of rings (size 3 to 8) (size 9 to 14) (size 15 to 20)
#    0.000    2.400    0.000    2.400    0.000    6.400 
#    0.000    1.000    0.000    0.000    0.000    0.000 
#    0.000    0.000    0.000    0.000    0.000    0.000 
#
# Total GULP energy -111598.962360 kJ/mol
# GULP energy per Si atom -5579.948118 kJ/mol
# Density = 1.700359 g / cm^3
# Si number density = 17.042383 Si / 1000 Ang^3
#
#
#
# Elastic Constant Matrix: (Units=GPa)
#
#
# Indices 1 2 3 4 5 6 
#
# 1 121.2769 34.6316 89.3902 0.0000 8.8941 0.0000
# 2 34.6316 22.7058 37.6221 0.0000 -4.1032 0.0000
# 3 89.3902 37.6221 117.6535 0.0000 -3.8817 0.0000
# 4 0.0000 0.0000 0.0000 30.3114 0.0000 -6.4581
# 5 8.8941 -4.1032 -3.8817 0.0000 30.2639 0.0000
# 6 0.0000 0.0000 0.0000 -6.4581 0.0000 25.6100
#
#
#
# Elastic Compliance Matrix: (Units=1/GPa)
#
#
# Indices 1 2 3 4 5 6 
#
# 1 0.022851 -0.015753 -0.012670 0.000000 -0.010476 0.000000
# 2 -0.015753 0.106981 -0.021701 0.000000 0.016351 0.000000
# 3 -0.012670 -0.021701 0.025198 0.000000 0.004013 0.000000
# 4 0.000000 0.000000 0.000000 0.034864 0.000000 0.008792
# 5 -0.010476 0.016351 0.004013 0.000000 0.038853 0.000000
# 6 0.000000 0.000000 0.000000 0.008792 0.000000 0.041264
#
#
# Mechanical properties :
#
#
# Convention : Reuss Voigt Hill
#
# Bulk Modulus (GPa) = 18.25438 64.99154 41.62296
# Shear Modulus (GPa) = 12.86937 23.90320 18.38628
#
# Velocity S-wave (km/s) = 2.75096 3.74916 3.28816
# Velocity P-wave (km/s) = 4.56342 7.54716 6.23636
#
# Compressibility (1/GPa) = 0.05478137
#
# Stress axis : x y z
#
# Youngs Moduli (GPa) = 43.76192 9.34746 39.68631
#
# Poissons Ratio (x) = 0.14725 0.50282
# Poissons Ratio (y) = 0.68938 0.86124
# Poissons Ratio (z) = 0.55446 0.20285
#
# Static dielectric constant tensor:
#      x y z
#    x 1.560580 0.000000 -0.006840 
#    y 0.000000 1.570470 0.000000 
#    z -0.006840 0.000000 1.565560 
# 
# From -- ./inp_files/33433.got.cif
#   From: 2010.05.17/outbox.cif.g08.bks.cpg/sg11_17_cif.got.tgz:33433.got - 2010.06.03 12:22:45.
