data_PCOD9158811
_publ_section_title
;
Structure prediction by ZEFSAII (Michael W. Deem and Ramdas Pophale) SiO2 
 PCOD9158811
Probable space group: P 21/M
;
_chemical_formula_sum "Si O2"
_cell_formula_units_Z 32
_cell_length_a 29.307038
_cell_length_b 7.523608
_cell_length_c 14.933331
_cell_angle_alpha 90.000000
_cell_angle_beta 28.773527
_cell_angle_gamma 90.000000
_cell_volume 1584.946516
_symmetry_space_group_name_H-M "P 21/M"
_symmetry_group_IT_number 11
_symmetry_cell_setting 'monoclinic'
loop_
_space_group_symop_operation_xyz
x,y,z
-x,1/2+y,-z
-x,-y,-z
x,1/2-y,z
loop_
_atom_site_type_symbol
_atom_site_label
_atom_site_fract_x
_atom_site_fract_y
_atom_site_fract_z
Si Si1 0.919513 0.033698 0.253783
Si Si2 0.719647 0.049836 0.260868
Si Si3 0.394499 0.538863 0.215583
Si Si4 0.135692 0.543248 0.844869
Si Si5 0.434890 0.046453 0.341557
Si Si6 0.356149 0.533624 0.977359
Si Si7 0.391032 0.535873 0.715354
Si Si8 0.237033 0.967124 0.344075
O O1 0.922426 0.250000 0.245480
O O2 0.866763 0.972883 0.252855
O O3 0.861769 0.978629 0.441026
O O4 0.027007 0.968427 0.063843
O O5 0.754316 0.250000 0.180749
O O6 0.796258 0.963535 0.196076
O O7 0.683199 0.966976 0.231133
O O8 0.624922 0.058659 0.483607
O O9 0.382728 0.750000 0.244088
O O10 0.386388 0.462342 0.328652
O O11 0.317972 0.476660 0.275410
O O12 0.500000 0.500000 0.000000
O O13 0.165018 0.750000 0.786101
O O14 0.436660 0.250000 0.370251
O O15 0.543676 0.986506 0.148312
O O16 0.351303 0.750000 0.983915
O O17 0.270410 0.473139 0.188453
O O18 0.365365 0.472469 0.859233
O O19 0.500000 0.500000 0.500000
O O20 0.383016 0.750000 0.729343
O O21 0.236878 0.750000 0.342921
#
# Coordination Sequence:
#
# PCOD9158811 Si02
#       8
#     4   4   4   4   4   4   4   4
#     4   9  17  31  53  74  92 124 166 203 244 298
#     4  10  20  33  51  74  99 132 167 204 256 308
#     4  11  20  31  46  68 100 136 169 202 241 295
#     4   9  18  33  50  72 101 126 156 205 257 303
#     4  11  20  31  47  70 100 134 168 206 247 290
#     4   9  17  30  47  69  97 129 164 201 242 289
#     4  10  19  32  51  73  98 130 170 209 249 296
#     4   9  17  31  50  69  96 132 166 201 245 295
#
# _framework density 20.189955999999999
#
# number of rings (size 3 to 8) (size 9 to 14) (size 15 to 20)
#    0.000    2.250    2.500    1.500    0.000    2.500 
#    0.000    3.750    0.000    0.750    0.000    0.000 
#    0.000    0.000    0.000    0.000    0.000    0.000 
#
# Total GULP energy -178546.207501 kJ/mol
# GULP energy per Si atom -5579.568984 kJ/mol
# Density = 2.014400 g / cm^3
# Si number density = 20.189956 Si / 1000 Ang^3
#
#
#
# Elastic Constant Matrix: (Units=GPa)
#
#
# Indices 1 2 3 4 5 6 
#
# 1 129.1147 2.3955 48.0634 0.0000 18.7663 0.0000
# 2 2.3955 56.0420 -4.2657 0.0000 -0.9668 0.0000
# 3 48.0634 -4.2657 98.9693 0.0000 25.5106 0.0000
# 4 0.0000 0.0000 0.0000 18.0557 0.0000 0.4979
# 5 18.7663 -0.9668 25.5106 0.0000 35.4158 0.0000
# 6 0.0000 0.0000 0.0000 0.4979 0.0000 3.9328
#
#
#
# Elastic Compliance Matrix: (Units=1/GPa)
#
#
# Indices 1 2 3 4 5 6 
#
# 1 0.009614 -0.000764 -0.004155 0.000000 -0.002123 0.000000
# 2 -0.000764 0.017963 0.001123 0.000000 0.000086 0.000000
# 3 -0.004155 0.001123 0.014239 0.000000 -0.008024 0.000000
# 4 0.000000 0.000000 0.000000 0.055578 0.000000 -0.007037
# 5 -0.002123 0.000086 -0.008024 0.000000 0.035143 0.000000
# 6 0.000000 0.000000 0.000000 -0.007037 0.000000 0.255161
#
#
# Mechanical properties :
#
#
# Convention : Reuss Voigt Hill
#
# Bulk Modulus (GPa) = 29.21861 41.83472 35.52667
# Shear Modulus (GPa) = 12.29413 27.34305 19.81859
#
# Velocity S-wave (km/s) = 2.47031 3.68406 3.13646
# Velocity P-wave (km/s) = 4.75814 6.23393 5.54535
#
# Compressibility (1/GPa) = 0.03422476
#
# Stress axis : x y z
#
# Youngs Moduli (GPa) = 104.01047 55.66885 70.23142
#
# Poissons Ratio (x) = 0.04252 0.29181
# Poissons Ratio (y) = 0.07945 -0.07887
# Poissons Ratio (z) = 0.43216 -0.06251
#
# Static dielectric constant tensor:
#      x y z
#    x 1.737880 0.000000 0.009370 
#    y 0.000000 1.778400 0.000000 
#    z 0.009370 0.000000 1.697750 
# 
# From -- ./inp_files/56162.got.cif
#   From: 2010.05.17/outbox.cif.g08.bks.cpg/sg11_29_cif.got.tgz:56162.got - 2010.06.03 12:22:45.
