data_PCOD9158683
_publ_section_title
;
Structure prediction by ZEFSAII (Michael W. Deem and Ramdas Pophale) SiO2 
 PCOD9158683
Probable space group: P 21/M
;
_chemical_formula_sum "Si O2"
_cell_formula_units_Z 28
_cell_length_a 19.579102
_cell_length_b 8.356054
_cell_length_c 15.283550
_cell_angle_alpha 90.000000
_cell_angle_beta 38.039897
_cell_angle_gamma 90.000000
_cell_volume 1540.802670
_symmetry_space_group_name_H-M "P 21/M"
_symmetry_group_IT_number 11
_symmetry_cell_setting 'monoclinic'
loop_
_space_group_symop_operation_xyz
x,y,z
-x,1/2+y,-z
-x,-y,-z
x,1/2-y,z
loop_
_atom_site_type_symbol
_atom_site_label
_atom_site_fract_x
_atom_site_fract_y
_atom_site_fract_z
Si Si1 0.465758 0.942069 0.939253
Si Si2 0.378051 0.442271 0.377997
Si Si3 0.160005 0.560170 0.669447
Si Si4 0.438881 0.562640 0.681625
Si Si5 0.910251 0.556303 0.910726
Si Si6 0.706797 0.558907 0.011391
Si Si7 0.244341 0.059500 0.769871
O O1 0.460401 0.750000 0.942957
O O2 0.556356 0.995584 0.774821
O O3 0.348699 0.012007 0.023759
O O4 0.500000 0.000000 0.000000
O O5 0.384979 0.250000 0.373801
O O6 0.251448 0.492331 0.511292
O O7 0.444410 0.500351 0.398113
O O8 0.156536 0.750000 0.662100
O O9 0.204100 0.519847 0.721678
O O10 0.035294 0.494680 0.784188
O O11 0.448232 0.750000 0.651516
O O12 0.362217 0.536261 0.845166
O O13 0.369474 0.479395 0.675031
O O14 0.916114 0.750000 0.910074
O O15 0.834483 0.518987 0.902857
O O16 0.839280 0.506861 0.067741
O O17 0.692520 0.750000 0.041001
O O18 0.236360 0.250000 0.767761
#
# Coordination Sequence:
#
# PCOD9158683 Si02
#       7
#     4   4   4   4   4   4   4
#     4  10  20  35  57  83 106 126 155 196 242 295
#     4   9  20  36  50  70 101 131 159 196 247 300
#     4  11  21  32  48  70  98 133 172 209 244 288
#     4   9  17  31  49  69  96 128 166 210 250 293
#     4   8  17  32  49  71  98 131 170 209 246 284
#     4   9  16  30  52  76 102 129 159 198 246 293
#     4  10  19  32  49  69  96 130 171 215 256 292
#
# _framework density 18.172346999999998
#
# number of rings (size 3 to 8) (size 9 to 14) (size 15 to 20)
#    0.000    2.571    0.000    4.286    0.000    4.000 
#    0.000    7.857    0.000    0.857    0.000    0.000 
#    0.000    0.000    0.000    0.000    0.000    0.000 
#
# Total GULP energy -156108.833086 kJ/mol
# GULP energy per Si atom -5575.315467 kJ/mol
# Density = 1.813099 g / cm^3
# Si number density = 18.172347 Si / 1000 Ang^3
#
#
#
# Elastic Constant Matrix: (Units=GPa)
#
#
# Indices 1 2 3 4 5 6 
#
# 1 122.0219 4.6169 58.1836 0.0000 -5.9318 0.0000
# 2 4.6169 16.6331 12.8406 0.0000 -2.3977 0.0000
# 3 58.1836 12.8406 86.2648 0.0000 -17.6606 0.0000
# 4 0.0000 0.0000 0.0000 21.8638 0.0000 0.5945
# 5 -5.9318 -2.3977 -17.6606 0.0000 26.2870 0.0000
# 6 0.0000 0.0000 0.0000 0.5945 0.0000 20.1815
#
#
#
# Elastic Compliance Matrix: (Units=1/GPa)
#
#
# Indices 1 2 3 4 5 6 
#
# 1 0.012491 0.003483 -0.009625 0.000000 -0.003330 0.000000
# 2 0.003483 0.068909 -0.012939 0.000000 -0.001621 0.000000
# 3 -0.009625 -0.012939 0.022406 0.000000 0.011701 0.000000
# 4 0.000000 0.000000 0.000000 0.045774 0.000000 -0.001348
# 5 -0.003330 -0.001621 0.011701 0.000000 0.045003 0.000000
# 6 0.000000 0.000000 0.000000 -0.001348 0.000000 0.049590
#
#
# Mechanical properties :
#
#
# Convention : Reuss Voigt Hill
#
# Bulk Modulus (GPa) = 15.23347 41.80022 28.51685
# Shear Modulus (GPa) = 16.43569 23.61839 20.02704
#
# Velocity S-wave (km/s) = 3.01064 3.60903 3.32333
# Velocity P-wave (km/s) = 4.52618 6.35758 5.51838
#
# Compressibility (1/GPa) = 0.06564491
#
# Stress axis : x y z
#
# Youngs Moduli (GPa) = 80.05659 14.51188 44.63173
#
# Poissons Ratio (x) = -0.05055 0.42959
# Poissons Ratio (y) = -0.27886 0.57747
# Poissons Ratio (z) = 0.77057 0.18776
#
# Static dielectric constant tensor:
#      x y z
#    x 1.643620 0.000000 -0.022780 
#    y 0.000000 1.625860 0.000000 
#    z -0.022780 0.000000 1.644910 
# 
# From -- ./inp_files/40389.got.cif
#   From: 2010.05.17/outbox.cif.g08.bks.cpg/sg11_21_cif.got.tgz:40389.got - 2010.06.03 12:22:45.
