data_PCOD9158573
_publ_section_title
;
Structure prediction by ZEFSAII (Michael W. Deem and Ramdas Pophale) SiO2 
 PCOD9158573
Probable space group: P 21/M
;
_chemical_formula_sum "Si O2"
_cell_formula_units_Z 16
_cell_length_a 15.532387
_cell_length_b 5.475045
_cell_length_c 23.220556
_cell_angle_alpha 90.000000
_cell_angle_beta 20.911537
_cell_angle_gamma 90.000000
_cell_volume 704.817729
_symmetry_space_group_name_H-M "P 21/M"
_symmetry_group_IT_number 11
_symmetry_cell_setting 'monoclinic'
loop_
_space_group_symop_operation_xyz
x,y,z
-x,1/2+y,-z
-x,-y,-z
x,1/2-y,z
loop_
_atom_site_type_symbol
_atom_site_label
_atom_site_fract_x
_atom_site_fract_y
_atom_site_fract_z
Si Si1 0.756416 0.750000 0.913483
Si Si2 0.075815 0.750000 0.141075
Si Si3 0.683636 0.250000 0.209997
Si Si4 0.606327 0.750000 0.760876
Si Si5 0.699695 0.250000 0.714159
Si Si6 0.874504 0.750000 0.464791
Si Si7 0.119030 0.250000 0.286638
Si Si8 0.150504 0.250000 0.836504
O O1 0.905130 0.504064 0.835988
O O2 0.701587 0.750000 0.879889
O O3 0.511141 0.750000 0.105187
O O4 0.877596 0.750000 0.214913
O O5 0.327060 0.750000 0.949292
O O6 0.412869 0.250000 0.355890
O O7 0.725952 0.499065 0.219617
O O8 0.888246 0.250000 0.032371
O O9 0.666230 0.488962 0.697652
O O10 0.743905 0.750000 0.737445
O O11 0.957130 0.250000 0.583110
O O12 0.963887 0.497073 0.379969
#
# Coordination Sequence:
#
# PCOD9158573 Si02
#       8
#     2   2   2   2   2   2   2   2
#     4  10  19  31  51  79 109 142 175 201 237 300
#     4  10  19  32  52  76 105 134 169 217 259 295
#     4  10  21  38  60  80  96 125 174 225 269 310
#     4   8  16  27  44  71 104 133 165 201 240 289
#     4   8  16  27  44  71 104 133 165 201 240 289
#     4  10  19  32  52  76 105 134 169 217 259 295
#     4  10  19  31  51  79 109 142 175 201 237 300
#     4  10  21  38  60  80  96 125 174 225 269 310
#
# _framework density 22.700903
#
# number of rings (size 3 to 8) (size 9 to 14) (size 15 to 20)
#    0.000    2.500    0.000    2.250    0.000    9.000 
#    0.000    0.000    0.000   28.500    0.000    0.000 
#    0.000    0.000    0.000    0.000    0.000    0.000 
#
# Total GULP energy -89369.399083 kJ/mol
# GULP energy per Si atom -5585.587443 kJ/mol
# Density = 2.264924 g / cm^3
# Si number density = 22.700903 Si / 1000 Ang^3
#
#
#
# Elastic Constant Matrix: (Units=GPa)
#
#
# Indices 1 2 3 4 5 6 
#
# 1 73.9565 46.5820 29.0492 0.0000 -9.2733 0.0000
# 2 46.5820 237.6926 29.4665 0.0000 -11.8829 0.0000
# 3 29.0492 29.4665 58.8960 0.0000 -16.2363 0.0000
# 4 0.0000 0.0000 0.0000 -8.8543 0.0000 -43.7373
# 5 -9.2733 -11.8829 -16.2363 0.0000 28.5174 0.0000
# 6 0.0000 0.0000 0.0000 -43.7373 0.0000 -34.2449
#
#
#
# Elastic Compliance Matrix: (Units=1/GPa)
#
#
# Indices 1 2 3 4 5 6 
#
# 1 0.018182 -0.002604 -0.007513 0.000000 0.000550 0.000000
# 2 -0.002604 0.004870 -0.000980 0.000000 0.000625 0.000000
# 3 -0.007513 -0.000980 0.024185 0.000000 0.010918 0.000000
# 4 0.000000 0.000000 0.000000 0.021274 0.000000 -0.027170
# 5 0.000550 0.000625 0.010918 0.000000 0.041722 0.000000
# 6 0.000000 0.000000 0.000000 -0.027170 0.000000 0.005500
#
#
# Mechanical properties :
#
#
# Convention : Reuss Voigt Hill
#
# Bulk Modulus (GPa) = 39.93303 64.52672 52.22988
# Shear Modulus (GPa) = 34.18214 14.78013 24.48114
#
# Velocity S-wave (km/s) = 3.88462 2.55440 3.28750
# Velocity P-wave (km/s) = 6.14406 6.09806 6.12111
#
# Compressibility (1/GPa) = 0.02504193
#
# Stress axis : x y z
#
# Youngs Moduli (GPa) = 54.99986 205.33032 41.34786
#
# Poissons Ratio (x) = 0.53474 0.31066
# Poissons Ratio (y) = 0.14324 0.04052
# Poissons Ratio (z) = 0.41323 0.20121
#
# Static dielectric constant tensor:
#      x y z
#    x 1.863980 0.000000 0.048830 
#    y 0.000000 1.878130 0.000000 
#    z 0.048830 0.000000 1.822690 
# 
# From -- ./inp_files/8384.got.cif
#   From: 2010.05.17/outbox.cif.g08.bks.cpg/sg11_5_cif.got.tgz:8384.got - 2010.06.03 12:22:45.
