data_PCOD9158738
_publ_section_title
;
Structure prediction by ZEFSAII (Michael W. Deem and Ramdas Pophale) SiO2 
 PCOD9158738
Probable space group: P 21/M
;
_chemical_formula_sum "Si O2"
_cell_formula_units_Z 28
_cell_length_a 12.230484
_cell_length_b 8.045801
_cell_length_c 19.206157
_cell_angle_alpha 90.000000
_cell_angle_beta 142.824948
_cell_angle_gamma 90.000000
_cell_volume 1142.014626
_symmetry_space_group_name_H-M "P 21/M"
_symmetry_group_IT_number 11
_symmetry_cell_setting 'monoclinic'
loop_
_space_group_symop_operation_xyz
x,y,z
-x,1/2+y,-z
-x,-y,-z
x,1/2-y,z
loop_
_atom_site_type_symbol
_atom_site_label
_atom_site_fract_x
_atom_site_fract_y
_atom_site_fract_z
Si Si1 0.364358 0.056158 0.840346
Si Si2 0.742596 0.942215 0.974156
Si Si3 0.754702 0.952359 0.366896
Si Si4 0.349635 0.552330 0.214714
Si Si5 0.104260 0.442597 0.423474
Si Si6 0.106200 0.557972 0.814770
Si Si7 0.517378 0.444820 0.429693
O O1 0.330583 0.250000 0.836907
O O2 0.239942 0.997521 0.711466
O O3 0.567127 0.038161 0.915080
O O4 0.302834 0.955694 0.876608
O O5 0.694580 0.750000 0.949001
O O6 0.780319 0.996424 0.914229
O O7 0.891135 0.972710 0.109106
O O8 0.764995 0.750000 0.373368
O O9 0.548913 0.996684 0.285533
O O10 0.884498 0.022658 0.493489
O O11 0.338667 0.750000 0.214769
O O12 0.349485 0.476738 0.291980
O O13 0.045105 0.250000 0.398351
O O14 0.317494 0.445013 0.514186
O O15 0.016375 0.518103 0.309138
O O16 0.057601 0.750000 0.800119
O O17 0.500000 0.500000 0.500000
O O18 0.562413 0.250000 0.448742
#
# Coordination Sequence:
#
# PCOD9158738 Si02
#       7
#     4   4   4   4   4   4   4
#     4  10  19  32  50  72 100 136 181 229 271 308
#     4  11  21  34  52  74 102 138 183 225 262 308
#     4   7  13  28  49  70  95 129 166 210 259 303
#     4   9  17  33  55  79 106 134 169 212 259 307
#     4   9  19  36  54  74 104 140 176 214 262 317
#     4  11  22  34  49  71 103 143 182 222 267 310
#     4  11  21  35  59  88 113 136 166 205 253 308
#
# _framework density 24.518073999999999
#
# number of rings (size 3 to 8) (size 9 to 14) (size 15 to 20)
#    0.000    2.286    0.000    6.000    0.000    1.714 
#    0.000    0.714    0.000    0.857    0.000    0.000 
#    0.000    0.000    0.000    0.000    0.000    0.000 
#
# Total GULP energy -156296.185847 kJ/mol
# GULP energy per Si atom -5582.006637 kJ/mol
# Density = 2.446227 g / cm^3
# Si number density = 24.518074 Si / 1000 Ang^3
#
#
#
# Elastic Constant Matrix: (Units=GPa)
#
#
# Indices 1 2 3 4 5 6 
#
# 1 39.0487 1.3509 36.6063 0.0000 -28.7577 0.0000
# 2 1.3509 95.3029 12.5383 0.0000 -11.0918 0.0000
# 3 36.6063 12.5383 182.1124 0.0000 -59.0749 0.0000
# 4 0.0000 0.0000 0.0000 30.2876 0.0000 -8.9430
# 5 -28.7577 -11.0918 -59.0749 0.0000 51.1672 0.0000
# 6 0.0000 0.0000 0.0000 -8.9430 0.0000 15.6716
#
#
#
# Elastic Compliance Matrix: (Units=1/GPa)
#
#
# Indices 1 2 3 4 5 6 
#
# 1 0.044388 0.002329 -0.001321 0.000000 0.023927 0.000000
# 2 0.002329 0.010887 -0.000044 0.000000 0.003618 0.000000
# 3 -0.001321 -0.000044 0.008818 0.000000 0.009429 0.000000
# 4 0.000000 0.000000 0.000000 0.039707 0.000000 0.022659
# 5 0.023927 0.003618 0.009429 0.000000 0.044663 0.000000
# 6 0.000000 0.000000 0.000000 0.022659 0.000000 0.076740
#
#
# Mechanical properties :
#
#
# Convention : Reuss Voigt Hill
#
# Bulk Modulus (GPa) = 15.14643 46.38388 30.76516
# Shear Modulus (GPa) = 20.38468 37.15652 28.77060
#
# Velocity S-wave (km/s) = 2.88655 3.89713 3.42927
# Velocity P-wave (km/s) = 4.15941 6.26175 5.31555
#
# Compressibility (1/GPa) = 0.06602215
#
# Stress axis : x y z
#
# Youngs Moduli (GPa) = 22.52838 91.85473 113.39903
#
# Poissons Ratio (x) = -0.21397 0.14981
# Poissons Ratio (y) = -0.05248 0.00499
# Poissons Ratio (z) = 0.02976 0.00404
#
# Static dielectric constant tensor:
#      x y z
#    x 2.040260 0.000000 0.027030 
#    y 0.000000 0.747000 0.000000 
#    z 0.027030 0.000000 2.124480 
# 
# From -- ./inp_files/60156.got.cif
#   From: 2010.05.17/outbox.cif.g08.bks.cpg/sg11_31_cif.got.tgz:60156.got - 2010.06.03 12:22:45.
