data_PCOD9158607
_publ_section_title
;
Structure prediction by ZEFSAII (Michael W. Deem and Ramdas Pophale) SiO2 
 PCOD9158607
Probable space group: P 21/M
;
_chemical_formula_sum "Si O2"
_cell_formula_units_Z 32
_cell_length_a 22.359163
_cell_length_b 8.730709
_cell_length_c 28.841260
_cell_angle_alpha 90.000000
_cell_angle_beta 18.764946
_cell_angle_gamma 90.000000
_cell_volume 1811.140227
_symmetry_space_group_name_H-M "P 21/M"
_symmetry_group_IT_number 11
_symmetry_cell_setting 'monoclinic'
loop_
_space_group_symop_operation_xyz
x,y,z
-x,1/2+y,-z
-x,-y,-z
x,1/2-y,z
loop_
_atom_site_type_symbol
_atom_site_label
_atom_site_fract_x
_atom_site_fract_y
_atom_site_fract_z
Si Si1 0.439551 0.432262 0.093654
Si Si2 0.911006 0.935034 0.912182
Si Si3 0.382669 0.066984 0.947852
Si Si4 0.200226 0.934399 0.839991
Si Si5 0.952248 0.432106 0.585486
Si Si6 0.694752 0.065481 0.340581
Si Si7 0.617242 0.066651 0.199745
Si Si8 0.680623 0.067794 0.647847
O O1 0.430869 0.250000 0.097346
O O2 0.579081 0.482453 0.032370
O O3 0.238760 0.498176 0.255555
O O4 0.500000 0.500000 0.000000
O O5 0.894659 0.750000 0.929740
O O6 0.126360 0.977585 0.759446
O O7 0.805583 0.974061 0.941735
O O8 0.792858 0.012025 0.040039
O O9 0.383236 0.250000 0.955495
O O10 0.550870 0.033875 0.788159
O O11 0.185884 0.750000 0.849715
O O12 0.261838 0.985451 0.743870
O O13 0.341845 0.975514 0.777192
O O14 0.000000 0.000000 0.000000
O O15 0.934226 0.250000 0.595280
O O16 0.126369 0.479958 0.489301
O O17 0.000000 0.500000 0.500000
O O18 0.684229 0.250000 0.348523
O O19 0.500000 0.000000 0.500000
O O20 0.598760 0.250000 0.209472
O O21 0.439620 0.985559 0.307677
O O22 0.711393 0.250000 0.624444
#
# Coordination Sequence:
#
# PCOD9158607 Si02
#       8
#     4   4   4   4   4   4   4   4
#     4  12  25  41  61  86 119 157 196 241 293 349
#     4   9  18  34  56  79 110 148 188 233 283 340
#     4   9  18  34  57  83 112 147 191 238 285 343
#     4  10  20  34  55  81 111 145 186 236 285 338
#     4  12  23  38  61  89 119 152 193 240 289 345
#     4  10  21  37  55  80 113 150 190 234 284 339
#     4  10  19  31  52  84 115 145 186 238 292 342
#     4  10  20  35  57  85 118 154 191 237 290 341
#
# _framework density 17.668427000000001
#
# number of rings (size 3 to 8) (size 9 to 14) (size 15 to 20)
#    0.000    1.750    2.500    3.750    0.000    3.500 
#    0.000    1.250    0.000    3.000    0.000    0.000 
#    0.000    0.000    0.000    0.000    0.000    0.000 
#
# Total GULP energy -178686.585278 kJ/mol
# GULP energy per Si atom -5583.955790 kJ/mol
# Density = 1.762821 g / cm^3
# Si number density = 17.668427 Si / 1000 Ang^3
#
#
#
# Elastic Constant Matrix: (Units=GPa)
#
#
# Indices 1 2 3 4 5 6 
#
# 1 151.8191 59.5930 81.7541 0.0000 -8.0781 0.0000
# 2 59.5930 73.0404 42.9870 0.0000 -1.2190 0.0000
# 3 81.7541 42.9870 125.6086 0.0000 -7.0744 0.0000
# 4 0.0000 0.0000 0.0000 30.7693 0.0000 -2.7956
# 5 -8.0781 -1.2190 -7.0744 0.0000 27.9731 0.0000
# 6 0.0000 0.0000 0.0000 -2.7956 0.0000 28.6417
#
#
#
# Elastic Compliance Matrix: (Units=1/GPa)
#
#
# Indices 1 2 3 4 5 6 
#
# 1 0.012368 -0.006741 -0.005638 0.000000 0.001852 0.000000
# 2 -0.006741 0.020834 -0.002841 0.000000 -0.001757 0.000000
# 3 -0.005638 -0.002841 0.012685 0.000000 0.001456 0.000000
# 4 0.000000 0.000000 0.000000 0.032791 0.000000 0.003201
# 5 0.001852 -0.001757 0.001456 0.000000 0.036575 0.000000
# 6 0.000000 0.000000 0.000000 0.003201 0.000000 0.035227
#
#
# Mechanical properties :
#
#
# Convention : Reuss Voigt Hill
#
# Bulk Modulus (GPa) = 64.74486 79.90405 72.32445
# Shear Modulus (GPa) = 26.87160 28.55242 27.71201
#
# Velocity S-wave (km/s) = 3.90408 4.02433 3.96466
# Velocity P-wave (km/s) = 7.55291 8.18022 7.87281
#
# Compressibility (1/GPa) = 0.01544524
#
# Stress axis : x y z
#
# Youngs Moduli (GPa) = 80.85571 47.99793 78.83098
#
# Poissons Ratio (x) = 0.32358 0.44447
# Poissons Ratio (y) = 0.54509 0.22398
# Poissons Ratio (z) = 0.45589 0.13638
#
# Static dielectric constant tensor:
#      x y z
#    x 1.619260 0.000000 -0.023280 
#    y 0.000000 1.592590 0.000000 
#    z -0.023280 0.000000 1.574580 
# 
# From -- ./inp_files/72048.got.cif
#   From: 2010.05.17/outbox.cif.g08.bks.cpg/sg11_37_cif.got.tgz:72048.got - 2010.06.03 12:22:45.
