data_PCOD9158752
_publ_section_title
;
Structure prediction by ZEFSAII (Michael W. Deem and Ramdas Pophale) SiO2 
 PCOD9158752
Probable space group: P 21/M
;
_chemical_formula_sum "Si O2"
_cell_formula_units_Z 32
_cell_length_a 12.374617
_cell_length_b 7.684011
_cell_length_c 32.046561
_cell_angle_alpha 90.000000
_cell_angle_beta 30.376346
_cell_angle_gamma 90.000000
_cell_volume 1540.901671
_symmetry_space_group_name_H-M "P 21/M"
_symmetry_group_IT_number 11
_symmetry_cell_setting 'monoclinic'
loop_
_space_group_symop_operation_xyz
x,y,z
-x,1/2+y,-z
-x,-y,-z
x,1/2-y,z
loop_
_atom_site_type_symbol
_atom_site_label
_atom_site_fract_x
_atom_site_fract_y
_atom_site_fract_z
Si Si1 0.291000 0.458579 0.096486
Si Si2 0.464826 0.036431 0.126104
Si Si3 0.728129 0.955521 0.721975
Si Si4 0.357150 0.454785 0.784094
Si Si5 0.052356 0.958911 0.030440
Si Si6 0.654704 0.045376 0.386905
Si Si7 0.820108 0.460722 0.243132
Si Si8 0.797492 0.038398 0.430212
O O1 0.276484 0.250000 0.102821
O O2 0.327560 0.518725 0.131907
O O3 0.064312 0.522463 0.154335
O O4 0.500000 0.500000 0.000000
O O5 0.466122 0.250000 0.126237
O O6 0.374532 0.975393 0.200706
O O7 0.709674 0.977411 0.038754
O O8 0.753143 0.750000 0.720855
O O9 0.967539 0.021997 0.634788
O O10 0.565232 0.976968 0.738274
O O11 0.357953 0.250000 0.791863
O O12 0.334495 0.484990 0.742650
O O13 0.141009 0.529462 0.877207
O O14 0.058360 0.750000 0.033413
O O15 0.000000 0.000000 0.000000
O O16 0.707466 0.250000 0.369130
O O17 0.744144 0.974751 0.313747
O O18 0.753862 0.976720 0.397133
O O19 0.400341 0.023925 0.476159
O O20 0.819488 0.250000 0.243745
O O21 0.787405 0.250000 0.434023
#
# Coordination Sequence:
#
# PCOD9158752 Si02
#       8
#     4   4   4   4   4   4   4   4
#     4  10  20  35  54  78 108 140 177 219 263 312
#     4   9  17  31  53  76 101 136 174 215 261 310
#     4  10  19  34  56  79 105 140 179 216 263 326
#     4  11  23  36  52  78 110 142 180 229 273 310
#     4  10  19  32  50  73 102 138 177 216 259 308
#     4   9  18  35  58  84 110 139 176 216 264 322
#     4  10  21  37  57  78 105 147 188 216 255 323
#     4   9  18  33  57  87 112 135 170 219 272 322
#
# _framework density 20.767061000000002
#
# number of rings (size 3 to 8) (size 9 to 14) (size 15 to 20)
#    0.000    2.250    1.250    1.875    0.000    6.000 
#    0.000    1.875    0.000    3.000    0.000    0.000 
#    0.000    0.000    0.000    0.000    0.000    0.000 
#
# Total GULP energy -178677.626478 kJ/mol
# GULP energy per Si atom -5583.675827 kJ/mol
# Density = 2.071979 g / cm^3
# Si number density = 20.767061 Si / 1000 Ang^3
#
#
#
# Elastic Constant Matrix: (Units=GPa)
#
#
# Indices 1 2 3 4 5 6 
#
# 1 101.0864 -17.5364 39.2411 0.0000 -12.2037 0.0000
# 2 -17.5364 25.9076 -12.7715 0.0000 -1.5443 0.0000
# 3 39.2411 -12.7715 93.7265 0.0000 -7.2255 0.0000
# 4 0.0000 0.0000 0.0000 16.5625 0.0000 -0.5178
# 5 -12.2037 -1.5443 -7.2255 0.0000 36.0059 0.0000
# 6 0.0000 0.0000 0.0000 -0.5178 0.0000 12.2250
#
#
#
# Elastic Compliance Matrix: (Units=1/GPa)
#
#
# Indices 1 2 3 4 5 6 
#
# 1 0.013262 0.007101 -0.004281 0.000000 0.003940 0.000000
# 2 0.007101 0.045492 0.003618 0.000000 0.005084 0.000000
# 3 -0.004281 0.003618 0.013057 0.000000 0.001324 0.000000
# 4 0.000000 0.000000 0.000000 0.060457 0.000000 0.002561
# 5 0.003940 0.005084 0.001324 0.000000 0.029593 0.000000
# 6 0.000000 0.000000 0.000000 0.002561 0.000000 0.081908
#
#
# Mechanical properties :
#
#
# Convention : Reuss Voigt Hill
#
# Bulk Modulus (GPa) = 11.80827 26.50966 19.15897
# Shear Modulus (GPa) = 19.29594 27.07783 23.18689
#
# Velocity S-wave (km/s) = 3.05152 3.61485 3.34507
# Velocity P-wave (km/s) = 4.25607 5.49689 4.91579
#
# Compressibility (1/GPa) = 0.08468641
#
# Stress axis : x y z
#
# Youngs Moduli (GPa) = 75.40296 21.98197 76.58858
#
# Poissons Ratio (x) = -0.15610 0.32788
# Poissons Ratio (y) = -0.53546 -0.27707
# Poissons Ratio (z) = 0.32281 -0.07952
#
# Static dielectric constant tensor:
#      x y z
#    x 1.717070 0.000000 -0.013830 
#    y 0.000000 1.778620 0.000000 
#    z -0.013830 0.000000 1.746410 
# 
# From -- ./inp_files/42774.got.cif
#   From: 2010.05.17/outbox.cif.g08.bks.cpg/sg11_22_cif.got.tgz:42774.got - 2010.06.03 12:22:45.
