data_PCOD9158035
_publ_section_title
;
Structure prediction by ZEFSAII (Michael W. Deem and Ramdas Pophale) SiO2 
 PCOD9158035
Probable space group: P 21/M
;
_chemical_formula_sum "Si O2"
_cell_formula_units_Z 32
_cell_length_a 11.779509
_cell_length_b 9.100121
_cell_length_c 22.831283
_cell_angle_alpha 90.000000
_cell_angle_beta 143.827429
_cell_angle_gamma 90.000000
_cell_volume 1444.501741
_symmetry_space_group_name_H-M "P 21/M"
_symmetry_group_IT_number 11
_symmetry_cell_setting 'monoclinic'
loop_
_space_group_symop_operation_xyz
x,y,z
-x,1/2+y,-z
-x,-y,-z
x,1/2-y,z
loop_
_atom_site_type_symbol
_atom_site_label
_atom_site_fract_x
_atom_site_fract_y
_atom_site_fract_z
Si Si1 0.657103 0.081031 0.896222
Si Si2 0.531934 0.585592 0.953475
Si Si3 0.906374 0.085703 0.269284
Si Si4 0.762802 0.928315 0.827040
Si Si5 0.523511 0.083918 0.449166
Si Si6 0.204654 0.418099 0.666766
Si Si7 0.366195 0.072423 0.616199
Si Si8 0.919489 0.916168 0.775533
O O1 0.721702 0.250000 0.924752
O O2 0.430711 0.081352 0.781650
O O3 0.654723 0.006867 0.958596
O O4 0.776954 0.989348 0.898513
O O5 0.608526 0.750000 0.994938
O O6 0.320028 0.598857 0.837551
O O7 0.500000 0.500000 0.000000
O O8 0.992668 0.250000 0.309863
O O9 0.989022 0.011417 0.244324
O O10 0.914711 0.006764 0.335026
O O11 0.748880 0.750000 0.821046
O O12 0.917353 0.972605 0.841395
O O13 0.565472 0.003569 0.722845
O O14 0.595392 0.250000 0.486980
O O15 0.306527 0.093171 0.333733
O O16 0.500000 0.000000 0.500000
O O17 0.650208 0.995194 0.455049
O O18 0.139716 0.250000 0.640341
O O19 0.214617 0.470431 0.603620
O O20 0.376980 0.250000 0.618837
O O21 0.002886 0.750000 0.812237
#
# Coordination Sequence:
#
# PCOD9158035 Si02
#       8
#     4   4   4   4   4   4   4   4
#     4   9  16  27  43  64  91 118 149 189 228 267
#     4  10  19  30  47  69  93 121 152 187 227 272
#     4   9  17  30  48  68  90 120 154 183 219 270
#     4   9  15  25  43  66  91 117 148 187 229 268
#     4  10  19  31  48  69  94 121 150 186 227 271
#     4   8  15  26  41  64  91 116 143 184 230 261
#     4   9  16  27  43  64  91 119 150 188 227 266
#     4   8  16  30  47  68  93 120 149 184 225 266
#
# _framework density 22.152965999999999
#
# number of rings (size 3 to 8) (size 9 to 14) (size 15 to 20)
#    0.000    3.000    0.000    3.375    0.000    4.000 
#    0.000    3.750    0.000    1.500    0.000    0.000 
#    0.000    0.000    0.000    0.000    0.000    0.000 
#
# Total GULP energy -178400.138552 kJ/mol
# GULP energy per Si atom -5575.004330 kJ/mol
# Density = 2.210255 g / cm^3
# Si number density = 22.152966 Si / 1000 Ang^3
#
#
#
# Elastic Constant Matrix: (Units=GPa)
#
#
# Indices 1 2 3 4 5 6 
#
# 1 178.7054 73.8541 60.6779 0.0000 -74.2654 0.0000
# 2 73.8541 112.6084 40.4490 0.0000 -46.6488 0.0000
# 3 60.6779 40.4490 57.3802 0.0000 -30.8166 0.0000
# 4 0.0000 0.0000 0.0000 15.5296 0.0000 -19.2954
# 5 -74.2654 -46.6488 -30.8166 0.0000 77.3139 0.0000
# 6 0.0000 0.0000 0.0000 -19.2954 0.0000 22.1599
#
#
#
# Elastic Compliance Matrix: (Units=1/GPa)
#
#
# Indices 1 2 3 4 5 6 
#
# 1 0.012004 -0.002272 -0.007171 0.000000 0.007301 0.000000
# 2 -0.002272 0.013967 -0.005203 0.000000 0.004171 0.000000
# 3 -0.007171 -0.005203 0.029637 0.000000 0.001786 0.000000
# 4 0.000000 0.000000 0.000000 -0.786377 0.000000 -0.684727
# 5 0.007301 0.004171 0.001786 0.000000 0.023176 0.000000
# 6 0.000000 0.000000 0.000000 -0.684727 0.000000 -0.551090
#
#
# Mechanical properties :
#
#
# Convention : Reuss Voigt Hill
#
# Bulk Modulus (GPa) = 37.99920 77.62844 57.81382
# Shear Modulus (GPa) = -4.09629 34.58154 15.24263
#
# Velocity S-wave (km/s) = -1.36129 3.95528 2.62594
# Velocity P-wave (km/s) = 3.83660 7.48178 5.94544
#
# Compressibility (1/GPa) = 0.02631635
#
# Stress axis : x y z
#
# Youngs Moduli (GPa) = 83.30622 71.59516 33.74128
#
# Poissons Ratio (x) = 0.16269 0.24195
# Poissons Ratio (y) = 0.18931 0.17556
# Poissons Ratio (z) = 0.59736 0.37251
#
# Static dielectric constant tensor:
#      x y z
#    x 1.837270 0.000000 0.012880 
#    y 0.000000 1.661140 0.000000 
#    z 0.012880 0.000000 1.965510 
# 
# From -- ./inp_files/42419.got.cif
#   From: 2010.05.17/outbox.cif.g08.bks.cpg/sg11_22_cif.got.tgz:42419.got - 2010.06.03 12:22:45.
