data_PCOD9158447
_publ_section_title
;
Structure prediction by ZEFSAII (Michael W. Deem and Ramdas Pophale) SiO2 
 PCOD9158447
Probable space group: P 21/M
;
_chemical_formula_sum "Si O2"
_cell_formula_units_Z 26
_cell_length_a 5.038482
_cell_length_b 9.645145
_cell_length_c 29.729135
_cell_angle_alpha 90.000000
_cell_angle_beta 62.510801
_cell_angle_gamma 90.000000
_cell_volume 1281.628861
_symmetry_space_group_name_H-M "P 21/M"
_symmetry_group_IT_number 11
_symmetry_cell_setting 'monoclinic'
loop_
_space_group_symop_operation_xyz
x,y,z
-x,1/2+y,-z
-x,-y,-z
x,1/2-y,z
loop_
_atom_site_type_symbol
_atom_site_label
_atom_site_fract_x
_atom_site_fract_y
_atom_site_fract_z
Si Si1 0.629710 0.416673 0.785154
Si Si2 0.099425 0.032345 0.054804
Si Si3 0.576345 0.909475 0.879325
Si Si4 0.542195 0.582853 0.450793
Si Si5 0.303011 0.081919 0.722627
Si Si6 0.592098 0.250000 0.984363
Si Si7 0.217688 0.582453 0.387321
O O1 0.612052 0.250000 0.792503
O O2 0.593934 0.490500 0.835424
O O3 0.391832 0.460799 0.766137
O O4 0.959388 0.450997 0.740099
O O5 0.185582 0.055474 0.100665
O O6 0.756527 0.075529 0.074011
O O7 0.156677 0.872900 0.040128
O O8 0.328464 0.130501 0.010634
O O9 0.617824 0.750000 0.862457
O O10 0.500000 0.500000 0.500000
O O11 0.524331 0.750000 0.459641
O O12 0.307354 0.540962 0.430792
O O13 0.872724 0.550917 0.405529
O O14 0.323718 0.250000 0.720554
O O15 0.543726 0.029441 0.667689
O O16 0.242039 0.750000 0.384605
#
# Coordination Sequence:
#
# PCOD9158447 Si02
#       7
#     4   4   4   4   4   2   4
#     4  10  21  34  57  83 108 138 179 229 280 322
#     4  11  25  41  64  87 116 151 187 232 275 329
#     4  12  24  42  59  86 119 154 186 223 280 342
#     4  10  19  31  49  75 106 143 180 220 271 325
#     4   9  17  33  54  82 107 133 180 236 275 320
#     4  10  24  44  64  90 116 148 192 232 278 324
#     4   9  17  30  52  76 103 139 181 225 275 322
#
# _framework density 20.286681999999999
#
# number of rings (size 3 to 8) (size 9 to 14) (size 15 to 20)
#    0.000    1.846    1.538    2.308    2.154    7.385 
#    0.000    0.000    0.000    5.538    0.000    0.000 
#    0.000    0.000    0.000    0.000    0.000    0.000 
#
# Total GULP energy -144742.052431 kJ/mol
# GULP energy per Si atom -5567.002017 kJ/mol
# Density = 2.024051 g / cm^3
# Si number density = 20.286682 Si / 1000 Ang^3
#
#
#
# Elastic Constant Matrix: (Units=GPa)
#
#
# Indices 1 2 3 4 5 6 
#
# 1 43.0659 -0.3313 -6.9891 0.0000 10.3434 0.0000
# 2 -0.3313 89.7177 4.6338 0.0000 -1.0579 0.0000
# 3 -6.9891 4.6338 38.4423 0.0000 0.3680 0.0000
# 4 0.0000 0.0000 0.0000 15.7403 0.0000 -11.2314
# 5 10.3434 -1.0579 0.3680 0.0000 23.1550 0.0000
# 6 0.0000 0.0000 0.0000 -11.2314 0.0000 -9.2449
#
#
#
# Elastic Compliance Matrix: (Units=1/GPa)
#
#
# Indices 1 2 3 4 5 6 
#
# 1 0.026952 -0.000305 0.005053 0.000000 -0.012134 0.000000
# 2 -0.000305 0.011226 -0.001415 0.000000 0.000671 0.000000
# 3 0.005053 -0.001415 0.027129 0.000000 -0.002753 0.000000
# 4 0.000000 0.000000 0.000000 0.034031 0.000000 -0.041343
# 5 -0.012134 0.000671 -0.002753 0.000000 0.048682 0.000000
# 6 0.000000 0.000000 0.000000 -0.041343 0.000000 -0.057941
#
#
# Mechanical properties :
#
#
# Convention : Reuss Voigt Hill
#
# Bulk Modulus (GPa) = 13.89399 18.42810 16.16105
# Shear Modulus (GPa) = 46.55360 17.52424 32.03892
#
# Velocity S-wave (km/s) = 4.79559 2.94229 3.97836
# Velocity P-wave (km/s) = 6.12595 4.54382 5.39322
#
# Compressibility (1/GPa) = 0.07197355
#
# Stress axis : x y z
#
# Youngs Moduli (GPa) = 37.10277 89.07939 36.86150
#
# Poissons Ratio (x) = 0.02713 -0.18626
# Poissons Ratio (y) = 0.01130 0.05216
# Poissons Ratio (z) = -0.18748 0.12604
#
# Static dielectric constant tensor:
#      x y z
#    x 1.725700 0.000000 0.005800 
#    y 0.000000 1.677960 0.000000 
#    z 0.005800 0.000000 1.739750 
# 
# From -- ./inp_files/72521.got.cif
#   From: 2010.05.17/outbox.cif.g08.bks.cpg/sg11_37_cif.got.tgz:72521.got - 2010.06.03 12:22:45.
