data_PCOD9158979
_publ_section_title
;
Structure prediction by ZEFSAII (Michael W. Deem and Ramdas Pophale) SiO2 
 PCOD9158979
Probable space group: P 21/M
;
_chemical_formula_sum "Si O2"
_cell_formula_units_Z 32
_cell_length_a 20.912358
_cell_length_b 7.809005
_cell_length_c 26.959619
_cell_angle_alpha 90.000000
_cell_angle_beta 159.156168
_cell_angle_gamma 90.000000
_cell_volume 1566.553630
_symmetry_space_group_name_H-M "P 21/M"
_symmetry_group_IT_number 11
_symmetry_cell_setting 'monoclinic'
loop_
_space_group_symop_operation_xyz
x,y,z
-x,1/2+y,-z
-x,-y,-z
x,1/2-y,z
loop_
_atom_site_type_symbol
_atom_site_label
_atom_site_fract_x
_atom_site_fract_y
_atom_site_fract_z
Si Si1 0.293907 0.455850 0.841705
Si Si2 0.628251 0.052010 0.389856
Si Si3 0.197760 0.043598 0.662471
Si Si4 0.512295 0.448983 0.817856
Si Si5 0.029369 0.541371 0.098832
Si Si6 0.703540 0.048013 0.789701
Si Si7 0.999778 0.960621 0.292931
Si Si8 0.920215 0.549616 0.125839
O O1 0.278008 0.250000 0.829231
O O2 0.229430 0.520149 0.741294
O O3 0.166918 0.517072 0.794089
O O4 0.500000 0.500000 0.000000
O O5 0.654758 0.250000 0.395052
O O6 0.815644 0.985176 0.547122
O O7 0.556396 0.962212 0.288342
O O8 0.476301 0.039984 0.321832
O O9 0.210034 0.250000 0.671854
O O10 0.356335 0.981573 0.740949
O O11 0.000000 0.000000 0.500000
O O12 0.541924 0.250000 0.851496
O O13 0.704954 0.536676 0.963808
O O14 0.024682 0.750000 0.094952
O O15 0.010070 0.477922 0.140994
O O16 0.205176 0.487651 0.195363
O O17 0.856745 0.481171 0.942393
O O18 0.667850 0.250000 0.760109
O O19 0.999734 0.750000 0.291791
O O20 0.978911 0.022504 0.221432
O O21 0.968322 0.750000 0.161559
#
# Coordination Sequence:
#
# PCOD9158979 Si02
#       8
#     4   4   4   4   4   4   4   4
#     4  10  20  37  57  79 106 140 179 221 269 322
#     4  11  21  36  56  79 108 147 186 220 266 325
#     4  10  22  37  54  78 109 140 177 223 272 321
#     4  11  22  35  53  81 110 137 175 228 277 318
#     4   9  18  32  53  80 109 142 180 220 267 318
#     4  10  19  32  52  80 112 141 176 226 271 314
#     4   9  20  36  56  79 107 142 182 222 262 318
#     4  10  19  35  57  81 105 138 182 223 263 317
#
# _framework density 20.427005000000001
#
# number of rings (size 3 to 8) (size 9 to 14) (size 15 to 20)
#    0.000    2.000    1.250    2.625    0.000    3.000 
#    0.000    3.125    0.000    0.000    0.000    0.000 
#    0.000    0.000    0.000    0.000    0.000    0.000 
#
# Total GULP energy -178734.938180 kJ/mol
# GULP energy per Si atom -5585.466818 kJ/mol
# Density = 2.038051 g / cm^3
# Si number density = 20.427005 Si / 1000 Ang^3
#
#
#
# Elastic Constant Matrix: (Units=GPa)
#
#
# Indices 1 2 3 4 5 6 
#
# 1 127.4623 0.0594 19.3795 0.0000 -4.6819 0.0000
# 2 0.0594 26.2159 -11.3497 0.0000 -1.8280 0.0000
# 3 19.3795 -11.3497 54.7393 0.0000 -15.2913 0.0000
# 4 0.0000 0.0000 0.0000 4.9072 0.0000 0.2863
# 5 -4.6819 -1.8280 -15.2913 0.0000 30.9768 0.0000
# 6 0.0000 0.0000 0.0000 0.2863 0.0000 4.8661
#
#
#
# Elastic Compliance Matrix: (Units=1/GPa)
#
#
# Indices 1 2 3 4 5 6 
#
# 1 0.008347 -0.001534 -0.003417 0.000000 -0.000516 0.000000
# 2 -0.001534 0.043899 0.011952 0.000000 0.008259 0.000000
# 3 -0.003417 0.011952 0.025530 0.000000 0.012791 0.000000
# 4 0.000000 0.000000 0.000000 0.204484 0.000000 -0.012031
# 5 -0.000516 0.008259 0.012791 0.000000 0.039006 0.000000
# 6 0.000000 0.000000 0.000000 -0.012031 0.000000 0.206211
#
#
# Mechanical properties :
#
#
# Convention : Reuss Voigt Hill
#
# Bulk Modulus (GPa) = 10.89603 24.95510 17.92556
# Shear Modulus (GPa) = 9.19005 21.50523 15.34764
#
# Velocity S-wave (km/s) = 2.12338 3.24818 2.74403
# Velocity P-wave (km/s) = 3.37007 5.12941 4.33983
#
# Compressibility (1/GPa) = 0.09177653
#
# Stress axis : x y z
#
# Youngs Moduli (GPa) = 119.80655 22.77970 39.17010
#
# Poissons Ratio (x) = 0.03495 0.13386
# Poissons Ratio (y) = 0.18382 -0.46817
# Poissons Ratio (z) = 0.40941 -0.27227
#
# Static dielectric constant tensor:
#      x y z
#    x 1.736290 0.000000 0.014340 
#    y 0.000000 1.752820 0.000000 
#    z 0.014340 0.000000 1.656330 
# 
# From -- ./inp_files/72177.got.cif
#   From: 2010.05.17/outbox.cif.g08.bks.cpg/sg11_37_cif.got.tgz:72177.got - 2010.06.03 12:22:45.
