data_PCOD9158537
_publ_section_title
;
Structure prediction by ZEFSAII (Michael W. Deem and Ramdas Pophale) SiO2 
 PCOD9158537
Probable space group: P 21/M
;
_chemical_formula_sum "Si O2"
_cell_formula_units_Z 26
_cell_length_a 15.108583
_cell_length_b 9.414851
_cell_length_c 11.511363
_cell_angle_alpha 90.000000
_cell_angle_beta 39.302080
_cell_angle_gamma 90.000000
_cell_volume 1037.165688
_symmetry_space_group_name_H-M "P 21/M"
_symmetry_group_IT_number 11
_symmetry_cell_setting 'monoclinic'
loop_
_space_group_symop_operation_xyz
x,y,z
-x,1/2+y,-z
-x,-y,-z
x,1/2-y,z
loop_
_atom_site_type_symbol
_atom_site_label
_atom_site_fract_x
_atom_site_fract_y
_atom_site_fract_z
Si Si1 0.568399 0.912576 0.048229
Si Si2 0.988713 0.911078 0.339899
Si Si3 0.398276 0.978281 0.439073
Si Si4 0.144101 0.582406 0.835248
Si Si5 0.223061 0.912010 0.306757
Si Si6 0.802961 0.588962 0.010644
Si Si7 0.520097 0.750000 0.498350
O O1 0.560330 0.750000 0.011401
O O2 0.440460 0.952666 0.262990
O O3 0.692991 0.908548 0.019200
O O4 0.632293 0.028805 0.894469
O O5 0.974099 0.750000 0.306577
O O6 0.107328 0.902421 0.320234
O O7 0.847947 0.971147 0.538641
O O8 0.053632 0.028323 0.188030
O O9 0.234267 0.953903 0.631290
O O10 0.478051 0.868520 0.441497
O O11 0.440252 0.128834 0.445906
O O12 0.126254 0.750000 0.862743
O O13 0.235305 0.522462 0.850578
O O14 0.000000 0.500000 0.000000
O O15 0.234333 0.750000 0.340370
O O16 0.814058 0.750000 0.047285
#
# Coordination Sequence:
#
# PCOD9158537 Si02
#       7
#     4   4   4   4   4   4   2
#     4  10  19  31  50  79 109 140 175 222 278 332
#     4   9  16  29  46  69 104 142 176 216 264 327
#     4  11  22  36  56  80 111 142 183 227 282 329
#     4  12  26  41  56  76 108 150 193 233 272 323
#     4   9  17  27  43  71 106 141 175 213 268 327
#     4  10  20  33  54  78 105 139 182 226 275 328
#     4  10  20  34  56  82 106 138 174 230 280 330
#
# _framework density 25.06832
#
# number of rings (size 3 to 8) (size 9 to 14) (size 15 to 20)
#    0.000    1.846    1.538    3.692    5.385    4.308 
#    0.000    0.000    0.000    0.000    0.000    1.077 
#    0.000    0.000    0.000    0.000    0.000    0.000 
#
# Total GULP energy -145033.786435 kJ/mol
# GULP energy per Si atom -5578.222555 kJ/mol
# Density = 2.501126 g / cm^3
# Si number density = 25.068320 Si / 1000 Ang^3
#
#
#
# Elastic Constant Matrix: (Units=GPa)
#
#
# Indices 1 2 3 4 5 6 
#
# 1 41.9114 23.6798 5.9024 0.0000 3.8422 0.0000
# 2 23.6798 221.2704 65.0068 0.0000 -0.3624 0.0000
# 3 5.9024 65.0068 171.6043 0.0000 -12.7535 0.0000
# 4 0.0000 0.0000 0.0000 -182.3049 0.0000 54.9542
# 5 3.8422 -0.3624 -12.7535 0.0000 47.9521 0.0000
# 6 0.0000 0.0000 0.0000 54.9542 0.0000 17.2847
#
#
#
# Elastic Compliance Matrix: (Units=1/GPa)
#
#
# Indices 1 2 3 4 5 6 
#
# 1 0.025600 -0.002745 0.000005 0.000000 -0.002071 0.000000
# 2 -0.002745 0.005391 -0.001967 0.000000 -0.000263 0.000000
# 3 0.000005 -0.001967 0.006704 0.000000 0.001768 0.000000
# 4 0.000000 0.000000 0.000000 -0.002801 0.000000 0.008905
# 5 -0.002071 -0.000263 0.001768 0.000000 0.021488 0.000000
# 6 0.000000 0.000000 0.000000 0.008905 0.000000 0.029542
#
#
# Mechanical properties :
#
#
# Convention : Reuss Voigt Hill
#
# Bulk Modulus (GPa) = 35.35934 69.32935 52.34434
# Shear Modulus (GPa) = 47.72677 -0.73382 23.49648
#
# Velocity S-wave (km/s) = 4.36807 -0.54163 3.06485
# Velocity P-wave (km/s) = 6.29093 5.22734 5.78364
#
# Compressibility (1/GPa) = 0.02828107
#
# Stress axis : x y z
#
# Youngs Moduli (GPa) = 39.06314 185.50913 149.17039
#
# Poissons Ratio (x) = 0.50914 -0.00079
# Poissons Ratio (y) = 0.10721 0.29344
# Poissons Ratio (z) = -0.00021 0.36493
#
# Static dielectric constant tensor:
#      x y z
#    x 2.165260 0.000000 -0.062830 
#    y 0.000000 1.854580 0.000000 
#    z -0.062830 0.000000 2.037680 
# 
# From -- ./inp_files/37188.got.cif
#   From: 2010.05.17/outbox.cif.g08.bks.cpg/sg11_19_cif.got.tgz:37188.got - 2010.06.03 12:22:45.
