data_PCOD9158654
_publ_section_title
;
Structure prediction by ZEFSAII (Michael W. Deem and Ramdas Pophale) SiO2 
 PCOD9158654
Probable space group: P 21/M
;
_chemical_formula_sum "Si O2"
_cell_formula_units_Z 32
_cell_length_a 14.893997
_cell_length_b 7.811426
_cell_length_c 14.759052
_cell_angle_alpha 90.000000
_cell_angle_beta 106.461342
_cell_angle_gamma 90.000000
_cell_volume 1646.734946
_symmetry_space_group_name_H-M "P 21/M"
_symmetry_group_IT_number 11
_symmetry_cell_setting 'monoclinic'
loop_
_space_group_symop_operation_xyz
x,y,z
-x,1/2+y,-z
-x,-y,-z
x,1/2-y,z
loop_
_atom_site_type_symbol
_atom_site_label
_atom_site_fract_x
_atom_site_fract_y
_atom_site_fract_z
Si Si1 0.125551 0.545940 0.622912
Si Si2 0.198246 0.042975 0.931514
Si Si3 0.078348 0.950247 0.410127
Si Si4 0.009012 0.545377 0.107857
Si Si5 0.698166 0.050152 0.215555
Si Si6 0.812217 0.554043 0.730978
Si Si7 0.500807 0.542922 0.893217
Si Si8 0.695315 0.540550 0.859833
O O1 0.139066 0.750000 0.621259
O O2 0.111710 0.477000 0.516627
O O3 0.217265 0.474864 0.699839
O O4 0.025104 0.519840 0.642389
O O5 0.205578 0.250000 0.928713
O O6 0.091642 0.995342 0.880712
O O7 0.265819 0.963796 0.876958
O O8 0.230000 0.991508 0.041176
O O9 0.063352 0.750000 0.418834
O O10 0.154170 0.973439 0.353229
O O11 0.021039 0.750000 0.122152
O O12 0.095647 0.454696 0.179371
O O13 0.000000 0.500000 0.000000
O O14 0.688876 0.250000 0.237604
O O15 0.593491 0.976371 0.182370
O O16 0.788506 0.750000 0.704127
O O17 0.730392 0.479404 0.771605
O O18 0.500403 0.750000 0.888771
O O19 0.594632 0.484765 0.868627
O O20 0.500000 0.500000 0.000000
O O21 0.695510 0.750000 0.856205
#
# Coordination Sequence:
#
# PCOD9158654 Si02
#       8
#     4   4   4   4   4   4   4   4
#     4   9  19  36  55  77 107 135 165 209 258 308
#     4  10  19  32  47  67  99 136 167 198 244 298
#     4  10  20  35  55  79 104 134 170 209 256 308
#     4  11  21  32  46  68  99 135 171 205 244 296
#     4  10  20  32  51  78 100 127 166 211 257 299
#     4  11  21  35  52  71  99 138 175 210 252 302
#     4  10  19  33  52  73  99 131 171 210 251 299
#     4   9  18  33  49  67  97 136 170 201 245 299
#
# _framework density 19.432393999999999
#
# number of rings (size 3 to 8) (size 9 to 14) (size 15 to 20)
#    0.000    2.000    2.500    1.875    0.000    4.000 
#    0.000    1.250    0.000    0.750    0.000    0.000 
#    0.000    0.000    0.000    0.000    0.000    0.500 
#
# Total GULP energy -178524.981724 kJ/mol
# GULP energy per Si atom -5578.905679 kJ/mol
# Density = 1.938817 g / cm^3
# Si number density = 19.432394 Si / 1000 Ang^3
#
#
#
# Elastic Constant Matrix: (Units=GPa)
#
#
# Indices 1 2 3 4 5 6 
#
# 1 143.6586 4.0338 51.3449 0.0000 -5.6632 0.0000
# 2 4.0338 24.5350 0.5707 0.0000 3.8470 0.0000
# 3 51.3449 0.5707 86.5160 0.0000 -4.5660 0.0000
# 4 0.0000 0.0000 0.0000 18.2834 0.0000 -3.8947
# 5 -5.6632 3.8470 -4.5660 0.0000 31.0037 0.0000
# 6 0.0000 0.0000 0.0000 -3.8947 0.0000 13.0857
#
#
#
# Elastic Compliance Matrix: (Units=1/GPa)
#
#
# Indices 1 2 3 4 5 6 
#
# 1 0.008911 -0.001508 -0.005224 0.000000 0.001046 0.000000
# 2 -0.001508 0.041848 0.000333 0.000000 -0.005419 0.000000
# 3 -0.005224 0.000333 0.014718 0.000000 0.001172 0.000000
# 4 0.000000 0.000000 0.000000 0.058397 0.000000 0.017381
# 5 0.001046 -0.005419 0.001172 0.000000 0.033290 0.000000
# 6 0.000000 0.000000 0.000000 0.017381 0.000000 0.081592
#
#
# Mechanical properties :
#
#
# Convention : Reuss Voigt Hill
#
# Bulk Modulus (GPa) = 18.98233 40.73427 29.85830
# Shear Modulus (GPa) = 18.57948 25.72523 22.15236
#
# Velocity S-wave (km/s) = 3.09545 3.64240 3.38001
# Velocity P-wave (km/s) = 4.75030 6.22069 5.53454
#
# Compressibility (1/GPa) = 0.05268057
#
# Stress axis : x y z
#
# Youngs Moduli (GPa) = 112.21515 23.89612 67.94275
#
# Poissons Ratio (x) = 0.03602 0.35490
# Poissons Ratio (y) = 0.16917 -0.02260
# Poissons Ratio (z) = 0.58616 -0.00795
#
# Static dielectric constant tensor:
#      x y z
#    x 1.704440 0.000000 0.001740 
#    y 0.000000 1.717280 0.000000 
#    z 0.001740 0.000000 1.690980 
# 
# From -- ./inp_files/51400.got.cif
#   From: 2010.05.17/outbox.cif.g08.bks.cpg/sg11_26_cif.got.tgz:51400.got - 2010.06.03 12:22:45.
