data_PCOD9158190
_publ_section_title
;
Structure prediction by ZEFSAII (Michael W. Deem and Ramdas Pophale) SiO2 
 PCOD9158190
Probable space group: P 21/M
;
_chemical_formula_sum "Si O2"
_cell_formula_units_Z 32
_cell_length_a 27.110745
_cell_length_b 8.801153
_cell_length_c 21.880845
_cell_angle_alpha 90.000000
_cell_angle_beta 159.339753
_cell_angle_gamma 90.000000
_cell_volume 1842.066732
_symmetry_space_group_name_H-M "P 21/M"
_symmetry_group_IT_number 11
_symmetry_cell_setting 'monoclinic'
loop_
_space_group_symop_operation_xyz
x,y,z
-x,1/2+y,-z
-x,-y,-z
x,1/2-y,z
loop_
_atom_site_type_symbol
_atom_site_label
_atom_site_fract_x
_atom_site_fract_y
_atom_site_fract_z
Si Si1 0.347213 0.568364 0.812321
Si Si2 0.551556 0.075342 0.738633
Si Si3 0.849116 0.568924 0.312180
Si Si4 0.345450 0.567456 0.013932
Si Si5 0.638205 0.428835 0.310162
Si Si6 0.565431 0.069068 0.514432
Si Si7 0.759957 0.923586 0.563855
Si Si8 0.140833 0.433931 0.191893
O O1 0.347092 0.750000 0.822879
O O2 0.246940 0.486508 0.743408
O O3 0.310668 0.540443 0.699052
O O4 0.500000 0.500000 0.000000
O O5 0.586091 0.250000 0.762162
O O6 0.396812 0.077991 0.589550
O O7 0.534470 0.975829 0.658514
O O8 0.648521 0.023081 0.907278
O O9 0.854231 0.750000 0.315277
O O10 0.778476 0.504914 0.168607
O O11 0.000000 0.500000 0.500000
O O12 0.338908 0.750000 0.003848
O O13 0.492326 0.515230 0.153943
O O14 0.608490 0.250000 0.280888
O O15 0.747825 0.478135 0.489032
O O16 0.577648 0.250000 0.533293
O O17 0.500000 0.000000 0.500000
O O18 0.718595 0.998637 0.676966
O O19 0.796460 0.750000 0.590422
O O20 0.852321 0.976432 0.728033
O O21 0.144753 0.250000 0.193062
O O22 0.000000 0.500000 0.000000
#
# Coordination Sequence:
#
# PCOD9158190 Si02
#       8
#     4   4   4   4   4   4   4   4
#     4  11  22  36  56  84 113 143 181 227 272 319
#     4   8  16  31  51  78 108 139 177 223 269 320
#     4  12  25  40  58  80 109 146 185 227 275 330
#     4  10  19  33  55  80 109 142 178 222 272 323
#     4  10  19  30  51  82 111 138 177 226 270 313
#     4  11  21  34  55  82 112 146 182 227 274 319
#     4   8  16  30  49  75 108 142 176 217 268 320
#     4  10  20  35  55  81 111 145 184 224 268 324
#
# _framework density 17.371791000000002
#
# number of rings (size 3 to 8) (size 9 to 14) (size 15 to 20)
#    0.000    2.000    1.250    5.250    0.000    7.000 
#    0.000    0.000    2.750    0.000    0.000    0.000 
#    0.000    0.000    0.000    0.000    0.000    0.000 
#
# Total GULP energy -178503.207999 kJ/mol
# GULP energy per Si atom -5578.225250 kJ/mol
# Density = 1.733225 g / cm^3
# Si number density = 17.371791 Si / 1000 Ang^3
#
#
#
# Elastic Constant Matrix: (Units=GPa)
#
#
# Indices 1 2 3 4 5 6 
#
# 1 100.9408 61.0310 68.0169 0.0000 -25.2608 0.0000
# 2 61.0310 104.2119 58.2377 0.0000 -20.1564 0.0000
# 3 68.0169 58.2377 139.0670 0.0000 -29.1491 0.0000
# 4 0.0000 0.0000 0.0000 30.2195 0.0000 -4.9030
# 5 -25.2608 -20.1564 -29.1491 0.0000 32.4050 0.0000
# 6 0.0000 0.0000 0.0000 -4.9030 0.0000 28.9995
#
#
#
# Elastic Compliance Matrix: (Units=1/GPa)
#
#
# Indices 1 2 3 4 5 6 
#
# 1 0.019216 -0.007253 -0.005135 0.000000 0.005849 0.000000
# 2 -0.007253 0.015654 -0.002652 0.000000 0.001697 0.000000
# 3 -0.005135 -0.002652 0.011865 0.000000 0.005020 0.000000
# 4 0.000000 0.000000 0.000000 0.034025 0.000000 0.005753
# 5 0.005849 0.001697 0.005020 0.000000 0.040991 0.000000
# 6 0.000000 0.000000 0.000000 0.005753 0.000000 0.035456
#
#
# Mechanical properties :
#
#
# Convention : Reuss Voigt Hill
#
# Bulk Modulus (GPa) = 60.04330 79.86563 69.95447
# Shear Modulus (GPa) = 25.92849 28.78710 27.35779
#
# Velocity S-wave (km/s) = 3.86756 4.07519 3.97273
# Velocity P-wave (km/s) = 7.38801 8.25936 7.83581
#
# Compressibility (1/GPa) = 0.01665465
#
# Stress axis : x y z
#
# Youngs Moduli (GPa) = 52.04051 63.88204 84.27835
#
# Poissons Ratio (x) = 0.46331 0.43279
# Poissons Ratio (y) = 0.37743 0.22354
# Poissons Ratio (z) = 0.26724 0.16944
#
# Static dielectric constant tensor:
#      x y z
#    x 1.581830 0.000000 -0.038700 
#    y 0.000000 1.584350 0.000000 
#    z -0.038700 0.000000 1.587710 
# 
# From -- ./inp_files/67297.got.cif
#   From: 2010.05.17/outbox.cif.g08.bks.cpg/sg11_34_cif.got.tgz:67297.got - 2010.06.03 12:22:45.
