data_PCOD9158137
_publ_section_title
;
Structure prediction by ZEFSAII (Michael W. Deem and Ramdas Pophale) SiO2 
 PCOD9158137
Probable space group: P 21/M
;
_chemical_formula_sum "Si O2"
_cell_formula_units_Z 28
_cell_length_a 14.103207
_cell_length_b 21.359795
_cell_length_c 5.173721
_cell_angle_alpha 90.000000
_cell_angle_beta 78.009066
_cell_angle_gamma 90.000000
_cell_volume 1524.533460
_symmetry_space_group_name_H-M "P 21/M"
_symmetry_group_IT_number 11
_symmetry_cell_setting 'monoclinic'
loop_
_space_group_symop_operation_xyz
x,y,z
-x,1/2+y,-z
-x,-y,-z
x,1/2-y,z
loop_
_atom_site_type_symbol
_atom_site_label
_atom_site_fract_x
_atom_site_fract_y
_atom_site_fract_z
Si Si1 0.824018 0.173778 0.601568
Si Si2 0.707837 0.174760 0.166146
Si Si3 0.039283 0.325885 0.618689
Si Si4 0.662266 0.910582 0.189760
Si Si5 0.617464 0.519672 0.702913
Si Si6 0.158472 0.325421 0.051300
Si Si7 0.461282 0.903945 0.515318
O O1 0.827091 0.250000 0.604089
O O2 0.786362 0.156292 0.340302
O O3 0.931590 0.151278 0.612050
O O4 0.747868 0.154701 0.865375
O O5 0.700463 0.250000 0.170386
O O6 0.606210 0.145840 0.309593
O O7 0.034350 0.250000 0.616367
O O8 0.115369 0.343637 0.353274
O O9 0.079847 0.342541 0.876237
O O10 0.683108 0.947218 0.445032
O O11 0.555690 0.880610 0.304110
O O12 0.651349 0.960353 0.964453
O O13 0.742278 0.860314 0.070614
O O14 0.602108 0.448016 0.635866
O O15 0.512067 0.551334 0.702021
O O16 0.171646 0.250000 0.038154
#
# Coordination Sequence:
#
# PCOD9158137 Si02
#       7
#     4   4   4   4   4   4   4
#     4   9  18  32  48  71 101 129 166 200 236 292
#     4  10  20  31  49  77 103 129 155 196 255 298
#     4   9  17  31  49  69  98 133 165 201 235 288
#     4  10  19  33  49  74 100 125 165 206 238 280
#     4   9  20  34  52  70  95 131 176 205 227 271
#     4  10  19  30  49  76 102 130 161 195 252 301
#     4   9  21  33  54  70 104 125 172 200 236 287
#
# _framework density 18.366277
#
# number of rings (size 3 to 8) (size 9 to 14) (size 15 to 20)
#    0.857    1.714    0.000    2.143    2.000    4.000 
#    0.000    0.714    0.000    0.000    0.000   20.000 
#    0.000    0.000    0.000    0.000    0.000    0.000 
#
# Total GULP energy -155992.524442 kJ/mol
# GULP energy per Si atom -5571.161587 kJ/mol
# Density = 1.832447 g / cm^3
# Si number density = 18.366277 Si / 1000 Ang^3
#
#
#
# Elastic Constant Matrix: (Units=GPa)
#
#
# Indices 1 2 3 4 5 6 
#
# 1 32.6912 14.2178 -7.2870 0.0000 -8.8553 0.0000
# 2 14.2178 18.2099 1.9710 0.0000 -5.8645 0.0000
# 3 -7.2870 1.9710 60.7066 0.0000 2.4560 0.0000
# 4 0.0000 0.0000 0.0000 9.0406 0.0000 11.9422
# 5 -8.8553 -5.8645 2.4560 0.0000 28.4605 0.0000
# 6 0.0000 0.0000 0.0000 11.9422 0.0000 -7.9915
#
#
#
# Elastic Compliance Matrix: (Units=1/GPa)
#
#
# Indices 1 2 3 4 5 6 
#
# 1 0.050637 -0.037933 0.007013 0.000000 0.007334 0.000000
# 2 -0.037933 0.087588 -0.007677 0.000000 0.006908 0.000000
# 3 0.007013 -0.007677 0.017601 0.000000 -0.000919 0.000000
# 4 0.000000 0.000000 0.000000 0.037193 0.000000 0.055580
# 5 0.007334 0.006908 -0.000919 0.000000 0.038921 0.000000
# 6 0.000000 0.000000 0.000000 0.055580 0.000000 -0.042076
#
#
# Mechanical properties :
#
#
# Convention : Reuss Voigt Hill
#
# Bulk Modulus (GPa) = 12.71740 14.37903 13.54821
# Shear Modulus (GPa) = 17.04932 12.74899 14.89916
#
# Velocity S-wave (km/s) = 3.05010 2.63754 2.85129
# Velocity P-wave (km/s) = 4.39812 4.13781 4.26995
#
# Compressibility (1/GPa) = 0.07863245
#
# Stress axis : x y z
#
# Youngs Moduli (GPa) = 19.74859 11.41712 56.81522
#
# Poissons Ratio (x) = 0.43309 -0.39845
# Poissons Ratio (y) = 0.74912 0.43614
# Poissons Ratio (z) = -0.13850 0.08764
#
# Static dielectric constant tensor:
#      x y z
#    x 1.636260 0.000000 0.009530 
#    y 0.000000 1.615500 0.000000 
#    z 0.009530 0.000000 1.651020 
# 
# From -- ./inp_files/6964.got.cif
#   From: 2010.05.17/outbox.cif.g08.bks.cpg/sg11_4_cif.got.tgz:6964.got - 2010.06.03 12:22:45.
