data_PCOD9158928
_publ_section_title
;
Structure prediction by ZEFSAII (Michael W. Deem and Ramdas Pophale) SiO2 
 PCOD9158928
Probable space group: P 21/M
;
_chemical_formula_sum "Si O2"
_cell_formula_units_Z 28
_cell_length_a 31.384742
_cell_length_b 8.698897
_cell_length_c 10.125799
_cell_angle_alpha 90.000000
_cell_angle_beta 144.121725
_cell_angle_gamma 90.000000
_cell_volume 1620.160220
_symmetry_space_group_name_H-M "P 21/M"
_symmetry_group_IT_number 11
_symmetry_cell_setting 'monoclinic'
loop_
_space_group_symop_operation_xyz
x,y,z
-x,1/2+y,-z
-x,-y,-z
x,1/2-y,z
loop_
_atom_site_type_symbol
_atom_site_label
_atom_site_fract_x
_atom_site_fract_y
_atom_site_fract_z
Si Si1 0.723540 0.564075 0.669173
Si Si2 0.276100 0.565974 0.038965
Si Si3 0.844107 0.563414 0.764335
Si Si4 0.556206 0.566016 0.245989
Si Si5 0.995751 0.434561 0.840739
Si Si6 0.556057 0.065959 0.535668
Si Si7 0.156015 0.434364 0.543004
O O1 0.727526 0.750000 0.688371
O O2 0.739983 0.495065 0.854154
O O3 0.780499 0.510645 0.701521
O O4 0.640119 0.523629 0.424983
O O5 0.270089 0.750000 0.021990
O O6 0.360236 0.524034 0.221143
O O7 0.221360 0.494645 0.796093
O O8 0.841400 0.750000 0.755015
O O9 0.835841 0.514161 0.590379
O O10 0.925217 0.522233 0.018664
O O11 0.551445 0.750000 0.236494
O O12 0.540349 0.500554 0.351336
O O13 0.500000 0.500000 0.000000
O O14 0.990601 0.250000 0.830538
O O15 0.921406 0.503428 0.598170
O O16 0.000000 0.500000 0.000000
O O17 0.551176 0.250000 0.519630
O O18 0.500000 0.000000 0.500000
O O19 0.154209 0.250000 0.539379
#
# Coordination Sequence:
#
# PCOD9158928 Si02
#       7
#     4   4   4   4   4   4   4
#     4   9  18  35  55  74  99 134 170 206 252 306
#     4  10  21  36  52  75 105 135 167 208 255 302
#     4   8  16  31  52  76  99 126 167 212 252 296
#     4  10  20  34  54  78 105 137 173 213 259 310
#     4   9  16  29  49  73 102 133 166 211 259 303
#     4  10  21  37  56  77 104 136 172 214 260 310
#     4  10  19  32  52  77 103 135 172 210 252 303
#
# _framework density 17.282242
#
# number of rings (size 3 to 8) (size 9 to 14) (size 15 to 20)
#    0.000    2.571    0.000    3.000    0.000    3.429 
#    0.000    6.429    0.000    0.000    0.000    0.000 
#    0.000    0.000    0.000    0.000    0.000    0.000 
#
# Total GULP energy -156096.199486 kJ/mol
# GULP energy per Si atom -5574.864267 kJ/mol
# Density = 1.724291 g / cm^3
# Si number density = 17.282242 Si / 1000 Ang^3
#
#
#
# Elastic Constant Matrix: (Units=GPa)
#
#
# Indices 1 2 3 4 5 6 
#
# 1 160.4378 41.7029 92.1433 0.0000 19.1112 0.0000
# 2 41.7029 46.2655 49.9344 0.0000 5.8764 0.0000
# 3 92.1433 49.9344 162.8585 0.0000 11.3141 0.0000
# 4 0.0000 0.0000 0.0000 32.3461 0.0000 0.5038
# 5 19.1112 5.8764 11.3141 0.0000 10.2594 0.0000
# 6 0.0000 0.0000 0.0000 0.5038 0.0000 23.3764
#
#
#
# Elastic Compliance Matrix: (Units=1/GPa)
#
#
# Indices 1 2 3 4 5 6 
#
# 1 0.011388 -0.003836 -0.004273 0.000000 -0.014304 0.000000
# 2 -0.003836 0.034248 -0.008084 0.000000 -0.003556 0.000000
# 3 -0.004273 -0.008084 0.011005 0.000000 0.000454 0.000000
# 4 0.000000 0.000000 0.000000 0.030926 0.000000 -0.000666
# 5 -0.014304 -0.003556 0.000454 0.000000 0.125653 0.000000
# 6 0.000000 0.000000 0.000000 -0.000666 0.000000 0.042793
#
#
# Mechanical properties :
#
#
# Convention : Reuss Voigt Hill
#
# Bulk Modulus (GPa) = 41.22728 81.90258 61.56493
# Shear Modulus (GPa) = 16.86428 25.58179 21.22304
#
# Velocity S-wave (km/s) = 3.12719 3.85156 3.50812
# Velocity P-wave (km/s) = 6.07834 8.20204 7.21871
#
# Compressibility (1/GPa) = 0.02425579
#
# Stress axis : x y z
#
# Youngs Moduli (GPa) = 87.80959 29.19841 90.86686
#
# Poissons Ratio (x) = 0.11201 0.38831
# Poissons Ratio (y) = 0.33684 0.73452
# Poissons Ratio (z) = 0.37525 0.23603
#
# Static dielectric constant tensor:
#      x y z
#    x 1.587610 0.000000 0.011500 
#    y 0.000000 1.589630 0.000000 
#    z 0.011500 0.000000 1.640480 
# 
# From -- ./inp_files/29040.got.cif
#   From: 2010.05.17/outbox.cif.g08.bks.cpg/sg11_15_cif.got.tgz:29040.got - 2010.06.03 12:22:45.
