data_PCOD9158935
_publ_section_title
;
Structure prediction by ZEFSAII (Michael W. Deem and Ramdas Pophale) SiO2 
 PCOD9158935
Probable space group: P 21/M
;
_chemical_formula_sum "Si O2"
_cell_formula_units_Z 28
_cell_length_a 20.026063
_cell_length_b 8.436209
_cell_length_c 16.042828
_cell_angle_alpha 90.000000
_cell_angle_beta 36.960806
_cell_angle_gamma 90.000000
_cell_volume 1629.642471
_symmetry_space_group_name_H-M "P 21/M"
_symmetry_group_IT_number 11
_symmetry_cell_setting 'monoclinic'
loop_
_space_group_symop_operation_xyz
x,y,z
-x,1/2+y,-z
-x,-y,-z
x,1/2-y,z
loop_
_atom_site_type_symbol
_atom_site_label
_atom_site_fract_x
_atom_site_fract_y
_atom_site_fract_z
Si Si1 0.375107 0.058805 0.120339
Si Si2 0.635994 0.060592 0.186157
Si Si3 0.998529 0.440146 0.597017
Si Si4 0.373193 0.060051 0.627390
Si Si5 0.762283 0.943527 0.580075
Si Si6 0.766852 0.939934 0.896803
Si Si7 0.377275 0.056837 0.439838
O O1 0.375023 0.250000 0.120133
O O2 0.307303 0.006712 0.269370
O O3 0.313390 0.004268 0.098305
O O4 0.500000 0.000000 0.000000
O O5 0.634557 0.250000 0.183985
O O6 0.506852 0.005646 0.302761
O O7 0.675396 0.008701 0.238951
O O8 0.714353 0.995701 0.035738
O O9 0.999042 0.250000 0.593683
O O10 0.889049 0.497732 0.753619
O O11 0.000000 0.500000 0.500000
O O12 0.110889 0.493493 0.531888
O O13 0.371111 0.250000 0.634363
O O14 0.331250 0.011853 0.577302
O O15 0.500000 0.000000 0.500000
O O16 0.761833 0.750000 0.578579
O O17 0.699518 0.998248 0.559381
O O18 0.769858 0.750000 0.892357
O O19 0.379642 0.250000 0.435376
#
# Coordination Sequence:
#
# PCOD9158935 Si02
#       7
#     4   4   4   4   4   4   4
#     4  10  20  33  49  73 104 136 166 203 254 307
#     4  10  19  32  52  78 105 138 173 210 258 313
#     4  11  21  36  56  74  98 134 178 220 258 303
#     4   9  16  28  48  76 107 139 170 207 253 308
#     4   9  17  32  51  72 100 133 168 209 252 301
#     4  11  22  36  52  74 104 136 173 217 259 305
#     4   8  15  28  50  77 105 134 167 204 253 309
#
# _framework density 17.181681999999999
#
# number of rings (size 3 to 8) (size 9 to 14) (size 15 to 20)
#    0.000    2.286    1.429    3.429    0.000    2.286 
#    0.000    0.000    0.000   11.143    0.000    0.000 
#    0.000    0.000    0.000    0.000    0.000    0.000 
#
# Total GULP energy -156130.922419 kJ/mol
# GULP energy per Si atom -5576.104372 kJ/mol
# Density = 1.714258 g / cm^3
# Si number density = 17.181682 Si / 1000 Ang^3
#
#
#
# Elastic Constant Matrix: (Units=GPa)
#
#
# Indices 1 2 3 4 5 6 
#
# 1 98.6455 24.1557 109.6276 0.0000 22.5970 0.0000
# 2 24.1557 30.6078 27.3047 0.0000 2.6886 0.0000
# 3 109.6276 27.3047 155.0021 0.0000 10.4621 0.0000
# 4 0.0000 0.0000 0.0000 25.8532 0.0000 0.3806
# 5 22.5970 2.6886 10.4621 0.0000 33.5085 0.0000
# 6 0.0000 0.0000 0.0000 0.3806 0.0000 17.5041
#
#
#
# Elastic Compliance Matrix: (Units=1/GPa)
#
#
# Indices 1 2 3 4 5 6 
#
# 1 0.075190 -0.012987 -0.048563 0.000000 -0.034501 0.000000
# 2 -0.012987 0.041039 0.001622 0.000000 0.004959 0.000000
# 3 -0.048563 0.001622 0.039136 0.000000 0.020400 0.000000
# 4 0.000000 0.000000 0.000000 0.038692 0.000000 -0.000841
# 5 -0.034501 0.004959 0.020400 0.000000 0.046342 0.000000
# 6 0.000000 0.000000 0.000000 -0.000841 0.000000 0.057148
#
#
# Mechanical properties :
#
#
# Convention : Reuss Voigt Hill
#
# Bulk Modulus (GPa) = 28.16315 67.38127 47.77221
# Shear Modulus (GPa) = 11.64849 23.58430 17.61640
#
# Velocity S-wave (km/s) = 2.60659 3.70894 3.20551
# Velocity P-wave (km/s) = 5.04837 7.59234 6.44708
#
# Compressibility (1/GPa) = 0.03550739
#
# Stress axis : x y z
#
# Youngs Moduli (GPa) = 13.29965 24.36704 25.55218
#
# Poissons Ratio (x) = 0.31647 1.24088
# Poissons Ratio (y) = 0.17273 -0.04143
# Poissons Ratio (z) = 0.64587 -0.03951
#
# Static dielectric constant tensor:
#      x y z
#    x 1.595700 0.000000 0.014580 
#    y 0.000000 1.589830 0.000000 
#    z 0.014580 0.000000 1.561370 
# 
# From -- ./inp_files/53237.got.cif
#   From: 2010.05.17/outbox.cif.g08.bks.cpg/sg11_27_cif.got.tgz:53237.got - 2010.06.03 12:22:45.
