data_PCOD9158280
_publ_section_title
;
Structure prediction by ZEFSAII (Michael W. Deem and Ramdas Pophale) SiO2 
 PCOD9158280
Probable space group: P 21/M
;
_chemical_formula_sum "Si O2"
_cell_formula_units_Z 32
_cell_length_a 16.143932
_cell_length_b 8.721964
_cell_length_c 14.633866
_cell_angle_alpha 90.000000
_cell_angle_beta 89.059168
_cell_angle_gamma 90.000000
_cell_volume 2060.269958
_symmetry_space_group_name_H-M "P 21/M"
_symmetry_group_IT_number 11
_symmetry_cell_setting 'monoclinic'
loop_
_space_group_symop_operation_xyz
x,y,z
-x,1/2+y,-z
-x,-y,-z
x,1/2-y,z
loop_
_atom_site_type_symbol
_atom_site_label
_atom_site_fract_x
_atom_site_fract_y
_atom_site_fract_z
Si Si1 0.170153 0.434890 0.285752
Si Si2 0.686536 0.565640 0.402455
Si Si3 0.504687 0.565688 0.397820
Si Si4 0.840754 0.066382 0.289275
Si Si5 0.004675 0.065063 0.398316
Si Si6 0.089129 0.065310 0.100526
Si Si7 0.323229 0.565970 0.391770
Si Si8 0.904976 0.932993 0.106593
O O1 0.176784 0.250000 0.290697
O O2 0.150298 0.477385 0.181390
O O3 0.251887 0.507282 0.326674
O O4 0.089503 0.481328 0.346508
O O5 0.691778 0.750000 0.405457
O O6 0.596216 0.520137 0.362667
O O7 0.761514 0.500161 0.342373
O O8 0.690153 0.503126 0.506394
O O9 0.500000 0.500000 0.500000
O O10 0.505065 0.750000 0.401695
O O11 0.416217 0.520737 0.356754
O O12 0.837654 0.250000 0.290867
O O13 0.924338 0.017099 0.341521
O O14 0.849832 0.008652 0.185685
O O15 0.004220 0.250000 0.402274
O O16 0.000000 0.000000 0.500000
O O17 0.077266 0.250000 0.104754
O O18 0.117912 0.025909 0.997598
O O19 0.999528 0.989730 0.117501
O O20 0.319522 0.750000 0.399014
O O21 0.901823 0.750000 0.115649
#
# Coordination Sequence:
#
# PCOD9158280 Si02
#       8
#     4   4   4   4   4   4   4   4
#     4  10  19  33  48  65  92 129 161 192 231 276
#     4  10  19  32  49  70  94 126 163 196 232 280
#     4   8  16  30  47  66  93 122 153 195 238 276
#     4  11  21  34  48  67  96 128 157 195 238 279
#     4  10  21  33  44  59  89 128 160 187 223 265
#     4   9  18  34  51  68  93 122 157 199 241 278
#     4  10  19  31  47  71  98 126 158 195 237 279
#     4  10  19  31  51  73  91 119 158 199 239 283
#
# _framework density 15.531945
#
# number of rings (size 3 to 8) (size 9 to 14) (size 15 to 20)
#    0.000    2.250    1.250    2.250    0.000    5.500 
#    0.000    0.000    0.000    0.000    0.000    0.875 
#    0.000    0.000    0.000    0.000    0.000    0.000 
#
# Total GULP energy -178380.656383 kJ/mol
# GULP energy per Si atom -5574.395512 kJ/mol
# Density = 1.549659 g / cm^3
# Si number density = 15.531945 Si / 1000 Ang^3
#
#
#
# Elastic Constant Matrix: (Units=GPa)
#
#
# Indices 1 2 3 4 5 6 
#
# 1 142.4533 35.8182 67.7476 0.0000 17.0708 0.0000
# 2 35.8182 26.7169 31.7467 0.0000 3.5267 0.0000
# 3 67.7476 31.7467 105.6031 0.0000 11.7862 0.0000
# 4 0.0000 0.0000 0.0000 23.1928 0.0000 -0.2906
# 5 17.0708 3.5267 11.7862 0.0000 9.6795 0.0000
# 6 0.0000 0.0000 0.0000 -0.2906 0.0000 20.1525
#
#
#
# Elastic Compliance Matrix: (Units=1/GPa)
#
#
# Indices 1 2 3 4 5 6 
#
# 1 0.013469 -0.012134 -0.003281 0.000000 -0.015338 0.000000
# 2 -0.012134 0.069162 -0.014562 0.000000 0.013932 0.000000
# 3 -0.003281 -0.014562 0.017028 0.000000 -0.009642 0.000000
# 4 0.000000 0.000000 0.000000 0.043125 0.000000 0.000622
# 5 -0.015338 0.013932 -0.009642 0.000000 0.137025 0.000000
# 6 0.000000 0.000000 0.000000 0.000622 0.000000 0.049631
#
#
# Mechanical properties :
#
#
# Convention : Reuss Voigt Hill
#
# Bulk Modulus (GPa) = 25.18623 60.59981 42.89302
# Shear Modulus (GPa) = 12.41835 19.90235 16.16035
#
# Velocity S-wave (km/s) = 2.83067 3.58352 3.22911
# Velocity P-wave (km/s) = 5.18985 7.49821 6.44817
#
# Compressibility (1/GPa) = 0.03970423
#
# Stress axis : x y z
#
# Youngs Moduli (GPa) = 74.24246 14.45888 58.72556
#
# Poissons Ratio (x) = 0.17544 0.19270
# Poissons Ratio (y) = 0.90086 0.85517
# Poissons Ratio (z) = 0.24362 0.21055
#
# Static dielectric constant tensor:
#      x y z
#    x 1.529780 0.000000 0.007230 
#    y 0.000000 1.525750 0.000000 
#    z 0.007230 0.000000 1.500510 
# 
# From -- ./inp_files/51266.got.cif
#   From: 2010.05.17/outbox.cif.g08.bks.cpg/sg11_26_cif.got.tgz:51266.got - 2010.06.03 12:22:45.
