data_PCOD9158243
_publ_section_title
;
Structure prediction by ZEFSAII (Michael W. Deem and Ramdas Pophale) SiO2 
 PCOD9158243
Probable space group: P 21/M
;
_chemical_formula_sum "Si O2"
_cell_formula_units_Z 32
_cell_length_a 28.400262
_cell_length_b 8.678859
_cell_length_c 17.195848
_cell_angle_alpha 90.000000
_cell_angle_beta 24.873014
_cell_angle_gamma 90.000000
_cell_volume 1782.734534
_symmetry_space_group_name_H-M "P 21/M"
_symmetry_group_IT_number 11
_symmetry_cell_setting 'monoclinic'
loop_
_space_group_symop_operation_xyz
x,y,z
-x,1/2+y,-z
-x,-y,-z
x,1/2-y,z
loop_
_atom_site_type_symbol
_atom_site_label
_atom_site_fract_x
_atom_site_fract_y
_atom_site_fract_z
Si Si1 0.752649 0.568117 0.951181
Si Si2 0.519071 0.067134 0.270894
Si Si3 0.672077 0.563665 0.728509
Si Si4 0.604451 0.566835 0.393114
Si Si5 0.165285 0.566768 0.017195
Si Si6 0.514880 0.933428 0.105002
Si Si7 0.096029 0.434406 0.410928
Si Si8 0.081089 0.061949 0.610296
O O1 0.767233 0.750000 0.942873
O O2 0.791270 0.532143 0.805661
O O3 0.625084 0.519459 0.148696
O O4 0.823885 0.476499 0.907920
O O5 0.539899 0.250000 0.241663
O O6 0.418248 0.034231 0.481595
O O7 0.507852 0.013536 0.199080
O O8 0.663445 0.750000 0.732840
O O9 0.591548 0.483122 0.787286
O O10 0.801818 0.517220 0.525804
O O11 0.621966 0.527566 0.889613
O O12 0.500000 0.500000 0.500000
O O13 0.603160 0.750000 0.383491
O O14 0.725003 0.504670 0.186400
O O15 0.171254 0.750000 0.999792
O O16 0.041395 0.513753 0.175679
O O17 0.517259 0.750000 0.113599
O O18 0.084332 0.250000 0.431988
O O19 0.091115 0.492239 0.505807
O O20 0.000000 0.500000 0.500000
O O21 0.080546 0.250000 0.610763
#
# Coordination Sequence:
#
# PCOD9158243 Si02
#       8
#     4   4   4   4   4   4   4   4
#     4  11  21  32  50  75 107 144 181 223 270 318
#     4  11  23  37  56  79 106 142 182 227 279 333
#     4   9  18  36  59  82 113 149 182 218 268 329
#     4  11  23  38  56  78 107 143 186 232 281 329
#     4  11  21  34  53  76 106 144 185 225 269 322
#     4  10  20  35  58  87 115 141 177 227 276 324
#     4  10  19  31  46  70 105 143 179 215 258 312
#     4   9  18  33  53  75 106 147 185 220 265 325
#
# _framework density 17.949954000000002
#
# number of rings (size 3 to 8) (size 9 to 14) (size 15 to 20)
#    0.000    1.750    2.500    2.625    0.000    4.500 
#    0.000    1.875    0.000    0.750    0.000    0.000 
#    0.000    0.000    0.000    0.000    0.000    0.000 
#
# Total GULP energy -178514.446787 kJ/mol
# GULP energy per Si atom -5578.576462 kJ/mol
# Density = 1.790910 g / cm^3
# Si number density = 17.949954 Si / 1000 Ang^3
#
#
#
# Elastic Constant Matrix: (Units=GPa)
#
#
# Indices 1 2 3 4 5 6 
#
# 1 39.7740 5.7612 26.1370 0.0000 -4.3737 0.0000
# 2 5.7612 29.7272 32.4875 0.0000 3.7832 0.0000
# 3 26.1370 32.4875 132.7247 0.0000 -14.4852 0.0000
# 4 0.0000 0.0000 0.0000 23.9197 0.0000 2.7199
# 5 -4.3737 3.7832 -14.4852 0.0000 27.9060 0.0000
# 6 0.0000 0.0000 0.0000 2.7199 0.0000 25.1190
#
#
#
# Elastic Compliance Matrix: (Units=1/GPa)
#
#
# Indices 1 2 3 4 5 6 
#
# 1 0.028955 0.000312 -0.005605 0.000000 0.001586 0.000000
# 2 0.000312 0.050675 -0.014003 0.000000 -0.014090 0.000000
# 3 -0.005605 -0.014003 0.012908 0.000000 0.007720 0.000000
# 4 0.000000 0.000000 0.000000 0.042328 0.000000 -0.004583
# 5 0.001586 -0.014090 0.007720 0.000000 0.042001 0.000000
# 6 0.000000 0.000000 0.000000 -0.004583 0.000000 0.040307
#
#
# Mechanical properties :
#
#
# Convention : Reuss Voigt Hill
#
# Bulk Modulus (GPa) = 18.53702 36.77748 27.65725
# Shear Modulus (GPa) = 18.26500 24.57830 21.42165
#
# Velocity S-wave (km/s) = 3.19337 3.70438 3.45832
# Velocity P-wave (km/s) = 4.89349 6.23137 5.60251
#
# Compressibility (1/GPa) = 0.05394611
#
# Stress axis : x y z
#
# Youngs Moduli (GPa) = 34.53675 19.73350 77.46890
#
# Poissons Ratio (x) = -0.00616 0.43424
# Poissons Ratio (y) = -0.01079 1.08481
# Poissons Ratio (z) = 0.19359 0.27633
#
# Static dielectric constant tensor:
#      x y z
#    x 1.604300 0.000000 -0.006760 
#    y 0.000000 1.564390 0.000000 
#    z -0.006760 0.000000 1.636440 
# 
# From -- ./inp_files/55553.got.cif
#   From: 2010.05.17/outbox.cif.g08.bks.cpg/sg11_28_cif.got.tgz:55553.got - 2010.06.03 12:22:45.
