data_PCOD9158049
_publ_section_title
;
Structure prediction by ZEFSAII (Michael W. Deem and Ramdas Pophale) SiO2 
 PCOD9158049
Probable space group: P 21/M
;
_chemical_formula_sum "Si O2"
_cell_formula_units_Z 32
_cell_length_a 30.869232
_cell_length_b 8.930583
_cell_length_c 21.969007
_cell_angle_alpha 90.000000
_cell_angle_beta 162.152193
_cell_angle_gamma 90.000000
_cell_volume 1856.230351
_symmetry_space_group_name_H-M "P 21/M"
_symmetry_group_IT_number 11
_symmetry_cell_setting 'monoclinic'
loop_
_space_group_symop_operation_xyz
x,y,z
-x,1/2+y,-z
-x,-y,-z
x,1/2-y,z
loop_
_atom_site_type_symbol
_atom_site_label
_atom_site_fract_x
_atom_site_fract_y
_atom_site_fract_z
Si Si1 0.275938 0.577222 0.108477
Si Si2 0.359079 0.931795 0.090838
Si Si3 0.335731 0.070825 0.541808
Si Si4 0.951089 0.922352 0.625520
Si Si5 0.054004 0.568727 0.634585
Si Si6 0.855935 0.425602 0.615737
Si Si7 0.176350 0.426510 0.093307
Si Si8 0.152902 0.571259 0.190312
O O1 0.314567 0.750000 0.173383
O O2 0.363881 0.518434 0.168115
O O3 0.270857 0.483016 0.163324
O O4 0.114709 0.577970 0.867031
O O5 0.351470 0.750000 0.084259
O O6 0.499568 0.971038 0.242414
O O7 0.214002 0.980840 0.864892
O O8 0.323017 0.250000 0.518400
O O9 0.257883 0.018121 0.498577
O O10 0.257074 0.991016 0.380838
O O11 0.902359 0.750000 0.563507
O O12 0.958313 0.972573 0.565205
O O13 0.867273 0.022337 0.561172
O O14 0.053606 0.750000 0.630709
O O15 0.000000 0.500000 0.500000
O O16 0.825927 0.250000 0.580281
O O17 0.011882 0.450951 0.853785
O O18 0.196088 0.250000 0.129966
O O19 0.200260 0.516985 0.187003
O O20 0.142896 0.750000 0.179655
O O21 0.000000 0.500000 0.000000
#
# Coordination Sequence:
#
# PCOD9158049 Si02
#       8
#     4   4   4   4   4   4   4   4
#     4   8  14  29  51  71  94 127 168 210 251 296
#     4   8  17  34  54  76 103 136 171 206 248 306
#     4  11  21  34  53  73  99 137 174 209 256 307
#     4   8  15  28  48  73 101 131 165 204 247 297
#     4   9  17  32  55  83 110 134 164 204 250 300
#     4  10  19  30  47  72 102 131 167 214 256 296
#     4  10  19  31  48  72 100 128 165 214 263 304
#     4  12  23  35  50  71  99 132 172 217 261 303
#
# _framework density 17.239239000000001
#
# number of rings (size 3 to 8) (size 9 to 14) (size 15 to 20)
#    0.000    2.500    1.250    3.750    0.000    1.500 
#    0.000    5.000    0.000    0.750    0.000    0.000 
#    0.000    0.000    0.000    0.000    0.000    0.000 
#
# Total GULP energy -178436.358770 kJ/mol
# GULP energy per Si atom -5576.136212 kJ/mol
# Density = 1.720000 g / cm^3
# Si number density = 17.239239 Si / 1000 Ang^3
#
#
#
# Elastic Constant Matrix: (Units=GPa)
#
#
# Indices 1 2 3 4 5 6 
#
# 1 131.5597 55.7301 42.5356 0.0000 -9.9866 0.0000
# 2 55.7301 66.6339 27.3577 0.0000 2.8240 0.0000
# 3 42.5356 27.3577 47.4987 0.0000 -0.3702 0.0000
# 4 0.0000 0.0000 0.0000 14.9589 0.0000 -6.4633
# 5 -9.9866 2.8240 -0.3702 0.0000 22.7667 0.0000
# 6 0.0000 0.0000 0.0000 -6.4633 0.0000 30.4920
#
#
#
# Elastic Compliance Matrix: (Units=1/GPa)
#
#
# Indices 1 2 3 4 5 6 
#
# 1 0.014615 -0.009417 -0.007606 0.000000 0.007455 0.000000
# 2 -0.009417 0.025881 -0.006532 0.000000 -0.007447 0.000000
# 3 -0.007606 -0.006532 0.031611 0.000000 -0.002012 0.000000
# 4 0.000000 0.000000 0.000000 0.073590 0.000000 0.015599
# 5 0.007455 -0.007447 -0.002012 0.000000 0.048085 0.000000
# 6 0.000000 0.000000 0.000000 0.015599 0.000000 0.036102
#
#
# Mechanical properties :
#
#
# Convention : Reuss Voigt Hill
#
# Bulk Modulus (GPa) = 40.00388 55.21546 47.60967
# Shear Modulus (GPa) = 17.52384 21.64809 19.58596
#
# Velocity S-wave (km/s) = 3.19173 3.54749 3.37430
# Velocity P-wave (km/s) = 6.06946 6.99129 6.54662
#
# Compressibility (1/GPa) = 0.02499757
#
# Stress axis : x y z
#
# Youngs Moduli (GPa) = 68.42113 38.63913 31.63448
#
# Poissons Ratio (x) = 0.36386 0.24062
# Poissons Ratio (y) = 0.64431 0.20662
# Poissons Ratio (z) = 0.52044 0.25237
#
# Static dielectric constant tensor:
#      x y z
#    x 1.598960 0.000000 0.014570 
#    y 0.000000 1.577450 0.000000 
#    z 0.014570 0.000000 1.573970 
# 
# From -- ./inp_files/40626.got.cif
#   From: 2010.05.17/outbox.cif.g08.bks.cpg/sg11_21_cif.got.tgz:40626.got - 2010.06.03 12:22:45.
