data_PCOD9158230
_publ_section_title
;
Structure prediction by ZEFSAII (Michael W. Deem and Ramdas Pophale) SiO2 
 PCOD9158230
Probable space group: P 21/M
;
_chemical_formula_sum "Si O2"
_cell_formula_units_Z 32
_cell_length_a 17.391634
_cell_length_b 9.049021
_cell_length_c 12.142134
_cell_angle_alpha 90.000000
_cell_angle_beta 95.965585
_cell_angle_gamma 90.000000
_cell_volume 1900.547342
_symmetry_space_group_name_H-M "P 21/M"
_symmetry_group_IT_number 11
_symmetry_cell_setting 'monoclinic'
loop_
_space_group_symop_operation_xyz
x,y,z
-x,1/2+y,-z
-x,-y,-z
x,1/2-y,z
loop_
_atom_site_type_symbol
_atom_site_label
_atom_site_fract_x
_atom_site_fract_y
_atom_site_fract_z
Si Si1 0.408743 0.573021 0.265326
Si Si2 0.775224 0.928534 0.376073
Si Si3 0.536663 0.928547 0.114102
Si Si4 0.675945 0.925063 0.560318
Si Si5 0.920077 0.425563 0.520959
Si Si6 0.715883 0.572434 0.132199
Si Si7 0.258461 0.925371 0.093388
Si Si8 0.180830 0.925351 0.296592
O O1 0.407801 0.750000 0.277707
O O2 0.486515 0.528495 0.213575
O O3 0.392232 0.502191 0.381602
O O4 0.337253 0.534667 0.172030
O O5 0.785308 0.750000 0.384241
O O6 0.698611 0.963384 0.438023
O O7 0.762138 0.972389 0.248143
O O8 0.849281 0.006922 0.440238
O O9 0.531648 0.750000 0.104246
O O10 0.626167 0.970979 0.133832
O O11 0.500000 0.000000 0.000000
O O12 0.665916 0.750000 0.565911
O O13 0.753128 0.977585 0.635978
O O14 0.924003 0.250000 0.504268
O O15 0.896664 0.451078 0.645851
O O16 0.000000 0.500000 0.500000
O O17 0.718241 0.750000 0.126753
O O18 0.745588 0.507318 0.022303
O O19 0.261987 0.750000 0.073933
O O20 0.188513 0.955589 0.168241
O O21 0.200747 0.750000 0.313544
#
# Coordination Sequence:
#
# PCOD9158230 Si02
#       8
#     4   4   4   4   4   4   4   4
#     4   9  17  29  44  64  93 125 159 206 256 294
#     4   9  19  35  50  70 101 131 161 198 241 290
#     4  10  19  31  46  66  94 128 166 208 252 295
#     4   9  16  27  46  67  89 121 161 204 241 281
#     4  10  19  33  56  82 104 128 156 191 236 286
#     4  10  20  32  48  69  96 131 166 203 248 291
#     4   9  16  28  46  68  95 126 161 200 239 284
#     4   8  16  30  47  70 100 127 153 190 239 286
#
# _framework density 16.837254999999999
#
# number of rings (size 3 to 8) (size 9 to 14) (size 15 to 20)
#    0.000    2.750    1.250    1.500    0.000    4.000 
#    0.000    0.625    0.000    0.750    0.000    0.000 
#    0.000    0.000    0.000    0.000    0.000    0.000 
#
# Total GULP energy -178206.708978 kJ/mol
# GULP energy per Si atom -5568.959656 kJ/mol
# Density = 1.679893 g / cm^3
# Si number density = 16.837255 Si / 1000 Ang^3
#
#
#
# Elastic Constant Matrix: (Units=GPa)
#
#
# Indices 1 2 3 4 5 6 
#
# 1 80.6620 27.1432 54.3605 0.0000 -25.0966 0.0000
# 2 27.1432 23.4174 37.6194 0.0000 -9.9080 0.0000
# 3 54.3605 37.6194 124.7912 0.0000 -23.9935 0.0000
# 4 0.0000 0.0000 0.0000 26.8196 0.0000 -8.6026
# 5 -25.0966 -9.9080 -23.9935 0.0000 25.7234 0.0000
# 6 0.0000 0.0000 0.0000 -8.6026 0.0000 20.2873
#
#
#
# Elastic Compliance Matrix: (Units=1/GPa)
#
#
# Indices 1 2 3 4 5 6 
#
# 1 0.024954 -0.018921 -0.002299 0.000000 0.014914 0.000000
# 2 -0.018921 0.099542 -0.021864 0.000000 -0.000513 0.000000
# 3 -0.002299 -0.021864 0.016518 0.000000 0.004743 0.000000
# 4 0.000000 0.000000 0.000000 0.043156 0.000000 0.018300
# 5 0.014914 -0.000513 0.004743 0.000000 0.057651 0.000000
# 6 0.000000 0.000000 0.000000 0.018300 0.000000 0.057052
#
#
# Mechanical properties :
#
#
# Convention : Reuss Voigt Hill
#
# Bulk Modulus (GPa) = 18.23309 51.90186 35.06748
# Shear Modulus (GPa) = 12.39703 21.88257 17.13980
#
# Velocity S-wave (km/s) = 2.71640 3.60898 3.19402
# Velocity P-wave (km/s) = 4.54873 6.94686 5.87153
#
# Compressibility (1/GPa) = 0.05484533
#
# Stress axis : x y z
#
# Youngs Moduli (GPa) = 40.07399 10.04604 60.54081
#
# Poissons Ratio (x) = 0.19008 0.13917
# Poissons Ratio (y) = 0.75824 1.32367
# Poissons Ratio (z) = 0.09212 0.21965
#
# Static dielectric constant tensor:
#      x y z
#    x 1.566070 0.000000 -0.033340 
#    y 0.000000 1.569040 0.000000 
#    z -0.033340 0.000000 1.583270 
# 
# From -- ./inp_files/40682.got.cif
#   From: 2010.05.17/outbox.cif.g08.bks.cpg/sg11_21_cif.got.tgz:40682.got - 2010.06.03 12:22:45.
