data_PCOD9158611
_publ_section_title
;
Structure prediction by ZEFSAII (Michael W. Deem and Ramdas Pophale) SiO2 
 PCOD9158611
Probable space group: P 21/M
;
_chemical_formula_sum "Si O2"
_cell_formula_units_Z 32
_cell_length_a 5.350068
_cell_length_b 9.443582
_cell_length_c 32.845497
_cell_angle_alpha 90.000000
_cell_angle_beta 84.350408
_cell_angle_gamma 90.000000
_cell_volume 1651.418700
_symmetry_space_group_name_H-M "P 21/M"
_symmetry_group_IT_number 11
_symmetry_cell_setting 'monoclinic'
loop_
_space_group_symop_operation_xyz
x,y,z
-x,1/2+y,-z
-x,-y,-z
x,1/2-y,z
loop_
_atom_site_type_symbol
_atom_site_label
_atom_site_fract_x
_atom_site_fract_y
_atom_site_fract_z
Si Si1 0.008285 0.092756 0.563736
Si Si2 0.687724 0.594953 0.522025
Si Si3 0.633250 0.577978 0.770564
Si Si4 0.896330 0.078470 0.180351
Si Si5 0.247977 0.921199 0.627615
Si Si6 0.941888 0.580356 0.094234
Si Si7 0.473033 0.580766 0.042840
Si Si8 0.287166 0.078935 0.322902
O O1 0.946543 0.250000 0.580528
O O2 0.097565 0.113343 0.515782
O O3 0.785194 0.981182 0.560847
O O4 0.214873 0.013354 0.587394
O O5 0.500000 0.500000 0.500000
O O6 0.585262 0.750000 0.533197
O O7 0.634599 0.750000 0.769068
O O8 0.867204 0.537273 0.795233
O O9 0.668355 0.526716 0.723747
O O10 0.365834 0.537397 0.793951
O O11 0.898551 0.250000 0.175892
O O12 0.918027 0.004496 0.136468
O O13 0.252258 0.750000 0.620363
O O14 0.487934 0.963342 0.650579
O O15 0.989638 0.954687 0.656147
O O16 0.937255 0.750000 0.101960
O O17 0.706911 0.546411 0.068639
O O18 0.206933 0.546596 0.068328
O O19 0.477815 0.750000 0.035621
O O20 0.500000 0.500000 0.000000
O O21 0.299568 0.250000 0.321239
#
# Coordination Sequence:
#
# PCOD9158611 Si02
#       8
#     4   4   4   4   4   4   4   4
#     4  10  22  38  54  78 109 144 180 223 275 324
#     4  10  21  37  58  81 107 141 181 224 273 326
#     4   9  17  31  52  79 108 136 173 223 271 315
#     4  10  19  31  53  81 105 136 177 222 269 315
#     4  10  20  34  55  82 107 141 183 223 266 320
#     4  10  21  36  52  75 108 140 173 215 268 322
#     4  10  21  36  54  75 102 140 180 219 265 314
#     4   9  18  33  54  80 109 140 178 222 270 320
#
# _framework density 19.377276999999999
#
# number of rings (size 3 to 8) (size 9 to 14) (size 15 to 20)
#    0.000    2.250    0.000    2.625    1.750    5.500 
#    0.000    0.000    0.000    4.500    0.000    0.000 
#    0.000    0.000    0.000    0.000    0.000    0.000 
#
# Total GULP energy -178529.653625 kJ/mol
# GULP energy per Si atom -5579.051676 kJ/mol
# Density = 1.933317 g / cm^3
# Si number density = 19.377277 Si / 1000 Ang^3
#
#
#
# Elastic Constant Matrix: (Units=GPa)
#
#
# Indices 1 2 3 4 5 6 
#
# 1 150.6110 27.9921 77.1741 0.0000 9.2709 0.0000
# 2 27.9921 61.0919 35.6274 0.0000 9.7540 0.0000
# 3 77.1741 35.6274 151.1768 0.0000 5.7690 0.0000
# 4 0.0000 0.0000 0.0000 23.7443 0.0000 1.1180
# 5 9.2709 9.7540 5.7690 0.0000 37.4932 0.0000
# 6 0.0000 0.0000 0.0000 1.1180 0.0000 8.4041
#
#
#
# Elastic Compliance Matrix: (Units=1/GPa)
#
#
# Indices 1 2 3 4 5 6 
#
# 1 0.009195 -0.001517 -0.004290 0.000000 -0.001219 0.000000
# 2 -0.001517 0.019933 -0.003762 0.000000 -0.004232 0.000000
# 3 -0.004290 -0.003762 0.009670 0.000000 0.000551 0.000000
# 4 0.000000 0.000000 0.000000 0.042381 0.000000 -0.005638
# 5 -0.001219 -0.004232 0.000551 0.000000 0.027989 0.000000
# 6 0.000000 0.000000 0.000000 -0.005638 0.000000 0.119740
#
#
# Mechanical properties :
#
#
# Convention : Reuss Voigt Hill
#
# Bulk Modulus (GPa) = 50.86115 71.60742 61.23428
# Shear Modulus (GPa) = 19.63876 28.73406 24.18641
#
# Velocity S-wave (km/s) = 3.18700 3.85499 3.53680
# Velocity P-wave (km/s) = 6.31248 7.53984 6.95329
#
# Compressibility (1/GPa) = 0.01966137
#
# Stress axis : x y z
#
# Youngs Moduli (GPa) = 108.75866 50.16753 103.41053
#
# Poissons Ratio (x) = 0.07608 0.44361
# Poissons Ratio (y) = 0.16495 0.38902
# Poissons Ratio (z) = 0.46656 0.18872
#
# Static dielectric constant tensor:
#      x y z
#    x 1.714220 0.000000 -0.036540 
#    y 0.000000 1.729660 0.000000 
#    z -0.036540 0.000000 1.668260 
# 
# From -- ./inp_files/72597.got.cif
#   From: 2010.05.17/outbox.cif.g08.bks.cpg/sg11_37_cif.got.tgz:72597.got - 2010.06.03 12:22:45.
