data_PCOD9158834
_publ_section_title
;
Structure prediction by ZEFSAII (Michael W. Deem and Ramdas Pophale) SiO2 
 PCOD9158834
Probable space group: P 21/M
;
_chemical_formula_sum "Si O2"
_cell_formula_units_Z 32
_cell_length_a 35.277279
_cell_length_b 8.257107
_cell_length_c 12.815270
_cell_angle_alpha 90.000000
_cell_angle_beta 153.092697
_cell_angle_gamma 90.000000
_cell_volume 1689.334934
_symmetry_space_group_name_H-M "P 21/M"
_symmetry_group_IT_number 11
_symmetry_cell_setting 'monoclinic'
loop_
_space_group_symop_operation_xyz
x,y,z
-x,1/2+y,-z
-x,-y,-z
x,1/2-y,z
loop_
_atom_site_type_symbol
_atom_site_label
_atom_site_fract_x
_atom_site_fract_y
_atom_site_fract_z
Si Si1 0.258491 0.947870 0.281238
Si Si2 0.407842 0.556447 0.803211
Si Si3 0.756335 0.063542 0.987365
Si Si4 0.963524 0.442048 0.714733
Si Si5 0.713156 0.560333 0.327046
Si Si6 0.063135 0.436844 0.570345
Si Si7 0.770627 0.445692 0.253560
Si Si8 0.136878 0.559002 0.162731
O O1 0.253251 0.750000 0.263962
O O2 0.339999 0.992323 0.548498
O O3 0.267446 0.007915 0.184116
O O4 0.177486 0.000522 0.151438
O O5 0.405834 0.750000 0.805118
O O6 0.372031 0.485717 0.822933
O O7 0.500000 0.500000 0.000000
O O8 0.727385 0.250000 0.917456
O O9 0.740764 0.994167 0.065513
O O10 0.856735 0.052242 0.230338
O O11 0.960630 0.250000 0.688147
O O12 0.976585 0.540957 0.640361
O O13 0.869012 0.489069 0.516870
O O14 0.049971 0.478598 0.986310
O O15 0.728148 0.750000 0.375232
O O16 0.716107 0.511505 0.213968
O O17 0.788826 0.469647 0.572206
O O18 0.087018 0.250000 0.645821
O O19 0.000000 0.500000 0.500000
O O20 0.767225 0.250000 0.243261
O O21 0.122501 0.750000 0.119079
#
# Coordination Sequence:
#
# PCOD9158834 Si02
#       8
#     4   4   4   4   4   4   4   4
#     4   8  16  31  53  79 105 134 166 207 260 314
#     4  10  20  37  61  88 114 135 162 203 257 318
#     4   9  17  32  52  73  99 133 173 214 260 313
#     4  10  20  33  48  69  98 135 181 227 270 316
#     4  11  22  36  55  77 104 139 178 217 258 309
#     4  11  20  29  42  63  94 133 177 224 270 311
#     4   9  19  34  51  72 102 140 180 221 263 309
#     4  10  19  32  51  75 105 139 177 224 275 319
#
# _framework density 18.942367000000001
#
# number of rings (size 3 to 8) (size 9 to 14) (size 15 to 20)
#    0.000    2.250    0.000    5.625    0.000    4.000 
#    0.000    3.125    0.000    0.750    0.000    0.000 
#    0.000    0.000    0.000    0.000    0.000    0.000 
#
# Total GULP energy -178337.602284 kJ/mol
# GULP energy per Si atom -5573.050071 kJ/mol
# Density = 1.889925 g / cm^3
# Si number density = 18.942367 Si / 1000 Ang^3
#
#
#
# Elastic Constant Matrix: (Units=GPa)
#
#
# Indices 1 2 3 4 5 6 
#
# 1 140.5418 11.2428 32.4568 0.0000 -4.4648 0.0000
# 2 11.2428 41.9128 4.8661 0.0000 3.9857 0.0000
# 3 32.4568 4.8661 43.9427 0.0000 4.4276 0.0000
# 4 0.0000 0.0000 0.0000 19.6104 0.0000 5.2494
# 5 -4.4648 3.9857 4.4276 0.0000 19.1179 0.0000
# 6 0.0000 0.0000 0.0000 5.2494 0.0000 17.2682
#
#
#
# Elastic Compliance Matrix: (Units=1/GPa)
#
#
# Indices 1 2 3 4 5 6 
#
# 1 0.008982 -0.002007 -0.006825 0.000000 0.004097 0.000000
# 2 -0.002007 0.025006 -0.000732 0.000000 -0.005512 0.000000
# 3 -0.006825 -0.000732 0.028694 0.000000 -0.008087 0.000000
# 4 0.000000 0.000000 0.000000 0.055510 0.000000 -0.016875
# 5 0.004097 -0.005512 -0.008087 0.000000 0.056286 0.000000
# 6 0.000000 0.000000 0.000000 -0.016875 0.000000 0.063040
#
#
# Mechanical properties :
#
#
# Convention : Reuss Voigt Hill
#
# Bulk Modulus (GPa) = 22.95891 35.94763 29.45327
# Shear Modulus (GPa) = 18.43907 23.05473 20.74690
#
# Velocity S-wave (km/s) = 3.12337 3.49248 3.31307
# Velocity P-wave (km/s) = 5.01537 5.93985 5.49708
#
# Compressibility (1/GPa) = 0.04355607
#
# Stress axis : x y z
#
# Youngs Moduli (GPa) = 111.33213 39.98970 34.85087
#
# Poissons Ratio (x) = 0.08024 0.23785
# Poissons Ratio (y) = 0.22340 0.02550
# Poissons Ratio (z) = 0.75983 0.02926
#
# Static dielectric constant tensor:
#      x y z
#    x 1.710830 0.000000 -0.052970 
#    y 0.000000 1.735190 0.000000 
#    z -0.052970 0.000000 1.677270 
# 
# From -- ./inp_files/40568.got.cif
#   From: 2010.05.17/outbox.cif.g08.bks.cpg/sg11_21_cif.got.tgz:40568.got - 2010.06.03 12:22:45.
