data_PCOD9158580
_publ_section_title
;
Structure prediction by ZEFSAII (Michael W. Deem and Ramdas Pophale) SiO2 
 PCOD9158580
Probable space group: P 21/M
;
_chemical_formula_sum "Si O2"
_cell_formula_units_Z 32
_cell_length_a 20.293638
_cell_length_b 7.824531
_cell_length_c 14.562378
_cell_angle_alpha 90.000000
_cell_angle_beta 46.654195
_cell_angle_gamma 90.000000
_cell_volume 1681.585200
_symmetry_space_group_name_H-M "P 21/M"
_symmetry_group_IT_number 11
_symmetry_cell_setting 'monoclinic'
loop_
_space_group_symop_operation_xyz
x,y,z
-x,1/2+y,-z
-x,-y,-z
x,1/2-y,z
loop_
_atom_site_type_symbol
_atom_site_label
_atom_site_fract_x
_atom_site_fract_y
_atom_site_fract_z
Si Si1 0.485623 0.455564 0.620129
Si Si2 0.812411 0.548191 0.512928
Si Si3 0.146774 0.543587 0.132779
Si Si4 0.285875 0.455065 0.856240
Si Si5 0.037448 0.040933 0.779171
Si Si6 0.824758 0.551613 0.208734
Si Si7 0.896435 0.046352 0.621687
Si Si8 0.678209 0.050304 0.497194
O O1 0.500000 0.500000 0.500000
O O2 0.483012 0.250000 0.631792
O O3 0.387881 0.521705 0.746099
O O4 0.575816 0.515312 0.586625
O O5 0.804572 0.750000 0.506979
O O6 0.834233 0.513447 0.597347
O O7 0.723276 0.467455 0.553706
O O8 0.897555 0.490640 0.368293
O O9 0.142372 0.750000 0.138858
O O10 0.063331 0.483117 0.148317
O O11 0.131320 0.480520 0.251206
O O12 0.240259 0.491325 0.996937
O O13 0.289787 0.250000 0.839001
O O14 0.218438 0.526029 0.841600
O O15 0.037180 0.250000 0.782548
O O16 0.086650 0.977917 0.824873
O O17 0.845225 0.750000 0.170087
O O18 0.745096 0.542227 0.361506
O O19 0.891193 0.250000 0.630073
O O20 0.000000 0.000000 0.500000
O O21 0.679156 0.250000 0.470001
#
# Coordination Sequence:
#
# PCOD9158580 Si02
#       8
#     4   4   4   4   4   4   4   4
#     4  10  20  34  54  79 108 139 178 224 270 314
#     4  10  19  34  55  79 108 140 173 218 271 320
#     4  10  21  36  51  73 107 144 178 218 265 314
#     4  10  21  35  50  75 107 143 183 222 264 313
#     4   8  15  30  49  71 102 139 173 207 253 305
#     4   9  17  31  51  72 104 144 178 214 257 309
#     4  11  21  35  56  82 109 139 180 224 268 316
#     4  10  19  31  51  81 109 135 173 222 269 317
#
# _framework density 19.029661999999998
#
# number of rings (size 3 to 8) (size 9 to 14) (size 15 to 20)
#    0.000    2.250    2.500    1.875    0.000    3.000 
#    0.000    0.625    0.000    0.750    0.000    0.000 
#    0.000    0.000    0.000    0.000    0.000    0.000 
#
# Total GULP energy -178545.876356 kJ/mol
# GULP energy per Si atom -5579.558636 kJ/mol
# Density = 1.898635 g / cm^3
# Si number density = 19.029662 Si / 1000 Ang^3
#
#
#
# Elastic Constant Matrix: (Units=GPa)
#
#
# Indices 1 2 3 4 5 6 
#
# 1 116.1223 -5.9358 58.3259 0.0000 -6.7574 0.0000
# 2 -5.9358 22.2111 -9.6611 0.0000 -2.6773 0.0000
# 3 58.3259 -9.6611 112.6186 0.0000 -6.7948 0.0000
# 4 0.0000 0.0000 0.0000 17.3131 0.0000 1.4251
# 5 -6.7574 -2.6773 -6.7948 0.0000 22.6493 0.0000
# 6 0.0000 0.0000 0.0000 1.4251 0.0000 15.5035
#
#
#
# Elastic Compliance Matrix: (Units=1/GPa)
#
#
# Indices 1 2 3 4 5 6 
#
# 1 0.011717 0.000789 -0.005891 0.000000 0.001822 0.000000
# 2 0.000789 0.047890 0.004130 0.000000 0.007135 0.000000
# 3 -0.005891 0.004130 0.012433 0.000000 0.002461 0.000000
# 4 0.000000 0.000000 0.000000 0.058200 0.000000 -0.005350
# 5 0.001822 0.007135 0.002461 0.000000 0.046277 0.000000
# 6 0.000000 0.000000 0.000000 -0.005350 0.000000 0.064993
#
#
# Mechanical properties :
#
#
# Convention : Reuss Voigt Hill
#
# Bulk Modulus (GPa) = 14.26608 37.37889 25.82249
# Shear Modulus (GPa) = 18.73935 24.97471 21.85703
#
# Velocity S-wave (km/s) = 3.14147 3.62665 3.39274
# Velocity P-wave (km/s) = 4.54659 6.10097 5.38021
#
# Compressibility (1/GPa) = 0.07009632
#
# Stress axis : x y z
#
# Youngs Moduli (GPa) = 85.34864 20.88127 80.43048
#
# Poissons Ratio (x) = -0.01647 0.47378
# Poissons Ratio (y) = -0.06730 -0.33221
# Poissons Ratio (z) = 0.50275 -0.08625
#
# Static dielectric constant tensor:
#      x y z
#    x 1.688530 0.000000 -0.008390 
#    y 0.000000 1.704800 0.000000 
#    z -0.008390 0.000000 1.648760 
# 
# From -- ./inp_files/54271.got.cif
#   From: 2010.05.17/outbox.cif.g08.bks.cpg/sg11_28_cif.got.tgz:54271.got - 2010.06.03 12:22:45.
