data_PCOD9158206
_publ_section_title
;
Structure prediction by ZEFSAII (Michael W. Deem and Ramdas Pophale) SiO2 
 PCOD9158206
Probable space group: P 21/M
;
_chemical_formula_sum "Si O2"
_cell_formula_units_Z 32
_cell_length_a 12.415198
_cell_length_b 9.498524
_cell_length_c 28.511419
_cell_angle_alpha 90.000000
_cell_angle_beta 154.045056
_cell_angle_gamma 90.000000
_cell_volume 1471.531802
_symmetry_space_group_name_H-M "P 21/M"
_symmetry_group_IT_number 11
_symmetry_cell_setting 'monoclinic'
loop_
_space_group_symop_operation_xyz
x,y,z
-x,1/2+y,-z
-x,-y,-z
x,1/2-y,z
loop_
_atom_site_type_symbol
_atom_site_label
_atom_site_fract_x
_atom_site_fract_y
_atom_site_fract_z
Si Si1 0.692803 0.086627 0.355917
Si Si2 0.075429 0.584825 0.786067
Si Si3 0.179730 0.082076 0.500405
Si Si4 0.792994 0.095155 0.942683
Si Si5 0.174558 0.091586 0.910512
Si Si6 0.842454 0.598614 0.831605
Si Si7 0.501865 0.581509 0.550122
Si Si8 0.571497 0.088732 0.151163
O O1 0.742505 0.250000 0.390266
O O2 0.401557 0.078461 0.233211
O O3 0.883665 0.060648 0.388693
O O4 0.735928 0.981053 0.416182
O O5 0.131091 0.750000 0.810696
O O6 0.784892 0.565859 0.677659
O O7 0.217805 0.507402 0.883202
O O8 0.175311 0.540835 0.773914
O O9 0.227320 0.250000 0.514488
O O10 0.317050 0.994197 0.514036
O O11 0.764073 0.250000 0.909361
O O12 0.543057 0.012934 0.855064
O O13 0.921240 0.114563 0.043357
O O14 0.000000 0.000000 0.000000
O O15 0.151079 0.250000 0.884605
O O16 0.377923 0.089917 0.031335
O O17 0.914787 0.034201 0.829176
O O18 0.810501 0.750000 0.793223
O O19 0.500000 0.500000 0.500000
O O20 0.452361 0.750000 0.526361
O O21 0.589939 0.250000 0.175711
#
# Coordination Sequence:
#
# PCOD9158206 Si02
#       8
#     4   4   4   4   4   4   4   4
#     4   9  18  34  56  83 111 141 181 222 270 330
#     4  10  21  37  57  79 105 144 183 217 265 327
#     4  10  20  35  57  83 112 142 176 226 282 329
#     4  10  20  35  54  75 104 141 178 217 263 311
#     4  10  19  30  52  85 117 142 169 216 268 314
#     4   9  18  33  52  75 104 142 180 212 253 317
#     4  11  24  42  60  78 106 147 193 236 280 331
#     4   9  19  36  55  79 110 141 177 218 263 318
#
# _framework density 21.746047999999998
#
# number of rings (size 3 to 8) (size 9 to 14) (size 15 to 20)
#    0.000    2.250    0.000    2.625    0.000    6.500 
#    2.250    0.000    0.000    0.000    0.000    0.000 
#    0.000    0.000    0.000    0.000    0.000    0.000 
#
# Total GULP energy -178452.361559 kJ/mol
# GULP energy per Si atom -5576.636299 kJ/mol
# Density = 2.169655 g / cm^3
# Si number density = 21.746048 Si / 1000 Ang^3
#
#
#
# Elastic Constant Matrix: (Units=GPa)
#
#
# Indices 1 2 3 4 5 6 
#
# 1 114.8333 60.2909 17.3762 0.0000 34.1694 0.0000
# 2 60.2909 85.8412 23.4298 0.0000 9.3817 0.0000
# 3 17.3762 23.4298 61.2265 0.0000 18.4916 0.0000
# 4 0.0000 0.0000 0.0000 15.6096 0.0000 4.3883
# 5 34.1694 9.3817 18.4916 0.0000 37.0424 0.0000
# 6 0.0000 0.0000 0.0000 4.3883 0.0000 39.2153
#
#
#
# Elastic Compliance Matrix: (Units=1/GPa)
#
#
# Indices 1 2 3 4 5 6 
#
# 1 0.020531 -0.013790 0.004846 0.000000 -0.017866 0.000000
# 2 -0.013790 0.022300 -0.007955 0.000000 0.011044 0.000000
# 3 0.004846 -0.007955 0.022071 0.000000 -0.013473 0.000000
# 4 0.000000 0.000000 0.000000 0.066144 0.000000 -0.007402
# 5 -0.017866 0.011044 -0.013473 0.000000 0.047405 0.000000
# 6 0.000000 0.000000 0.000000 -0.007402 0.000000 0.026328
#
#
# Mechanical properties :
#
#
# Convention : Reuss Voigt Hill
#
# Bulk Modulus (GPa) = 32.15175 51.56609 41.85892
# Shear Modulus (GPa) = 20.08469 29.09373 24.58921
#
# Velocity S-wave (km/s) = 3.04238 3.66168 3.36630
# Velocity P-wave (km/s) = 5.21139 6.45303 5.86516
#
# Compressibility (1/GPa) = 0.03110251
#
# Stress axis : x y z
#
# Youngs Moduli (GPa) = 48.70589 44.84402 45.30847
#
# Poissons Ratio (x) = 0.61842 -0.21957
# Poissons Ratio (y) = 0.67168 0.36044
# Poissons Ratio (z) = -0.23604 0.35675
#
# Static dielectric constant tensor:
#      x y z
#    x 1.831280 0.000000 -0.008170 
#    y 0.000000 1.723690 0.000000 
#    z -0.008170 0.000000 1.832470 
# 
# From -- ./inp_files/73207.got.cif
#   From: 2010.05.17/outbox.cif.g08.bks.cpg/sg11_37_cif.got.tgz:73207.got - 2010.06.03 12:22:45.
