data_PCOD9158094
_publ_section_title
;
Structure prediction by ZEFSAII (Michael W. Deem and Ramdas Pophale) SiO2 
 PCOD9158094
Probable space group: P 21/M
;
_chemical_formula_sum "Si O2"
_cell_formula_units_Z 24
_cell_length_a 24.131130
_cell_length_b 9.071080
_cell_length_c 13.750624
_cell_angle_alpha 90.000000
_cell_angle_beta 149.664226
_cell_angle_gamma 90.000000
_cell_volume 1520.224471
_symmetry_space_group_name_H-M "P 21/M"
_symmetry_group_IT_number 11
_symmetry_cell_setting 'monoclinic'
loop_
_space_group_symop_operation_xyz
x,y,z
-x,1/2+y,-z
-x,-y,-z
x,1/2-y,z
loop_
_atom_site_type_symbol
_atom_site_label
_atom_site_fract_x
_atom_site_fract_y
_atom_site_fract_z
Si Si1 0.159346 0.073748 0.189057
Si Si2 0.619467 0.924814 0.796396
Si Si3 0.041438 0.574994 0.412994
Si Si4 0.047657 0.425252 0.222642
Si Si5 0.390755 0.425432 0.449726
Si Si6 0.835270 0.425222 0.199915
O O1 0.146219 0.250000 0.152309
O O2 0.128984 0.044738 0.255376
O O3 0.282518 0.033558 0.345889
O O4 0.070108 0.988606 0.989408
O O5 0.625478 0.750000 0.821507
O O6 0.631866 0.952205 0.699069
O O7 0.500117 0.987181 0.643142
O O8 0.717399 0.006373 0.999588
O O9 0.026536 0.750000 0.379468
O O10 0.926089 0.501575 0.268961
O O11 0.080404 0.503850 0.371757
O O12 0.123774 0.548601 0.627691
O O13 0.040961 0.250000 0.226358
O O14 0.410193 0.250000 0.490558
O O15 0.834973 0.250000 0.182245
#
# Coordination Sequence:
#
# PCOD9158094 Si02
#       6
#     4   4   4   4   4   4
#     4   9  18  32  49  70  97 129 162 196 235 278
#     4  10  19  30  48  73  98 124 154 192 237 282
#     4  10  20  33  49  70  97 127 157 193 237 282
#     4  10  19  30  48  73  98 126 160 197 236 280
#     4   9  18  32  48  67  95 128 158 190 231 279
#     4  10  20  33  50  71  95 125 159 194 234 282
#
# _framework density 15.787143
#
# number of rings (size 3 to 8) (size 9 to 14) (size 15 to 20)
#    0.000    2.333    0.000    3.000    0.000    5.333 
#    0.000    0.000    0.000    1.000    0.000    0.000 
#    0.000    0.000    0.000    0.000    0.000    0.000 
#
# Total GULP energy -133919.127112 kJ/mol
# GULP energy per Si atom -5579.963630 kJ/mol
# Density = 1.575121 g / cm^3
# Si number density = 15.787143 Si / 1000 Ang^3
#
#
#
# Elastic Constant Matrix: (Units=GPa)
#
#
# Indices 1 2 3 4 5 6 
#
# 1 98.2747 55.0143 61.4111 0.0000 14.0116 0.0000
# 2 55.0143 69.3952 61.1688 0.0000 4.0816 0.0000
# 3 61.4111 61.1688 94.9855 0.0000 18.3026 0.0000
# 4 0.0000 0.0000 0.0000 30.5441 0.0000 -0.3960
# 5 14.0116 4.0816 18.3026 0.0000 25.5842 0.0000
# 6 0.0000 0.0000 0.0000 -0.3960 0.0000 26.3711
#
#
#
# Elastic Compliance Matrix: (Units=1/GPa)
#
#
# Indices 1 2 3 4 5 6 
#
# 1 0.020528 -0.012197 -0.004206 0.000000 -0.006288 0.000000
# 2 -0.012197 0.043860 -0.023544 0.000000 0.016525 0.000000
# 3 -0.004206 -0.023544 0.031597 0.000000 -0.016544 0.000000
# 4 0.000000 0.000000 0.000000 0.032746 0.000000 0.000492
# 5 -0.006288 0.016525 -0.016544 0.000000 0.051729 0.000000
# 6 0.000000 0.000000 0.000000 0.000492 0.000000 0.037928
#
#
# Mechanical properties :
#
#
# Convention : Reuss Voigt Hill
#
# Bulk Modulus (GPa) = 62.14220 68.64930 65.39575
# Shear Modulus (GPa) = 16.46658 22.17064 19.31861
#
# Velocity S-wave (km/s) = 3.23311 3.75153 3.50193
# Velocity P-wave (km/s) = 7.30653 7.89582 7.60688
#
# Compressibility (1/GPa) = 0.01609212
#
# Stress axis : x y z
#
# Youngs Moduli (GPa) = 48.71363 22.79966 31.64879
#
# Poissons Ratio (x) = 0.27808 0.13311
# Poissons Ratio (y) = 0.59415 0.74513
# Poissons Ratio (z) = 0.20489 0.53679
#
# Static dielectric constant tensor:
#      x y z
#    x 1.520070 0.000000 -0.009280 
#    y 0.000000 1.523200 0.000000 
#    z -0.009280 0.000000 1.501280 
# 
# From -- ./inp_files/37236.got.cif
#   From: 2010.05.17/outbox.cif.g08.bks.cpg/sg11_19_cif.got.tgz:37236.got - 2010.06.03 12:22:45.
