data_PCOD9158401
_publ_section_title
;
Structure prediction by ZEFSAII (Michael W. Deem and Ramdas Pophale) SiO2 
 PCOD9158401
Probable space group: P 21/M
;
_chemical_formula_sum "Si O2"
_cell_formula_units_Z 28
_cell_length_a 15.588170
_cell_length_b 7.796314
_cell_length_c 17.477233
_cell_angle_alpha 90.000000
_cell_angle_beta 45.289680
_cell_angle_gamma 90.000000
_cell_volume 1509.478064
_symmetry_space_group_name_H-M "P 21/M"
_symmetry_group_IT_number 11
_symmetry_cell_setting 'monoclinic'
loop_
_space_group_symop_operation_xyz
x,y,z
-x,1/2+y,-z
-x,-y,-z
x,1/2-y,z
loop_
_atom_site_type_symbol
_atom_site_label
_atom_site_fract_x
_atom_site_fract_y
_atom_site_fract_z
Si Si1 0.114735 0.956328 0.980359
Si Si2 0.070582 0.948885 0.335032
Si Si3 0.264125 0.954138 0.624945
Si Si4 0.346849 0.960507 0.740516
Si Si5 0.612797 0.550761 0.609613
Si Si6 0.981266 0.458583 0.797922
Si Si7 0.833821 0.450801 0.567740
O O1 0.122990 0.750000 0.978565
O O2 0.236665 0.018232 0.863209
O O3 0.088557 0.018562 0.082639
O O4 0.000000 0.000000 0.000000
O O5 0.105725 0.750000 0.305308
O O6 0.072383 0.024040 0.248865
O O7 0.148147 0.020128 0.357377
O O8 0.932255 0.960047 0.451461
O O9 0.281853 0.750000 0.607595
O O10 0.321150 0.014159 0.669294
O O11 0.325687 0.035421 0.512303
O O12 0.121318 0.989713 0.715716
O O13 0.347323 0.750000 0.739528
O O14 0.477321 0.018926 0.687568
O O15 0.604984 0.750000 0.635327
O O16 0.702382 0.467159 0.614404
O O17 0.978873 0.250000 0.798076
O O18 0.867994 0.250000 0.547292
#
# Coordination Sequence:
#
# PCOD9158401 Si02
#       7
#     4   4   4   4   4   4   4
#     4  10  19  34  53  74  99 130 169 206 246 290
#     4   9  18  32  49  73 102 129 161 202 253 303
#     4  11  20  32  50  74 103 132 164 205 250 294
#     4   9  20  35  50  70 101 137 170 205 244 293
#     4  11  21  34  50  70 101 138 171 203 245 299
#     4  10  19  31  52  77 101 130 162 201 248 302
#     4  10  19  31  49  73 100 130 163 205 253 298
#
# _framework density 18.549457
#
# number of rings (size 3 to 8) (size 9 to 14) (size 15 to 20)
#    0.000    2.000    2.857    1.714    0.000    0.571 
#    0.000    3.571    0.000    0.857    0.000    0.000 
#    0.000    0.000    0.000    0.000    0.000    0.571 
#
# Total GULP energy -156266.038223 kJ/mol
# GULP energy per Si atom -5580.929937 kJ/mol
# Density = 1.850724 g / cm^3
# Si number density = 18.549457 Si / 1000 Ang^3
#
#
#
# Elastic Constant Matrix: (Units=GPa)
#
#
# Indices 1 2 3 4 5 6 
#
# 1 165.5219 -3.0629 76.9070 0.0000 11.7708 0.0000
# 2 -3.0629 26.7158 -5.7285 0.0000 2.1769 0.0000
# 3 76.9070 -5.7285 84.9417 0.0000 -1.6508 0.0000
# 4 0.0000 0.0000 0.0000 7.5024 0.0000 -6.5295
# 5 11.7708 2.1769 -1.6508 0.0000 33.9059 0.0000
# 6 0.0000 0.0000 0.0000 -6.5295 0.0000 16.7620
#
#
#
# Elastic Compliance Matrix: (Units=1/GPa)
#
#
# Indices 1 2 3 4 5 6 
#
# 1 0.011034 -0.000554 -0.010111 0.000000 -0.004287 0.000000
# 2 -0.000554 0.038191 0.003036 0.000000 -0.002112 0.000000
# 3 -0.010111 0.003036 0.021217 0.000000 0.004348 0.000000
# 4 0.000000 0.000000 0.000000 0.201657 0.000000 0.078554
# 5 -0.004287 -0.002112 0.004348 0.000000 0.031329 0.000000
# 6 0.000000 0.000000 0.000000 0.078554 0.000000 0.090259
#
#
# Mechanical properties :
#
#
# Convention : Reuss Voigt Hill
#
# Bulk Modulus (GPa) = 18.12132 45.93452 32.02792
# Shear Modulus (GPa) = 11.70034 25.57165 18.63599
#
# Velocity S-wave (km/s) = 2.51423 3.71693 3.17308
# Velocity P-wave (km/s) = 4.26835 6.57555 5.54331
#
# Compressibility (1/GPa) = 0.05518362
#
# Stress axis : x y z
#
# Youngs Moduli (GPa) = 90.62859 26.18447 47.13288
#
# Poissons Ratio (x) = 0.01450 0.47656
# Poissons Ratio (y) = 0.05018 -0.14309
# Poissons Ratio (z) = 0.91634 -0.07949
#
# Static dielectric constant tensor:
#      x y z
#    x 1.652490 0.000000 0.022360 
#    y 0.000000 1.692770 0.000000 
#    z 0.022360 0.000000 1.616870 
# 
# From -- ./inp_files/37700.got.cif
#   From: 2010.05.17/outbox.cif.g08.bks.cpg/sg11_19_cif.got.tgz:37700.got - 2010.06.03 12:22:45.
