data_PCOD9158709
_publ_section_title
;
Structure prediction by ZEFSAII (Michael W. Deem and Ramdas Pophale) SiO2 
 PCOD9158709
Probable space group: P 21/M
;
_chemical_formula_sum "Si O2"
_cell_formula_units_Z 32
_cell_length_a 20.886767
_cell_length_b 8.650366
_cell_length_c 14.465503
_cell_angle_alpha 90.000000
_cell_angle_beta 49.467086
_cell_angle_gamma 90.000000
_cell_volume 1986.422185
_symmetry_space_group_name_H-M "P 21/M"
_symmetry_group_IT_number 11
_symmetry_cell_setting 'monoclinic'
loop_
_space_group_symop_operation_xyz
x,y,z
-x,1/2+y,-z
-x,-y,-z
x,1/2-y,z
loop_
_atom_site_type_symbol
_atom_site_label
_atom_site_fract_x
_atom_site_fract_y
_atom_site_fract_z
Si Si1 0.516662 0.935756 0.086663
Si Si2 0.098406 0.433190 0.013740
Si Si3 0.979712 0.434125 0.417968
Si Si4 0.300448 0.063861 0.117140
Si Si5 0.179323 0.435015 0.541109
Si Si6 0.910670 0.564301 0.186127
Si Si7 0.334803 0.564287 0.290710
Si Si8 0.139638 0.567393 0.162746
O O1 0.707549 0.750000 0.875477
O O2 0.432162 0.980994 0.220833
O O3 0.612728 0.981798 0.017670
O O4 0.500000 0.000000 0.000000
O O5 0.107597 0.250000 0.019269
O O6 0.146992 0.522282 0.048385
O O7 0.999951 0.479632 0.113939
O O8 0.122961 0.471120 0.884995
O O9 0.973177 0.250000 0.428006
O O10 0.056419 0.483907 0.279918
O O11 0.000000 0.500000 0.500000
O O12 0.893491 0.503374 0.458716
O O13 0.482775 0.250000 0.917412
O O14 0.310327 0.006715 0.213615
O O15 0.219714 0.989724 0.145245
O O16 0.182788 0.250000 0.530570
O O17 0.150304 0.475902 0.672244
O O18 0.267825 0.505219 0.427349
O O19 0.926502 0.750000 0.174932
O O20 0.330268 0.750000 0.287749
O O21 0.128507 0.750000 0.183664
#
# Coordination Sequence:
#
# PCOD9158709 Si02
#       8
#     4   4   4   4   4   4   4   4
#     4   8  16  30  49  70  95 125 161 203 245 284
#     4  10  19  33  53  74  94 124 163 204 248 292
#     4  12  24  37  50  67  94 133 170 203 237 283
#     4  10  19  33  51  72  97 130 168 205 243 289
#     4  11  21  34  50  72 100 131 163 199 240 288
#     4   9  19  34  52  72  97 125 160 205 249 289
#     4  10  19  32  49  73 102 132 164 201 242 289
#     4  12  23  35  49  71 100 131 163 202 245 292
#
# _framework density 16.109363999999999
#
# number of rings (size 3 to 8) (size 9 to 14) (size 15 to 20)
#    0.000    1.750    1.250    4.500    0.000    2.000 
#    0.000    0.000    0.000    0.000    0.000    0.875 
#    0.000    0.000    0.000    0.000    0.000    0.000 
#
# Total GULP energy -178543.716242 kJ/mol
# GULP energy per Si atom -5579.491133 kJ/mol
# Density = 1.607270 g / cm^3
# Si number density = 16.109364 Si / 1000 Ang^3
#
#
#
# Elastic Constant Matrix: (Units=GPa)
#
#
# Indices 1 2 3 4 5 6 
#
# 1 10.8298 4.1513 16.4341 0.0000 7.7081 0.0000
# 2 4.1513 34.7184 15.7071 0.0000 4.4748 0.0000
# 3 16.4341 15.7071 103.4703 0.0000 -1.4713 0.0000
# 4 0.0000 0.0000 0.0000 20.5812 0.0000 3.2456
# 5 7.7081 4.4748 -1.4713 0.0000 27.2192 0.0000
# 6 0.0000 0.0000 0.0000 3.2456 0.0000 19.6666
#
#
#
# Elastic Compliance Matrix: (Units=1/GPa)
#
#
# Indices 1 2 3 4 5 6 
#
# 1 0.169546 -0.001531 -0.027397 0.000000 -0.049242 0.000000
# 2 -0.001531 0.031737 -0.004646 0.000000 -0.005035 0.000000
# 3 -0.027397 -0.004646 0.014854 0.000000 0.009325 0.000000
# 4 0.000000 0.000000 0.000000 0.049886 0.000000 -0.008233
# 5 -0.049242 -0.005035 0.009325 0.000000 0.052015 0.000000
# 6 0.000000 0.000000 0.000000 -0.008233 0.000000 0.052206
#
#
# Mechanical properties :
#
#
# Convention : Reuss Voigt Hill
#
# Bulk Modulus (GPa) = 6.71191 24.62261 15.66726
# Shear Modulus (GPa) = 10.26575 21.00848 15.63712
#
# Velocity S-wave (km/s) = 2.52713 3.61517 3.11896
# Velocity P-wave (km/s) = 3.56240 5.72222 4.76626
#
# Compressibility (1/GPa) = 0.14898897
#
# Stress axis : x y z
#
# Youngs Moduli (GPa) = 5.89810 31.50875 67.32250
#
# Poissons Ratio (x) = 0.04825 1.84440
# Poissons Ratio (y) = 0.00903 0.31279
# Poissons Ratio (z) = 0.16159 0.14639
#
# Static dielectric constant tensor:
#      x y z
#    x 1.522040 0.000000 -0.004060 
#    y 0.000000 1.539370 0.000000 
#    z -0.004060 0.000000 1.563470 
# 
# From -- ./inp_files/54246.got.cif
#   From: 2010.05.17/outbox.cif.g08.bks.cpg/sg11_28_cif.got.tgz:54246.got - 2010.06.03 12:22:45.
