data_PCOD9158622
_publ_section_title
;
Structure prediction by ZEFSAII (Michael W. Deem and Ramdas Pophale) SiO2 
 PCOD9158622
Probable space group: P 21/M
;
_chemical_formula_sum "Si O2"
_cell_formula_units_Z 32
_cell_length_a 19.726711
_cell_length_b 19.165474
_cell_length_c 6.632410
_cell_angle_alpha 90.000000
_cell_angle_beta 138.114532
_cell_angle_gamma 90.000000
_cell_volume 1674.134716
_symmetry_space_group_name_H-M "P 21/M"
_symmetry_group_IT_number 11
_symmetry_cell_setting 'monoclinic'
loop_
_space_group_symop_operation_xyz
x,y,z
-x,1/2+y,-z
-x,-y,-z
x,1/2-y,z
loop_
_atom_site_type_symbol
_atom_site_label
_atom_site_fract_x
_atom_site_fract_y
_atom_site_fract_z
Si Si1 0.862827 0.669091 0.851872
Si Si2 0.276784 0.096955 0.126248
Si Si3 0.323879 0.329676 0.845093
Si Si4 0.923210 0.407820 0.279444
Si Si5 0.393399 0.461557 0.748118
Si Si6 0.106402 0.466412 0.494243
Si Si7 0.805493 0.451784 0.637442
Si Si8 0.901146 0.329712 0.602173
O O1 0.858302 0.750000 0.907285
O O2 0.807215 0.624665 0.901353
O O3 0.791433 0.663271 0.497206
O O4 0.981066 0.654101 0.082944
O O5 0.362038 0.061205 0.451821
O O6 0.321521 0.155752 0.078033
O O7 0.215272 0.047898 0.836276
O O8 0.356436 0.250000 0.872669
O O9 0.384616 0.391115 0.864418
O O10 0.934627 0.465075 0.481593
O O11 0.896476 0.340232 0.349512
O O12 0.026648 0.407076 0.379333
O O13 0.838723 0.433460 0.936389
O O14 0.305771 0.516077 0.618578
O O15 0.500000 0.500000 0.000000
O O16 0.122355 0.487907 0.298824
O O17 0.827282 0.383443 0.551910
O O18 0.879995 0.250000 0.610912
#
# Coordination Sequence:
#
# PCOD9158622 Si02
#       8
#     4   4   4   4   4   4   4   4
#     4   9  19  34  53  85 126 162 192 227 281 356
#     4  11  19  35  60  88 120 150 191 232 296 350
#     4  10  22  39  62  92 124 154 190 242 301 359
#     4  10  20  33  54  81 123 156 193 232 286 344
#     4  11  25  43  64  87 114 153 203 259 306 348
#     4  10  19  31  53  88 114 151 186 232 282 356
#     4  11  22  37  57  82 115 153 201 249 293 347
#     4  10  22  36  54  84 123 165 203 235 282 356
#
# _framework density 19.114350999999999
#
# number of rings (size 3 to 8) (size 9 to 14) (size 15 to 20)
#    0.000    1.750    3.750    0.750    1.750    1.500 
#    0.000    0.625    0.000    1.500    0.000    0.000 
#    0.000    0.000    0.000    0.000    0.000    0.000 
#
# Total GULP energy -178540.794762 kJ/mol
# GULP energy per Si atom -5579.399836 kJ/mol
# Density = 1.907085 g / cm^3
# Si number density = 19.114351 Si / 1000 Ang^3
#
#
#
# Elastic Constant Matrix: (Units=GPa)
#
#
# Indices 1 2 3 4 5 6 
#
# 1 78.9454 49.2317 50.6936 0.0000 2.5703 0.0000
# 2 49.2317 114.5674 51.3179 0.0000 4.5418 0.0000
# 3 50.6936 51.3179 79.3664 0.0000 0.7727 0.0000
# 4 0.0000 0.0000 0.0000 27.8973 0.0000 -3.3710
# 5 2.5703 4.5418 0.7727 0.0000 31.6041 0.0000
# 6 0.0000 0.0000 0.0000 -3.3710 0.0000 30.0204
#
#
#
# Elastic Compliance Matrix: (Units=1/GPa)
#
#
# Indices 1 2 3 4 5 6 
#
# 1 0.023154 -0.004635 -0.011783 0.000000 -0.000929 0.000000
# 2 -0.004635 0.013294 -0.005622 0.000000 -0.001396 0.000000
# 3 -0.011783 -0.005622 0.023749 0.000000 0.001186 0.000000
# 4 0.000000 0.000000 0.000000 0.036339 0.000000 0.004081
# 5 -0.000929 -0.001396 0.001186 0.000000 0.031889 0.000000
# 6 0.000000 0.000000 0.000000 0.004081 0.000000 0.033769
#
#
# Mechanical properties :
#
#
# Convention : Reuss Voigt Hill
#
# Bulk Modulus (GPa) = 62.04345 63.92951 62.98648
# Shear Modulus (GPa) = 23.62444 26.01343 24.81893
#
# Velocity S-wave (km/s) = 3.51943 3.69309 3.60730
# Velocity P-wave (km/s) = 7.00319 7.19052 7.09748
#
# Compressibility (1/GPa) = 0.01611774
#
# Stress axis : x y z
#
# Youngs Moduli (GPa) = 43.18896 75.22445 42.10630
#
# Poissons Ratio (x) = 0.34865 0.49615
# Poissons Ratio (y) = 0.20017 0.23670
# Poissons Ratio (z) = 0.50891 0.42288
#
# Static dielectric constant tensor:
#      x y z
#    x 1.685210 0.000000 -0.038510 
#    y 0.000000 1.718740 0.000000 
#    z -0.038510 0.000000 1.672480 
# 
# From -- ./inp_files/8350.got.cif
#   From: 2010.05.17/outbox.cif.g08.bks.cpg/sg11_5_cif.got.tgz:8350.got - 2010.06.03 12:22:45.
