data_PCOD9158159
_publ_section_title
;
Structure prediction by ZEFSAII (Michael W. Deem and Ramdas Pophale) SiO2 
 PCOD9158159
Probable space group: P 21/M
;
_chemical_formula_sum "Si O2"
_cell_formula_units_Z 32
_cell_length_a 30.859017
_cell_length_b 8.799516
_cell_length_c 13.129835
_cell_angle_alpha 90.000000
_cell_angle_beta 152.126108
_cell_angle_gamma 90.000000
_cell_volume 1666.889817
_symmetry_space_group_name_H-M "P 21/M"
_symmetry_group_IT_number 11
_symmetry_cell_setting 'monoclinic'
loop_
_space_group_symop_operation_xyz
x,y,z
-x,1/2+y,-z
-x,-y,-z
x,1/2-y,z
loop_
_atom_site_type_symbol
_atom_site_label
_atom_site_fract_x
_atom_site_fract_y
_atom_site_fract_z
Si Si1 0.177733 0.930116 0.396411
Si Si2 0.401916 0.065252 0.334451
Si Si3 0.076288 0.065639 0.381874
Si Si4 0.342288 0.077322 0.841704
Si Si5 0.756636 0.574086 0.145688
Si Si6 0.865086 0.433278 0.924196
Si Si7 0.461384 0.929133 0.816581
Si Si8 0.683804 0.569184 0.627631
O O1 0.163338 0.750000 0.371751
O O2 0.153529 0.981491 0.231956
O O3 0.116095 0.008118 0.356320
O O4 0.283605 0.969437 0.646303
O O5 0.406926 0.250000 0.336835
O O6 0.373892 0.024410 0.391590
O O7 0.500000 0.000000 0.500000
O O8 0.314925 0.009278 0.084862
O O9 0.082554 0.250000 0.393089
O O10 0.143493 0.009396 0.612887
O O11 0.969411 0.022239 0.170452
O O12 0.332005 0.250000 0.780564
O O13 0.297757 0.071868 0.860181
O O14 0.450738 0.046411 0.075092
O O15 0.772254 0.750000 0.147430
O O16 0.858816 0.250000 0.913484
O O17 0.786183 0.500534 0.832400
O O18 0.443663 0.750000 0.790769
O O19 0.372612 0.010131 0.586928
O O20 0.500000 0.000000 0.000000
O O21 0.689894 0.750000 0.639010
#
# Coordination Sequence:
#
# PCOD9158159 Si02
#       8
#     4   4   4   4   4   4   4   4
#     4  10  19  30  49  79 111 141 175 219 268 318
#     4  10  21  38  60  84 108 138 178 225 279 335
#     4   9  18  34  56  79 104 140 185 226 269 326
#     4   9  18  32  51  74 100 136 176 213 261 321
#     4   8  15  32  56  77  99 130 171 218 267 320
#     4  10  21  36  53  75 106 146 187 225 270 326
#     4  11  22  36  55  78 108 146 184 221 266 322
#     4  11  24  38  54  80 112 145 183 227 276 332
#
# _framework density 19.197430000000001
#
# number of rings (size 3 to 8) (size 9 to 14) (size 15 to 20)
#    0.000    2.250    0.000    3.750    0.000    6.500 
#    0.000    4.375    0.000    0.000    0.000    0.000 
#    0.000    0.000    0.000    0.000    0.000    0.000 
#
# Total GULP energy -178500.268655 kJ/mol
# GULP energy per Si atom -5578.133395 kJ/mol
# Density = 1.915374 g / cm^3
# Si number density = 19.197430 Si / 1000 Ang^3
#
#
#
# Elastic Constant Matrix: (Units=GPa)
#
#
# Indices 1 2 3 4 5 6 
#
# 1 79.3901 24.3827 54.0944 0.0000 12.8800 0.0000
# 2 24.3827 17.4422 27.2124 0.0000 5.8982 0.0000
# 3 54.0944 27.2124 130.2915 0.0000 6.1790 0.0000
# 4 0.0000 0.0000 0.0000 23.1609 0.0000 6.4474
# 5 12.8800 5.8982 6.1790 0.0000 30.7068 0.0000
# 6 0.0000 0.0000 0.0000 6.4474 0.0000 24.0961
#
#
#
# Elastic Compliance Matrix: (Units=1/GPa)
#
#
# Indices 1 2 3 4 5 6 
#
# 1 0.024137 -0.025144 -0.004562 0.000000 -0.004377 0.000000
# 2 -0.025144 0.116603 -0.013481 0.000000 -0.009138 0.000000
# 3 -0.004562 -0.013481 0.012289 0.000000 0.002030 0.000000
# 4 0.000000 0.000000 0.000000 0.046651 0.000000 -0.012482
# 5 -0.004377 -0.009138 0.002030 0.000000 0.035749 0.000000
# 6 0.000000 0.000000 0.000000 -0.012482 0.000000 0.044840
#
#
# Mechanical properties :
#
#
# Convention : Reuss Voigt Hill
#
# Bulk Modulus (GPa) = 15.00257 48.72254 31.86256
# Shear Modulus (GPa) = 12.85807 23.68837 18.27322
#
# Velocity S-wave (km/s) = 2.59082 3.51655 3.08857
# Velocity P-wave (km/s) = 4.09654 6.47480 5.41778
#
# Compressibility (1/GPa) = 0.06665523
#
# Stress axis : x y z
#
# Youngs Moduli (GPa) = 41.43051 8.57607 81.37665
#
# Poissons Ratio (x) = 0.21563 0.37125
# Poissons Ratio (y) = 1.04171 1.09704
# Poissons Ratio (z) = 0.18901 0.11561
#
# Static dielectric constant tensor:
#      x y z
#    x 1.681110 0.000000 0.011600 
#    y 0.000000 1.661090 0.000000 
#    z 0.011600 0.000000 1.695710 
# 
# From -- ./inp_files/45355.got.cif
#   From: 2010.05.17/outbox.cif.g08.bks.cpg/sg11_23_cif.got.tgz:45355.got - 2010.06.03 12:22:45.
