data_PCOD9158882
_publ_section_title
;
Structure prediction by ZEFSAII (Michael W. Deem and Ramdas Pophale) SiO2 
 PCOD9158882
Probable space group: P 21/M
;
_chemical_formula_sum "Si O2"
_cell_formula_units_Z 28
_cell_length_a 21.029297
_cell_length_b 9.790837
_cell_length_c 15.014486
_cell_angle_alpha 90.000000
_cell_angle_beta 154.406627
_cell_angle_gamma 90.000000
_cell_volume 1335.426929
_symmetry_space_group_name_H-M "P 21/M"
_symmetry_group_IT_number 11
_symmetry_cell_setting 'monoclinic'
loop_
_space_group_symop_operation_xyz
x,y,z
-x,1/2+y,-z
-x,-y,-z
x,1/2-y,z
loop_
_atom_site_type_symbol
_atom_site_label
_atom_site_fract_x
_atom_site_fract_y
_atom_site_fract_z
Si Si1 0.692082 0.402679 0.484886
Si Si2 0.139559 0.410406 0.642980
Si Si3 0.084385 0.598601 0.880175
Si Si4 0.745770 0.596633 0.402787
Si Si5 0.477555 0.591030 0.559366
Si Si6 0.762916 0.901657 0.045637
Si Si7 0.029790 0.402535 0.955269
O O1 0.627116 0.250000 0.393244
O O2 0.656480 0.500392 0.357274
O O3 0.647027 0.454356 0.526571
O O4 0.868221 0.386581 0.708325
O O5 0.095360 0.250000 0.572638
O O6 0.217651 0.456890 0.650259
O O7 0.000000 0.500000 0.500000
O O8 0.253756 0.410704 0.869667
O O9 0.145064 0.750000 0.971352
O O10 0.908572 0.610014 0.652314
O O11 0.126425 0.490236 0.009191
O O12 0.136201 0.527265 0.855981
O O13 0.683256 0.750000 0.317317
O O14 0.500000 0.500000 0.500000
O O15 0.450638 0.750000 0.500356
O O16 0.620025 0.587742 0.803895
O O17 0.830199 0.750000 0.112811
O O18 0.085677 0.250000 0.046423
O O19 0.000000 0.500000 0.000000
#
# Coordination Sequence:
#
# PCOD9158882 Si02
#       7
#     4   4   4   4   4   4   4
#     4   9  20  38  56  75 106 145 186 228 275 332
#     4  10  19  33  55  85 119 151 182 226 280 339
#     4  10  19  32  51  78 112 145 180 224 274 333
#     4   9  18  33  54  82 113 145 179 221 275 330
#     4  10  23  42  60  81 108 148 194 237 283 330
#     4  10  21  36  56  82 114 148 187 232 283 336
#     4  10  20  33  51  77 106 139 181 230 286 338
#
# _framework density 20.967077
#
# number of rings (size 3 to 8) (size 9 to 14) (size 15 to 20)
#    0.000    2.286    1.429    0.857    2.000    2.857 
#    0.000    0.714    0.000    0.000    0.000    0.000 
#    0.000    0.000    0.000    0.000    0.000    0.000 
#
# Total GULP energy -155996.321062 kJ/mol
# GULP energy per Si atom -5571.297181 kJ/mol
# Density = 2.091935 g / cm^3
# Si number density = 20.967077 Si / 1000 Ang^3
#
#
#
# Elastic Constant Matrix: (Units=GPa)
#
#
# Indices 1 2 3 4 5 6 
#
# 1 151.8909 83.4960 18.2926 0.0000 -30.4926 0.0000
# 2 83.4960 137.3574 14.9617 0.0000 -19.6429 0.0000
# 3 18.2926 14.9617 34.4341 0.0000 -13.4453 0.0000
# 4 0.0000 0.0000 0.0000 11.7405 0.0000 -5.8606
# 5 -30.4926 -19.6429 -13.4453 0.0000 32.3388 0.0000
# 6 0.0000 0.0000 0.0000 -5.8606 0.0000 37.0597
#
#
#
# Elastic Compliance Matrix: (Units=1/GPa)
#
#
# Indices 1 2 3 4 5 6 
#
# 1 0.011195 -0.005755 -0.000824 0.000000 0.006718 0.000000
# 2 -0.005755 0.011034 -0.001479 0.000000 0.000661 0.000000
# 3 -0.000824 -0.001479 0.035178 0.000000 0.012951 0.000000
# 4 0.000000 0.000000 0.000000 0.092476 0.000000 0.014624
# 5 0.006718 0.000661 0.012951 0.000000 0.043043 0.000000
# 6 0.000000 0.000000 0.000000 0.014624 0.000000 0.029296
#
#
# Mechanical properties :
#
#
# Convention : Reuss Voigt Hill
#
# Bulk Modulus (GPa) = 24.21768 61.90922 43.06345
# Shear Modulus (GPa) = 19.83337 30.02329 24.92833
#
# Velocity S-wave (km/s) = 3.07893 3.78818 3.45182
# Velocity P-wave (km/s) = 4.92089 6.98031 6.03904
#
# Compressibility (1/GPa) = 0.04129214
#
# Stress axis : x y z
#
# Youngs Moduli (GPa) = 89.32639 90.62863 28.42691
#
# Poissons Ratio (x) = 0.52154 0.02341
# Poissons Ratio (y) = 0.51404 0.04205
# Poissons Ratio (z) = 0.07357 0.13405
#
# Static dielectric constant tensor:
#      x y z
#    x 1.802710 0.000000 -0.003320 
#    y 0.000000 1.802000 0.000000 
#    z -0.003320 0.000000 1.810510 
# 
# From -- ./inp_files/37696.got.cif
#   From: 2010.05.17/outbox.cif.g08.bks.cpg/sg11_19_cif.got.tgz:37696.got - 2010.06.03 12:22:45.
