data_PCOD9158187
_publ_section_title
;
Structure prediction by ZEFSAII (Michael W. Deem and Ramdas Pophale) SiO2 
 PCOD9158187
Probable space group: P 21/M
;
_chemical_formula_sum "Si O2"
_cell_formula_units_Z 32
_cell_length_a 30.556784
_cell_length_b 9.153950
_cell_length_c 11.832182
_cell_angle_alpha 90.000000
_cell_angle_beta 149.362155
_cell_angle_gamma 90.000000
_cell_volume 1686.626145
_symmetry_space_group_name_H-M "P 21/M"
_symmetry_group_IT_number 11
_symmetry_cell_setting 'monoclinic'
loop_
_space_group_symop_operation_xyz
x,y,z
-x,1/2+y,-z
-x,-y,-z
x,1/2-y,z
loop_
_atom_site_type_symbol
_atom_site_label
_atom_site_fract_x
_atom_site_fract_y
_atom_site_fract_z
Si Si1 0.300220 0.579252 0.705303
Si Si2 0.044698 0.922877 0.925699
Si Si3 0.262987 0.425499 0.150084
Si Si4 0.067300 0.074534 0.733447
Si Si5 0.431046 0.415291 0.419166
Si Si6 0.657507 0.080665 0.459524
Si Si7 0.493840 0.582539 0.160534
Si Si8 0.130212 0.078474 0.329645
O O1 0.291244 0.750000 0.717364
O O2 0.300374 0.569578 0.569402
O O3 0.220408 0.486493 0.571254
O O4 0.396069 0.528966 0.950947
O O5 0.064056 0.750000 0.957307
O O6 0.946121 0.938126 0.748927
O O7 0.058862 0.005832 0.839703
O O8 0.100367 0.992449 0.150801
O O9 0.273652 0.250000 0.183654
O O10 0.334324 0.476156 0.217740
O O11 0.288388 0.495773 0.326207
O O12 0.164196 0.455446 0.905595
O O13 0.055504 0.250000 0.711795
O O14 0.000000 0.000000 0.500000
O O15 0.500000 0.500000 0.500000
O O16 0.425719 0.250000 0.364053
O O17 0.466892 0.412850 0.626642
O O18 0.651623 0.250000 0.478514
O O19 0.561980 0.012845 0.243269
O O20 0.490561 0.750000 0.109073
O O21 0.138456 0.250000 0.321661
#
# Coordination Sequence:
#
# PCOD9158187 Si02
#       8
#     4   4   4   4   4   4   4   4
#     4  10  20  33  50  77 112 145 178 221 273 328
#     4  10  21  39  60  82 113 148 188 237 285 340
#     4   9  20  38  57  78 107 144 181 220 274 332
#     4  11  23  40  62  87 116 151 191 240 294 344
#     4   9  18  35  56  76 101 137 179 222 267 318
#     4  10  19  30  51  81 108 138 179 225 268 317
#     4   9  19  35  51  71 106 145 178 217 271 330
#     4  10  21  36  57  84 112 148 190 232 283 342
#
# _framework density 18.972787
#
# number of rings (size 3 to 8) (size 9 to 14) (size 15 to 20)
#    0.000    2.250    0.000    3.375    0.000    8.000 
#    2.250    0.000    0.000    0.000    0.000    0.000 
#    0.000    0.000    0.000    0.000    0.000    0.000 
#
# Total GULP energy -178589.339277 kJ/mol
# GULP energy per Si atom -5580.916852 kJ/mol
# Density = 1.892960 g / cm^3
# Si number density = 18.972787 Si / 1000 Ang^3
#
#
#
# Elastic Constant Matrix: (Units=GPa)
#
#
# Indices 1 2 3 4 5 6 
#
# 1 70.2177 39.2740 32.4867 0.0000 20.2632 0.0000
# 2 39.2740 68.0706 42.8105 0.0000 23.8432 0.0000
# 3 32.4867 42.8105 113.1721 0.0000 40.6230 0.0000
# 4 0.0000 0.0000 0.0000 30.6520 0.0000 3.3709
# 5 20.2632 23.8432 40.6230 0.0000 28.5974 0.0000
# 6 0.0000 0.0000 0.0000 3.3709 0.0000 27.9532
#
#
#
# Elastic Compliance Matrix: (Units=1/GPa)
#
#
# Indices 1 2 3 4 5 6 
#
# 1 0.021996 -0.010249 0.000184 0.000000 -0.007302 0.000000
# 2 -0.010249 0.026166 -0.003534 0.000000 -0.009534 0.000000
# 3 0.000184 -0.003534 0.018586 0.000000 -0.023586 0.000000
# 4 0.000000 0.000000 0.000000 0.033063 0.000000 -0.003987
# 5 -0.007302 -0.009534 -0.023586 0.000000 0.081595 0.000000
# 6 0.000000 0.000000 0.000000 -0.003987 0.000000 0.036255
#
#
# Mechanical properties :
#
#
# Convention : Reuss Voigt Hill
#
# Bulk Modulus (GPa) = 25.28411 53.40031 39.34221
# Shear Modulus (GPa) = 19.37674 26.56646 22.97160
#
# Velocity S-wave (km/s) = 3.19923 3.74604 3.48338
# Velocity P-wave (km/s) = 5.19637 6.84962 6.07945
#
# Compressibility (1/GPa) = 0.03955053
#
# Stress axis : x y z
#
# Youngs Moduli (GPa) = 45.46330 38.21799 53.80341
#
# Poissons Ratio (x) = 0.39168 -0.00989
# Poissons Ratio (y) = 0.46594 0.19012
# Poissons Ratio (z) = -0.00836 0.13505
#
# Static dielectric constant tensor:
#      x y z
#    x 1.655700 0.000000 0.027920 
#    y 0.000000 1.659590 0.000000 
#    z 0.027920 0.000000 1.677590 
# 
# From -- ./inp_files/45325.got.cif
#   From: 2010.05.17/outbox.cif.g08.bks.cpg/sg11_23_cif.got.tgz:45325.got - 2010.06.03 12:22:45.
