data_PCOD9158675
_publ_section_title
;
Structure prediction by ZEFSAII (Michael W. Deem and Ramdas Pophale) SiO2 
 PCOD9158675
Probable space group: P 21/M
;
_chemical_formula_sum "Si O2"
_cell_formula_units_Z 32
_cell_length_a 28.557697
_cell_length_b 8.699569
_cell_length_c 11.578584
_cell_angle_alpha 90.000000
_cell_angle_beta 136.206737
_cell_angle_gamma 90.000000
_cell_volume 1990.760671
_symmetry_space_group_name_H-M "P 21/M"
_symmetry_group_IT_number 11
_symmetry_cell_setting 'monoclinic'
loop_
_space_group_symop_operation_xyz
x,y,z
-x,1/2+y,-z
-x,-y,-z
x,1/2-y,z
loop_
_atom_site_type_symbol
_atom_site_label
_atom_site_fract_x
_atom_site_fract_y
_atom_site_fract_z
Si Si1 0.653363 0.929949 0.380127
Si Si2 0.797684 0.562768 0.586490
Si Si3 0.227875 0.567462 0.713777
Si Si4 0.104094 0.433490 0.623915
Si Si5 0.491490 0.435624 0.855059
Si Si6 0.028191 0.435188 0.722767
Si Si7 0.629991 0.929272 0.060314
Si Si8 0.936252 0.564473 0.955633
O O1 0.656643 0.750000 0.416771
O O2 0.729061 0.993102 0.528962
O O3 0.584244 0.989728 0.315238
O O4 0.640934 0.939793 0.219321
O O5 0.795512 0.750000 0.578245
O O6 0.794453 0.503114 0.449708
O O7 0.865967 0.514774 0.772054
O O8 0.227560 0.750000 0.704149
O O9 0.173677 0.511034 0.710507
O O10 0.303953 0.509556 0.873960
O O11 0.111002 0.250000 0.629173
O O12 0.078000 0.475251 0.705682
O O13 0.043991 0.488207 0.432029
O O14 0.492271 0.250000 0.859980
O O15 0.500000 0.500000 0.000000
O O16 0.557294 0.495511 0.905180
O O17 0.019198 0.250000 0.704786
O O18 0.056837 0.480452 0.898066
O O19 0.628993 0.750000 0.029018
O O20 0.938034 0.750000 0.953824
O O21 0.000000 0.500000 0.000000
#
# Coordination Sequence:
#
# PCOD9158675 Si02
#       8
#     4   4   4   4   4   4   4   4
#     4   7  12  22  36  53  76 107 141 173 204 247
#     4   9  17  30  45  62  86 117 149 178 215 261
#     4  11  20  29  43  64  89 115 146 182 218 259
#     4  10  19  32  49  65  85 114 145 180 222 263
#     4   9  14  21  34  53  78 110 145 179 214 253
#     4   9  19  34  49  67  88 111 145 184 218 256
#     4   9  16  26  38  55  81 112 145 178 214 259
#     4  10  20  32  47  66  89 116 145 179 216 256
#
# _framework density 16.074258
#
# number of rings (size 3 to 8) (size 9 to 14) (size 15 to 20)
#    0.000    2.750    0.000    4.500    0.000    3.500 
#    0.000    0.625    0.000    0.000    0.000    0.000 
#    0.000    1.000    0.000    1.750    0.000    3.750 
#
# Total GULP energy -178167.555906 kJ/mol
# GULP energy per Si atom -5567.736122 kJ/mol
# Density = 1.603767 g / cm^3
# Si number density = 16.074258 Si / 1000 Ang^3
#
#
#
# Elastic Constant Matrix: (Units=GPa)
#
#
# Indices 1 2 3 4 5 6 
#
# 1 101.5778 32.1734 57.6185 0.0000 40.2951 0.0000
# 2 32.1734 42.0884 19.8323 0.0000 14.3532 0.0000
# 3 57.6185 19.8323 78.7436 0.0000 31.1824 0.0000
# 4 0.0000 0.0000 0.0000 17.0795 0.0000 7.5670
# 5 40.2951 14.3532 31.1824 0.0000 34.0750 0.0000
# 6 0.0000 0.0000 0.0000 7.5670 0.0000 23.2281
#
#
#
# Elastic Compliance Matrix: (Units=1/GPa)
#
#
# Indices 1 2 3 4 5 6 
#
# 1 0.024415 -0.008636 -0.008935 0.000000 -0.017057 0.000000
# 2 -0.008636 0.031505 -0.000635 0.000000 -0.002477 0.000000
# 3 -0.008935 -0.000635 0.023693 0.000000 -0.010849 0.000000
# 4 0.000000 0.000000 0.000000 0.068425 0.000000 -0.022291
# 5 -0.017057 -0.002477 -0.010849 0.000000 0.060489 0.000000
# 6 0.000000 0.000000 0.000000 -0.022291 0.000000 0.050313
#
#
# Mechanical properties :
#
#
# Convention : Reuss Voigt Hill
#
# Bulk Modulus (GPa) = 23.14729 49.07312 36.11020
# Shear Modulus (GPa) = 16.14711 22.39556 19.27133
#
# Velocity S-wave (km/s) = 3.17287 3.73668 3.46626
# Velocity P-wave (km/s) = 5.27772 7.01515 6.20752
#
# Compressibility (1/GPa) = 0.04320161
#
# Stress axis : x y z
#
# Youngs Moduli (GPa) = 40.95865 31.74098 42.20586
#
# Poissons Ratio (x) = 0.27412 0.37712
# Poissons Ratio (y) = 0.35372 0.02678
# Poissons Ratio (z) = 0.36597 0.02014
#
# Static dielectric constant tensor:
#      x y z
#    x 1.558540 0.000000 0.035480 
#    y 0.000000 1.544650 0.000000 
#    z 0.035480 0.000000 1.542270 
# 
# From -- ./inp_files/43822.got.cif
#   From: 2010.05.17/outbox.cif.g08.bks.cpg/sg11_22_cif.got.tgz:43822.got - 2010.06.03 12:22:45.
