data_PCOD9158331
_publ_section_title
;
Structure prediction by ZEFSAII (Michael W. Deem and Ramdas Pophale) SiO2 
 PCOD9158331
Probable space group: P 21/M
;
_chemical_formula_sum "Si O2"
_cell_formula_units_Z 32
_cell_length_a 22.776340
_cell_length_b 8.484395
_cell_length_c 31.173242
_cell_angle_alpha 90.000000
_cell_angle_beta 18.433732
_cell_angle_gamma 90.000000
_cell_volume 1904.842694
_symmetry_space_group_name_H-M "P 21/M"
_symmetry_group_IT_number 11
_symmetry_cell_setting 'monoclinic'
loop_
_space_group_symop_operation_xyz
x,y,z
-x,1/2+y,-z
-x,-y,-z
x,1/2-y,z
loop_
_atom_site_type_symbol
_atom_site_label
_atom_site_fract_x
_atom_site_fract_y
_atom_site_fract_z
Si Si1 0.775451 0.940915 0.307431
Si Si2 0.167550 0.938926 0.413825
Si Si3 0.505440 0.940956 0.869496
Si Si4 0.080647 0.558810 0.159182
Si Si5 0.928342 0.440152 0.423633
Si Si6 0.349256 0.059988 0.137794
Si Si7 0.780207 0.562592 0.438586
Si Si8 0.492954 0.436132 0.575244
O O1 0.752357 0.750000 0.327364
O O2 0.704461 0.984351 0.309108
O O3 0.978347 0.979990 0.185149
O O4 0.637762 0.022627 0.436786
O O5 0.159414 0.750000 0.419009
O O6 0.139976 0.992533 0.482081
O O7 0.361396 0.995848 0.259813
O O8 0.000000 0.000000 0.500000
O O9 0.506405 0.750000 0.867115
O O10 0.594092 0.989183 0.853547
O O11 0.292038 0.996333 0.015289
O O12 0.085418 0.750000 0.158714
O O13 0.945779 0.504569 0.291579
O O14 0.928100 0.250000 0.423795
O O15 0.811420 0.497119 0.464229
O O16 0.141869 0.494567 0.270489
O O17 0.349506 0.250000 0.136956
O O18 0.500000 0.000000 0.000000
O O19 0.793781 0.750000 0.430213
O O20 0.583666 0.517224 0.553491
O O21 0.489549 0.250000 0.585207
#
# Coordination Sequence:
#
# PCOD9158331 Si02
#       8
#     4   4   4   4   4   4   4   4
#     4   8  14  25  41  65  96 133 169 193 227 283
#     4  11  22  38  56  72  92 121 161 206 246 289
#     4  10  19  34  52  71  97 127 160 200 244 281
#     4   8  15  28  47  70 100 131 159 194 233 281
#     4  10  21  36  50  67  95 125 157 200 245 284
#     4  10  20  33  48  70  99 129 159 192 234 287
#     4  10  19  31  48  71  98 129 165 198 238 294
#     4   9  15  24  41  65  97 132 163 197 236 278
#
# _framework density 16.799288000000001
#
# number of rings (size 3 to 8) (size 9 to 14) (size 15 to 20)
#    0.000    2.500    1.250    2.625    0.000    3.500 
#    0.000    3.125    0.000    0.000    0.000    0.875 
#    0.000    0.000    0.000    0.000    0.000    0.000 
#
# Total GULP energy -178280.153049 kJ/mol
# GULP energy per Si atom -5571.254783 kJ/mol
# Density = 1.676105 g / cm^3
# Si number density = 16.799288 Si / 1000 Ang^3
#
#
#
# Elastic Constant Matrix: (Units=GPa)
#
#
# Indices 1 2 3 4 5 6 
#
# 1 151.1643 22.1233 47.4931 0.0000 -8.8904 0.0000
# 2 22.1233 12.8485 9.6926 0.0000 0.3137 0.0000
# 3 47.4931 9.6926 26.5270 0.0000 5.3765 0.0000
# 4 0.0000 0.0000 0.0000 19.8292 0.0000 1.8712
# 5 -8.8904 0.3137 5.3765 0.0000 26.9144 0.0000
# 6 0.0000 0.0000 0.0000 1.8712 0.0000 21.9838
#
#
#
# Elastic Compliance Matrix: (Units=1/GPa)
#
#
# Indices 1 2 3 4 5 6 
#
# 1 0.019433 -0.007574 -0.034750 0.000000 0.013449 0.000000
# 2 -0.007574 0.111631 -0.027574 0.000000 0.001705 0.000000
# 3 -0.034750 -0.027574 0.116986 0.000000 -0.034527 0.000000
# 4 0.000000 0.000000 0.000000 0.050839 0.000000 -0.004327
# 5 0.013449 0.001705 -0.034527 0.000000 0.048475 0.000000
# 6 0.000000 0.000000 0.000000 -0.004327 0.000000 0.045856
#
#
# Mechanical properties :
#
#
# Convention : Reuss Voigt Hill
#
# Bulk Modulus (GPa) = 9.23757 38.79532 24.01644
# Shear Modulus (GPa) = 8.78578 21.16087 14.97333
#
# Velocity S-wave (km/s) = 2.28937 3.55298 2.98872
# Velocity P-wave (km/s) = 3.53539 6.32258 5.12221
#
# Compressibility (1/GPa) = 0.10825362
#
# Stress axis : x y z
#
# Youngs Moduli (GPa) = 51.45989 8.95806 8.54800
#
# Poissons Ratio (x) = 0.06785 0.29704
# Poissons Ratio (y) = 0.38975 0.23571
# Poissons Ratio (z) = 1.78823 0.24701
#
# Static dielectric constant tensor:
#      x y z
#    x 1.587260 0.000000 -0.029470 
#    y 0.000000 1.572060 0.000000 
#    z -0.029470 0.000000 1.556880 
# 
# From -- ./inp_files/42476.got.cif
#   From: 2010.05.17/outbox.cif.g08.bks.cpg/sg11_22_cif.got.tgz:42476.got - 2010.06.03 12:22:45.
