data_PCOD9158957
_publ_section_title
;
Structure prediction by ZEFSAII (Michael W. Deem and Ramdas Pophale) SiO2 
 PCOD9158957
Probable space group: P 21/M
;
_chemical_formula_sum "Si O2"
_cell_formula_units_Z 28
_cell_length_a 20.473439
_cell_length_b 7.900426
_cell_length_c 8.075040
_cell_angle_alpha 90.000000
_cell_angle_beta 56.742087
_cell_angle_gamma 90.000000
_cell_volume 1092.198480
_symmetry_space_group_name_H-M "P 21/M"
_symmetry_group_IT_number 11
_symmetry_cell_setting 'monoclinic'
loop_
_space_group_symop_operation_xyz
x,y,z
-x,1/2+y,-z
-x,-y,-z
x,1/2-y,z
loop_
_atom_site_type_symbol
_atom_site_label
_atom_site_fract_x
_atom_site_fract_y
_atom_site_fract_z
Si Si1 0.195041 0.054272 0.548540
Si Si2 0.100657 0.944660 0.991711
Si Si3 0.958329 0.954670 0.388682
Si Si4 0.336374 0.551089 0.177137
Si Si5 0.484884 0.947977 0.803851
Si Si6 0.610666 0.542747 0.394109
Si Si7 0.763064 0.550737 0.004283
O O1 0.208312 0.250000 0.492586
O O2 0.129536 0.981585 0.514155
O O3 0.149129 0.040425 0.784589
O O4 0.280410 0.976437 0.411241
O O5 0.093180 0.750000 0.951334
O O6 0.156998 0.954752 0.073900
O O7 0.016780 0.014610 0.162252
O O8 0.954947 0.750000 0.381910
O O9 0.000000 0.000000 0.500000
O O10 0.345184 0.750000 0.140672
O O11 0.424650 0.479379 0.025938
O O12 0.282572 0.481736 0.102280
O O13 0.497533 0.750000 0.819494
O O14 0.567162 0.019985 0.621095
O O15 0.434275 0.968321 0.703571
O O16 0.604664 0.750000 0.396651
O O17 0.700493 0.502500 0.234072
O O18 0.780021 0.750000 0.990540
#
# Coordination Sequence:
#
# PCOD9158957 Si02
#       7
#     4   4   4   4   4   4   4
#     4  11  23  39  57  79 107 140 177 216 262 313
#     4  11  23  39  57  79 107 140 177 216 262 313
#     4  10  23  40  60  84 108 136 171 212 257 308
#     4  10  19  32  52  79 109 141 178 220 264 311
#     4   8  14  25  43  69 101 135 171 213 260 307
#     4   8  14  25  43  69 101 135 171 213 260 307
#     4  10  19  32  52  79 109 141 178 220 264 311
#
# _framework density 25.636362999999999
#
# number of rings (size 3 to 8) (size 9 to 14) (size 15 to 20)
#    0.000    2.286    0.000    3.000    0.000    5.714 
#    0.000    0.000    0.000    0.857    0.000    0.000 
#    0.000    0.000    0.000    0.000    0.000    0.000 
#
# Total GULP energy -156502.951077 kJ/mol
# GULP energy per Si atom -5589.391110 kJ/mol
# Density = 2.557801 g / cm^3
# Si number density = 25.636363 Si / 1000 Ang^3
#
#
#
# Elastic Constant Matrix: (Units=GPa)
#
#
# Indices 1 2 3 4 5 6 
#
# 1 97.9155 12.6478 31.7991 0.0000 -26.6591 0.0000
# 2 12.6478 49.1221 14.4678 0.0000 -13.9761 0.0000
# 3 31.7991 14.4678 180.2246 0.0000 -25.6804 0.0000
# 4 0.0000 0.0000 0.0000 28.0286 0.0000 3.9269
# 5 -26.6591 -13.9761 -25.6804 0.0000 52.5947 0.0000
# 6 0.0000 0.0000 0.0000 3.9269 0.0000 22.5857
#
#
#
# Elastic Compliance Matrix: (Units=1/GPa)
#
#
# Indices 1 2 3 4 5 6 
#
# 1 0.012224 -0.001277 -0.001311 0.000000 0.005217 0.000000
# 2 -0.001277 0.022326 -0.000875 0.000000 0.004858 0.000000
# 3 -0.001311 -0.000875 0.006150 0.000000 0.002106 0.000000
# 4 0.000000 0.000000 0.000000 0.036569 0.000000 -0.006358
# 5 0.005217 0.004858 0.002106 0.000000 0.023977 0.000000
# 6 0.000000 0.000000 0.000000 -0.006358 0.000000 0.045381
#
#
# Mechanical properties :
#
#
# Convention : Reuss Voigt Hill
#
# Bulk Modulus (GPa) = 29.60778 49.45463 39.53120
# Shear Modulus (GPa) = 30.33783 38.53163 34.43473
#
# Velocity S-wave (km/s) = 3.44378 3.88107 3.66894
# Velocity P-wave (km/s) = 5.23326 6.27824 5.77942
#
# Compressibility (1/GPa) = 0.03377491
#
# Stress axis : x y z
#
# Youngs Moduli (GPa) = 81.80697 44.79056 162.59496
#
# Poissons Ratio (x) = 0.05720 0.21316
# Poissons Ratio (y) = 0.10447 0.14222
# Poissons Ratio (z) = 0.10725 0.03918
#
# Static dielectric constant tensor:
#      x y z
#    x 2.043470 0.000000 0.046850 
#    y 0.000000 1.843400 0.000000 
#    z 0.046850 0.000000 2.131910 
# 
# From -- ./inp_files/28380.got.cif
#   From: 2010.05.17/outbox.cif.g08.bks.cpg/sg11_15_cif.got.tgz:28380.got - 2010.06.03 12:22:45.
