data_PCOD9158485
_publ_section_title
;
Structure prediction by ZEFSAII (Michael W. Deem and Ramdas Pophale) SiO2 
 PCOD9158485
Probable space group: P 21/M
;
_chemical_formula_sum "Si O2"
_cell_formula_units_Z 24
_cell_length_a 9.610229
_cell_length_b 18.444228
_cell_length_c 11.173893
_cell_angle_alpha 90.000000
_cell_angle_beta 41.646159
_cell_angle_gamma 90.000000
_cell_volume 1316.170951
_symmetry_space_group_name_H-M "P 21/M"
_symmetry_group_IT_number 11
_symmetry_cell_setting 'monoclinic'
loop_
_space_group_symop_operation_xyz
x,y,z
-x,1/2+y,-z
-x,-y,-z
x,1/2-y,z
loop_
_atom_site_type_symbol
_atom_site_label
_atom_site_fract_x
_atom_site_fract_y
_atom_site_fract_z
Si Si1 0.198562 0.664823 0.872153
Si Si2 0.194392 0.571107 0.425773
Si Si3 0.597704 0.472601 0.165687
Si Si4 0.608587 0.333843 0.505643
Si Si5 0.897593 0.023002 0.759934
Si Si6 0.191534 0.422254 0.779921
O O1 0.217598 0.750000 0.890170
O O2 0.367484 0.612227 0.828590
O O3 0.235981 0.657031 0.706206
O O4 0.973928 0.632414 0.053142
O O5 0.367243 0.506160 0.322561
O O6 0.292115 0.637116 0.435699
O O7 0.987427 0.545020 0.628579
O O8 0.148622 0.580858 0.315147
O O9 0.740651 0.514770 0.171685
O O10 0.697105 0.489282 0.972209
O O11 0.552225 0.250000 0.551089
O O12 0.403334 0.380906 0.611367
O O13 0.077463 0.046504 0.736911
#
# Coordination Sequence:
#
# PCOD9158485 Si02
#       6
#     4   4   4   4   4   4
#     4  10  19  31  50  75 100 126 162 208 250 288
#     4  10  20  33  51  74 102 132 165 201 243 296
#     4  10  19  33  53  75  98 129 168 206 244 288
#     4  10  20  34  51  73 101 132 164 202 248 294
#     4  10  19  32  52  76  99 127 164 207 247 287
#     4  10  19  33  54  77  98 127 169 209 243 287
#
# _framework density 18.234715000000001
#
# number of rings (size 3 to 8) (size 9 to 14) (size 15 to 20)
#    0.000    2.000    0.000    6.000    0.000    2.667 
#    0.000    4.167    0.000    4.000    0.000    4.667 
#    0.000    0.000    0.000    0.000    0.000    0.000 
#
# Total GULP energy -133903.721655 kJ/mol
# GULP energy per Si atom -5579.321736 kJ/mol
# Density = 1.819321 g / cm^3
# Si number density = 18.234715 Si / 1000 Ang^3
#
#
#
# Elastic Constant Matrix: (Units=GPa)
#
#
# Indices 1 2 3 4 5 6 
#
# 1 70.8355 8.5156 15.5922 0.0000 21.0463 0.0000
# 2 8.5156 70.8497 23.2849 0.0000 5.7821 0.0000
# 3 15.5922 23.2849 83.1870 0.0000 14.8588 0.0000
# 4 0.0000 0.0000 0.0000 22.3120 0.0000 -0.0602
# 5 21.0463 5.7821 14.8588 0.0000 20.7245 0.0000
# 6 0.0000 0.0000 0.0000 -0.0602 0.0000 14.7815
#
#
#
# Elastic Compliance Matrix: (Units=1/GPa)
#
#
# Indices 1 2 3 4 5 6 
#
# 1 0.020259 -0.000793 0.000069 0.000000 -0.020402 0.000000
# 2 -0.000793 0.015611 -0.004114 0.000000 -0.000601 0.000000
# 3 0.000069 -0.004114 0.014872 0.000000 -0.009585 0.000000
# 4 0.000000 0.000000 0.000000 0.044819 0.000000 0.000182
# 5 -0.020402 -0.000601 -0.009585 0.000000 0.076010 0.000000
# 6 0.000000 0.000000 0.000000 0.000182 0.000000 0.067653
#
#
# Mechanical properties :
#
#
# Convention : Reuss Voigt Hill
#
# Bulk Modulus (GPa) = 24.35074 35.51751 29.93413
# Shear Modulus (GPa) = 19.04125 23.39557 21.21841
#
# Velocity S-wave (km/s) = 3.23496 3.58582 3.41490
# Velocity P-wave (km/s) = 5.22842 6.05511 5.65689
#
# Compressibility (1/GPa) = 0.04106651
#
# Stress axis : x y z
#
# Youngs Moduli (GPa) = 49.36054 64.05879 67.24183
#
# Poissons Ratio (x) = 0.05077 -0.00462
# Poissons Ratio (y) = 0.03912 0.27661
# Poissons Ratio (z) = -0.00339 0.26352
#
# Static dielectric constant tensor:
#      x y z
#    x 1.634870 0.000000 0.000810 
#    y 0.000000 1.615990 0.000000 
#    z 0.000810 0.000000 1.644320 
# 
# From -- ./inp_files/14200.got.cif
#   From: 2010.05.17/outbox.cif.g08.bks.cpg/sg11_8_cif.got.tgz:14200.got - 2010.06.03 12:22:45.
