data_PCOD9158572
_publ_section_title
;
Structure prediction by ZEFSAII (Michael W. Deem and Ramdas Pophale) SiO2 
 PCOD9158572
Probable space group: P 21/M
;
_chemical_formula_sum "Si O2"
_cell_formula_units_Z 32
_cell_length_a 30.476689
_cell_length_b 9.137134
_cell_length_c 13.029057
_cell_angle_alpha 90.000000
_cell_angle_beta 152.290744
_cell_angle_gamma 90.000000
_cell_volume 1687.057064
_symmetry_space_group_name_H-M "P 21/M"
_symmetry_group_IT_number 11
_symmetry_cell_setting 'monoclinic'
loop_
_space_group_symop_operation_xyz
x,y,z
-x,1/2+y,-z
-x,-y,-z
x,1/2-y,z
loop_
_atom_site_type_symbol
_atom_site_label
_atom_site_fract_x
_atom_site_fract_y
_atom_site_fract_z
Si Si1 0.189909 0.923656 0.416768
Si Si2 0.401857 0.073626 0.330699
Si Si3 0.074035 0.923721 0.385962
Si Si4 0.353240 0.084281 0.864050
Si Si5 0.762391 0.582597 0.164103
Si Si6 0.875434 0.424953 0.948943
Si Si7 0.474852 0.076197 0.841513
Si Si8 0.692380 0.574917 0.647329
O O1 0.212259 0.750000 0.463971
O O2 0.119242 0.951373 0.366052
O O3 0.146210 0.960588 0.215982
O O4 0.283610 0.015101 0.635668
O O5 0.412281 0.250000 0.341750
O O6 0.368890 0.041204 0.378352
O O7 0.500000 0.000000 0.500000
O O8 0.312762 0.028880 0.075273
O O9 0.063430 0.750000 0.375093
O O10 0.146865 0.985812 0.621273
O O11 0.974267 0.003745 0.184276
O O12 0.379901 0.250000 0.890941
O O13 0.295716 0.087736 0.850090
O O14 0.444385 0.984398 0.066186
O O15 0.790422 0.750000 0.195930
O O16 0.879644 0.250000 0.966757
O O17 0.789842 0.489749 0.838267
O O18 0.481175 0.250000 0.862753
O O19 0.373380 0.037534 0.585982
O O20 0.500000 0.000000 0.000000
O O21 0.709906 0.750000 0.683652
#
# Coordination Sequence:
#
# PCOD9158572 Si02
#       8
#     4   4   4   4   4   4   4   4
#     4   9  19  34  53  80 112 148 187 224 267 321
#     4  10  21  39  63  87 112 142 178 225 277 328
#     4  10  20  35  57  83 112 146 184 227 273 323
#     4  10  19  31  51  79 109 140 175 219 270 323
#     4   9  19  36  57  82 110 139 176 223 272 322
#     4  11  22  36  55  79 110 147 186 229 274 323
#     4  11  22  35  52  75 107 145 182 220 264 319
#     4  10  23  40  56  79 110 145 185 227 273 325
#
# _framework density 18.967941
#
# number of rings (size 3 to 8) (size 9 to 14) (size 15 to 20)
#    0.000    2.000    0.000    3.375    0.000    6.000 
#    0.000    0.625    0.000    0.000    0.000    0.000 
#    0.000    0.000    0.000    0.000    0.000    0.000 
#
# Total GULP energy -178687.849371 kJ/mol
# GULP energy per Si atom -5583.995293 kJ/mol
# Density = 1.892477 g / cm^3
# Si number density = 18.967941 Si / 1000 Ang^3
#
#
#
# Elastic Constant Matrix: (Units=GPa)
#
#
# Indices 1 2 3 4 5 6 
#
# 1 71.4845 40.2792 56.4374 0.0000 8.2153 0.0000
# 2 40.2792 50.7161 55.9443 0.0000 10.5112 0.0000
# 3 56.4374 55.9443 135.3946 0.0000 7.5405 0.0000
# 4 0.0000 0.0000 0.0000 31.8884 0.0000 7.7775
# 5 8.2153 10.5112 7.5405 0.0000 29.9653 0.0000
# 6 0.0000 0.0000 0.0000 7.7775 0.0000 26.8278
#
#
#
# Elastic Compliance Matrix: (Units=1/GPa)
#
#
# Indices 1 2 3 4 5 6 
#
# 1 0.026647 -0.016237 -0.004370 0.000000 -0.000510 0.000000
# 2 -0.016237 0.048730 -0.012843 0.000000 -0.009410 0.000000
# 3 -0.004370 -0.012843 0.014398 0.000000 0.002080 0.000000
# 4 0.000000 0.000000 0.000000 0.033745 0.000000 -0.009783
# 5 -0.000510 -0.009410 0.002080 0.000000 0.036289 0.000000
# 6 0.000000 0.000000 0.000000 -0.009783 0.000000 0.040111
#
#
# Mechanical properties :
#
#
# Convention : Reuss Voigt Hill
#
# Bulk Modulus (GPa) = 43.71447 62.54634 53.13041
# Shear Modulus (GPa) = 18.21857 24.73190 21.47523
#
# Velocity S-wave (km/s) = 3.10254 3.61484 3.36845
# Velocity P-wave (km/s) = 5.99424 7.10416 6.57267
#
# Compressibility (1/GPa) = 0.02287572
#
# Stress axis : x y z
#
# Youngs Moduli (GPa) = 37.52803 20.52117 69.45365
#
# Poissons Ratio (x) = 0.33320 0.30351
# Poissons Ratio (y) = 0.60934 0.89198
# Poissons Ratio (z) = 0.16399 0.26355
#
# Static dielectric constant tensor:
#      x y z
#    x 1.689860 0.000000 -0.012300 
#    y 0.000000 1.642000 0.000000 
#    z -0.012300 0.000000 1.644840 
# 
# From -- ./inp_files/45354.got.cif
#   From: 2010.05.17/outbox.cif.g08.bks.cpg/sg11_23_cif.got.tgz:45354.got - 2010.06.03 12:22:45.
