data_PCOD9158233
_publ_section_title
;
Structure prediction by ZEFSAII (Michael W. Deem and Ramdas Pophale) SiO2 
 PCOD9158233
Probable space group: P 21/M
;
_chemical_formula_sum "Si O2"
_cell_formula_units_Z 32
_cell_length_a 16.182477
_cell_length_b 8.582353
_cell_length_c 14.660539
_cell_angle_alpha 90.000000
_cell_angle_beta 89.491377
_cell_angle_gamma 90.000000
_cell_volume 2036.030115
_symmetry_space_group_name_H-M "P 21/M"
_symmetry_group_IT_number 11
_symmetry_cell_setting 'monoclinic'
loop_
_space_group_symop_operation_xyz
x,y,z
-x,1/2+y,-z
-x,-y,-z
x,1/2-y,z
loop_
_atom_site_type_symbol
_atom_site_label
_atom_site_fract_x
_atom_site_fract_y
_atom_site_fract_z
Si Si1 0.498814 0.437565 0.603102
Si Si2 0.903353 0.935494 0.104161
Si Si3 0.001209 0.062968 0.602396
Si Si4 0.902494 0.062161 0.907048
Si Si5 0.682495 0.937292 0.394852
Si Si6 0.679816 0.060933 0.602106
Si Si7 0.161955 0.560089 0.285040
Si Si8 0.158880 0.565323 0.709725
O O1 0.500000 0.500000 0.500000
O O2 0.498243 0.250000 0.601833
O O3 0.408899 0.486178 0.640652
O O4 0.588610 0.485087 0.640076
O O5 0.896773 0.750000 0.114099
O O6 0.000931 0.977253 0.112064
O O7 0.853339 0.015809 0.185408
O O8 0.877845 0.987216 0.003138
O O9 0.001671 0.250000 0.600826
O O10 0.918607 0.011598 0.656676
O O11 0.082072 0.005817 0.654512
O O12 0.000000 0.000000 0.500000
O O13 0.898136 0.250000 0.915530
O O14 0.850308 0.011614 0.819606
O O15 0.686863 0.750000 0.395466
O O16 0.690020 0.996495 0.499342
O O17 0.756408 0.003383 0.334142
O O18 0.682584 0.250000 0.596363
O O19 0.754626 0.008623 0.665769
O O20 0.162194 0.750000 0.284771
O O21 0.156087 0.750000 0.701099
#
# Coordination Sequence:
#
# PCOD9158233 Si02
#       8
#     4   4   4   4   4   4   4   4
#     4   8  15  27  45  68  93 122 156 194 238 280
#     4  10  19  33  51  70  92 119 153 199 244 283
#     4  11  21  34  47  67  98 134 166 195 229 274
#     4   9  17  32  50  69  92 121 154 191 236 286
#     4  10  19  31  46  67  97 129 160 200 242 281
#     4   9  16  29  49  72  97 126 160 194 230 283
#     4   9  17  30  48  68  94 125 156 189 228 275
#     4  12  23  34  48  68  92 127 167 202 239 283
#
# _framework density 15.716861
#
# number of rings (size 3 to 8) (size 9 to 14) (size 15 to 20)
#    0.000    2.250    1.250    3.000    0.000    2.000 
#    0.000    1.250    0.000    0.000    0.000    0.875 
#    0.000    0.000    0.000    0.000    0.000    0.000 
#
# Total GULP energy -178393.431263 kJ/mol
# GULP energy per Si atom -5574.794727 kJ/mol
# Density = 1.568109 g / cm^3
# Si number density = 15.716861 Si / 1000 Ang^3
#
#
#
# Elastic Constant Matrix: (Units=GPa)
#
#
# Indices 1 2 3 4 5 6 
#
# 1 151.1041 31.9881 70.3671 0.0000 -0.3082 0.0000
# 2 31.9881 34.3676 25.5001 0.0000 0.7792 0.0000
# 3 70.3671 25.5001 103.1948 0.0000 1.7141 0.0000
# 4 0.0000 0.0000 0.0000 24.0441 0.0000 -0.3837
# 5 -0.3082 0.7792 1.7141 0.0000 6.4958 0.0000
# 6 0.0000 0.0000 0.0000 -0.3837 0.0000 11.3022
#
#
#
# Elastic Compliance Matrix: (Units=1/GPa)
#
#
# Indices 1 2 3 4 5 6 
#
# 1 0.010515 -0.005504 -0.005855 0.000000 0.002704 0.000000
# 2 -0.005504 0.038536 -0.005713 0.000000 -0.003376 0.000000
# 3 -0.005855 -0.005713 0.015154 0.000000 -0.003591 0.000000
# 4 0.000000 0.000000 0.000000 0.041613 0.000000 0.001413
# 5 0.002704 -0.003376 -0.003591 0.000000 0.155427 0.000000
# 6 0.000000 0.000000 0.000000 0.001413 0.000000 0.088526
#
#
# Mechanical properties :
#
#
# Convention : Reuss Voigt Hill
#
# Bulk Modulus (GPa) = 33.26606 60.48635 46.87621
# Shear Modulus (GPa) = 12.69239 19.08916 15.89077
#
# Velocity S-wave (km/s) = 2.84485 3.48884 3.18317
# Velocity P-wave (km/s) = 5.65709 7.40256 6.58789
#
# Compressibility (1/GPa) = 0.03006066
#
# Stress axis : x y z
#
# Youngs Moduli (GPa) = 95.09958 25.94986 65.98795
#
# Poissons Ratio (x) = 0.14283 0.38636
# Poissons Ratio (y) = 0.52345 0.37700
# Poissons Ratio (z) = 0.55681 0.14826
#
# Static dielectric constant tensor:
#      x y z
#    x 1.547190 0.000000 0.007360 
#    y 0.000000 1.538220 0.000000 
#    z 0.007360 0.000000 1.497350 
# 
# From -- ./inp_files/51311.got.cif
#   From: 2010.05.17/outbox.cif.g08.bks.cpg/sg11_26_cif.got.tgz:51311.got - 2010.06.03 12:22:45.
