data_PCOD9158836
_publ_section_title
;
Structure prediction by ZEFSAII (Michael W. Deem and Ramdas Pophale) SiO2 
 PCOD9158836
Probable space group: P 21/M
;
_chemical_formula_sum "Si O2"
_cell_formula_units_Z 24
_cell_length_a 21.673366
_cell_length_b 13.392722
_cell_length_c 7.678721
_cell_angle_alpha 90.000000
_cell_angle_beta 32.243764
_cell_angle_gamma 90.000000
_cell_volume 1189.150487
_symmetry_space_group_name_H-M "P 21/M"
_symmetry_group_IT_number 11
_symmetry_cell_setting 'monoclinic'
loop_
_space_group_symop_operation_xyz
x,y,z
-x,1/2+y,-z
-x,-y,-z
x,1/2-y,z
loop_
_atom_site_type_symbol
_atom_site_label
_atom_site_fract_x
_atom_site_fract_y
_atom_site_fract_z
Si Si1 0.868617 0.034210 0.790702
Si Si2 0.832087 0.496897 0.256959
Si Si3 0.938215 0.134827 0.295488
Si Si4 0.617009 0.866079 0.718029
Si Si5 0.351894 0.433312 0.746438
Si Si6 0.474371 0.636789 0.388104
O O1 0.875875 0.119162 0.629506
O O2 0.786870 0.942833 0.921809
O O3 0.000000 0.000000 0.500000
O O4 0.825188 0.058535 0.087316
O O5 0.857940 0.419082 0.345739
O O6 0.716735 0.561148 0.549511
O O7 0.940533 0.574012 0.992927
O O8 0.958249 0.250000 0.209733
O O9 0.650923 0.750000 0.655873
O O10 0.604966 0.888179 0.540866
O O11 0.507661 0.880455 0.106158
O O12 0.391633 0.549175 0.651154
O O13 0.410595 0.377511 0.767177
O O14 0.432167 0.750000 0.509679
#
# Coordination Sequence:
#
# PCOD9158836 Si02
#       6
#     4   4   4   4   4   4
#     4   9  19  35  54  76 105 140 177 219 266 316
#     4   9  19  34  51  76 106 137 178 225 266 312
#     4  10  19  32  51  75 106 143 179 216 266 322
#     4  10  19  34  56  78 102 135 177 222 267 316
#     4  10  20  36  56  78 109 141 177 224 268 318
#     4  10  21  35  54  80 107 140 179 219 268 321
#
# _framework density 20.182475
#
# number of rings (size 3 to 8) (size 9 to 14) (size 15 to 20)
#    0.000    2.333    0.000    2.500    0.000    1.333 
#    0.000    3.333    0.000   12.000    0.000    0.000 
#    0.000    0.000    0.000    0.000    0.000    0.000 
#
# Total GULP energy -133879.928678 kJ/mol
# GULP energy per Si atom -5578.330362 kJ/mol
# Density = 2.013654 g / cm^3
# Si number density = 20.182475 Si / 1000 Ang^3
#
#
#
# Elastic Constant Matrix: (Units=GPa)
#
#
# Indices 1 2 3 4 5 6 
#
# 1 65.2727 15.7007 0.8254 0.0000 5.6467 0.0000
# 2 15.7007 98.8754 16.1107 0.0000 18.7744 0.0000
# 3 0.8254 16.1107 35.2583 0.0000 2.9462 0.0000
# 4 0.0000 0.0000 0.0000 21.1192 0.0000 5.9455
# 5 5.6467 18.7744 2.9462 0.0000 20.8758 0.0000
# 6 0.0000 0.0000 0.0000 5.9455 0.0000 17.6054
#
#
#
# Elastic Compliance Matrix: (Units=1/GPa)
#
#
# Indices 1 2 3 4 5 6 
#
# 1 0.016057 -0.002219 0.000844 0.000000 -0.002467 0.000000
# 2 -0.002219 0.013329 -0.005148 0.000000 -0.010661 0.000000
# 3 0.000844 -0.005148 0.030689 0.000000 0.000070 0.000000
# 4 0.000000 0.000000 0.000000 0.052325 0.000000 -0.017671
# 5 -0.002467 -0.010661 0.000070 0.000000 0.058147 0.000000
# 6 0.000000 0.000000 0.000000 -0.017671 0.000000 0.062769
#
#
# Mechanical properties :
#
#
# Convention : Reuss Voigt Hill
#
# Bulk Modulus (GPa) = 21.26321 29.40889 25.33605
# Shear Modulus (GPa) = 19.08128 23.03803 21.05966
#
# Velocity S-wave (km/s) = 3.07813 3.38226 3.23377
# Velocity P-wave (km/s) = 4.81576 5.46406 5.15012
#
# Compressibility (1/GPa) = 0.04702959
#
# Stress axis : x y z
#
# Youngs Moduli (GPa) = 62.27896 75.02393 32.58527
#
# Poissons Ratio (x) = 0.16647 -0.02750
# Poissons Ratio (y) = 0.13819 0.16774
# Poissons Ratio (z) = -0.05257 0.38620
#
# Static dielectric constant tensor:
#      x y z
#    x 1.751220 0.000000 -0.007590 
#    y 0.000000 1.680110 0.000000 
#    z -0.007590 0.000000 1.756670 
# 
# From -- ./inp_files/27562.got.cif
#   From: 2010.05.17/outbox.cif.g08.bks.cpg/sg11_14_cif.got.tgz:27562.got - 2010.06.03 12:22:45.
