data_PCOD9158804
_publ_section_title
;
Structure prediction by ZEFSAII (Michael W. Deem and Ramdas Pophale) SiO2 
 PCOD9158804
Probable space group: P 21/M
;
_chemical_formula_sum "Si O2"
_cell_formula_units_Z 28
_cell_length_a 15.409934
_cell_length_b 7.525205
_cell_length_c 20.370553
_cell_angle_alpha 90.000000
_cell_angle_beta 32.276282
_cell_angle_gamma 90.000000
_cell_volume 1261.435773
_symmetry_space_group_name_H-M "P 21/M"
_symmetry_group_IT_number 11
_symmetry_cell_setting 'monoclinic'
loop_
_space_group_symop_operation_xyz
x,y,z
-x,1/2+y,-z
-x,-y,-z
x,1/2-y,z
loop_
_atom_site_type_symbol
_atom_site_label
_atom_site_fract_x
_atom_site_fract_y
_atom_site_fract_z
Si Si1 0.994458 0.031616 0.706729
Si Si2 0.204023 0.465633 0.948098
Si Si3 0.112339 0.042962 0.771884
Si Si4 0.476981 0.545329 0.189052
Si Si5 0.366614 0.034850 0.707372
Si Si6 0.688901 0.957312 0.570584
Si Si7 0.661523 0.037332 0.855745
O O1 0.991523 0.250000 0.710360
O O2 0.042036 0.968118 0.749163
O O3 0.139687 0.976920 0.565470
O O4 0.821292 0.968957 0.790514
O O5 0.201947 0.250000 0.950138
O O6 0.345544 0.531140 0.907354
O O7 0.262295 0.520830 0.838389
O O8 0.030345 0.530666 0.082881
O O9 0.146178 0.250000 0.737193
O O10 0.275014 0.968098 0.701199
O O11 0.508554 0.750000 0.150888
O O12 0.378589 0.543141 0.319979
O O13 0.375579 0.467194 0.193771
O O14 0.365893 0.250000 0.707239
O O15 0.550424 0.977799 0.603552
O O16 0.705472 0.750000 0.575054
O O17 0.685645 0.250000 0.835978
O O18 0.500000 0.000000 0.000000
#
# Coordination Sequence:
#
# PCOD9158804 Si02
#       7
#     4   4   4   4   4   4   4
#     4   9  20  36  52  75 106 135 167 213 259 297
#     4   9  17  30  47  72 104 130 164 213 256 297
#     4  10  19  32  51  73 101 138 173 206 254 310
#     4   9  19  35  54  76 105 139 169 208 259 301
#     4   9  19  34  51  73 103 136 168 210 260 305
#     4  10  20  35  54  75 100 133 175 216 253 300
#     4  10  20  36  57  80 109 139 167 205 254 305
#
# _framework density 22.196926999999999
#
# number of rings (size 3 to 8) (size 9 to 14) (size 15 to 20)
#    0.000    2.571    0.000    2.571    0.000    4.571 
#    0.000    2.857    0.000    0.000    0.000    0.000 
#    0.000    0.000    0.000    0.000    0.000    0.000 
#
# Total GULP energy -156345.708921 kJ/mol
# GULP energy per Si atom -5583.775319 kJ/mol
# Density = 2.214641 g / cm^3
# Si number density = 22.196927 Si / 1000 Ang^3
#
#
#
# Elastic Constant Matrix: (Units=GPa)
#
#
# Indices 1 2 3 4 5 6 
#
# 1 179.9268 4.5517 47.4134 0.0000 -35.0858 0.0000
# 2 4.5517 54.3793 -17.4480 0.0000 1.7452 0.0000
# 3 47.4134 -17.4480 88.4911 0.0000 -31.8400 0.0000
# 4 0.0000 0.0000 0.0000 17.1244 0.0000 0.9233
# 5 -35.0858 1.7452 -31.8400 0.0000 17.2953 0.0000
# 6 0.0000 0.0000 0.0000 0.9233 0.0000 -2.9806
#
#
#
# Elastic Compliance Matrix: (Units=1/GPa)
#
#
# Indices 1 2 3 4 5 6 
#
# 1 0.010114 0.000020 0.005825 0.000000 0.031240 0.000000
# 2 0.000020 0.021088 0.010060 0.000000 0.016432 0.000000
# 3 0.005825 0.010060 0.041616 0.000000 0.087416 0.000000
# 4 0.000000 0.000000 0.000000 0.057437 0.000000 0.017792
# 5 0.031240 0.016432 0.087416 0.000000 0.280465 0.000000
# 6 0.000000 0.000000 0.000000 0.017792 0.000000 -0.329992
#
#
# Mechanical properties :
#
#
# Convention : Reuss Voigt Hill
#
# Bulk Modulus (GPa) = 9.55767 43.53683 26.54725
# Shear Modulus (GPa) = 59.67018 25.50649 42.58834
#
# Velocity S-wave (km/s) = 5.19043 3.39352 4.38500
# Velocity P-wave (km/s) = 6.34318 5.91702 6.13380
#
# Compressibility (1/GPa) = 0.10462803
#
# Stress axis : x y z
#
# Youngs Moduli (GPa) = 98.87256 47.42013 24.02915
#
# Poissons Ratio (x) = -0.00094 -0.13997
# Poissons Ratio (y) = -0.00197 -0.24173
# Poissons Ratio (z) = -0.57595 -0.47704
#
# Static dielectric constant tensor:
#      x y z
#    x 1.848070 0.000000 -0.007020 
#    y 0.000000 1.816620 0.000000 
#    z -0.007020 0.000000 1.764850 
# 
# From -- ./inp_files/38456.got.cif
#   From: 2010.05.17/outbox.cif.g08.bks.cpg/sg11_20_cif.got.tgz:38456.got - 2010.06.03 12:22:45.
