data_PCOD9158110
_publ_section_title
;
Structure prediction by ZEFSAII (Michael W. Deem and Ramdas Pophale) SiO2 
 PCOD9158110
Probable space group: P 21/M
;
_chemical_formula_sum "Si O2"
_cell_formula_units_Z 28
_cell_length_a 15.439798
_cell_length_b 7.394315
_cell_length_c 21.331507
_cell_angle_alpha 90.000000
_cell_angle_beta 26.561336
_cell_angle_gamma 90.000000
_cell_volume 1088.979670
_symmetry_space_group_name_H-M "P 21/M"
_symmetry_group_IT_number 11
_symmetry_cell_setting 'monoclinic'
loop_
_space_group_symop_operation_xyz
x,y,z
-x,1/2+y,-z
-x,-y,-z
x,1/2-y,z
loop_
_atom_site_type_symbol
_atom_site_label
_atom_site_fract_x
_atom_site_fract_y
_atom_site_fract_z
Si Si1 0.458889 0.448962 0.132726
Si Si2 0.812091 0.464728 0.580647
Si Si3 0.312378 0.463082 0.904011
Si Si4 0.169062 0.529127 0.645355
Si Si5 0.484448 0.459104 0.665948
Si Si6 0.119977 0.530736 0.818868
Si Si7 0.095005 0.030047 0.290052
O O1 0.506260 0.250000 0.078117
O O2 0.338126 0.441388 0.275924
O O3 0.645539 0.526633 0.047904
O O4 0.302336 0.533222 0.184947
O O5 0.765033 0.250000 0.610721
O O6 0.000000 0.500000 0.500000
O O7 0.903697 0.519510 0.454935
O O8 0.308480 0.250000 0.894116
O O9 0.456366 0.532433 0.754878
O O10 0.098462 0.535121 0.028896
O O11 0.169305 0.750000 0.645983
O O12 0.355874 0.464149 0.485060
O O13 0.177660 0.471561 0.711482
O O14 0.972910 0.477104 0.734983
O O15 0.543036 0.250000 0.634699
O O16 0.276907 0.468707 0.767165
O O17 0.118937 0.750000 0.821097
O O18 0.107709 0.250000 0.286344
#
# Coordination Sequence:
#
# PCOD9158110 Si02
#       7
#     4   4   4   4   4   4   4
#     4  10  19  30  48  75 103 137 178 219 258 302
#     4   9  15  25  43  68 100 136 172 213 256 301
#     4  10  21  36  53  76 105 139 173 210 261 317
#     4   9  17  32  54  78 103 136 173 208 252 313
#     4  10  20  35  57  79 102 135 171 208 262 321
#     4  10  21  36  55  78 104 133 171 218 263 304
#     4   8  15  28  47  72 103 138 174 206 247 306
#
# _framework density 25.712143999999999
#
# number of rings (size 3 to 8) (size 9 to 14) (size 15 to 20)
#    0.000    2.571    0.000    3.429    0.000    3.429 
#    0.000    0.714    0.000    6.857    0.000    0.000 
#    0.000    0.000    0.000    0.000    0.000    0.000 
#
# Total GULP energy -156049.493687 kJ/mol
# GULP energy per Si atom -5573.196203 kJ/mol
# Density = 2.565362 g / cm^3
# Si number density = 25.712144 Si / 1000 Ang^3
#
#
#
# Elastic Constant Matrix: (Units=GPa)
#
#
# Indices 1 2 3 4 5 6 
#
# 1 205.1861 -11.3196 0.4737 0.0000 47.6260 0.0000
# 2 -11.3196 88.9603 -0.9579 0.0000 4.8457 0.0000
# 3 0.4737 -0.9579 86.3066 0.0000 14.2603 0.0000
# 4 0.0000 0.0000 0.0000 21.9325 0.0000 -39.4226
# 5 47.6260 4.8457 14.2603 0.0000 65.4945 0.0000
# 6 0.0000 0.0000 0.0000 -39.4226 0.0000 60.4811
#
#
#
# Elastic Compliance Matrix: (Units=1/GPa)
#
#
# Indices 1 2 3 4 5 6 
#
# 1 0.005995 0.001021 0.000738 0.000000 -0.004596 0.000000
# 2 0.001021 0.011467 0.000399 0.000000 -0.001678 0.000000
# 3 0.000738 0.000399 0.012116 0.000000 -0.003204 0.000000
# 4 0.000000 0.000000 0.000000 -0.265692 0.000000 -0.173182
# 5 -0.004596 -0.001678 -0.003204 0.000000 0.019432 0.000000
# 6 0.000000 0.000000 0.000000 -0.173182 0.000000 -0.096349
#
#
# Mechanical properties :
#
#
# Convention : Reuss Voigt Hill
#
# Bulk Modulus (GPa) = 29.50437 39.64948 34.57692
# Shear Modulus (GPa) = -16.33728 55.73207 19.69740
#
# Velocity S-wave (km/s) = -2.52343 4.66073 2.77081
# Velocity P-wave (km/s) = 1.73479 6.66463 4.86964
#
# Compressibility (1/GPa) = 0.03389328
#
# Stress axis : x y z
#
# Youngs Moduli (GPa) = 166.80762 87.21002 82.53282
#
# Poissons Ratio (x) = -0.08905 -0.06089
# Poissons Ratio (y) = -0.17032 -0.03292
# Poissons Ratio (z) = -0.12306 -0.03479
#
# Static dielectric constant tensor:
#      x y z
#    x 1.999890 0.000000 0.053370 
#    y 0.000000 1.955930 0.000000 
#    z 0.053370 0.000000 2.264190 
# 
# From -- ./inp_files/65375.got.cif
#   From: 2010.05.17/outbox.cif.g08.bks.cpg/sg11_33_cif.got.tgz:65375.got - 2010.06.03 12:22:45.
