data_PCOD9158341
_publ_section_title
;
Structure prediction by ZEFSAII (Michael W. Deem and Ramdas Pophale) SiO2 
 PCOD9158341
Probable space group: P 21/M
;
_chemical_formula_sum "Si O2"
_cell_formula_units_Z 24
_cell_length_a 5.342279
_cell_length_b 9.754458
_cell_length_c 24.195922
_cell_angle_alpha 90.000000
_cell_angle_beta 97.272943
_cell_angle_gamma 90.000000
_cell_volume 1250.729993
_symmetry_space_group_name_H-M "P 21/M"
_symmetry_group_IT_number 11
_symmetry_cell_setting 'monoclinic'
loop_
_space_group_symop_operation_xyz
x,y,z
-x,1/2+y,-z
-x,-y,-z
x,1/2-y,z
loop_
_atom_site_type_symbol
_atom_site_label
_atom_site_fract_x
_atom_site_fract_y
_atom_site_fract_z
Si Si1 0.740853 0.415185 0.813056
Si Si2 0.485425 0.916443 0.442839
Si Si3 0.820682 0.098842 0.029032
Si Si4 0.052383 0.084395 0.624858
Si Si5 0.470336 0.401248 0.915112
Si Si6 0.202115 0.082314 0.751657
O O1 0.750654 0.250000 0.808570
O O2 0.679226 0.440674 0.875709
O O3 0.486238 0.461211 0.774349
O O4 0.996410 0.464050 0.791292
O O5 0.486942 0.750000 0.451656
O O6 0.725198 0.952800 0.411331
O O7 0.224192 0.953730 0.404681
O O8 0.500000 0.000000 0.500000
O O9 0.927453 0.250000 0.042456
O O10 0.728725 0.021055 0.081048
O O11 0.593078 0.115699 0.978712
O O12 0.000000 0.000000 0.000000
O O13 0.052731 0.250000 0.627471
O O14 0.115163 0.036459 0.688500
O O15 0.363927 0.250000 0.896093
O O16 0.205127 0.250000 0.751677
#
# Coordination Sequence:
#
# PCOD9158341 Si02
#       6
#     4   4   4   4   4   4
#     4   9  17  27  45  71 100 126 158 204 253 298
#     4  10  19  31  48  72 101 132 165 204 245 290
#     4  10  20  33  51  72  99 132 167 205 255 310
#     4   9  17  29  46  69 102 133 161 202 250 295
#     4   9  19  33  49  72 100 129 162 208 255 305
#     4   9  16  27  44  70  99 129 160 198 251 301
#
# _framework density 19.188793
#
# number of rings (size 3 to 8) (size 9 to 14) (size 15 to 20)
#    0.000    2.667    0.000    2.000    2.333    4.667 
#    0.000    0.000    0.000    0.000    0.000    7.000 
#    0.000    0.000    0.000    0.000    0.000    0.000 
#
# Total GULP energy -133715.112394 kJ/mol
# GULP energy per Si atom -5571.463016 kJ/mol
# Density = 1.914512 g / cm^3
# Si number density = 19.188793 Si / 1000 Ang^3
#
#
#
# Elastic Constant Matrix: (Units=GPa)
#
#
# Indices 1 2 3 4 5 6 
#
# 1 79.2711 15.3807 12.0839 0.0000 -7.0156 0.0000
# 2 15.3807 58.8254 10.5024 0.0000 -13.0386 0.0000
# 3 12.0839 10.5024 88.4438 0.0000 -5.7888 0.0000
# 4 0.0000 0.0000 0.0000 19.8939 0.0000 -7.4552
# 5 -7.0156 -13.0386 -5.7888 0.0000 34.5132 0.0000
# 6 0.0000 0.0000 0.0000 -7.4552 0.0000 11.9246
#
#
#
# Elastic Compliance Matrix: (Units=1/GPa)
#
#
# Indices 1 2 3 4 5 6 
#
# 1 0.013530 -0.002979 -0.001404 0.000000 0.001389 0.000000
# 2 -0.002979 0.019485 -0.001481 0.000000 0.006507 0.000000
# 3 -0.001404 -0.001481 0.011748 0.000000 0.001126 0.000000
# 4 0.000000 0.000000 0.000000 0.065647 0.000000 0.041042
# 5 0.001389 0.006507 0.001126 0.000000 0.031904 0.000000
# 6 0.000000 0.000000 0.000000 0.041042 0.000000 0.109519
#
#
# Mechanical properties :
#
#
# Convention : Reuss Voigt Hill
#
# Bulk Modulus (GPa) = 30.27049 33.60826 31.93937
# Shear Modulus (GPa) = 18.21011 25.83790 22.02401
#
# Velocity S-wave (km/s) = 3.08392 3.67346 3.39153
# Velocity P-wave (km/s) = 5.33761 5.96196 5.65840
#
# Compressibility (1/GPa) = 0.03303547
#
# Stress axis : x y z
#
# Youngs Moduli (GPa) = 73.91034 51.32134 85.12129
#
# Poissons Ratio (x) = 0.15289 0.11950
# Poissons Ratio (y) = 0.22018 0.12605
# Poissons Ratio (z) = 0.10376 0.07600
#
# Static dielectric constant tensor:
#      x y z
#    x 1.718550 0.000000 0.024720 
#    y 0.000000 1.715650 0.000000 
#    z 0.024720 0.000000 1.679480 
# 
# From -- ./inp_files/8556.got.cif
#   From: 2010.05.17/outbox.cif.g08.bks.cpg/sg11_5_cif.got.tgz:8556.got - 2010.06.03 12:22:45.
