data_PCOD9158997
_publ_section_title
;
Structure prediction by ZEFSAII (Michael W. Deem and Ramdas Pophale) SiO2 
 PCOD9158997
Probable space group: P 21/M
;
_chemical_formula_sum "Si O2"
_cell_formula_units_Z 32
_cell_length_a 12.418768
_cell_length_b 8.337622
_cell_length_c 23.935522
_cell_angle_alpha 90.000000
_cell_angle_beta 43.267898
_cell_angle_gamma 90.000000
_cell_volume 1698.690909
_symmetry_space_group_name_H-M "P 21/M"
_symmetry_group_IT_number 11
_symmetry_cell_setting 'monoclinic'
loop_
_space_group_symop_operation_xyz
x,y,z
-x,1/2+y,-z
-x,-y,-z
x,1/2-y,z
loop_
_atom_site_type_symbol
_atom_site_label
_atom_site_fract_x
_atom_site_fract_y
_atom_site_fract_z
Si Si1 0.250598 0.943926 0.401986
Si Si2 0.408221 0.063869 0.177086
Si Si3 0.453016 0.064925 0.768634
Si Si4 0.106899 0.939884 0.908058
Si Si5 0.978267 0.941641 0.419689
Si Si6 0.391018 0.438488 0.991660
Si Si7 0.025964 0.058962 0.158274
Si Si8 0.935333 0.943076 0.733821
O O1 0.253165 0.750000 0.398898
O O2 0.429357 0.998979 0.323708
O O3 0.129880 0.000611 0.398639
O O4 0.172480 0.998169 0.489127
O O5 0.394584 0.250000 0.199466
O O6 0.250358 0.018930 0.203302
O O7 0.436614 0.951170 0.218803
O O8 0.557585 0.039397 0.081132
O O9 0.413957 0.250000 0.772714
O O10 0.291854 0.975443 0.843005
O O11 0.081025 0.750000 0.916399
O O12 0.057733 0.007747 0.865477
O O13 0.000000 0.000000 0.000000
O O14 0.981468 0.750000 0.419533
O O15 0.986147 0.998201 0.352953
O O16 0.419756 0.250000 0.969914
O O17 0.500000 0.500000 0.000000
O O18 0.210926 0.456616 0.076236
O O19 0.989185 0.250000 0.174414
O O20 0.000282 0.994711 0.230939
O O21 0.945465 0.750000 0.731527
#
# Coordination Sequence:
#
# PCOD9158997 Si02
#       8
#     4   4   4   4   4   4   4   4
#     4   9  19  34  53  79 113 153 186 222 279 341
#     4  11  21  33  52  80 110 145 188 228 277 339
#     4  11  22  38  58  82 115 149 189 237 285 336
#     4  11  23  41  63  84 111 150 197 242 286 331
#     4  10  19  32  52  83 117 147 182 226 281 339
#     4  11  20  33  51  75 108 144 181 226 281 335
#     4   9  20  38  56  76 106 147 188 230 280 336
#     4  10  19  34  54  77 111 148 182 222 278 342
#
# _framework density 18.838035000000001
#
# number of rings (size 3 to 8) (size 9 to 14) (size 15 to 20)
#    0.000    1.750    2.500    2.625    0.000    3.000 
#    0.000    3.125    0.000    0.750    0.000    0.000 
#    0.000    0.000    0.000    0.000    0.000    0.000 
#
# Total GULP energy -178476.675611 kJ/mol
# GULP energy per Si atom -5577.396113 kJ/mol
# Density = 1.879516 g / cm^3
# Si number density = 18.838035 Si / 1000 Ang^3
#
#
#
# Elastic Constant Matrix: (Units=GPa)
#
#
# Indices 1 2 3 4 5 6 
#
# 1 68.4381 15.8662 47.7535 0.0000 12.1418 0.0000
# 2 15.8662 23.2308 16.9347 0.0000 -0.0949 0.0000
# 3 47.7535 16.9347 142.2776 0.0000 18.4154 0.0000
# 4 0.0000 0.0000 0.0000 25.7877 0.0000 2.7549
# 5 12.1418 -0.0949 18.4154 0.0000 26.1135 0.0000
# 6 0.0000 0.0000 0.0000 2.7549 0.0000 17.8033
#
#
#
# Elastic Compliance Matrix: (Units=1/GPa)
#
#
# Indices 1 2 3 4 5 6 
#
# 1 0.022026 -0.011285 -0.005193 0.000000 -0.006620 0.000000
# 2 -0.011285 0.053413 -0.003603 0.000000 0.007982 0.000000
# 3 -0.005193 -0.003603 0.009782 0.000000 -0.004497 0.000000
# 4 0.000000 0.000000 0.000000 0.039430 0.000000 -0.006102
# 5 -0.006620 0.007982 -0.004497 0.000000 0.044573 0.000000
# 6 0.000000 0.000000 0.000000 -0.006102 0.000000 0.057113
#
#
# Mechanical properties :
#
#
# Convention : Reuss Voigt Hill
#
# Bulk Modulus (GPa) = 22.19276 43.89504 33.04390
# Shear Modulus (GPa) = 17.76087 24.16705 20.96396
#
# Velocity S-wave (km/s) = 3.07387 3.58563 3.33956
# Velocity P-wave (km/s) = 4.94010 6.36350 5.69644
#
# Compressibility (1/GPa) = 0.04505975
#
# Stress axis : x y z
#
# Youngs Moduli (GPa) = 45.40174 18.72214 102.22586
#
# Poissons Ratio (x) = 0.21128 0.53081
# Poissons Ratio (y) = 0.51235 0.36833
# Poissons Ratio (z) = 0.23575 0.06746
#
# Static dielectric constant tensor:
#      x y z
#    x 1.662580 0.000000 0.018760 
#    y 0.000000 1.577680 0.000000 
#    z 0.018760 0.000000 1.678650 
# 
# From -- ./inp_files/64341.got.cif
#   From: 2010.05.17/outbox.cif.g08.bks.cpg/sg11_33_cif.got.tgz:64341.got - 2010.06.03 12:22:45.
