data_PCOD9158685
_publ_section_title
;
Structure prediction by ZEFSAII (Michael W. Deem and Ramdas Pophale) SiO2 
 PCOD9158685
Probable space group: P 21/M
;
_chemical_formula_sum "Si O2"
_cell_formula_units_Z 32
_cell_length_a 10.454714
_cell_length_b 10.877193
_cell_length_c 24.649399
_cell_angle_alpha 90.000000
_cell_angle_beta 39.791718
_cell_angle_gamma 90.000000
_cell_volume 1793.966696
_symmetry_space_group_name_H-M "P 21/M"
_symmetry_group_IT_number 11
_symmetry_cell_setting 'monoclinic'
loop_
_space_group_symop_operation_xyz
x,y,z
-x,1/2+y,-z
-x,-y,-z
x,1/2-y,z
loop_
_atom_site_type_symbol
_atom_site_label
_atom_site_fract_x
_atom_site_fract_y
_atom_site_fract_z
Si Si1 0.085225 0.614521 0.816189
Si Si2 0.079429 0.389574 0.010123
Si Si3 0.295164 0.388945 0.612942
Si Si4 0.161568 0.394427 0.543214
Si Si5 0.898075 0.392079 0.810838
Si Si6 0.704252 0.398812 0.682407
Si Si7 0.544237 0.396583 0.851117
Si Si8 0.491580 0.474718 0.357006
O O1 0.016166 0.750000 0.818602
O O2 0.319983 0.602641 0.725981
O O3 0.976070 0.495765 0.826379
O O4 0.038361 0.610621 0.895049
O O5 0.062921 0.250000 0.992072
O O6 0.314979 0.414738 0.941109
O O7 0.000000 0.500000 0.000000
O O8 0.373441 0.250000 0.581626
O O9 0.272359 0.447909 0.560692
O O10 0.417892 0.450648 0.621349
O O11 0.067720 0.385143 0.709132
O O12 0.138186 0.250000 0.563259
O O13 0.301787 0.407620 0.445370
O O14 0.936382 0.441236 0.607526
O O15 0.878006 0.250000 0.838424
O O16 0.696211 0.437929 0.848034
O O17 0.700671 0.250000 0.681985
O O18 0.600649 0.441706 0.772400
O O19 0.588329 0.446389 0.667439
O O20 0.578611 0.250000 0.837499
#
# Coordination Sequence:
#
# PCOD9158685 Si02
#       8
#     4   4   4   4   4   4   4   4
#     4  10  22  37  52  77 116 148 170 211 272 328
#     4  10  21  37  56  79 108 142 179 219 266 322
#     4   9  17  31  50  74 101 129 175 232 271 303
#     4  10  19  32  49  70 100 138 176 220 273 320
#     4   9  17  33  58  82 102 134 183 228 262 310
#     4  10  19  32  52  78 104 129 174 235 278 307
#     4   9  17  33  57  79 101 134 175 224 276 313
#     4  11  20  31  50  75 102 144 179 209 257 333
#
# _framework density 17.837567
#
# number of rings (size 3 to 8) (size 9 to 14) (size 15 to 20)
#    0.000    2.250    1.250    2.250    0.000    1.500 
#    0.000    0.625    0.000    2.250    0.000    0.000 
#    0.000    0.000    0.000    0.000    0.000    0.000 
#
# Total GULP energy -178150.969095 kJ/mol
# GULP energy per Si atom -5567.217784 kJ/mol
# Density = 1.779697 g / cm^3
# Si number density = 17.837567 Si / 1000 Ang^3
#
#
#
# Elastic Constant Matrix: (Units=GPa)
#
#
# Indices 1 2 3 4 5 6 
#
# 1 77.2966 40.7714 26.2472 0.0000 -0.5196 0.0000
# 2 40.7714 73.1317 27.7348 0.0000 5.7407 0.0000
# 3 26.2472 27.7348 85.3095 0.0000 3.1237 0.0000
# 4 0.0000 0.0000 0.0000 18.2932 0.0000 5.0079
# 5 -0.5196 5.7407 3.1237 0.0000 20.0108 0.0000
# 6 0.0000 0.0000 0.0000 5.0079 0.0000 19.7649
#
#
#
# Elastic Compliance Matrix: (Units=1/GPa)
#
#
# Indices 1 2 3 4 5 6 
#
# 1 0.019139 -0.009902 -0.002808 0.000000 0.003776 0.000000
# 2 -0.009902 0.020998 -0.003570 0.000000 -0.005724 0.000000
# 3 -0.002808 -0.003570 0.013791 0.000000 -0.001201 0.000000
# 4 0.000000 0.000000 0.000000 0.058739 0.000000 -0.014883
# 5 0.003776 -0.005724 -0.001201 0.000000 0.051900 0.000000
# 6 0.000000 0.000000 0.000000 -0.014883 0.000000 0.054366
#
#
# Mechanical properties :
#
#
# Convention : Reuss Voigt Hill
#
# Bulk Modulus (GPa) = 46.79989 47.24939 47.02464
# Shear Modulus (GPa) = 19.33382 21.01276 20.17329
#
# Velocity S-wave (km/s) = 3.29581 3.43593 3.36660
# Velocity P-wave (km/s) = 6.38567 6.50285 6.44453
#
# Compressibility (1/GPa) = 0.02136757
#
# Stress axis : x y z
#
# Youngs Moduli (GPa) = 52.25032 47.62471 72.51312
#
# Poissons Ratio (x) = 0.47156 0.20359
# Poissons Ratio (y) = 0.51736 0.25891
# Poissons Ratio (z) = 0.14670 0.17004
#
# Static dielectric constant tensor:
#      x y z
#    x 1.628860 0.000000 -0.013230 
#    y 0.000000 1.616460 0.000000 
#    z -0.013230 0.000000 1.616530 
# 
# From -- ./inp_files/47204.got.cif
#   From: 2010.05.17/outbox.cif.g08.bks.cpg/sg11_24_cif.got.tgz:47204.got - 2010.06.03 12:22:45.
