data_PCOD9158037
_publ_section_title
;
Structure prediction by ZEFSAII (Michael W. Deem and Ramdas Pophale) SiO2 
 PCOD9158037
Probable space group: P 21/M
;
_chemical_formula_sum "Si O2"
_cell_formula_units_Z 24
_cell_length_a 24.091227
_cell_length_b 9.020507
_cell_length_c 13.904667
_cell_angle_alpha 90.000000
_cell_angle_beta 149.329119
_cell_angle_gamma 90.000000
_cell_volume 1541.383725
_symmetry_space_group_name_H-M "P 21/M"
_symmetry_group_IT_number 11
_symmetry_cell_setting 'monoclinic'
loop_
_space_group_symop_operation_xyz
x,y,z
-x,1/2+y,-z
-x,-y,-z
x,1/2-y,z
loop_
_atom_site_type_symbol
_atom_site_label
_atom_site_fract_x
_atom_site_fract_y
_atom_site_fract_z
Si Si1 0.889540 0.427995 0.949346
Si Si2 0.460710 0.573197 0.290793
Si Si3 0.334612 0.571945 0.719075
Si Si4 0.883292 0.428224 0.715322
Si Si5 0.338711 0.572100 0.304428
Si Si6 0.557450 0.926743 0.940029
O O1 0.900917 0.250000 0.971241
O O2 0.868370 0.467811 0.805756
O O3 0.784323 0.471470 0.854215
O O4 0.002882 0.501931 0.147676
O O5 0.468269 0.750000 0.291763
O O6 0.376465 0.540097 0.251929
O O7 0.575781 0.507690 0.498192
O O8 0.428323 0.499844 0.142353
O O9 0.332751 0.750000 0.730612
O O10 0.221240 0.525388 0.502071
O O11 0.435443 0.540068 0.797625
O O12 0.361913 0.492656 0.859713
O O13 0.890500 0.250000 0.721195
O O14 0.348224 0.750000 0.333666
O O15 0.568743 0.750000 0.950812
#
# Coordination Sequence:
#
# PCOD9158037 Si02
#       6
#     4   4   4   4   4   4
#     4   9  17  30  47  67  93 122 150 182 223 270
#     4  10  19  30  47  70  94 121 153 188 226 270
#     4   9  18  32  48  67  93 123 153 186 226 271
#     4   9  17  29  46  68  93 120 149 184 225 267
#     4   9  18  32  48  67  93 124 154 186 226 269
#     4  10  19  31  48  69  94 122 151 186 228 273
#
# _framework density 15.570425999999999
#
# number of rings (size 3 to 8) (size 9 to 14) (size 15 to 20)
#    0.000    2.667    0.000    2.000    0.000    5.333 
#    0.000    3.333    0.000    1.000    0.000    0.000 
#    0.000    0.000    0.000    0.000    0.000    0.000 
#
# Total GULP energy -133816.579106 kJ/mol
# GULP energy per Si atom -5575.690796 kJ/mol
# Density = 1.553499 g / cm^3
# Si number density = 15.570426 Si / 1000 Ang^3
#
#
#
# Elastic Constant Matrix: (Units=GPa)
#
#
# Indices 1 2 3 4 5 6 
#
# 1 86.8546 36.4745 74.0604 0.0000 6.1240 0.0000
# 2 36.4745 26.7374 46.1538 0.0000 -2.2483 0.0000
# 3 74.0604 46.1538 151.9549 0.0000 7.1720 0.0000
# 4 0.0000 0.0000 0.0000 29.7502 0.0000 -0.2499
# 5 6.1240 -2.2483 7.1720 0.0000 27.0745 0.0000
# 6 0.0000 0.0000 0.0000 -0.2499 0.0000 23.4433
#
#
#
# Elastic Compliance Matrix: (Units=1/GPa)
#
#
# Indices 1 2 3 4 5 6 
#
# 1 0.030153 -0.036264 -0.003258 0.000000 -0.008969 0.000000
# 2 -0.036264 0.127045 -0.022074 0.000000 0.024600 0.000000
# 3 -0.003258 -0.022074 0.015114 0.000000 -0.005100 0.000000
# 4 0.000000 0.000000 0.000000 0.033616 0.000000 0.000358
# 5 -0.008969 0.024600 -0.005100 0.000000 0.042358 0.000000
# 6 0.000000 0.000000 0.000000 0.000358 0.000000 0.042660
#
#
# Mechanical properties :
#
#
# Convention : Reuss Voigt Hill
#
# Bulk Modulus (GPa) = 20.35876 64.32493 42.34185
# Shear Modulus (GPa) = 11.61405 23.31081 17.46243
#
# Velocity S-wave (km/s) = 2.73409 3.87346 3.35253
# Velocity P-wave (km/s) = 4.80319 7.83625 6.49914
#
# Compressibility (1/GPa) = 0.04911889
#
# Stress axis : x y z
#
# Youngs Moduli (GPa) = 33.16379 7.87123 66.16251
#
# Poissons Ratio (x) = 0.28545 0.21557
# Poissons Ratio (y) = 1.20267 1.46049
# Poissons Ratio (z) = 0.10806 0.17375
#
# Static dielectric constant tensor:
#      x y z
#    x 1.511520 0.000000 0.003570 
#    y 0.000000 1.519740 0.000000 
#    z 0.003570 0.000000 1.494120 
# 
# From -- ./inp_files/42656.got.cif
#   From: 2010.05.17/outbox.cif.g08.bks.cpg/sg11_22_cif.got.tgz:42656.got - 2010.06.03 12:22:45.
