data_PCOD9158918
_publ_section_title
;
Structure prediction by ZEFSAII (Michael W. Deem and Ramdas Pophale) SiO2 
 PCOD9158918
Probable space group: P 21/M
;
_chemical_formula_sum "Si O2"
_cell_formula_units_Z 32
_cell_length_a 16.329546
_cell_length_b 15.876053
_cell_length_c 5.563373
_cell_angle_alpha 90.000000
_cell_angle_beta 70.119449
_cell_angle_gamma 90.000000
_cell_volume 1356.341714
_symmetry_space_group_name_H-M "P 21/M"
_symmetry_group_IT_number 11
_symmetry_cell_setting 'monoclinic'
loop_
_space_group_symop_operation_xyz
x,y,z
-x,1/2+y,-z
-x,-y,-z
x,1/2-y,z
loop_
_atom_site_type_symbol
_atom_site_label
_atom_site_fract_x
_atom_site_fract_y
_atom_site_fract_z
Si Si1 0.025918 0.150272 0.033097
Si Si2 0.472339 0.348867 0.491667
Si Si3 0.257182 0.435177 0.430738
Si Si4 0.523521 0.596663 0.014826
Si Si5 0.929365 0.495837 0.364235
Si Si6 0.777145 0.654016 0.025742
Si Si7 0.671324 0.398237 0.734578
Si Si8 0.671131 0.152135 0.235374
O O1 0.008151 0.250000 0.993651
O O2 0.116566 0.151057 0.093119
O O3 0.050432 0.082613 0.801793
O O4 0.948011 0.096274 0.229795
O O5 0.474251 0.250000 0.537261
O O6 0.432936 0.391007 0.768526
O O7 0.572118 0.382225 0.365764
O O8 0.434246 0.363256 0.264636
O O9 0.170810 0.492748 0.475569
O O10 0.249919 0.396766 0.705541
O O11 0.332014 0.504067 0.329898
O O12 0.256101 0.374603 0.201552
O O13 0.426634 0.639207 0.139471
O O14 0.500000 0.500000 0.000000
O O15 0.000000 0.500000 0.500000
O O16 0.750541 0.750000 0.097192
O O17 0.712876 0.357479 0.456065
O O18 0.711894 0.389842 0.959294
O O19 0.665245 0.250000 0.184204
#
# Coordination Sequence:
#
# PCOD9158918 Si02
#       8
#     4   4   4   4   4   4   4   4
#     4   9  19  34  53  78 105 136 177 219 262 314
#     4   9  17  30  51  76 100 130 171 212 250 297
#     4  11  21  35  56  78 107 136 170 216 262 314
#     4  10  19  32  52  76 103 133 171 214 253 304
#     4  10  19  34  54  76 105 138 173 219 266 311
#     4  10  20  35  57  80  99 134 181 219 253 301
#     4  10  20  33  52  77 103 138 171 207 262 304
#     4   9  17  32  52  74 101 135 175 210 241 301
#
# _framework density 23.592874999999999
#
# number of rings (size 3 to 8) (size 9 to 14) (size 15 to 20)
#    0.000    2.250    1.250    2.250    0.000    4.000 
#    0.000    1.250    0.000    4.500    0.000    0.000 
#    0.000    0.000    0.000    0.000    0.000    0.000 
#
# Total GULP energy -178431.685693 kJ/mol
# GULP energy per Si atom -5575.990178 kJ/mol
# Density = 2.353918 g / cm^3
# Si number density = 23.592875 Si / 1000 Ang^3
#
#
#
# Elastic Constant Matrix: (Units=GPa)
#
#
# Indices 1 2 3 4 5 6 
#
# 1 65.9225 22.1617 32.3037 0.0000 0.5214 0.0000
# 2 22.1617 135.8217 47.1447 0.0000 7.4329 0.0000
# 3 32.3037 47.1447 172.6601 0.0000 26.3045 0.0000
# 4 0.0000 0.0000 0.0000 36.4019 0.0000 11.4952
# 5 0.5214 7.4329 26.3045 0.0000 35.1682 0.0000
# 6 0.0000 0.0000 0.0000 11.4952 0.0000 17.5642
#
#
#
# Elastic Compliance Matrix: (Units=1/GPa)
#
#
# Indices 1 2 3 4 5 6 
#
# 1 0.017300 -0.001882 -0.003097 0.000000 0.002458 0.000000
# 2 -0.001882 0.008338 -0.001874 0.000000 -0.000333 0.000000
# 3 -0.003097 -0.001874 0.007692 0.000000 -0.005311 0.000000
# 4 0.000000 0.000000 0.000000 0.034628 0.000000 -0.022663
# 5 0.002458 -0.000333 -0.005311 0.000000 0.032441 0.000000
# 6 0.000000 0.000000 0.000000 -0.022663 0.000000 0.071766
#
#
# Mechanical properties :
#
#
# Convention : Reuss Voigt Hill
#
# Bulk Modulus (GPa) = 50.95844 64.18051 57.56947
# Shear Modulus (GPa) = 25.98565 36.01316 30.99941
#
# Velocity S-wave (km/s) = 3.32236 3.91121 3.62875
# Velocity P-wave (km/s) = 6.03021 6.90356 6.48161
#
# Compressibility (1/GPa) = 0.01962384
#
# Stress axis : x y z
#
# Youngs Moduli (GPa) = 57.80202 119.92730 130.00394
#
# Poissons Ratio (x) = 0.22574 0.40266
# Poissons Ratio (y) = 0.10880 0.24362
# Poissons Ratio (z) = 0.17903 0.22473
#
# Static dielectric constant tensor:
#      x y z
#    x 1.978430 0.000000 -0.022590 
#    y 0.000000 1.904600 0.000000 
#    z -0.022590 0.000000 2.061840 
# 
# From -- ./inp_files/9018.got.cif
#   From: 2010.05.17/outbox.cif.g08.bks.cpg/sg11_5_cif.got.tgz:9018.got - 2010.06.03 12:22:45.
