data_PCOD9158963
_publ_section_title
;
Structure prediction by ZEFSAII (Michael W. Deem and Ramdas Pophale) SiO2 
 PCOD9158963
Probable space group: P 21/M
;
_chemical_formula_sum "Si O2"
_cell_formula_units_Z 32
_cell_length_a 14.531289
_cell_length_b 8.870755
_cell_length_c 20.999590
_cell_angle_alpha 90.000000
_cell_angle_beta 43.438775
_cell_angle_gamma 90.000000
_cell_volume 1861.222032
_symmetry_space_group_name_H-M "P 21/M"
_symmetry_group_IT_number 11
_symmetry_cell_setting 'monoclinic'
loop_
_space_group_symop_operation_xyz
x,y,z
-x,1/2+y,-z
-x,-y,-z
x,1/2-y,z
loop_
_atom_site_type_symbol
_atom_site_label
_atom_site_fract_x
_atom_site_fract_y
_atom_site_fract_z
Si Si1 0.850684 0.072903 0.188725
Si Si2 0.575653 0.930936 0.901585
Si Si3 0.156677 0.573196 0.653843
Si Si4 0.576434 0.571254 0.521921
Si Si5 0.856839 0.930915 0.813688
Si Si6 0.577377 0.570967 0.282404
Si Si7 0.579097 0.431485 0.147865
Si Si8 0.132694 0.929777 0.052050
O O1 0.840949 0.250000 0.178304
O O2 0.836073 0.056282 0.272886
O O3 0.729330 0.984238 0.218162
O O4 0.996906 0.010272 0.097931
O O5 0.561479 0.750000 0.912038
O O6 0.732466 0.967016 0.830937
O O7 0.507994 0.979071 0.869604
O O8 0.500000 0.000000 0.000000
O O9 0.181170 0.750000 0.627600
O O10 0.269026 0.473838 0.564437
O O11 0.004001 0.533833 0.713064
O O12 0.500000 0.500000 0.500000
O O13 0.557977 0.750000 0.530506
O O14 0.512750 0.503213 0.617504
O O15 0.856218 0.750000 0.826925
O O16 0.840972 0.015113 0.888886
O O17 0.569963 0.750000 0.290604
O O18 0.536438 0.512339 0.233623
O O19 0.567852 0.250000 0.160646
O O20 0.734725 0.465893 0.054565
O O21 0.113346 0.750000 0.061363
#
# Coordination Sequence:
#
# PCOD9158963 Si02
#       8
#     4   4   4   4   4   4   4   4
#     4  10  20  35  55  78 111 149 184 227 273 325
#     4  10  19  34  57  84 112 148 188 231 278 326
#     4   9  18  33  54  82 112 143 179 225 275 324
#     4  12  23  37  59  84 111 144 181 227 276 330
#     4   9  18  32  54  82 114 146 182 227 277 324
#     4  12  25  39  57  80 108 146 189 233 279 333
#     4  10  22  38  54  78 114 152 188 231 281 330
#     4  10  19  32  52  79 112 149 188 227 269 325
#
# _framework density 17.193004999999999
#
# number of rings (size 3 to 8) (size 9 to 14) (size 15 to 20)
#    0.000    1.750    2.500    3.750    0.000    4.000 
#    0.000    0.000    0.000    0.750    0.000    0.000 
#    0.000    0.000    0.000    0.000    0.000    0.000 
#
# Total GULP energy -178729.568353 kJ/mol
# GULP energy per Si atom -5585.299011 kJ/mol
# Density = 1.715387 g / cm^3
# Si number density = 17.193005 Si / 1000 Ang^3
#
#
#
# Elastic Constant Matrix: (Units=GPa)
#
#
# Indices 1 2 3 4 5 6 
#
# 1 104.8943 48.1549 66.7411 0.0000 -0.9444 0.0000
# 2 48.1549 85.2133 61.4988 0.0000 3.8126 0.0000
# 3 66.7411 61.4988 108.6134 0.0000 2.9396 0.0000
# 4 0.0000 0.0000 0.0000 28.5949 0.0000 0.1397
# 5 -0.9444 3.8126 2.9396 0.0000 22.9209 0.0000
# 6 0.0000 0.0000 0.0000 0.1397 0.0000 23.4947
#
#
#
# Elastic Compliance Matrix: (Units=1/GPa)
#
#
# Indices 1 2 3 4 5 6 
#
# 1 0.016312 -0.003453 -0.008131 0.000000 0.002289 0.000000
# 2 -0.003453 0.020655 -0.009510 0.000000 -0.002358 0.000000
# 3 -0.008131 -0.009510 0.019622 0.000000 -0.001270 0.000000
# 4 0.000000 0.000000 0.000000 0.034972 0.000000 -0.000208
# 5 0.002289 -0.002358 -0.001270 0.000000 0.044278 0.000000
# 6 0.000000 0.000000 0.000000 -0.000208 0.000000 0.042564
#
#
# Mechanical properties :
#
#
# Convention : Reuss Voigt Hill
#
# Bulk Modulus (GPa) = 69.42892 72.39007 70.90950
# Shear Modulus (GPa) = 22.18362 23.15719 22.67040
#
# Velocity S-wave (km/s) = 3.59593 3.67399 3.63517
# Velocity P-wave (km/s) = 7.59676 7.75844 7.67802
#
# Compressibility (1/GPa) = 0.01440322
#
# Stress axis : x y z
#
# Youngs Moduli (GPa) = 61.30311 48.41358 50.96294
#
# Poissons Ratio (x) = 0.16717 0.41436
# Poissons Ratio (y) = 0.21167 0.48465
# Poissons Ratio (z) = 0.49843 0.46041
#
# Static dielectric constant tensor:
#      x y z
#    x 1.591100 0.000000 -0.017270 
#    y 0.000000 1.572390 0.000000 
#    z -0.017270 0.000000 1.569510 
# 
# From -- ./inp_files/65194.got.cif
#   From: 2010.05.17/outbox.cif.g08.bks.cpg/sg11_33_cif.got.tgz:65194.got - 2010.06.03 12:22:45.
