data_PCOD9158307
_publ_section_title
;
Structure prediction by ZEFSAII (Michael W. Deem and Ramdas Pophale) SiO2 
 PCOD9158307
Probable space group: P 21/M
;
_chemical_formula_sum "Si O2"
_cell_formula_units_Z 28
_cell_length_a 19.202580
_cell_length_b 8.136032
_cell_length_c 15.241446
_cell_angle_alpha 90.000000
_cell_angle_beta 38.560708
_cell_angle_gamma 90.000000
_cell_volume 1484.314193
_symmetry_space_group_name_H-M "P 21/M"
_symmetry_group_IT_number 11
_symmetry_cell_setting 'monoclinic'
loop_
_space_group_symop_operation_xyz
x,y,z
-x,1/2+y,-z
-x,-y,-z
x,1/2-y,z
loop_
_atom_site_type_symbol
_atom_site_label
_atom_site_fract_x
_atom_site_fract_y
_atom_site_fract_z
Si Si1 0.143861 0.441677 0.026335
Si Si2 0.301217 0.443477 0.423217
Si Si3 0.255827 0.556848 0.740062
Si Si4 0.631326 0.548242 0.125175
Si Si5 0.894105 0.940936 0.268992
Si Si6 0.469926 0.946108 0.126954
Si Si7 0.547162 0.058701 0.569009
O O1 0.123855 0.250000 0.062411
O O2 0.201511 0.463664 0.874679
O O3 0.240221 0.503331 0.997312
O O4 0.024901 0.527749 0.145884
O O5 0.322857 0.250000 0.416989
O O6 0.172790 0.474907 0.574723
O O7 0.351476 0.488937 0.279927
O O8 0.371792 0.544555 0.425644
O O9 0.267843 0.750000 0.749114
O O10 0.167463 0.540915 0.747063
O O11 0.375554 0.489683 0.585483
O O12 0.629031 0.750000 0.130825
O O13 0.562715 0.496525 0.106940
O O14 0.565915 0.487674 0.277372
O O15 0.875235 0.750000 0.265497
O O16 0.467674 0.750000 0.132698
O O17 0.500000 0.000000 0.000000
O O18 0.529087 0.250000 0.566406
#
# Coordination Sequence:
#
# PCOD9158307 Si02
#       7
#     4   4   4   4   4   4   4
#     4  11  21  32  47  67  96 134 170 203 242 287
#     4   9  17  30  50  75  99 124 157 198 243 285
#     4  10  19  31  48  70  95 127 170 214 250 284
#     4   8  17  33  50  70  98 130 159 192 242 297
#     4  10  20  34  50  69  96 130 170 211 244 279
#     4  10  19  34  57  82 105 125 151 190 237 292
#     4   8  15  30  49  67  93 128 163 201 245 291
#
# _framework density 18.86393
#
# number of rings (size 3 to 8) (size 9 to 14) (size 15 to 20)
#    0.000    2.571    0.000    3.429    0.000    2.857 
#    0.000    7.143    0.000    0.857    0.000    0.000 
#    0.000    0.000    0.000    0.000    0.000    0.000 
#
# Total GULP energy -156097.900424 kJ/mol
# GULP energy per Si atom -5574.925015 kJ/mol
# Density = 1.882100 g / cm^3
# Si number density = 18.863930 Si / 1000 Ang^3
#
#
#
# Elastic Constant Matrix: (Units=GPa)
#
#
# Indices 1 2 3 4 5 6 
#
# 1 61.1152 4.1102 44.6876 0.0000 1.4938 0.0000
# 2 4.1102 40.0379 6.0142 0.0000 -0.7302 0.0000
# 3 44.6876 6.0142 104.5849 0.0000 -0.1808 0.0000
# 4 0.0000 0.0000 0.0000 21.8859 0.0000 4.0423
# 5 1.4938 -0.7302 -0.1808 0.0000 33.3652 0.0000
# 6 0.0000 0.0000 0.0000 4.0423 0.0000 10.4936
#
#
#
# Elastic Compliance Matrix: (Units=1/GPa)
#
#
# Indices 1 2 3 4 5 6 
#
# 1 0.023875 -0.000947 -0.010149 0.000000 -0.001145 0.000000
# 2 -0.000947 0.025241 -0.001046 0.000000 0.000589 0.000000
# 3 -0.010149 -0.001046 0.013959 0.000000 0.000507 0.000000
# 4 0.000000 0.000000 0.000000 0.049191 0.000000 -0.018949
# 5 -0.001145 0.000589 0.000507 0.000000 0.030038 0.000000
# 6 0.000000 0.000000 0.000000 -0.018949 0.000000 0.102596
#
#
# Mechanical properties :
#
#
# Convention : Reuss Voigt Hill
#
# Bulk Modulus (GPa) = 25.77877 35.04023 30.40950
# Shear Modulus (GPa) = 17.72320 23.21066 20.46693
#
# Velocity S-wave (km/s) = 3.06850 3.51155 3.29747
# Velocity P-wave (km/s) = 5.12343 5.92088 5.53653
#
# Compressibility (1/GPa) = 0.03879161
#
# Stress axis : x y z
#
# Youngs Moduli (GPa) = 41.88435 39.61739 71.63751
#
# Poissons Ratio (x) = 0.03753 0.72705
# Poissons Ratio (y) = 0.03968 0.07491
# Poissons Ratio (z) = 0.42509 0.04143
#
# Static dielectric constant tensor:
#      x y z
#    x 1.667180 0.000000 -0.013780 
#    y 0.000000 1.670810 0.000000 
#    z -0.013780 0.000000 1.683770 
# 
# From -- ./inp_files/37140.got.cif
#   From: 2010.05.17/outbox.cif.g08.bks.cpg/sg11_19_cif.got.tgz:37140.got - 2010.06.03 12:22:45.
