data_PCOD9158166
_publ_section_title
;
Structure prediction by ZEFSAII (Michael W. Deem and Ramdas Pophale) SiO2 
 PCOD9158166
Probable space group: P 21/M
;
_chemical_formula_sum "Si O2"
_cell_formula_units_Z 28
_cell_length_a 22.479171
_cell_length_b 8.193570
_cell_length_c 25.360737
_cell_angle_alpha 90.000000
_cell_angle_beta 16.924843
_cell_angle_gamma 90.000000
_cell_volume 1359.824765
_symmetry_space_group_name_H-M "P 21/M"
_symmetry_group_IT_number 11
_symmetry_cell_setting 'monoclinic'
loop_
_space_group_symop_operation_xyz
x,y,z
-x,1/2+y,-z
-x,-y,-z
x,1/2-y,z
loop_
_atom_site_type_symbol
_atom_site_label
_atom_site_fract_x
_atom_site_fract_y
_atom_site_fract_z
Si Si1 0.849676 0.445074 0.469317
Si Si2 0.793182 0.055652 0.204652
Si Si3 0.520059 0.448645 0.904005
Si Si4 0.017708 0.552286 0.756028
Si Si5 0.337995 0.055044 0.569534
Si Si6 0.838462 0.058517 0.713619
Si Si7 0.428187 0.051051 0.861282
O O1 0.843646 0.250000 0.470145
O O2 0.963149 0.504567 0.320831
O O3 0.618816 0.508399 0.665894
O O4 0.965036 0.480602 0.425978
O O5 0.792435 0.250000 0.201541
O O6 0.573907 0.994084 0.367536
O O7 0.773786 0.008606 0.282754
O O8 0.000000 0.000000 0.000000
O O9 0.506263 0.250000 0.920108
O O10 0.738833 0.499912 0.743058
O O11 0.478705 0.492408 0.878935
O O12 0.343695 0.524138 0.089962
O O13 0.017455 0.750000 0.756632
O O14 0.205004 0.495106 0.632271
O O15 0.796681 0.495392 0.963881
O O16 0.344722 0.250000 0.567547
O O17 0.875958 0.250000 0.677432
O O18 0.427129 0.250000 0.860294
#
# Coordination Sequence:
#
# PCOD9158166 Si02
#       7
#     4   4   4   4   4   4   4
#     4  10  20  35  55  75 102 142 183 226 276 331
#     4  10  21  39  64  93 125 158 192 231 276 329
#     4   9  17  33  53  73 101 136 176 226 281 340
#     4  10  20  36  56  79 110 148 191 230 269 328
#     4  10  22  39  60  89 123 156 190 233 285 331
#     4  10  19  30  50  77 103 133 175 227 284 339
#     4   9  18  34  55  77 101 138 187 229 272 331
#
# _framework density 20.590886999999999
#
# number of rings (size 3 to 8) (size 9 to 14) (size 15 to 20)
#    0.000    2.286    1.429    1.286    0.000    4.571 
#    0.000    2.857    0.000    0.000    0.000    0.000 
#    0.000    0.000    0.000    0.000    0.000    0.000 
#
# Total GULP energy -156197.801346 kJ/mol
# GULP energy per Si atom -5578.492905 kJ/mol
# Density = 2.054402 g / cm^3
# Si number density = 20.590887 Si / 1000 Ang^3
#
#
#
# Elastic Constant Matrix: (Units=GPa)
#
#
# Indices 1 2 3 4 5 6 
#
# 1 69.5483 6.7531 36.1241 0.0000 -25.7634 0.0000
# 2 6.7531 16.0436 17.6263 0.0000 -0.5939 0.0000
# 3 36.1241 17.6263 132.1692 0.0000 -14.4283 0.0000
# 4 0.0000 0.0000 0.0000 20.0037 0.0000 -6.7487
# 5 -25.7634 -0.5939 -14.4283 0.0000 24.2979 0.0000
# 6 0.0000 0.0000 0.0000 -6.7487 0.0000 26.5238
#
#
#
# Elastic Compliance Matrix: (Units=1/GPa)
#
#
# Indices 1 2 3 4 5 6 
#
# 1 0.026341 -0.006216 -0.003569 0.000000 0.025658 0.000000
# 2 -0.006216 0.074915 -0.009422 0.000000 -0.010355 0.000000
# 3 -0.003569 -0.009422 0.010009 0.000000 0.001928 0.000000
# 4 0.000000 0.000000 0.000000 0.054685 0.000000 0.013914
# 5 0.025658 -0.010355 0.001928 0.000000 0.069253 0.000000
# 6 0.000000 0.000000 0.000000 0.013914 0.000000 0.041242
#
#
# Mechanical properties :
#
#
# Convention : Reuss Voigt Hill
#
# Bulk Modulus (GPa) = 13.72700 37.64089 25.68394
# Shear Modulus (GPa) = 14.74304 24.64895 19.69600
#
# Velocity S-wave (km/s) = 2.67872 3.46364 3.09615
# Velocity P-wave (km/s) = 4.03093 5.85797 5.02813
#
# Compressibility (1/GPa) = 0.07284914
#
# Stress axis : x y z
#
# Youngs Moduli (GPa) = 37.96391 13.34848 99.91308
#
# Poissons Ratio (x) = 0.08297 0.35663
# Poissons Ratio (y) = 0.23598 0.94140
# Poissons Ratio (z) = 0.13551 0.12577
#
# Static dielectric constant tensor:
#      x y z
#    x 1.728360 0.000000 -0.013620 
#    y 0.000000 1.721070 0.000000 
#    z -0.013620 0.000000 1.773900 
# 
# From -- ./inp_files/69776.got.cif
#   From: 2010.05.17/outbox.cif.g08.bks.cpg/sg11_35_cif.got.tgz:69776.got - 2010.06.03 12:22:45.
