data_PCOD9158526
_publ_section_title
;
Structure prediction by ZEFSAII (Michael W. Deem and Ramdas Pophale) SiO2 
 PCOD9158526
Probable space group: P 21/M
;
_chemical_formula_sum "Si O2"
_cell_formula_units_Z 32
_cell_length_a 14.544363
_cell_length_b 8.812454
_cell_length_c 21.271377
_cell_angle_alpha 90.000000
_cell_angle_beta 136.667039
_cell_angle_gamma 90.000000
_cell_volume 1870.945975
_symmetry_space_group_name_H-M "P 21/M"
_symmetry_group_IT_number 11
_symmetry_cell_setting 'monoclinic'
loop_
_space_group_symop_operation_xyz
x,y,z
-x,1/2+y,-z
-x,-y,-z
x,1/2-y,z
loop_
_atom_site_type_symbol
_atom_site_label
_atom_site_fract_x
_atom_site_fract_y
_atom_site_fract_z
Si Si1 0.419471 0.930126 0.019108
Si Si2 0.152840 0.931694 0.314829
Si Si3 0.149155 0.569087 0.701630
Si Si4 0.566219 0.431718 0.211571
Si Si5 0.413274 0.567150 0.638965
Si Si6 0.849347 0.568663 0.546168
Si Si7 0.418728 0.432365 0.400538
Si Si8 0.152789 0.069814 0.841482
O O1 0.427640 0.750000 0.018797
O O2 0.484888 0.987658 0.116109
O O3 0.500000 0.000000 0.000000
O O4 0.266461 0.984790 0.936826
O O5 0.169108 0.750000 0.326391
O O6 0.001204 0.965110 0.217505
O O7 0.167277 0.999649 0.392172
O O8 0.268748 0.003991 0.330608
O O9 0.149708 0.750000 0.715899
O O10 0.275787 0.537479 0.721004
O O11 0.167295 0.481273 0.776117
O O12 0.001975 0.531922 0.601954
O O13 0.546741 0.250000 0.195479
O O14 0.531952 0.478231 0.265512
O O15 0.401860 0.750000 0.633161
O O16 0.266560 0.499398 0.554183
O O17 0.506977 0.523559 0.627001
O O18 0.835479 0.750000 0.542599
O O19 0.500000 0.500000 0.500000
O O20 0.418280 0.250000 0.405006
O O21 0.173243 0.250000 0.856353
#
# Coordination Sequence:
#
# PCOD9158526 Si02
#       8
#     4   4   4   4   4   4   4   4
#     4  12  23  36  57  84 111 142 181 225 269 321
#     4  10  20  34  54  81 110 140 179 226 274 323
#     4   9  18  32  51  76 107 144 183 220 263 316
#     4  10  21  38  56  76 108 148 185 226 271 323
#     4  10  22  37  53  76 109 148 186 224 275 326
#     4  10  19  31  50  77 108 144 184 223 264 318
#     4  11  21  34  55  81 109 145 184 227 275 324
#     4  10  20  34  55  82 110 140 176 223 275 323
#
# _framework density 17.103646999999999
#
# number of rings (size 3 to 8) (size 9 to 14) (size 15 to 20)
#    0.000    1.750    2.500    2.625    0.000    3.500 
#    0.000    0.000    0.000    0.750    0.000    0.000 
#    0.000    0.000    0.000    0.000    0.000    0.000 
#
# Total GULP energy -178660.397333 kJ/mol
# GULP energy per Si atom -5583.137417 kJ/mol
# Density = 1.706472 g / cm^3
# Si number density = 17.103647 Si / 1000 Ang^3
#
#
#
# Elastic Constant Matrix: (Units=GPa)
#
#
# Indices 1 2 3 4 5 6 
#
# 1 102.5488 49.7275 70.3268 0.0000 -2.3043 0.0000
# 2 49.7275 51.1890 50.5861 0.0000 0.2889 0.0000
# 3 70.3268 50.5861 123.8222 0.0000 -4.0073 0.0000
# 4 0.0000 0.0000 0.0000 29.8390 0.0000 3.9372
# 5 -2.3043 0.2889 -4.0073 0.0000 22.4975 0.0000
# 6 0.0000 0.0000 0.0000 3.9372 0.0000 20.5548
#
#
#
# Elastic Compliance Matrix: (Units=1/GPa)
#
#
# Indices 1 2 3 4 5 6 
#
# 1 0.020799 -0.014387 -0.005894 0.000000 0.001265 0.000000
# 2 -0.014387 0.042894 -0.009472 0.000000 -0.003712 0.000000
# 3 -0.005894 -0.009472 0.015367 0.000000 0.002255 0.000000
# 4 0.000000 0.000000 0.000000 0.034382 0.000000 -0.006586
# 5 0.001265 -0.003712 0.002255 0.000000 0.045028 0.000000
# 6 0.000000 0.000000 0.000000 -0.006586 0.000000 0.049912
#
#
# Mechanical properties :
#
#
# Convention : Reuss Voigt Hill
#
# Bulk Modulus (GPa) = 51.14751 68.76008 59.95379
# Shear Modulus (GPa) = 18.22119 21.70625 19.96372
#
# Velocity S-wave (km/s) = 3.26749 3.56631 3.42017
# Velocity P-wave (km/s) = 6.64866 7.56620 7.12222
#
# Compressibility (1/GPa) = 0.01955130
#
# Stress axis : x y z
#
# Youngs Moduli (GPa) = 48.08000 23.31352 65.07590
#
# Poissons Ratio (x) = 0.33541 0.38358
# Poissons Ratio (y) = 0.69173 0.61642
# Poissons Ratio (z) = 0.28340 0.22083
#
# Static dielectric constant tensor:
#      x y z
#    x 1.583300 0.000000 0.018220 
#    y 0.000000 1.576890 0.000000 
#    z 0.018220 0.000000 1.570040 
# 
# From -- ./inp_files/38070.got.cif
#   From: 2010.05.17/outbox.cif.g08.bks.cpg/sg11_20_cif.got.tgz:38070.got - 2010.06.03 12:22:45.
