data_PCOD9158930
_publ_section_title
;
Structure prediction by ZEFSAII (Michael W. Deem and Ramdas Pophale) SiO2 
 PCOD9158930
Probable space group: P 21/M
;
_chemical_formula_sum "Si O2"
_cell_formula_units_Z 32
_cell_length_a 14.576788
_cell_length_b 9.127125
_cell_length_c 20.851300
_cell_angle_alpha 90.000000
_cell_angle_beta 136.787639
_cell_angle_gamma 90.000000
_cell_volume 1899.468364
_symmetry_space_group_name_H-M "P 21/M"
_symmetry_group_IT_number 11
_symmetry_cell_setting 'monoclinic'
loop_
_space_group_symop_operation_xyz
x,y,z
-x,1/2+y,-z
-x,-y,-z
x,1/2-y,z
loop_
_atom_site_type_symbol
_atom_site_label
_atom_site_fract_x
_atom_site_fract_y
_atom_site_fract_z
Si Si1 0.580668 0.074675 0.727265
Si Si2 0.854582 0.078383 0.040796
Si Si3 0.130114 0.923508 0.178580
Si Si4 0.126466 0.577714 0.795433
Si Si5 0.148326 0.577117 0.341264
Si Si6 0.583828 0.574871 0.859196
Si Si7 0.417933 0.926250 0.900863
Si Si8 0.583009 0.574712 0.485113
O O1 0.577263 0.250000 0.735797
O O2 0.734884 0.034659 0.789584
O O3 0.490359 0.041961 0.619309
O O4 0.535884 0.990946 0.767680
O O5 0.845737 0.250000 0.020254
O O6 0.848133 0.062713 0.115041
O O7 0.997743 0.012978 0.093178
O O8 0.729654 0.992560 0.948124
O O9 0.105715 0.750000 0.156764
O O10 0.157129 0.945365 0.268468
O O11 0.099631 0.750000 0.769886
O O12 0.261998 0.533247 0.828358
O O13 0.996780 0.483010 0.712871
O O14 0.161373 0.750000 0.359777
O O15 0.267811 0.488950 0.435066
O O16 0.592619 0.750000 0.860670
O O17 0.485942 0.534760 0.868132
O O18 0.425428 0.750000 0.912293
O O19 0.500000 0.000000 0.000000
O O20 0.500000 0.500000 0.500000
O O21 0.582955 0.750000 0.493788
#
# Coordination Sequence:
#
# PCOD9158930 Si02
#       8
#     4   4   4   4   4   4   4   4
#     4  10  22  39  55  75 107 146 182 219 266 320
#     4  10  19  32  52  77 106 144 182 218 263 318
#     4   9  18  34  52  74 107 143 180 220 261 314
#     4   9  18  33  53  80 109 140 177 220 268 322
#     4  10  19  33  54  83 112 139 174 223 272 319
#     4  11  23  36  53  79 109 144 181 224 271 316
#     4  10  20  35  56  81 109 140 180 224 271 319
#     4  11  21  36  58  83 109 142 181 224 271 319
#
# _framework density 16.846820000000001
#
# number of rings (size 3 to 8) (size 9 to 14) (size 15 to 20)
#    0.000    2.000    2.500    1.500    0.000    4.000 
#    0.000    0.000    0.000    0.750    0.000    0.000 
#    0.000    0.000    0.000    0.000    0.000    0.000 
#
# Total GULP energy -178675.472718 kJ/mol
# GULP energy per Si atom -5583.608522 kJ/mol
# Density = 1.680848 g / cm^3
# Si number density = 16.846820 Si / 1000 Ang^3
#
#
#
# Elastic Constant Matrix: (Units=GPa)
#
#
# Indices 1 2 3 4 5 6 
#
# 1 119.5571 55.9553 70.2170 0.0000 3.5231 0.0000
# 2 55.9553 58.6710 57.8410 0.0000 -3.3235 0.0000
# 3 70.2170 57.8410 95.8211 0.0000 5.8211 0.0000
# 4 0.0000 0.0000 0.0000 30.6894 0.0000 1.5308
# 5 3.5231 -3.3235 5.8211 0.0000 22.0494 0.0000
# 6 0.0000 0.0000 0.0000 1.5308 0.0000 24.2341
#
#
#
# Elastic Compliance Matrix: (Units=1/GPa)
#
#
# Indices 1 2 3 4 5 6 
#
# 1 0.016710 -0.010316 -0.005855 0.000000 -0.002679 0.000000
# 2 -0.010316 0.052662 -0.025216 0.000000 0.016243 0.000000
# 3 -0.005855 -0.025216 0.030613 0.000000 -0.010947 0.000000
# 4 0.000000 0.000000 0.000000 0.032688 0.000000 -0.002065
# 5 -0.002679 0.016243 -0.010947 0.000000 0.051119 0.000000
# 6 0.000000 0.000000 0.000000 -0.002065 0.000000 0.041395
#
#
# Mechanical properties :
#
#
# Convention : Reuss Voigt Hill
#
# Bulk Modulus (GPa) = 58.10271 71.34173 64.72222
# Shear Modulus (GPa) = 15.93893 21.39699 18.66796
#
# Velocity S-wave (km/s) = 3.07923 3.56770 3.33242
# Velocity P-wave (km/s) = 6.87065 7.70782 7.30125
#
# Compressibility (1/GPa) = 0.01721090
#
# Stress axis : x y z
#
# Youngs Moduli (GPa) = 59.84414 18.98897 32.66602
#
# Poissons Ratio (x) = 0.19589 0.19126
# Poissons Ratio (y) = 0.61736 0.82370
# Poissons Ratio (z) = 0.35039 0.47882
#
# Static dielectric constant tensor:
#      x y z
#    x 1.568650 0.000000 -0.002270 
#    y 0.000000 1.558880 0.000000 
#    z -0.002270 0.000000 1.551280 
# 
# From -- ./inp_files/45313.got.cif
#   From: 2010.05.17/outbox.cif.g08.bks.cpg/sg11_23_cif.got.tgz:45313.got - 2010.06.03 12:22:45.
