data_PCOD9158651
_publ_section_title
;
Structure prediction by ZEFSAII (Michael W. Deem and Ramdas Pophale) SiO2 
 PCOD9158651
Probable space group: P 21/M
;
_chemical_formula_sum "Si O2"
_cell_formula_units_Z 28
_cell_length_a 13.380425
_cell_length_b 11.600317
_cell_length_c 7.313103
_cell_angle_alpha 90.000000
_cell_angle_beta 74.410062
_cell_angle_gamma 90.000000
_cell_volume 1093.357878
_symmetry_space_group_name_H-M "P 21/M"
_symmetry_group_IT_number 11
_symmetry_cell_setting 'monoclinic'
loop_
_space_group_symop_operation_xyz
x,y,z
-x,1/2+y,-z
-x,-y,-z
x,1/2-y,z
loop_
_atom_site_type_symbol
_atom_site_label
_atom_site_fract_x
_atom_site_fract_y
_atom_site_fract_z
Si Si1 0.160088 0.623209 0.907253
Si Si2 0.550565 0.557074 0.711043
Si Si3 0.138537 0.378016 0.974919
Si Si4 0.127238 0.623899 0.354821
Si Si5 0.889926 0.876330 0.580753
Si Si6 0.617565 0.624577 0.061765
Si Si7 0.367550 0.869866 0.572203
O O1 0.112735 0.750000 0.881705
O O2 0.273334 0.624347 0.761108
O O3 0.109292 0.498012 0.888873
O O4 0.164388 0.622127 0.126330
O O5 0.609991 0.616339 0.846391
O O6 0.627198 0.481554 0.553562
O O7 0.478095 0.632797 0.619552
O O8 0.462868 0.469208 0.830052
O O9 0.116160 0.250000 0.905507
O O10 0.096571 0.377688 0.204126
O O11 0.263784 0.387240 0.934981
O O12 0.156720 0.750000 0.418154
O O13 0.159229 0.502596 0.430733
O O14 0.002191 0.622774 0.430077
O O15 0.840443 0.750000 0.563302
O O16 0.581396 0.750000 0.139885
O O17 0.358122 0.750000 0.470805
#
# Coordination Sequence:
#
# PCOD9158651 Si02
#       7
#     4   4   4   4   4   4   4
#     4   9  16  27  42  63  90 117 146 181 220 264
#     4  10  20  32  46  64  86 114 152 184 226 270
#     4   9  16  27  42  63  90 117 146 181 220 264
#     4   8  13  21  35  56  83 113 142 173 212 257
#     4   8  13  21  35  56  83 113 142 173 212 257
#     4  10  19  32  47  65  88 116 148 188 227 266
#     4  10  19  32  47  65  88 116 148 188 227 266
#
# _framework density 25.609179999999999
#
# number of rings (size 3 to 8) (size 9 to 14) (size 15 to 20)
#    0.000    2.857    1.429    0.857    0.000    0.000 
#    0.000    1.429    0.000    0.000    0.000    1.000 
#    0.000    0.000    0.000    0.000    0.000    0.000 
#
# Total GULP energy -156325.788051 kJ/mol
# GULP energy per Si atom -5583.063859 kJ/mol
# Density = 2.555089 g / cm^3
# Si number density = 25.609180 Si / 1000 Ang^3
#
#
#
# Elastic Constant Matrix: (Units=GPa)
#
#
# Indices 1 2 3 4 5 6 
#
# 1 80.2837 55.9498 29.4612 0.0000 -16.8765 0.0000
# 2 55.9498 250.7233 17.0041 0.0000 -8.6284 0.0000
# 3 29.4612 17.0041 117.2367 0.0000 -25.4848 0.0000
# 4 0.0000 0.0000 0.0000 68.5161 0.0000 7.4094
# 5 -16.8765 -8.6284 -25.4848 0.0000 33.1082 0.0000
# 6 0.0000 0.0000 0.0000 7.4094 0.0000 -0.2182
#
#
#
# Elastic Compliance Matrix: (Units=1/GPa)
#
#
# Indices 1 2 3 4 5 6 
#
# 1 0.016985 -0.003420 -0.002503 0.000000 0.005840 0.000000
# 2 -0.003420 0.004731 0.000075 0.000000 -0.000453 0.000000
# 3 -0.002503 0.000075 0.010658 0.000000 0.006948 0.000000
# 4 0.000000 0.000000 0.000000 0.003124 0.000000 0.106072
# 5 0.005840 -0.000453 0.006948 0.000000 0.038411 0.000000
# 6 0.000000 0.000000 0.000000 0.106072 0.000000 -0.980877
#
#
# Mechanical properties :
#
#
# Convention : Reuss Voigt Hill
#
# Bulk Modulus (GPa) = 48.35834 72.56379 60.46107
# Shear Modulus (GPa) = -5.62822 43.33646 18.85412
#
# Velocity S-wave (km/s) = -1.48408 4.11813 2.71629
# Velocity P-wave (km/s) = 3.99844 7.14203 5.78775
#
# Compressibility (1/GPa) = 0.02067896
#
# Stress axis : x y z
#
# Youngs Moduli (GPa) = 58.87542 211.37633 93.82505
#
# Poissons Ratio (x) = 0.72281 0.23482
# Poissons Ratio (y) = 0.20133 -0.00701
# Poissons Ratio (z) = 0.14735 -0.01580
#
# Static dielectric constant tensor:
#      x y z
#    x 1.917550 0.000000 0.014640 
#    y 0.000000 2.103450 0.000000 
#    z 0.014640 0.000000 1.975750 
# 
# From -- ./inp_files/20981.got.cif
#   From: 2010.05.17/outbox.cif.g08.bks.cpg/sg11_11_cif.got.tgz:20981.got - 2010.06.03 12:22:45.
