data_PCOD9158167
_publ_section_title
;
Structure prediction by ZEFSAII (Michael W. Deem and Ramdas Pophale) SiO2 
 PCOD9158167
Probable space group: P 21/M
;
_chemical_formula_sum "Si O2"
_cell_formula_units_Z 32
_cell_length_a 17.348823
_cell_length_b 8.624093
_cell_length_c 14.811334
_cell_angle_alpha 90.000000
_cell_angle_beta 36.314227
_cell_angle_gamma 90.000000
_cell_volume 1312.368398
_symmetry_space_group_name_H-M "P 21/M"
_symmetry_group_IT_number 11
_symmetry_cell_setting 'monoclinic'
loop_
_space_group_symop_operation_xyz
x,y,z
-x,1/2+y,-z
-x,-y,-z
x,1/2-y,z
loop_
_atom_site_type_symbol
_atom_site_label
_atom_site_fract_x
_atom_site_fract_y
_atom_site_fract_z
Si Si1 0.451850 0.429221 0.952635
Si Si2 0.488649 0.575973 0.378809
Si Si3 0.719892 0.571856 0.310941
Si Si4 0.116120 0.562733 0.327287
Si Si5 0.315371 0.925618 0.925778
Si Si6 0.905600 0.930846 0.982252
Si Si7 0.045563 0.066252 0.690068
Si Si8 0.738811 0.429983 0.637769
O O1 0.411424 0.250000 0.998925
O O2 0.346149 0.529686 0.999276
O O3 0.585567 0.434717 0.768808
O O4 0.500000 0.500000 0.000000
O O5 0.487767 0.750000 0.340539
O O6 0.596848 0.581506 0.357188
O O7 0.345730 0.531314 0.549683
O O8 0.550633 0.447445 0.255528
O O9 0.746730 0.750000 0.314302
O O10 0.843729 0.509626 0.135710
O O11 0.119445 0.750000 0.318734
O O12 0.068361 0.510977 0.272745
O O13 0.232182 0.514692 0.286152
O O14 0.000000 0.500000 0.500000
O O15 0.267394 0.750000 0.963495
O O16 0.216399 0.040413 0.970173
O O17 0.929420 0.750000 0.972672
O O18 0.020929 0.003207 0.813839
O O19 0.039579 0.250000 0.700768
O O20 0.177762 0.018865 0.515079
O O21 0.780350 0.250000 0.594066
#
# Coordination Sequence:
#
# PCOD9158167 Si02
#       8
#     4   4   4   4   4   4   4   4
#     4  11  24  40  57  77 102 137 179 222 264 306
#     4   9  16  28  48  72 101 134 171 210 252 308
#     4   8  15  27  44  70 103 137 169 204 250 305
#     4   8  15  28  45  67  91 119 156 200 247 296
#     4  11  22  36  53  74 104 140 178 219 262 309
#     4  10  20  33  50  76 110 142 174 211 257 313
#     4  10  19  30  50  77 104 132 168 211 258 311
#     4   9  19  36  54  70  96 132 172 213 257 308
#
# _framework density 24.383398
#
# number of rings (size 3 to 8) (size 9 to 14) (size 15 to 20)
#    0.000    2.500    0.000    3.375    1.750    5.000 
#    0.000    0.000    0.000    0.000    0.000    0.875 
#    0.000    0.000    0.000    0.000    0.000    0.000 
#
# Total GULP energy -178638.031060 kJ/mol
# GULP energy per Si atom -5582.438471 kJ/mol
# Density = 2.432790 g / cm^3
# Si number density = 24.383398 Si / 1000 Ang^3
#
#
#
# Elastic Constant Matrix: (Units=GPa)
#
#
# Indices 1 2 3 4 5 6 
#
# 1 79.0491 -4.3850 -1.6426 0.0000 18.8462 0.0000
# 2 -4.3850 56.0233 25.9033 0.0000 3.9644 0.0000
# 3 -1.6426 25.9033 130.2336 0.0000 18.4934 0.0000
# 4 0.0000 0.0000 0.0000 31.2577 0.0000 8.3864
# 5 18.8462 3.9644 18.4934 0.0000 26.3990 0.0000
# 6 0.0000 0.0000 0.0000 8.3864 0.0000 15.4244
#
#
#
# Elastic Compliance Matrix: (Units=1/GPa)
#
#
# Indices 1 2 3 4 5 6 
#
# 1 0.015784 0.001331 0.001736 0.000000 -0.012684 0.000000
# 2 0.001331 0.019771 -0.003730 0.000000 -0.001306 0.000000
# 3 0.001736 -0.003730 0.009482 0.000000 -0.007321 0.000000
# 4 0.000000 0.000000 0.000000 0.037456 0.000000 -0.020365
# 5 -0.012684 -0.001306 -0.007321 0.000000 0.052260 0.000000
# 6 0.000000 0.000000 0.000000 -0.020365 0.000000 0.075905
#
#
# Mechanical properties :
#
#
# Convention : Reuss Voigt Hill
#
# Bulk Modulus (GPa) = 22.87862 33.89528 28.38695
# Shear Modulus (GPa) = 22.06955 30.97825 26.52390
#
# Velocity S-wave (km/s) = 3.01176 3.56823 3.30174
# Velocity P-wave (km/s) = 4.63654 5.55945 5.11884
#
# Compressibility (1/GPa) = 0.04370893
#
# Stress axis : x y z
#
# Youngs Moduli (GPa) = 63.35441 50.57920 105.46320
#
# Poissons Ratio (x) = -0.06730 -0.18304
# Poissons Ratio (y) = -0.08429 0.39340
# Poissons Ratio (z) = -0.10996 0.18867
#
# Static dielectric constant tensor:
#      x y z
#    x 2.014620 0.000000 -0.014200 
#    y 0.000000 1.832440 0.000000 
#    z -0.014200 0.000000 2.031390 
# 
# From -- ./inp_files/61753.got.cif
#   From: 2010.05.17/outbox.cif.g08.bks.cpg/sg11_31_cif.got.tgz:61753.got - 2010.06.03 12:22:45.
