data_PCOD9158448
_publ_section_title
;
Structure prediction by ZEFSAII (Michael W. Deem and Ramdas Pophale) SiO2 
 PCOD9158448
Probable space group: P 21/M
;
_chemical_formula_sum "Si O2"
_cell_formula_units_Z 32
_cell_length_a 28.506382
_cell_length_b 9.271919
_cell_length_c 10.795597
_cell_angle_alpha 90.000000
_cell_angle_beta 36.761740
_cell_angle_gamma 90.000000
_cell_volume 1707.711081
_symmetry_space_group_name_H-M "P 21/M"
_symmetry_group_IT_number 11
_symmetry_cell_setting 'monoclinic'
loop_
_space_group_symop_operation_xyz
x,y,z
-x,1/2+y,-z
-x,-y,-z
x,1/2-y,z
loop_
_atom_site_type_symbol
_atom_site_label
_atom_site_fract_x
_atom_site_fract_y
_atom_site_fract_z
Si Si1 0.365796 0.916800 0.344983
Si Si2 0.226561 0.419383 0.761346
Si Si3 0.602466 0.919752 0.960435
Si Si4 0.234703 0.420476 0.250155
Si Si5 0.913412 0.079614 0.323069
Si Si6 0.542002 0.416051 0.588662
Si Si7 0.320040 0.081042 0.821396
Si Si8 0.075674 0.579520 0.995793
O O1 0.346768 0.750000 0.360285
O O2 0.416302 0.922381 0.363988
O O3 0.287568 0.007698 0.537657
O O4 0.409410 0.986980 0.136749
O O5 0.216836 0.250000 0.754316
O O6 0.266874 0.433225 0.810725
O O7 0.144825 0.502008 0.923975
O O8 0.585514 0.750000 0.972495
O O9 0.692394 0.932747 0.810370
O O10 0.545762 0.965349 0.193192
O O11 0.214048 0.250000 0.284233
O O12 0.161167 0.510276 0.452571
O O13 0.270041 0.471238 0.044053
O O14 0.919817 0.250000 0.334784
O O15 0.906153 0.061684 0.189489
O O16 0.992552 0.996911 0.194233
O O17 0.539863 0.250000 0.552286
O O18 0.597491 0.504864 0.380642
O O19 0.335869 0.250000 0.809729
O O20 0.072017 0.750000 0.029753
#
# Coordination Sequence:
#
# PCOD9158448 Si02
#       8
#     4   4   4   4   4   4   4   4
#     4  10  19  31  49  75 107 137 169 212 260 310
#     4  10  19  33  54  77 103 136 174 212 253 304
#     4  10  20  33  51  75 103 136 173 214 262 312
#     4  10  21  37  54  73 102 138 175 215 258 302
#     4  10  21  36  55  81 110 137 166 203 251 305
#     4   9  19  34  51  74 103 135 172 216 263 307
#     4   9  20  37  54  73 100 137 177 216 257 301
#     4  10  20  35  57  84 111 135 164 204 251 304
#
# _framework density 18.738533
#
# number of rings (size 3 to 8) (size 9 to 14) (size 15 to 20)
#    0.000    2.250    0.000    2.625    0.000    6.500 
#    0.000    0.625    0.000    0.000    0.000    0.000 
#    0.000    0.000    0.000    0.000    0.000    0.000 
#
# Total GULP energy -178690.741737 kJ/mol
# GULP energy per Si atom -5584.085679 kJ/mol
# Density = 1.869588 g / cm^3
# Si number density = 18.738533 Si / 1000 Ang^3
#
#
#
# Elastic Constant Matrix: (Units=GPa)
#
#
# Indices 1 2 3 4 5 6 
#
# 1 21.2636 25.4702 24.2594 0.0000 5.6745 0.0000
# 2 25.4702 86.5571 65.9342 0.0000 6.6756 0.0000
# 3 24.2594 65.9342 153.3416 0.0000 5.1752 0.0000
# 4 0.0000 0.0000 0.0000 39.0633 0.0000 -1.8312
# 5 5.6745 6.6756 5.1752 0.0000 25.5841 0.0000
# 6 0.0000 0.0000 0.0000 -1.8312 0.0000 16.4466
#
#
#
# Elastic Compliance Matrix: (Units=1/GPa)
#
#
# Indices 1 2 3 4 5 6 
#
# 1 0.076970 -0.019017 -0.003616 0.000000 -0.011378 0.000000
# 2 -0.019017 0.022112 -0.006491 0.000000 -0.000239 0.000000
# 3 -0.003616 -0.006491 0.009868 0.000000 0.000500 0.000000
# 4 0.000000 0.000000 0.000000 0.025734 0.000000 0.002865
# 5 -0.011378 -0.000239 0.000500 0.000000 0.041572 0.000000
# 6 0.000000 0.000000 0.000000 0.002865 0.000000 0.061122
#
#
# Mechanical properties :
#
#
# Convention : Reuss Voigt Hill
#
# Bulk Modulus (GPa) = 19.72337 54.72109 37.22223
# Shear Modulus (GPa) = 15.99867 25.91870 20.95868
#
# Velocity S-wave (km/s) = 2.92513 3.72314 3.34800
# Velocity P-wave (km/s) = 4.68582 6.91001 5.90361
#
# Compressibility (1/GPa) = 0.05070126
#
# Stress axis : x y z
#
# Youngs Moduli (GPa) = 12.99207 45.22439 101.34121
#
# Poissons Ratio (x) = 0.86004 0.36645
# Poissons Ratio (y) = 0.24707 0.65782
# Poissons Ratio (z) = 0.04698 0.29356
#
# Static dielectric constant tensor:
#      x y z
#    x 1.661020 0.000000 -0.000140 
#    y 0.000000 1.627410 0.000000 
#    z -0.000140 0.000000 1.636890 
# 
# From -- ./inp_files/45114.got.cif
#   From: 2010.05.17/outbox.cif.g08.bks.cpg/sg11_23_cif.got.tgz:45114.got - 2010.06.03 12:22:45.
