data_PCOD9158692
_publ_section_title
;
Structure prediction by ZEFSAII (Michael W. Deem and Ramdas Pophale) SiO2 
 PCOD9158692
Probable space group: P 21/M
;
_chemical_formula_sum "Si O2"
_cell_formula_units_Z 32
_cell_length_a 15.944483
_cell_length_b 9.003879
_cell_length_c 14.957017
_cell_angle_alpha 90.000000
_cell_angle_beta 43.421919
_cell_angle_gamma 90.000000
_cell_volume 1475.953780
_symmetry_space_group_name_H-M "P 21/M"
_symmetry_group_IT_number 11
_symmetry_cell_setting 'monoclinic'
loop_
_space_group_symop_operation_xyz
x,y,z
-x,1/2+y,-z
-x,-y,-z
x,1/2-y,z
loop_
_atom_site_type_symbol
_atom_site_label
_atom_site_fract_x
_atom_site_fract_y
_atom_site_fract_z
Si Si1 0.863732 0.929471 0.835056
Si Si2 0.123413 0.927653 0.370866
Si Si3 0.373009 0.572322 0.992929
Si Si4 0.622803 0.918711 0.515135
Si Si5 0.871634 0.415701 0.107486
Si Si6 0.373144 0.419242 0.706973
Si Si7 0.134640 0.584362 0.675423
Si Si8 0.360174 0.072964 0.201274
O O1 0.854870 0.750000 0.838795
O O2 0.995665 0.970331 0.772577
O O3 0.866973 0.005863 0.735867
O O4 0.739490 0.997390 0.971425
O O5 0.120482 0.750000 0.374153
O O6 0.242226 0.989654 0.330338
O O7 0.000000 0.000000 0.500000
O O8 0.354190 0.750000 0.017058
O O9 0.374564 0.494911 0.089935
O O10 0.510200 0.549181 0.851018
O O11 0.614672 0.750000 0.552675
O O12 0.625382 0.918194 0.403740
O O13 0.499777 0.004379 0.636173
O O14 0.751222 0.988900 0.445896
O O15 0.881542 0.250000 0.061192
O O16 0.751144 0.499791 0.167797
O O17 0.849275 0.402607 0.230859
O O18 0.000000 0.500000 0.000000
O O19 0.370139 0.250000 0.739819
O O20 0.139998 0.750000 0.630741
O O21 0.338622 0.250000 0.211704
#
# Coordination Sequence:
#
# PCOD9158692 Si02
#       8
#     4   4   4   4   4   4   4   4
#     4  10  19  32  50  72  98 128 161 195 235 284
#     4  11  21  33  50  72  98 127 159 197 240 285
#     4   9  16  26  43  68  95 122 154 194 236 275
#     4   9  16  26  44  69  94 121 156 198 239 279
#     4  10  19  32  49  71  98 127 161 199 240 286
#     4   9  16  27  44  67  94 123 156 196 240 283
#     4   9  19  33  49  70  98 130 160 194 237 285
#     4   9  16  27  44  67  94 122 155 195 236 278
#
# _framework density 21.680896000000001
#
# number of rings (size 3 to 8) (size 9 to 14) (size 15 to 20)
#    0.000    2.500    0.000    4.875    0.000    6.000 
#    0.000    0.000    0.000    1.500    0.000    5.250 
#    0.000    0.000    0.000    0.000    0.000    0.000 
#
# Total GULP energy -178465.631362 kJ/mol
# GULP energy per Si atom -5577.050980 kJ/mol
# Density = 2.163155 g / cm^3
# Si number density = 21.680896 Si / 1000 Ang^3
#
#
#
# Elastic Constant Matrix: (Units=GPa)
#
#
# Indices 1 2 3 4 5 6 
#
# 1 67.7192 34.4922 46.6406 0.0000 -30.6340 0.0000
# 2 34.4922 165.7034 93.3245 0.0000 -45.3341 0.0000
# 3 46.6406 93.3245 151.3214 0.0000 -67.3871 0.0000
# 4 0.0000 0.0000 0.0000 38.7656 0.0000 -16.7665
# 5 -30.6340 -45.3341 -67.3871 0.0000 54.1321 0.0000
# 6 0.0000 0.0000 0.0000 -16.7665 0.0000 15.5871
#
#
#
# Elastic Compliance Matrix: (Units=1/GPa)
#
#
# Indices 1 2 3 4 5 6 
#
# 1 0.020347 -0.000792 -0.002133 0.000000 0.008196 0.000000
# 2 -0.000792 0.009328 -0.005003 0.000000 0.001136 0.000000
# 3 -0.002133 -0.005003 0.017835 0.000000 0.016805 0.000000
# 4 0.000000 0.000000 0.000000 0.048238 0.000000 0.051888
# 5 0.008196 0.001136 0.016805 0.000000 0.044983 0.000000
# 6 0.000000 0.000000 0.000000 0.051888 0.000000 0.119969
#
#
# Mechanical properties :
#
#
# Convention : Reuss Voigt Hill
#
# Bulk Modulus (GPa) = 31.59110 81.51762 56.55436
# Shear Modulus (GPa) = 17.41502 35.71607 26.56555
#
# Velocity S-wave (km/s) = 2.83723 4.06316 3.50422
# Velocity P-wave (km/s) = 5.03346 7.72611 6.52030
#
# Compressibility (1/GPa) = 0.03165448
#
# Stress axis : x y z
#
# Youngs Moduli (GPa) = 49.14746 107.20172 56.06806
#
# Poissons Ratio (x) = 0.08485 0.11961
# Poissons Ratio (y) = 0.03890 0.28052
# Poissons Ratio (z) = 0.10485 0.53635
#
# Static dielectric constant tensor:
#      x y z
#    x 1.832430 0.000000 -0.055530 
#    y 0.000000 1.738730 0.000000 
#    z -0.055530 0.000000 1.785950 
# 
# From -- ./inp_files/69737.got.cif
#   From: 2010.05.17/outbox.cif.g08.bks.cpg/sg11_35_cif.got.tgz:69737.got - 2010.06.03 12:22:45.
