data_PCOD9158817
_publ_section_title
;
Structure prediction by ZEFSAII (Michael W. Deem and Ramdas Pophale) SiO2 
 PCOD9158817
Probable space group: P 21/M
;
_chemical_formula_sum "Si O2"
_cell_formula_units_Z 32
_cell_length_a 24.183013
_cell_length_b 8.904203
_cell_length_c 12.684043
_cell_angle_alpha 90.000000
_cell_angle_beta 138.480327
_cell_angle_gamma 90.000000
_cell_volume 1810.490412
_symmetry_space_group_name_H-M "P 21/M"
_symmetry_group_IT_number 11
_symmetry_cell_setting 'monoclinic'
loop_
_space_group_symop_operation_xyz
x,y,z
-x,1/2+y,-z
-x,-y,-z
x,1/2-y,z
loop_
_atom_site_type_symbol
_atom_site_label
_atom_site_fract_x
_atom_site_fract_y
_atom_site_fract_z
Si Si1 0.248894 0.067338 0.260411
Si Si2 0.217243 0.572447 0.998407
Si Si3 0.141236 0.430708 0.515040
Si Si4 0.063081 0.084079 0.019060
Si Si5 0.964293 0.920018 0.265145
Si Si6 0.410336 0.430565 0.894727
Si Si7 0.730606 0.568706 0.477098
Si Si8 0.283951 0.928324 0.864153
O O1 0.252489 0.250000 0.255146
O O2 0.153850 0.015290 0.143954
O O3 0.288018 0.021777 0.428755
O O4 0.264053 0.998356 0.166806
O O5 0.204823 0.750000 0.998357
O O6 0.125577 0.498741 0.846194
O O7 0.270642 0.550503 0.969173
O O8 0.138571 0.250000 0.512739
O O9 0.183389 0.477573 0.461427
O O10 0.207399 0.492265 0.694155
O O11 0.049717 0.493606 0.413210
O O12 0.074394 0.250000 0.079649
O O13 0.031393 0.091631 0.855281
O O14 0.000000 0.000000 0.000000
O O15 0.963623 0.750000 0.308410
O O16 0.414291 0.250000 0.906793
O O17 0.345418 0.471380 0.708398
O O18 0.367808 0.498862 0.938195
O O19 0.500000 0.500000 0.000000
O O20 0.735431 0.750000 0.488031
O O21 0.282346 0.750000 0.839276
#
# Coordination Sequence:
#
# PCOD9158817 Si02
#       8
#     4   4   4   4   4   4   4   4
#     4   9  17  31  49  69  97 132 169 208 251 301
#     4  10  21  35  50  71 100 137 179 218 256 298
#     4  10  19  32  51  74 101 134 175 221 267 311
#     4   9  17  26  39  61  89 125 168 214 259 300
#     4  10  20  32  45  65  96 135 179 221 260 303
#     4  10  20  36  60  88 113 135 162 199 249 307
#     4   8  16  31  52  78 105 133 165 206 257 307
#     4  10  21  37  55  76 104 135 169 211 257 306
#
# _framework density 17.674768
#
# number of rings (size 3 to 8) (size 9 to 14) (size 15 to 20)
#    0.000    2.500    0.000    4.125    0.000    6.000 
#    0.000    3.750    0.000    0.750    0.000    0.000 
#    0.000    0.000    0.000    0.000    0.000    0.000 
#
# Total GULP energy -178170.939755 kJ/mol
# GULP energy per Si atom -5567.841867 kJ/mol
# Density = 1.763454 g / cm^3
# Si number density = 17.674768 Si / 1000 Ang^3
#
#
#
# Elastic Constant Matrix: (Units=GPa)
#
#
# Indices 1 2 3 4 5 6 
#
# 1 98.1332 51.9899 32.7673 0.0000 -11.4920 0.0000
# 2 51.9899 71.4019 25.8351 0.0000 -6.9775 0.0000
# 3 32.7673 25.8351 38.5072 0.0000 -11.3935 0.0000
# 4 0.0000 0.0000 0.0000 21.6987 0.0000 -0.9547
# 5 -11.4920 -6.9775 -11.3935 0.0000 21.8888 0.0000
# 6 0.0000 0.0000 0.0000 -0.9547 0.0000 27.4620
#
#
#
# Elastic Compliance Matrix: (Units=1/GPa)
#
#
# Indices 1 2 3 4 5 6 
#
# 1 0.018746 -0.010430 -0.008305 0.000000 0.002194 0.000000
# 2 -0.010430 0.024307 -0.007990 0.000000 -0.001887 0.000000
# 3 -0.008305 -0.007990 0.042971 0.000000 0.015460 0.000000
# 4 0.000000 0.000000 0.000000 0.046156 0.000000 0.001605
# 5 0.002194 -0.001887 0.015460 0.000000 0.054283 0.000000
# 6 0.000000 0.000000 0.000000 0.001605 0.000000 0.036470
#
#
# Mechanical properties :
#
#
# Convention : Reuss Voigt Hill
#
# Bulk Modulus (GPa) = 30.70026 47.69188 39.19607
# Shear Modulus (GPa) = 17.40697 20.70657 19.05677
#
# Velocity S-wave (km/s) = 3.14163 3.42648 3.28714
# Velocity P-wave (km/s) = 5.52875 6.53421 6.05240
#
# Compressibility (1/GPa) = 0.03257302
#
# Stress axis : x y z
#
# Youngs Moduli (GPa) = 53.34460 41.14109 23.27149
#
# Poissons Ratio (x) = 0.42911 0.19326
# Poissons Ratio (y) = 0.55640 0.18595
# Poissons Ratio (z) = 0.44301 0.32873
#
# Static dielectric constant tensor:
#      x y z
#    x 1.479310 0.000000 0.076820 
#    y 0.000000 1.623530 0.000000 
#    z 0.076820 0.000000 1.617180 
# 
# From -- ./inp_files/42928.got.cif
#   From: 2010.05.17/outbox.cif.g08.bks.cpg/sg11_22_cif.got.tgz:42928.got - 2010.06.03 12:22:45.
