data_PCOD9158926
_publ_section_title
;
Structure prediction by ZEFSAII (Michael W. Deem and Ramdas Pophale) SiO2 
 PCOD9158926
Probable space group: P 21/M
;
_chemical_formula_sum "Si O2"
_cell_formula_units_Z 32
_cell_length_a 21.169612
_cell_length_b 7.639440
_cell_length_c 10.960662
_cell_angle_alpha 90.000000
_cell_angle_beta 124.583798
_cell_angle_gamma 90.000000
_cell_volume 1459.377658
_symmetry_space_group_name_H-M "P 21/M"
_symmetry_group_IT_number 11
_symmetry_cell_setting 'monoclinic'
loop_
_space_group_symop_operation_xyz
x,y,z
-x,1/2+y,-z
-x,-y,-z
x,1/2-y,z
loop_
_atom_site_type_symbol
_atom_site_label
_atom_site_fract_x
_atom_site_fract_y
_atom_site_fract_z
Si Si1 0.914093 0.959701 0.048840
Si Si2 0.086253 0.538285 0.235184
Si Si3 0.768340 0.450563 0.465661
Si Si4 0.239509 0.042074 0.002192
Si Si5 0.375350 0.453379 0.568305
Si Si6 0.617188 0.041373 0.692854
Si Si7 0.669001 0.047033 0.137904
Si Si8 0.528572 0.464451 0.839968
O O1 0.915586 0.750000 0.065438
O O2 0.000103 0.025721 0.169434
O O3 0.844812 0.025825 0.056535
O O4 0.897684 0.994752 0.888382
O O5 0.086138 0.750000 0.242945
O O6 0.153163 0.470902 0.397111
O O7 0.785983 0.250000 0.449401
O O8 0.705079 0.451330 0.503317
O O9 0.721209 0.533052 0.301529
O O10 0.236058 0.250000 0.976089
O O11 0.295876 0.009622 0.177996
O O12 0.280668 0.958833 0.930557
O O13 0.362187 0.250000 0.579217
O O14 0.404690 0.468118 0.462260
O O15 0.440660 0.521130 0.732382
O O16 0.611010 0.250000 0.680151
O O17 0.567599 0.981129 0.754424
O O18 0.655802 0.250000 0.156123
O O19 0.585714 0.971676 0.008596
O O20 0.528990 0.250000 0.843180
#
# Coordination Sequence:
#
# PCOD9158926 Si02
#       8
#     4   4   4   4   4   4   4   4
#     4   9  18  32  51  76 104 130 157 196 245 295
#     4   9  18  33  52  74 101 132 163 196 239 292
#     4  10  21  36  53  72  97 132 171 208 246 292
#     4  10  19  32  52  77 102 129 164 205 250 294
#     4  11  21  32  49  74 102 130 164 207 253 297
#     4  10  19  33  52  74 103 134 164 200 245 298
#     4   9  19  37  55  70  95 132 172 208 243 290
#     4   8  17  33  51  71  97 130 165 204 247 292
#
# _framework density 21.927154999999999
#
# number of rings (size 3 to 8) (size 9 to 14) (size 15 to 20)
#    0.000    2.500    0.000    3.000    0.000    4.500 
#    0.000    6.250    0.000    0.000    0.000    0.000 
#    0.000    0.000    0.000    0.000    0.000    0.000 
#
# Total GULP energy -178638.828710 kJ/mol
# GULP energy per Si atom -5582.463397 kJ/mol
# Density = 2.187725 g / cm^3
# Si number density = 21.927155 Si / 1000 Ang^3
#
#
#
# Elastic Constant Matrix: (Units=GPa)
#
#
# Indices 1 2 3 4 5 6 
#
# 1 41.2752 2.1789 25.2090 0.0000 15.2860 0.0000
# 2 2.1789 56.7558 3.5939 0.0000 1.9880 0.0000
# 3 25.2090 3.5939 163.3614 0.0000 18.9151 0.0000
# 4 0.0000 0.0000 0.0000 4.7992 0.0000 -4.6034
# 5 15.2860 1.9880 18.9151 0.0000 35.9738 0.0000
# 6 0.0000 0.0000 0.0000 -4.6034 0.0000 15.5385
#
#
#
# Elastic Compliance Matrix: (Units=1/GPa)
#
#
# Indices 1 2 3 4 5 6 
#
# 1 0.030452 -0.000564 -0.003399 0.000000 -0.011121 0.000000
# 2 -0.000564 0.017677 -0.000230 0.000000 -0.000616 0.000000
# 3 -0.003399 -0.000230 0.006903 0.000000 -0.002172 0.000000
# 4 0.000000 0.000000 0.000000 0.291088 0.000000 0.086236
# 5 -0.011121 -0.000616 -0.002172 0.000000 0.033700 0.000000
# 6 0.000000 0.000000 0.000000 0.086236 0.000000 0.089905
#
#
# Mechanical properties :
#
#
# Convention : Reuss Voigt Hill
#
# Bulk Modulus (GPa) = 21.43895 35.92845 28.68370
# Shear Modulus (GPa) = 10.12843 26.62298 18.37570
#
# Velocity S-wave (km/s) = 2.15155 3.48825 2.89802
# Velocity P-wave (km/s) = 3.99635 5.71356 4.93029
#
# Compressibility (1/GPa) = 0.04664408
#
# Stress axis : x y z
#
# Youngs Moduli (GPa) = 32.83839 56.57009 144.87468
#
# Poissons Ratio (x) = 0.03192 0.49244
# Poissons Ratio (y) = 0.01853 0.03339
# Poissons Ratio (z) = 0.11162 0.01304
#
# Static dielectric constant tensor:
#      x y z
#    x 1.821770 0.000000 0.015850 
#    y 0.000000 1.820320 0.000000 
#    z 0.015850 0.000000 1.826600 
# 
# From -- ./inp_files/42879.got.cif
#   From: 2010.05.17/outbox.cif.g08.bks.cpg/sg11_22_cif.got.tgz:42879.got - 2010.06.03 12:22:45.
