data_PCOD9158841
_publ_section_title
;
Structure prediction by ZEFSAII (Michael W. Deem and Ramdas Pophale) SiO2 
 PCOD9158841
Probable space group: P 21/M
;
_chemical_formula_sum "Si O2"
_cell_formula_units_Z 24
_cell_length_a 24.284896
_cell_length_b 8.786857
_cell_length_c 12.124246
_cell_angle_alpha 90.000000
_cell_angle_beta 147.283398
_cell_angle_gamma 90.000000
_cell_volume 1398.322982
_symmetry_space_group_name_H-M "P 21/M"
_symmetry_group_IT_number 11
_symmetry_cell_setting 'monoclinic'
loop_
_space_group_symop_operation_xyz
x,y,z
-x,1/2+y,-z
-x,-y,-z
x,1/2-y,z
loop_
_atom_site_type_symbol
_atom_site_label
_atom_site_fract_x
_atom_site_fract_y
_atom_site_fract_z
Si Si1 0.564472 0.426080 0.251509
Si Si2 0.389280 0.068550 0.281188
Si Si3 0.267225 0.574410 0.272042
Si Si4 0.274769 0.431897 0.641198
Si Si5 0.642806 0.430857 0.011735
Si Si6 0.112184 0.067658 0.179611
O O1 0.539113 0.250000 0.182839
O O2 0.640692 0.426129 0.484177
O O3 0.627220 0.503055 0.258945
O O4 0.465745 0.518653 0.120425
O O5 0.398971 0.250000 0.293445
O O6 0.500000 0.000000 0.500000
O O7 0.308197 0.017299 0.236517
O O8 0.354802 0.005271 0.104701
O O9 0.246092 0.750000 0.207236
O O10 0.172560 0.500833 0.176866
O O11 0.282055 0.250000 0.661803
O O12 0.178967 0.470231 0.401390
O O13 0.275361 0.505159 0.763036
O O14 0.649233 0.250000 0.014384
O O15 0.109024 0.250000 0.165059
O O16 0.000000 0.000000 0.000000
#
# Coordination Sequence:
#
# PCOD9158841 Si02
#       6
#     4   4   4   4   4   4
#     4  10  19  32  51  75 108 146 184 225 270 323
#     4  12  23  36  54  78 112 152 192 228 268 322
#     4  10  20  35  56  82 112 146 187 230 273 324
#     4  10  21  36  53  77 109 142 182 227 277 331
#     4  12  23  34  51  75 109 150 188 225 270 324
#     4  10  21  38  62  87 111 141 180 231 285 334
#
# _framework density 17.163416000000002
#
# number of rings (size 3 to 8) (size 9 to 14) (size 15 to 20)
#    0.000    1.333    1.667    5.500    0.000    3.333 
#    0.000    0.000    0.000    1.000    0.000    0.000 
#    0.000    0.000    0.000    0.000    0.000    0.000 
#
# Total GULP energy -134119.560575 kJ/mol
# GULP energy per Si atom -5588.315024 kJ/mol
# Density = 1.712435 g / cm^3
# Si number density = 17.163416 Si / 1000 Ang^3
#
#
#
# Elastic Constant Matrix: (Units=GPa)
#
#
# Indices 1 2 3 4 5 6 
#
# 1 127.4232 73.4101 80.2007 0.0000 -16.8074 0.0000
# 2 73.4101 150.6284 55.8335 0.0000 -12.3366 0.0000
# 3 80.2007 55.8335 80.8167 0.0000 -2.2027 0.0000
# 4 0.0000 0.0000 0.0000 27.2235 0.0000 -1.5134
# 5 -16.8074 -12.3366 -2.2027 0.0000 31.8248 0.0000
# 6 0.0000 0.0000 0.0000 -1.5134 0.0000 33.0207
#
#
#
# Elastic Compliance Matrix: (Units=1/GPa)
#
#
# Indices 1 2 3 4 5 6 
#
# 1 0.025292 -0.003040 -0.022710 0.000000 0.010607 0.000000
# 2 -0.003040 0.009593 -0.003560 0.000000 0.001867 0.000000
# 3 -0.022710 -0.003560 0.037076 0.000000 -0.010808 0.000000
# 4 0.000000 0.000000 0.000000 0.036827 0.000000 0.001688
# 5 0.010607 0.001867 -0.010808 0.000000 0.037000 0.000000
# 6 0.000000 0.000000 0.000000 0.001688 0.000000 0.030361
#
#
# Mechanical properties :
#
#
# Convention : Reuss Voigt Hill
#
# Bulk Modulus (GPa) = 74.95753 86.41744 80.68749
# Shear Modulus (GPa) = 20.90173 28.37541 24.63857
#
# Velocity S-wave (km/s) = 3.49350 4.07043 3.79295
# Velocity P-wave (km/s) = 7.74857 8.51765 8.14219
#
# Compressibility (1/GPa) = 0.01334089
#
# Stress axis : x y z
#
# Youngs Moduli (GPa) = 39.53816 104.24605 26.97183
#
# Poissons Ratio (x) = 0.31686 0.61254
# Poissons Ratio (y) = 0.12018 0.09602
# Poissons Ratio (z) = 0.89792 0.37112
#
# Static dielectric constant tensor:
#      x y z
#    x 1.566490 0.000000 -0.025800 
#    y 0.000000 1.575050 0.000000 
#    z -0.025800 0.000000 1.591870 
# 
# From -- ./inp_files/37248.got.cif
#   From: 2010.05.17/outbox.cif.g08.bks.cpg/sg11_19_cif.got.tgz:37248.got - 2010.06.03 12:22:45.
