data_PCOD9158827
_publ_section_title
;
Structure prediction by ZEFSAII (Michael W. Deem and Ramdas Pophale) SiO2 
 PCOD9158827
Probable space group: P 21/M
;
_chemical_formula_sum "Si O2"
_cell_formula_units_Z 28
_cell_length_a 25.448515
_cell_length_b 8.782637
_cell_length_c 20.145283
_cell_angle_alpha 90.000000
_cell_angle_beta 21.065050
_cell_angle_gamma 90.000000
_cell_volume 1618.349172
_symmetry_space_group_name_H-M "P 21/M"
_symmetry_group_IT_number 11
_symmetry_cell_setting 'monoclinic'
loop_
_space_group_symop_operation_xyz
x,y,z
-x,1/2+y,-z
-x,-y,-z
x,1/2-y,z
loop_
_atom_site_type_symbol
_atom_site_label
_atom_site_fract_x
_atom_site_fract_y
_atom_site_fract_z
Si Si1 0.351349 0.927633 0.091051
Si Si2 0.658047 0.933494 0.333499
Si Si3 0.317099 0.429400 0.273650
Si Si4 0.925345 0.434798 0.931852
Si Si5 0.132541 0.067061 0.800623
Si Si6 0.092269 0.071750 0.330613
Si Si7 0.009423 0.432094 0.687590
O O1 0.319239 0.750000 0.117434
O O2 0.308390 0.972363 0.217011
O O3 0.258532 0.030554 0.151673
O O4 0.524305 0.953394 0.882097
O O5 0.650561 0.750000 0.339406
O O6 0.718899 0.978888 0.335821
O O7 0.500000 0.000000 0.500000
O O8 0.785881 0.992677 0.133283
O O9 0.308215 0.250000 0.264691
O O10 0.183223 0.462236 0.479771
O O11 0.910013 0.250000 0.952278
O O12 0.939200 0.484220 0.839237
O O13 0.077155 0.473464 0.791938
O O14 0.129865 0.250000 0.807286
O O15 0.000000 0.000000 0.000000
O O16 0.065897 0.250000 0.361744
O O17 0.051879 0.003328 0.307294
O O18 0.000000 0.000000 0.500000
O O19 0.989643 0.250000 0.707200
#
# Coordination Sequence:
#
# PCOD9158827 Si02
#       7
#     4   4   4   4   4   4   4
#     4  10  19  32  51  75 100 130 172 220 267 314
#     4  10  19  32  53  81 112 144 179 215 256 307
#     4   9  18  32  51  74 100 131 169 214 265 318
#     4   9  18  34  55  78 105 137 175 219 268 316
#     4   8  15  29  50  75 101 132 171 210 249 300
#     4  12  23  35  52  75 103 139 181 225 271 323
#     4  10  20  35  55  78 104 135 173 221 273 325
#
# _framework density 17.301582
#
# number of rings (size 3 to 8) (size 9 to 14) (size 15 to 20)
#    0.000    2.286    1.429    2.143    0.000    1.714 
#    0.000    1.429    0.000    5.143    0.000    0.000 
#    0.000    0.000    0.000    0.000    0.000    0.000 
#
# Total GULP energy -155987.636538 kJ/mol
# GULP energy per Si atom -5570.987019 kJ/mol
# Density = 1.726220 g / cm^3
# Si number density = 17.301582 Si / 1000 Ang^3
#
#
#
# Elastic Constant Matrix: (Units=GPa)
#
#
# Indices 1 2 3 4 5 6 
#
# 1 131.6182 36.8329 59.1671 0.0000 -2.7652 0.0000
# 2 36.8329 30.6755 31.1035 0.0000 -0.3379 0.0000
# 3 59.1671 31.1035 79.6552 0.0000 -7.3920 0.0000
# 4 0.0000 0.0000 0.0000 22.5235 0.0000 -3.4896
# 5 -2.7652 -0.3379 -7.3920 0.0000 26.9118 0.0000
# 6 0.0000 0.0000 0.0000 -3.4896 0.0000 24.9675
#
#
#
# Elastic Compliance Matrix: (Units=1/GPa)
#
#
# Indices 1 2 3 4 5 6 
#
# 1 0.012908 -0.009507 -0.005915 0.000000 -0.000418 0.000000
# 2 -0.009507 0.061698 -0.017495 0.000000 -0.005008 0.000000
# 3 -0.005915 -0.017495 0.024322 0.000000 0.005853 0.000000
# 4 0.000000 0.000000 0.000000 0.045381 0.000000 0.006343
# 5 -0.000418 -0.005008 0.005853 0.000000 0.038660 0.000000
# 6 0.000000 0.000000 0.000000 0.006343 0.000000 0.040939
#
#
# Mechanical properties :
#
#
# Convention : Reuss Voigt Hill
#
# Bulk Modulus (GPa) = 30.21540 55.12844 42.67192
# Shear Modulus (GPa) = 16.62386 22.53692 19.58039
#
# Velocity S-wave (km/s) = 3.10309 3.61306 3.36774
# Velocity P-wave (km/s) = 5.50824 7.02410 6.31184
#
# Compressibility (1/GPa) = 0.03309571
#
# Stress axis : x y z
#
# Youngs Moduli (GPa) = 77.46996 16.20799 41.11492
#
# Poissons Ratio (x) = 0.15408 0.24318
# Poissons Ratio (y) = 0.73647 0.71930
# Poissons Ratio (z) = 0.45822 0.28356
#
# Static dielectric constant tensor:
#      x y z
#    x 1.619420 0.000000 -0.024240 
#    y 0.000000 1.582990 0.000000 
#    z -0.024240 0.000000 1.582710 
# 
# From -- ./inp_files/66865.got.cif
#   From: 2010.05.17/outbox.cif.g08.bks.cpg/sg11_34_cif.got.tgz:66865.got - 2010.06.03 12:22:45.
