data_PCOD9158360
_publ_section_title
;
Structure prediction by ZEFSAII (Michael W. Deem and Ramdas Pophale) SiO2 
 PCOD9158360
Probable space group: P 21/M
;
_chemical_formula_sum "Si O2"
_cell_formula_units_Z 28
_cell_length_a 15.646573
_cell_length_b 8.831341
_cell_length_c 24.156845
_cell_angle_alpha 90.000000
_cell_angle_beta 26.968313
_cell_angle_gamma 90.000000
_cell_volume 1513.774391
_symmetry_space_group_name_H-M "P 21/M"
_symmetry_group_IT_number 11
_symmetry_cell_setting 'monoclinic'
loop_
_space_group_symop_operation_xyz
x,y,z
-x,1/2+y,-z
-x,-y,-z
x,1/2-y,z
loop_
_atom_site_type_symbol
_atom_site_label
_atom_site_fract_x
_atom_site_fract_y
_atom_site_fract_z
Si Si1 0.165679 0.429956 0.828688
Si Si2 0.769513 0.572913 0.782256
Si Si3 0.766862 0.930866 0.084164
Si Si4 0.476792 0.929406 0.573988
Si Si5 0.185906 0.570258 0.130650
Si Si6 0.145382 0.572811 0.618221
Si Si7 0.473260 0.430598 0.877987
O O1 0.173762 0.250000 0.815635
O O2 0.289301 0.512048 0.711626
O O3 0.950285 0.484387 0.954975
O O4 0.248263 0.466455 0.842203
O O5 0.722582 0.750000 0.818617
O O6 0.716803 0.473874 0.866789
O O7 0.660015 0.510869 0.792960
O O8 0.997238 0.561302 0.652781
O O9 0.801040 0.750000 0.060093
O O10 0.588094 0.966632 0.149224
O O11 0.476712 0.750000 0.570508
O O12 0.500000 0.000000 0.500000
O O13 0.659866 0.988079 0.501636
O O14 0.179327 0.750000 0.126764
O O15 0.976989 0.501329 0.261083
O O16 0.303167 0.490291 0.015018
O O17 0.177632 0.750000 0.610866
O O18 0.490715 0.250000 0.873876
#
# Coordination Sequence:
#
# PCOD9158360 Si02
#       7
#     4   4   4   4   4   4   4
#     4  10  21  40  62  83 113 149 188 234 284 336
#     4   9  19  33  50  74 109 147 185 230 282 334
#     4   9  21  39  59  84 113 150 190 233 283 333
#     4  12  25  40  61  87 115 148 188 232 280 338
#     4  10  19  31  48  73 109 148 185 224 276 333
#     4   9  20  37  54  76 110 146 182 226 277 329
#     4  11  20  31  51  78 110 145 187 233 277 332
#
# _framework density 18.496811000000001
#
# number of rings (size 3 to 8) (size 9 to 14) (size 15 to 20)
#    0.857    1.143    0.000    4.286    2.000    1.714 
#    0.000    0.000    0.000    0.857    0.000    0.000 
#    0.000    0.000    0.000    0.000    0.000    0.000 
#
# Total GULP energy -156156.572994 kJ/mol
# GULP energy per Si atom -5577.020464 kJ/mol
# Density = 1.845471 g / cm^3
# Si number density = 18.496811 Si / 1000 Ang^3
#
#
#
# Elastic Constant Matrix: (Units=GPa)
#
#
# Indices 1 2 3 4 5 6 
#
# 1 78.6563 25.9732 10.4151 0.0000 7.8145 0.0000
# 2 25.9732 91.4254 35.7903 0.0000 7.5280 0.0000
# 3 10.4151 35.7903 54.1125 0.0000 4.3806 0.0000
# 4 0.0000 0.0000 0.0000 27.6281 0.0000 -6.4003
# 5 7.8145 7.5280 4.3806 0.0000 7.5685 0.0000
# 6 0.0000 0.0000 0.0000 -6.4003 0.0000 26.0144
#
#
#
# Elastic Compliance Matrix: (Units=1/GPa)
#
#
# Indices 1 2 3 4 5 6 
#
# 1 0.015011 -0.003385 0.000348 0.000000 -0.012333 0.000000
# 2 -0.003385 0.016200 -0.009486 0.000000 -0.007128 0.000000
# 3 0.000348 -0.009486 0.025130 0.000000 -0.005469 0.000000
# 4 0.000000 0.000000 0.000000 0.038383 0.000000 0.009443
# 5 -0.012333 -0.007128 -0.005469 0.000000 0.155116 0.000000
# 6 0.000000 0.000000 0.000000 0.009443 0.000000 0.040764
#
#
# Mechanical properties :
#
#
# Convention : Reuss Voigt Hill
#
# Bulk Modulus (GPa) = 31.95479 40.95017 36.45248
# Shear Modulus (GPa) = 15.33366 22.37658 18.85512
#
# Velocity S-wave (km/s) = 2.88234 3.48192 3.19622
# Velocity P-wave (km/s) = 5.32828 6.19291 5.77679
#
# Compressibility (1/GPa) = 0.03129421
#
# Stress axis : x y z
#
# Youngs Moduli (GPa) = 66.61992 61.72818 39.79313
#
# Poissons Ratio (x) = 0.20896 -0.01386
# Poissons Ratio (y) = 0.22552 0.37749
# Poissons Ratio (z) = -0.02320 0.58557
#
# Static dielectric constant tensor:
#      x y z
#    x 1.697600 0.000000 -0.020870 
#    y 0.000000 1.612650 0.000000 
#    z -0.020870 0.000000 1.609900 
# 
# From -- ./inp_files/65383.got.cif
#   From: 2010.05.17/outbox.cif.g08.bks.cpg/sg11_33_cif.got.tgz:65383.got - 2010.06.03 12:22:45.
