data_PCOD9158492
_publ_section_title
;
Structure prediction by ZEFSAII (Michael W. Deem and Ramdas Pophale) SiO2 
 PCOD9158492
Probable space group: P 21/M
;
_chemical_formula_sum "Si O2"
_cell_formula_units_Z 32
_cell_length_a 35.296933
_cell_length_b 8.171206
_cell_length_c 12.890590
_cell_angle_alpha 90.000000
_cell_angle_beta 153.317170
_cell_angle_gamma 90.000000
_cell_volume 1669.520837
_symmetry_space_group_name_H-M "P 21/M"
_symmetry_group_IT_number 11
_symmetry_cell_setting 'monoclinic'
loop_
_space_group_symop_operation_xyz
x,y,z
-x,1/2+y,-z
-x,-y,-z
x,1/2-y,z
loop_
_atom_site_type_symbol
_atom_site_label
_atom_site_fract_x
_atom_site_fract_y
_atom_site_fract_z
Si Si1 0.253518 0.945700 0.272794
Si Si2 0.405065 0.445881 0.787252
Si Si3 0.755435 0.062436 0.980303
Si Si4 0.960355 0.444782 0.708129
Si Si5 0.711049 0.554811 0.313480
Si Si6 0.062466 0.438767 0.566637
Si Si7 0.766198 0.447068 0.233932
Si Si8 0.135670 0.555612 0.169448
O O1 0.240040 0.750000 0.230084
O O2 0.177661 0.007394 0.162891
O O3 0.339455 0.978718 0.544833
O O4 0.262076 0.012446 0.176203
O O5 0.399785 0.250000 0.766004
O O6 0.368923 0.494264 0.811988
O O7 0.500000 0.500000 0.000000
O O8 0.724187 0.250000 0.902461
O O9 0.735316 0.989704 0.045255
O O10 0.856711 0.055019 0.233196
O O11 0.957544 0.250000 0.686201
O O12 0.978799 0.538139 0.646025
O O13 0.864018 0.497175 0.498186
O O14 0.044837 0.483232 0.978627
O O15 0.718323 0.750000 0.335374
O O16 0.709834 0.500121 0.192042
O O17 0.793451 0.481744 0.571415
O O18 0.087048 0.250000 0.642153
O O19 0.000000 0.500000 0.500000
O O20 0.766739 0.250000 0.228528
O O21 0.126334 0.750000 0.138589
#
# Coordination Sequence:
#
# PCOD9158492 Si02
#       8
#     4   4   4   4   4   4   4   4
#     4   9  18  33  54  79 107 136 166 207 259 310
#     4  10  21  37  59  86 110 131 159 200 252 308
#     4   9  18  33  51  73 102 135 172 213 257 306
#     4  10  20  33  47  67  98 135 178 225 266 305
#     4  10  21  36  54  76 103 135 171 212 256 305
#     4  11  20  29  43  64  93 132 177 223 267 307
#     4   9  19  34  51  72 101 140 181 217 256 302
#     4  10  19  31  50  75 102 136 177 219 267 315
#
# _framework density 19.167176000000001
#
# number of rings (size 3 to 8) (size 9 to 14) (size 15 to 20)
#    0.000    2.250    0.000    4.125    0.000    6.500 
#    0.000    0.000    0.000    0.750    0.000    0.000 
#    0.000    0.000    0.000    0.000    0.000    0.000 
#
# Total GULP energy -178316.505924 kJ/mol
# GULP energy per Si atom -5572.390810 kJ/mol
# Density = 1.912355 g / cm^3
# Si number density = 19.167176 Si / 1000 Ang^3
#
#
#
# Elastic Constant Matrix: (Units=GPa)
#
#
# Indices 1 2 3 4 5 6 
#
# 1 133.3008 7.9387 28.0553 0.0000 -14.0879 0.0000
# 2 7.9387 32.6035 -5.5648 0.0000 -0.3579 0.0000
# 3 28.0553 -5.5648 39.9490 0.0000 0.9612 0.0000
# 4 0.0000 0.0000 0.0000 20.2411 0.0000 1.5875
# 5 -14.0879 -0.3579 0.9612 0.0000 18.6075 0.0000
# 6 0.0000 0.0000 0.0000 1.5875 0.0000 19.0636
#
#
#
# Elastic Compliance Matrix: (Units=1/GPa)
#
#
# Indices 1 2 3 4 5 6 
#
# 1 0.010247 -0.003757 -0.007914 0.000000 0.008094 0.000000
# 2 -0.003757 0.032799 0.007269 0.000000 -0.002589 0.000000
# 3 -0.007914 0.007269 0.031783 0.000000 -0.007494 0.000000
# 4 0.000000 0.000000 0.000000 0.049729 0.000000 -0.004141
# 5 0.008094 -0.002589 -0.007494 0.000000 0.060207 0.000000
# 6 0.000000 0.000000 0.000000 -0.004141 0.000000 0.052801
#
#
# Mechanical properties :
#
#
# Convention : Reuss Voigt Hill
#
# Bulk Modulus (GPa) = 15.14577 29.63463 22.39020
# Shear Modulus (GPa) = 18.63050 23.27738 20.95394
#
# Velocity S-wave (km/s) = 3.12107 3.48866 3.30997
# Velocity P-wave (km/s) = 4.57244 5.63226 5.12980
#
# Compressibility (1/GPa) = 0.06602504
#
# Stress axis : x y z
#
# Youngs Moduli (GPa) = 97.59260 30.48901 31.46359
#
# Poissons Ratio (x) = 0.11454 0.24901
# Poissons Ratio (y) = 0.36665 -0.22872
# Poissons Ratio (z) = 0.77236 -0.22164
#
# Static dielectric constant tensor:
#      x y z
#    x 1.731090 0.000000 -0.037410 
#    y 0.000000 1.688000 0.000000 
#    z -0.037410 0.000000 1.660670 
# 
# From -- ./inp_files/45343.got.cif
#   From: 2010.05.17/outbox.cif.g08.bks.cpg/sg11_23_cif.got.tgz:45343.got - 2010.06.03 12:22:45.
