data_PCOD9158950
_publ_section_title
;
Structure prediction by ZEFSAII (Michael W. Deem and Ramdas Pophale) SiO2 
 PCOD9158950
Probable space group: P 21/M
;
_chemical_formula_sum "Si O2"
_cell_formula_units_Z 28
_cell_length_a 8.050804
_cell_length_b 7.646460
_cell_length_c 27.082409
_cell_angle_alpha 90.000000
_cell_angle_beta 141.376037
_cell_angle_gamma 90.000000
_cell_volume 1040.675150
_symmetry_space_group_name_H-M "P 21/M"
_symmetry_group_IT_number 11
_symmetry_cell_setting 'monoclinic'
loop_
_space_group_symop_operation_xyz
x,y,z
-x,1/2+y,-z
-x,-y,-z
x,1/2-y,z
loop_
_atom_site_type_symbol
_atom_site_label
_atom_site_fract_x
_atom_site_fract_y
_atom_site_fract_z
Si Si1 0.474365 0.546843 0.769696
Si Si2 0.314849 0.454924 0.520703
Si Si3 0.102626 0.548757 0.372948
Si Si4 0.364578 0.042692 0.091029
Si Si5 0.523378 0.047517 0.338437
Si Si6 0.954563 0.960806 0.189761
Si Si7 0.797213 0.959436 0.049075
O O1 0.551418 0.750000 0.783766
O O2 0.634127 0.466809 0.853114
O O3 0.475367 0.462338 0.715659
O O4 0.158956 0.541664 0.708056
O O5 0.304582 0.250000 0.506944
O O6 0.113787 0.540601 0.435454
O O7 0.610579 0.525005 0.575950
O O8 0.302784 0.475575 0.576566
O O9 0.091782 0.750000 0.354050
O O10 0.315421 0.250000 0.082812
O O11 0.671008 0.020663 0.144403
O O12 0.194693 0.969367 0.005202
O O13 0.600460 0.250000 0.351220
O O14 0.209465 0.030695 0.277728
O O15 0.957686 0.750000 0.191760
O O16 0.972286 0.021116 0.136122
O O17 0.822514 0.750000 0.052073
O O18 0.500000 0.000000 0.000000
#
# Coordination Sequence:
#
# PCOD9158950 Si02
#       7
#     4   4   4   4   4   4   4
#     4  10  22  37  53  75 105 141 179 216 255 304
#     4  10  21  38  60  84 107 133 169 212 257 307
#     4  10  21  37  59  84 107 133 168 211 259 309
#     4   9  17  33  56  78 102 136 176 218 262 307
#     4  11  23  37  52  74 106 143 179 213 255 307
#     4  10  19  32  52  79 107 135 172 218 265 312
#     4   8  15  28  49  76 103 131 168 215 263 308
#
# _framework density 26.905612999999999
#
# number of rings (size 3 to 8) (size 9 to 14) (size 15 to 20)
#    0.000    2.286    0.000    2.571    0.000    6.857 
#    0.000    0.714    0.000    0.000    0.000    0.000 
#    0.000    0.000    0.000    0.000    0.000    0.000 
#
# Total GULP energy -156657.275139 kJ/mol
# GULP energy per Si atom -5594.902684 kJ/mol
# Density = 2.684437 g / cm^3
# Si number density = 26.905613 Si / 1000 Ang^3
#
#
#
# Elastic Constant Matrix: (Units=GPa)
#
#
# Indices 1 2 3 4 5 6 
#
# 1 92.8251 1.4244 41.2116 0.0000 -26.9373 0.0000
# 2 1.4244 96.6468 3.9290 0.0000 0.5517 0.0000
# 3 41.2116 3.9290 217.0668 0.0000 -28.6027 0.0000
# 4 0.0000 0.0000 0.0000 15.6760 0.0000 -2.1040
# 5 -26.9373 0.5517 -28.6027 0.0000 63.0084 0.0000
# 6 0.0000 0.0000 0.0000 -2.1040 0.0000 16.2865
#
#
#
# Elastic Compliance Matrix: (Units=1/GPa)
#
#
# Indices 1 2 3 4 5 6 
#
# 1 0.012957 -0.000143 -0.001837 0.000000 0.004706 0.000000
# 2 -0.000143 0.010358 -0.000192 0.000000 -0.000239 0.000000
# 3 -0.001837 -0.000192 0.005165 0.000000 0.001561 0.000000
# 4 0.000000 0.000000 0.000000 0.064917 0.000000 0.008386
# 5 0.004706 -0.000239 0.001561 0.000000 0.018594 0.000000
# 6 0.000000 0.000000 0.000000 0.008386 0.000000 0.062484
#
#
# Mechanical properties :
#
#
# Convention : Reuss Voigt Hill
#
# Bulk Modulus (GPa) = 41.43281 55.51874 48.47578
# Shear Modulus (GPa) = 26.75744 42.99241 34.87492
#
# Velocity S-wave (km/s) = 3.15698 4.00171 3.60418
# Velocity P-wave (km/s) = 5.35924 6.48313 5.94779
#
# Compressibility (1/GPa) = 0.02413546
#
# Stress axis : x y z
#
# Youngs Moduli (GPa) = 77.18098 96.54163 193.61785
#
# Poissons Ratio (x) = 0.01382 0.35570
# Poissons Ratio (y) = 0.01105 0.03714
# Poissons Ratio (z) = 0.14179 0.01852
#
# Static dielectric constant tensor:
#      x y z
#    x 2.282960 0.000000 -0.038150 
#    y 0.000000 1.966270 0.000000 
#    z -0.038150 0.000000 2.078970 
# 
# From -- ./inp_files/24072.got.cif
#   From: 2010.05.17/outbox.cif.g08.bks.cpg/sg11_13_cif.got.tgz:24072.got - 2010.06.03 12:22:45.
