data_PCOD9158674
_publ_section_title
;
Structure prediction by ZEFSAII (Michael W. Deem and Ramdas Pophale) SiO2 
 PCOD9158674
Probable space group: P 21/M
;
_chemical_formula_sum "Si O2"
_cell_formula_units_Z 32
_cell_length_a 14.508702
_cell_length_b 19.327730
_cell_length_c 9.337549
_cell_angle_alpha 90.000000
_cell_angle_beta 136.597061
_cell_angle_gamma 90.000000
_cell_volume 1799.193673
_symmetry_space_group_name_H-M "P 21/M"
_symmetry_group_IT_number 11
_symmetry_cell_setting 'monoclinic'
loop_
_space_group_symop_operation_xyz
x,y,z
-x,1/2+y,-z
-x,-y,-z
x,1/2-y,z
loop_
_atom_site_type_symbol
_atom_site_label
_atom_site_fract_x
_atom_site_fract_y
_atom_site_fract_z
Si Si1 0.612909 0.014571 0.388836
Si Si2 0.654411 0.385256 0.174591
Si Si3 0.319675 0.017290 0.007806
Si Si4 0.105046 0.171248 0.355476
Si Si5 0.057766 0.828459 0.546228
Si Si6 0.975390 0.535173 0.318969
Si Si7 0.878414 0.528867 0.770276
Si Si8 0.637589 0.617456 0.204333
O O1 0.644029 0.080157 0.320795
O O2 0.456160 0.019798 0.253776
O O3 0.622535 0.947095 0.296778
O O4 0.729494 0.999632 0.635354
O O5 0.783613 0.338485 0.296656
O O6 0.671826 0.449583 0.084076
O O7 0.510539 0.351229 0.979290
O O8 0.171935 0.018267 0.907352
O O9 0.324033 0.082232 0.903081
O O10 0.088919 0.250000 0.285392
O O11 0.989745 0.156069 0.344131
O O12 0.110937 0.111425 0.242055
O O13 0.244120 0.164044 0.601023
O O14 0.017175 0.750000 0.471352
O O15 0.991319 0.883789 0.365550
O O16 0.089851 0.504307 0.349005
O O17 0.000000 0.500000 0.500000
O O18 0.000000 0.500000 0.000000
#
# Coordination Sequence:
#
# PCOD9158674 Si02
#       8
#     4   4   4   4   4   4   4   4
#     4   8  15  27  45  69  97 123 165 210 242 288
#     4   9  14  25  43  69 102 128 152 201 247 299
#     4   9  14  24  47  72  93 128 162 203 251 289
#     4  10  19  32  48  73 104 130 161 211 259 302
#     4  11  20  28  45  75 105 128 161 205 251 300
#     4  12  17  32  54  73  97 131 169 205 256 297
#     4  11  21  34  53  76  97 135 180 213 249 304
#     4   8  14  24  44  72  97 125 160 192 250 302
#
# _framework density 17.785744999999999
#
# number of rings (size 3 to 8) (size 9 to 14) (size 15 to 20)
#    0.000    2.250    5.000    2.250    0.000    0.500 
#    0.000    1.250    0.000    0.000    0.000    0.000 
#    0.000    0.000    0.000    0.000    0.000    0.000 
#
# Total GULP energy -178195.810051 kJ/mol
# GULP energy per Si atom -5568.619064 kJ/mol
# Density = 1.774526 g / cm^3
# Si number density = 17.785745 Si / 1000 Ang^3
#
#
#
# Elastic Constant Matrix: (Units=GPa)
#
#
# Indices 1 2 3 4 5 6 
#
# 1 30.1455 2.1027 19.5841 0.0000 22.7064 0.0000
# 2 2.1027 76.3677 20.7510 0.0000 0.7422 0.0000
# 3 19.5841 20.7510 106.7718 0.0000 25.0269 0.0000
# 4 0.0000 0.0000 0.0000 15.2752 0.0000 4.5441
# 5 22.7064 0.7422 25.0269 0.0000 32.1977 0.0000
# 6 0.0000 0.0000 0.0000 4.5441 0.0000 13.4003
#
#
#
# Elastic Compliance Matrix: (Units=1/GPa)
#
#
# Indices 1 2 3 4 5 6 
#
# 1 0.071064 -0.001122 -0.001315 0.000000 -0.049068 0.000000
# 2 -0.001122 0.013967 -0.003202 0.000000 0.002958 0.000000
# 3 -0.001315 -0.003202 0.012221 0.000000 -0.008498 0.000000
# 4 0.000000 0.000000 0.000000 0.072811 0.000000 -0.024690
# 5 -0.049068 0.002958 -0.008498 0.000000 0.072199 0.000000
# 6 0.000000 0.000000 0.000000 -0.024690 0.000000 0.082998
#
#
# Mechanical properties :
#
#
# Convention : Reuss Voigt Hill
#
# Bulk Modulus (GPa) = 11.63155 33.12894 22.38025
# Shear Modulus (GPa) = 13.69126 23.56444 18.62785
#
# Velocity S-wave (km/s) = 2.77752 3.64387 3.23979
# Velocity P-wave (km/s) = 4.10367 6.03083 5.15805
#
# Compressibility (1/GPa) = 0.08597303
#
# Stress axis : x y z
#
# Youngs Moduli (GPa) = 14.07176 71.59860 81.82481
#
# Poissons Ratio (x) = 0.08036 0.10762
# Poissons Ratio (y) = 0.01579 0.26200
# Poissons Ratio (z) = 0.01851 0.22926
#
# Static dielectric constant tensor:
#      x y z
#    x 1.623220 0.000000 0.023420 
#    y 0.000000 1.598280 0.000000 
#    z 0.023420 0.000000 1.673360 
# 
# From -- ./inp_files/41868.got.cif
#   From: 2010.05.17/outbox.cif.g08.bks.cpg/sg11_21_cif.got.tgz:41868.got - 2010.06.03 12:22:45.
