data_PCOD9158553
_publ_section_title
;
Structure prediction by ZEFSAII (Michael W. Deem and Ramdas Pophale) SiO2 
 PCOD9158553
Probable space group: P 21/M
;
_chemical_formula_sum "Si O2"
_cell_formula_units_Z 32
_cell_length_a 17.961892
_cell_length_b 8.029556
_cell_length_c 29.605168
_cell_angle_alpha 90.000000
_cell_angle_beta 23.212661
_cell_angle_gamma 90.000000
_cell_volume 1682.934336
_symmetry_space_group_name_H-M "P 21/M"
_symmetry_group_IT_number 11
_symmetry_cell_setting 'monoclinic'
loop_
_space_group_symop_operation_xyz
x,y,z
-x,1/2+y,-z
-x,-y,-z
x,1/2-y,z
loop_
_atom_site_type_symbol
_atom_site_label
_atom_site_fract_x
_atom_site_fract_y
_atom_site_fract_z
Si Si1 0.107060 0.453364 0.169046
Si Si2 0.548251 0.051816 0.280847
Si Si3 0.808350 0.950725 0.776033
Si Si4 0.775309 0.449778 0.473420
Si Si5 0.647366 0.548585 0.124150
Si Si6 0.051746 0.950351 0.920018
Si Si7 0.688112 0.049314 0.421367
Si Si8 0.550495 0.549801 0.082229
O O1 0.105116 0.250000 0.168928
O O2 0.184555 0.502476 0.175372
O O3 0.888071 0.506849 0.287943
O O4 0.255676 0.511813 0.048958
O O5 0.553767 0.250000 0.280111
O O6 0.734260 0.986355 0.204378
O O7 0.359419 0.994181 0.410364
O O8 0.570569 0.005328 0.215765
O O9 0.806602 0.750000 0.776806
O O10 0.008204 0.008615 0.643633
O O11 0.627476 0.008265 0.849458
O O12 0.782946 0.250000 0.466326
O O13 0.693487 0.509476 0.470636
O O14 0.647336 0.750000 0.125226
O O15 0.535999 0.490279 0.142033
O O16 0.866996 0.492556 0.996057
O O17 0.057333 0.750000 0.912567
O O18 0.000000 0.000000 0.000000
O O19 0.693519 0.250000 0.418998
O O20 0.500000 0.000000 0.500000
O O21 0.564139 0.750000 0.076363
#
# Coordination Sequence:
#
# PCOD9158553 Si02
#       8
#     4   4   4   4   4   4   4   4
#     4   8  16  32  52  73  99 132 164 193 238 300
#     4  10  19  31  51  76  97 124 167 211 241 274
#     4   9  18  34  53  71  95 128 163 201 246 292
#     4   9  19  35  52  70  97 135 169 195 239 299
#     4   9  18  32  48  69 101 134 159 191 243 301
#     4   8  15  28  45  66  92 122 155 190 232 281
#     4   9  18  33  52  75 105 136 164 197 237 285
#     4  10  19  31  51  76  98 125 162 202 245 292
#
# _framework density 19.014408
#
# number of rings (size 3 to 8) (size 9 to 14) (size 15 to 20)
#    0.000    3.000    0.000    2.250    0.000    3.000 
#    0.000    5.625    0.000    0.000    0.000    0.000 
#    0.000    0.000    0.000    0.000    0.000    0.000 
#
# Total GULP energy -178233.552714 kJ/mol
# GULP energy per Si atom -5569.798522 kJ/mol
# Density = 1.897113 g / cm^3
# Si number density = 19.014408 Si / 1000 Ang^3
#
#
#
# Elastic Constant Matrix: (Units=GPa)
#
#
# Indices 1 2 3 4 5 6 
#
# 1 106.2012 8.4966 67.2569 0.0000 -16.9810 0.0000
# 2 8.4966 12.0744 10.0967 0.0000 0.4718 0.0000
# 3 67.2569 10.0967 134.7563 0.0000 1.3566 0.0000
# 4 0.0000 0.0000 0.0000 9.7529 0.0000 -5.7513
# 5 -16.9810 0.4718 1.3566 0.0000 20.8922 0.0000
# 6 0.0000 0.0000 0.0000 -5.7513 0.0000 22.6457
#
#
#
# Elastic Compliance Matrix: (Units=1/GPa)
#
#
# Indices 1 2 3 4 5 6 
#
# 1 0.017717 -0.005906 -0.008552 0.000000 0.015089 0.000000
# 2 -0.005906 0.090375 -0.003757 0.000000 -0.006597 0.000000
# 3 -0.008552 -0.003757 0.012048 0.000000 -0.007649 0.000000
# 4 0.000000 0.000000 0.000000 0.120595 0.000000 0.030628
# 5 0.015089 -0.006597 -0.007649 0.000000 0.060775 0.000000
# 6 0.000000 0.000000 0.000000 0.030628 0.000000 0.051937
#
#
# Mechanical properties :
#
#
# Convention : Reuss Voigt Hill
#
# Bulk Modulus (GPa) = 11.94601 47.19247 29.56924
# Shear Modulus (GPa) = 11.96799 21.80359 16.88579
#
# Velocity S-wave (km/s) = 2.51154 3.38995 2.98325
# Velocity P-wave (km/s) = 3.83493 6.34000 5.23938
#
# Compressibility (1/GPa) = 0.08370993
#
# Stress axis : x y z
#
# Youngs Moduli (GPa) = 56.44207 11.06495 83.00338
#
# Poissons Ratio (x) = 0.06535 0.70986
# Poissons Ratio (y) = 0.33333 0.31188
# Poissons Ratio (z) = 0.48270 0.04158
#
# Static dielectric constant tensor:
#      x y z
#    x 1.666350 0.000000 -0.016880 
#    y 0.000000 1.686330 0.000000 
#    z -0.016880 0.000000 1.671880 
# 
# From -- ./inp_files/51418.got.cif
#   From: 2010.05.17/outbox.cif.g08.bks.cpg/sg11_26_cif.got.tgz:51418.got - 2010.06.03 12:22:45.
