data_PCOD9158247
_publ_section_title
;
Structure prediction by ZEFSAII (Michael W. Deem and Ramdas Pophale) SiO2 
 PCOD9158247
Probable space group: P 21/M
;
_chemical_formula_sum "Si O2"
_cell_formula_units_Z 32
_cell_length_a 16.206735
_cell_length_b 7.575917
_cell_length_c 28.266726
_cell_angle_alpha 90.000000
_cell_angle_beta 28.258041
_cell_angle_gamma 90.000000
_cell_volume 1643.138654
_symmetry_space_group_name_H-M "P 21/M"
_symmetry_group_IT_number 11
_symmetry_cell_setting 'monoclinic'
loop_
_space_group_symop_operation_xyz
x,y,z
-x,1/2+y,-z
-x,-y,-z
x,1/2-y,z
loop_
_atom_site_type_symbol
_atom_site_label
_atom_site_fract_x
_atom_site_fract_y
_atom_site_fract_z
Si Si1 0.195541 0.037330 0.622743
Si Si2 0.200059 0.536293 0.176264
Si Si3 0.446950 0.032600 0.411588
Si Si4 0.437032 0.962995 0.142731
Si Si5 0.808175 0.459243 0.266040
Si Si6 0.831555 0.540643 0.639363
Si Si7 0.217758 0.044567 0.441360
Si Si8 0.803844 0.957479 0.930899
O O1 0.264413 0.250000 0.412591
O O2 0.332840 0.976173 0.514537
O O3 0.997483 0.980563 0.711445
O O4 0.233630 0.981564 0.657173
O O5 0.203472 0.750000 0.173687
O O6 0.335935 0.473807 0.146818
O O7 0.235473 0.473349 0.105261
O O8 0.445627 0.250000 0.412269
O O9 0.645327 0.972515 0.318361
O O10 0.350661 0.970748 0.412745
O O11 0.444674 0.750000 0.135604
O O12 0.320292 0.006489 0.246832
O O13 0.635290 0.030690 0.042873
O O14 0.817764 0.250000 0.252412
O O15 0.002343 0.534142 0.159437
O O16 0.858073 0.750000 0.621907
O O17 0.786973 0.468902 0.609399
O O18 0.018799 0.465515 0.560330
O O19 0.197002 0.250000 0.621408
O O20 0.815125 0.750000 0.936655
#
# Coordination Sequence:
#
# PCOD9158247 Si02
#       8
#     4   4   4   4   4   4   4   4
#     4   9  16  26  41  63  89 117 149 181 219 266
#     4   9  17  28  43  63  88 121 156 186 221 269
#     4   9  16  28  48  67  86 119 155 181 213 266
#     4  10  19  31  47  65  90 125 156 182 222 273
#     4   9  17  29  44  64  90 119 153 189 219 251
#     4  10  20  32  49  73  94 113 143 185 228 268
#     4   9  18  34  52  69  92 119 145 177 223 277
#     4   9  18  30  44  65  92 121 154 192 227 256
#
# _framework density 19.474923
#
# number of rings (size 3 to 8) (size 9 to 14) (size 15 to 20)
#    0.000    2.750    0.000    1.875    0.000    3.500 
#    0.000    3.750    0.000    0.750    0.000    0.000 
#    0.000    0.000    0.000    0.000    0.000    0.375 
#
# Total GULP energy -178525.979643 kJ/mol
# GULP energy per Si atom -5578.936864 kJ/mol
# Density = 1.943060 g / cm^3
# Si number density = 19.474923 Si / 1000 Ang^3
#
#
#
# Elastic Constant Matrix: (Units=GPa)
#
#
# Indices 1 2 3 4 5 6 
#
# 1 118.5333 -1.1036 65.9125 0.0000 -34.5905 0.0000
# 2 -1.1036 42.5690 -6.9827 0.0000 -6.0676 0.0000
# 3 65.9125 -6.9827 112.9551 0.0000 -16.3173 0.0000
# 4 0.0000 0.0000 0.0000 12.1392 0.0000 6.4338
# 5 -34.5905 -6.0676 -16.3173 0.0000 20.0823 0.0000
# 6 0.0000 0.0000 0.0000 6.4338 0.0000 4.7384
#
#
#
# Elastic Compliance Matrix: (Units=1/GPa)
#
#
# Indices 1 2 3 4 5 6 
#
# 1 0.023065 0.004129 -0.008253 0.000000 0.034269 0.000000
# 2 0.004129 0.026176 0.001562 0.000000 0.016290 0.000000
# 3 -0.008253 0.001562 0.013347 0.000000 -0.002899 0.000000
# 4 0.000000 0.000000 0.000000 0.293832 0.000000 -0.398965
# 5 0.034269 0.016290 -0.002899 0.000000 0.111387 0.000000
# 6 0.000000 0.000000 0.000000 -0.398965 0.000000 0.752755
#
#
# Mechanical properties :
#
#
# Convention : Reuss Voigt Hill
#
# Bulk Modulus (GPa) = 17.40246 43.30108 30.35177
# Shear Modulus (GPa) = 4.01658 21.80740 12.91199
#
# Velocity S-wave (km/s) = 1.43768 3.34992 2.57768
# Velocity P-wave (km/s) = 3.42215 6.10288 4.94754
#
# Compressibility (1/GPa) = 0.05746313
#
# Stress axis : x y z
#
# Youngs Moduli (GPa) = 43.35656 38.20230 74.92423
#
# Poissons Ratio (x) = -0.15773 0.61836
# Poissons Ratio (y) = -0.17901 -0.11704
# Poissons Ratio (z) = 0.35783 -0.05968
#
# Static dielectric constant tensor:
#      x y z
#    x 1.675640 0.000000 -0.028590 
#    y 0.000000 1.724380 0.000000 
#    z -0.028590 0.000000 1.693380 
# 
# From -- ./inp_files/51665.got.cif
#   From: 2010.05.17/outbox.cif.g08.bks.cpg/sg11_26_cif.got.tgz:51665.got - 2010.06.03 12:22:45.
