data_PCOD9158285
_publ_section_title
;
Structure prediction by ZEFSAII (Michael W. Deem and Ramdas Pophale) SiO2 
 PCOD9158285
Probable space group: P 21/M
;
_chemical_formula_sum "Si O2"
_cell_formula_units_Z 32
_cell_length_a 9.710032
_cell_length_b 7.789689
_cell_length_c 21.563965
_cell_angle_alpha 90.000000
_cell_angle_beta 94.332908
_cell_angle_gamma 90.000000
_cell_volume 1626.396257
_symmetry_space_group_name_H-M "P 21/M"
_symmetry_group_IT_number 11
_symmetry_cell_setting 'monoclinic'
loop_
_space_group_symop_operation_xyz
x,y,z
-x,1/2+y,-z
-x,-y,-z
x,1/2-y,z
loop_
_atom_site_type_symbol
_atom_site_label
_atom_site_fract_x
_atom_site_fract_y
_atom_site_fract_z
Si Si1 0.286997 0.460161 0.037555
Si Si2 0.265830 0.450215 0.899356
Si Si3 0.251973 0.040344 0.238825
Si Si4 0.660823 0.454715 0.506671
Si Si5 0.522437 0.952951 0.844186
Si Si6 0.845243 0.955674 0.631600
Si Si7 0.050063 0.043297 0.119635
Si Si8 0.093266 0.543589 0.563069
O O1 0.289465 0.250000 0.035598
O O2 0.401613 0.519418 0.090831
O O3 0.140332 0.510391 0.063002
O O4 0.303610 0.525676 0.968430
O O5 0.296557 0.250000 0.902500
O O6 0.361006 0.521502 0.848031
O O7 0.103763 0.475036 0.884986
O O8 0.255042 0.250000 0.242603
O O9 0.397257 0.981325 0.213641
O O10 0.212156 0.975872 0.305349
O O11 0.137069 0.994596 0.183597
O O12 0.500000 0.500000 0.500000
O O13 0.670271 0.250000 0.505960
O O14 0.737629 0.513383 0.572064
O O15 0.754286 0.519630 0.451504
O O16 0.548400 0.750000 0.845300
O O17 0.858411 0.750000 0.638225
O O18 0.997347 0.021894 0.616091
O O19 0.043386 0.250000 0.118380
O O20 0.101671 0.750000 0.570134
O O21 0.000000 0.500000 0.500000
#
# Coordination Sequence:
#
# PCOD9158285 Si02
#       8
#     4   4   4   4   4   4   4   4
#     4   8  16  30  48  67  89 118 157 198 238 285
#     4  11  20  29  43  69  98 121 149 194 245 289
#     4   8  16  32  54  72  87 115 161 201 231 274
#     4  10  19  31  47  73 105 134 158 187 228 275
#     4   9  17  32  50  67  89 122 158 193 233 285
#     4   9  16  31  54  75  92 118 156 200 239 274
#     4   9  17  32  50  67  89 121 157 196 237 283
#     4   8  15  27  46  70  95 119 149 185 223 263
#
# _framework density 19.675401999999998
#
# number of rings (size 3 to 8) (size 9 to 14) (size 15 to 20)
#    0.000    3.000    0.000    3.000    0.000    0.500 
#    0.000    6.250    0.000    4.500    0.000    0.000 
#    0.000    0.000    0.000    0.000    0.000    0.000 
#
# Total GULP energy -178261.062353 kJ/mol
# GULP energy per Si atom -5570.658199 kJ/mol
# Density = 1.963062 g / cm^3
# Si number density = 19.675402 Si / 1000 Ang^3
#
#
#
# Elastic Constant Matrix: (Units=GPa)
#
#
# Indices 1 2 3 4 5 6 
#
# 1 131.4486 -0.5662 50.4653 0.0000 -46.3752 0.0000
# 2 -0.5662 22.9867 8.0836 0.0000 -5.9867 0.0000
# 3 50.4653 8.0836 103.6769 0.0000 -44.7672 0.0000
# 4 0.0000 0.0000 0.0000 10.6360 0.0000 2.3901
# 5 -46.3752 -5.9867 -44.7672 0.0000 30.9915 0.0000
# 6 0.0000 0.0000 0.0000 2.3901 0.0000 15.5920
#
#
#
# Elastic Compliance Matrix: (Units=1/GPa)
#
#
# Indices 1 2 3 4 5 6 
#
# 1 0.019729 0.008827 0.008484 0.000000 0.043483 0.000000
# 2 0.008827 0.049774 0.004459 0.000000 0.029264 0.000000
# 3 0.008484 0.004459 0.029292 0.000000 0.055869 0.000000
# 4 0.000000 0.000000 0.000000 0.097374 0.000000 -0.014926
# 5 0.043483 0.029264 0.055869 0.000000 0.183690 0.000000
# 6 0.000000 0.000000 0.000000 -0.014926 0.000000 0.066424
#
#
# Mechanical properties :
#
#
# Convention : Reuss Voigt Hill
#
# Bulk Modulus (GPa) = 7.02564 41.56418 24.29491
# Shear Modulus (GPa) = 11.10644 24.78586 17.94615
#
# Velocity S-wave (km/s) = 2.37846 3.55313 3.02339
# Velocity P-wave (km/s) = 3.33486 6.16472 4.95606
#
# Compressibility (1/GPa) = 0.14233570
#
# Stress axis : x y z
#
# Youngs Moduli (GPa) = 50.68638 20.09063 34.13895
#
# Poissons Ratio (x) = -0.17734 -0.28964
# Poissons Ratio (y) = -0.44741 -0.15221
# Poissons Ratio (z) = -0.43004 -0.08958
#
# Static dielectric constant tensor:
#      x y z
#    x 1.719610 0.000000 -0.052220 
#    y 0.000000 1.720310 0.000000 
#    z -0.052220 0.000000 1.694510 
# 
# From -- ./inp_files/67797.got.cif
#   From: 2010.05.17/outbox.cif.g08.bks.cpg/sg11_34_cif.got.tgz:67797.got - 2010.06.03 12:22:45.
