data_PCOD9158643
_publ_section_title
;
Structure prediction by ZEFSAII (Michael W. Deem and Ramdas Pophale) SiO2 
 PCOD9158643
Probable space group: P 21/M
;
_chemical_formula_sum "Si O2"
_cell_formula_units_Z 20
_cell_length_a 9.788765
_cell_length_b 14.065319
_cell_length_c 7.247963
_cell_angle_alpha 90.000000
_cell_angle_beta 48.375036
_cell_angle_gamma 90.000000
_cell_volume 745.950027
_symmetry_space_group_name_H-M "P 21/M"
_symmetry_group_IT_number 11
_symmetry_cell_setting 'monoclinic'
loop_
_space_group_symop_operation_xyz
x,y,z
-x,1/2+y,-z
-x,-y,-z
x,1/2-y,z
loop_
_atom_site_type_symbol
_atom_site_label
_atom_site_fract_x
_atom_site_fract_y
_atom_site_fract_z
Si Si1 0.205147 0.351865 0.669052
Si Si2 0.878373 0.607319 0.830243
Si Si3 0.279121 0.574796 0.547809
Si Si4 0.798465 0.386648 0.961487
Si Si5 0.516604 0.887201 0.017511
O O1 0.300477 0.250000 0.547771
O O2 0.285875 0.457822 0.548395
O O3 0.161630 0.356249 0.927903
O O4 0.002428 0.347533 0.762948
O O5 0.095180 0.609448 0.606747
O O6 0.832846 0.496222 0.880009
O O7 0.726378 0.645108 0.824989
O O8 0.261884 0.611488 0.770808
O O9 0.446563 0.620588 0.290340
O O10 0.634890 0.348423 0.984462
O O11 0.500000 0.000000 0.000000
#
# Coordination Sequence:
#
# PCOD9158643 Si02
#       5
#     4   4   4   4   4
#     4   9  17  32  54  78 109 145 176 213 267 324
#     4   8  17  32  52  78 102 132 176 218 256 306
#     4   9  18  35  56  78 106 139 178 220 266 310
#     4   8  17  32  52  78 102 132 176 218 256 306
#     4  10  19  31  56  84 102 128 176 229 265 306
#
# _framework density 26.811450000000001
#
# number of rings (size 3 to 8) (size 9 to 14) (size 15 to 20)
#    0.000    3.200    0.000    2.400    0.000   14.400 
#    0.000    3.000    0.000   60.000    0.000    0.000 
#    0.000    0.000    0.000    0.000    0.000    0.000 
#
# Total GULP energy -111786.051530 kJ/mol
# GULP energy per Si atom -5589.302577 kJ/mol
# Density = 2.675043 g / cm^3
# Si number density = 26.811450 Si / 1000 Ang^3
#
#
#
# Elastic Constant Matrix: (Units=GPa)
#
#
# Indices 1 2 3 4 5 6 
#
# 1 141.8294 23.2051 14.6374 0.0000 -22.8648 0.0000
# 2 23.2051 141.4036 13.4406 0.0000 -2.5074 0.0000
# 3 14.6374 13.4406 106.2840 0.0000 -6.1732 0.0000
# 4 0.0000 0.0000 0.0000 -14.3332 0.0000 -9.3337
# 5 -22.8648 -2.5074 -6.1732 0.0000 30.6068 0.0000
# 6 0.0000 0.0000 0.0000 -9.3337 0.0000 -30.5427
#
#
#
# Elastic Compliance Matrix: (Units=1/GPa)
#
#
# Indices 1 2 3 4 5 6 
#
# 1 0.008271 -0.001191 -0.000643 0.000000 0.005952 0.000000
# 2 -0.001191 0.007334 -0.000790 0.000000 -0.000448 0.000000
# 3 -0.000643 -0.000790 0.009679 0.000000 0.001407 0.000000
# 4 0.000000 0.000000 0.000000 -0.087102 0.000000 0.026618
# 5 0.005952 -0.000448 0.001407 0.000000 0.037366 0.000000
# 6 0.000000 0.000000 0.000000 0.026618 0.000000 -0.040875
#
#
# Mechanical properties :
#
#
# Convention : Reuss Voigt Hill
#
# Bulk Modulus (GPa) = 49.90397 54.67592 52.28994
# Shear Modulus (GPa) = -93.63239 19.69510 -36.96865
#
# Velocity S-wave (km/s) = -5.91594 2.71325 -3.71730
# Velocity P-wave (km/s) = 5.29255 5.50024 1.05866
#
# Compressibility (1/GPa) = 0.02003849
#
# Stress axis : x y z
#
# Youngs Moduli (GPa) = 120.89818 136.34260 103.31782
#
# Poissons Ratio (x) = 0.16235 0.06642
# Poissons Ratio (y) = 0.14396 0.08157
# Poissons Ratio (z) = 0.07772 0.10765
#
# Static dielectric constant tensor:
#      x y z
#    x 2.121910 0.000000 0.007810 
#    y 0.000000 2.060000 0.000000 
#    z 0.007810 0.000000 2.064750 
# 
# From -- ./inp_files/17341.got.cif
#   From: 2010.05.17/outbox.cif.g08.bks.cpg/sg11_9_cif.got.tgz:17341.got - 2010.06.03 12:22:45.
