data_PCOD9158656
_publ_section_title
;
Structure prediction by ZEFSAII (Michael W. Deem and Ramdas Pophale) SiO2 
 PCOD9158656
Probable space group: P 21/M
;
_chemical_formula_sum "Si O2"
_cell_formula_units_Z 24
_cell_length_a 20.833454
_cell_length_b 8.884282
_cell_length_c 12.268204
_cell_angle_alpha 90.000000
_cell_angle_beta 39.499303
_cell_angle_gamma 90.000000
_cell_volume 1444.337604
_symmetry_space_group_name_H-M "P 21/M"
_symmetry_group_IT_number 11
_symmetry_cell_setting 'monoclinic'
loop_
_space_group_symop_operation_xyz
x,y,z
-x,1/2+y,-z
-x,-y,-z
x,1/2-y,z
loop_
_atom_site_type_symbol
_atom_site_label
_atom_site_fract_x
_atom_site_fract_y
_atom_site_fract_z
Si Si1 0.728322 0.569657 0.682503
Si Si2 0.110388 0.430154 0.349977
Si Si3 0.390133 0.931352 0.614948
Si Si4 0.573201 0.422937 0.040379
Si Si5 0.741621 0.075989 0.008131
Si Si6 0.358375 0.432205 0.422592
O O1 0.730162 0.750000 0.680829
O O2 0.820952 0.516934 0.636728
O O3 0.723085 0.523263 0.562929
O O4 0.626268 0.518404 0.877195
O O5 0.104596 0.250000 0.360909
O O6 0.169701 0.481460 0.163591
O O7 0.000000 0.500000 0.500000
O O8 0.398733 0.750000 0.606369
O O9 0.500000 0.000000 0.500000
O O10 0.354728 0.988740 0.543572
O O11 0.307801 0.976266 0.814177
O O12 0.563975 0.250000 0.015112
O O13 0.466067 0.472164 0.227142
O O14 0.650095 0.426623 0.041274
O O15 0.774550 0.250000 0.976560
O O16 0.356557 0.250000 0.439542
#
# Coordination Sequence:
#
# PCOD9158656 Si02
#       6
#     4   4   4   4   4   4
#     4   9  19  32  48  72 101 130 167 210 255 305
#     4  10  20  35  56  80 100 127 165 212 265 311
#     4  11  21  33  50  73 105 143 179 209 243 293
#     4   9  16  28  46  68 100 136 167 201 246 295
#     4   9  18  33  50  73 103 134 168 210 251 292
#     4  10  19  32  47  69 104 140 170 206 248 295
#
# _framework density 16.616612
#
# number of rings (size 3 to 8) (size 9 to 14) (size 15 to 20)
#    0.000    2.333    1.667    1.500    0.000    3.333 
#    0.000    0.000    0.000    1.000    0.000    0.000 
#    0.000    0.000    0.000    0.000    0.000    0.000 
#
# Total GULP energy -133791.896424 kJ/mol
# GULP energy per Si atom -5574.662351 kJ/mol
# Density = 1.657879 g / cm^3
# Si number density = 16.616612 Si / 1000 Ang^3
#
#
#
# Elastic Constant Matrix: (Units=GPa)
#
#
# Indices 1 2 3 4 5 6 
#
# 1 93.0425 36.3176 78.0468 0.0000 20.6109 0.0000
# 2 36.3176 29.3720 41.0851 0.0000 1.4413 0.0000
# 3 78.0468 41.0851 116.1928 0.0000 8.1516 0.0000
# 4 0.0000 0.0000 0.0000 29.4120 0.0000 4.0897
# 5 20.6109 1.4413 8.1516 0.0000 30.5752 0.0000
# 6 0.0000 0.0000 0.0000 4.0897 0.0000 20.9794
#
#
#
# Elastic Compliance Matrix: (Units=1/GPa)
#
#
# Indices 1 2 3 4 5 6 
#
# 1 0.037117 -0.023733 -0.015146 0.000000 -0.019864 0.000000
# 2 -0.023733 0.082855 -0.014475 0.000000 0.015952 0.000000
# 3 -0.015146 -0.014475 0.023575 0.000000 0.004607 0.000000
# 4 0.000000 0.000000 0.000000 0.034947 0.000000 -0.006813
# 5 -0.019864 0.015952 0.004607 0.000000 0.044116 0.000000
# 6 0.000000 0.000000 0.000000 -0.006813 0.000000 0.048994
#
#
# Mechanical properties :
#
#
# Convention : Reuss Voigt Hill
#
# Bulk Modulus (GPa) = 27.14473 61.05625 44.10049
# Shear Modulus (GPa) = 12.80110 21.73717 17.26914
#
# Velocity S-wave (km/s) = 2.77858 3.62077 3.22727
# Velocity P-wave (km/s) = 5.16385 7.36912 6.36275
#
# Compressibility (1/GPa) = 0.03683956
#
# Stress axis : x y z
#
# Youngs Moduli (GPa) = 26.94214 12.06921 42.41803
#
# Poissons Ratio (x) = 0.28644 0.64246
# Poissons Ratio (y) = 0.63942 0.61400
# Poissons Ratio (z) = 0.40806 0.17470
#
# Static dielectric constant tensor:
#      x y z
#    x 1.588520 0.000000 0.014350 
#    y 0.000000 1.566370 0.000000 
#    z 0.014350 0.000000 1.534940 
# 
# From -- ./inp_files/36976.got.cif
#   From: 2010.05.17/outbox.cif.g08.bks.cpg/sg11_19_cif.got.tgz:36976.got - 2010.06.03 12:22:45.
