data_PCOD9158488
_publ_section_title
;
Structure prediction by ZEFSAII (Michael W. Deem and Ramdas Pophale) SiO2 
 PCOD9158488
Probable space group: P 21/M
;
_chemical_formula_sum "Si O2"
_cell_formula_units_Z 32
_cell_length_a 15.230557
_cell_length_b 8.757014
_cell_length_c 23.616611
_cell_angle_alpha 90.000000
_cell_angle_beta 140.045512
_cell_angle_gamma 90.000000
_cell_volume 2022.765074
_symmetry_space_group_name_H-M "P 21/M"
_symmetry_group_IT_number 11
_symmetry_cell_setting 'monoclinic'
loop_
_space_group_symop_operation_xyz
x,y,z
-x,1/2+y,-z
-x,-y,-z
x,1/2-y,z
loop_
_atom_site_type_symbol
_atom_site_label
_atom_site_fract_x
_atom_site_fract_y
_atom_site_fract_z
Si Si1 0.286591 0.431412 0.368028
Si Si2 0.541382 0.068664 0.111683
Si Si3 0.436377 0.932892 0.550844
Si Si4 0.011923 0.931584 0.261871
Si Si5 0.003311 0.567450 0.619942
Si Si6 0.282286 0.068471 0.706932
Si Si7 0.295080 0.432572 0.912398
Si Si8 0.739682 0.432991 0.427589
O O1 0.266881 0.250000 0.358046
O O2 0.404807 0.471139 0.381234
O O3 0.349621 0.482410 0.459632
O O4 0.141766 0.513135 0.290543
O O5 0.551295 0.250000 0.125673
O O6 0.590274 0.981967 0.191487
O O7 0.642724 0.019908 0.110751
O O8 0.390487 0.031275 0.013257
O O9 0.421195 0.750000 0.533908
O O10 0.374853 0.967740 0.581621
O O11 0.020750 0.750000 0.275490
O O12 0.864969 0.966258 0.161582
O O13 0.016064 0.012231 0.325149
O O14 0.999760 0.750000 0.615446
O O15 0.147737 0.506324 0.668539
O O16 0.882092 0.497662 0.522181
O O17 0.267069 0.250000 0.700090
O O18 0.292972 0.007176 0.648610
O O19 0.309621 0.250000 0.908865
O O20 0.750263 0.250000 0.426957
#
# Coordination Sequence:
#
# PCOD9158488 Si02
#       8
#     4   4   4   4   4   4   4   4
#     4  10  19  31  50  75 101 130 166 206 249 300
#     4  10  19  33  52  74  97 129 170 210 250 295
#     4   9  19  34  51  71  98 131 167 209 254 295
#     4  11  20  32  50  75 105 138 166 200 250 301
#     4  12  23  35  50  73 101 135 175 212 243 290
#     4  12  24  37  51  71 101 137 172 210 251 298
#     4   9  19  33  51  73 101 131 165 207 252 299
#     4  11  22  37  54  72  98 135 174 212 250 294
#
# _framework density 15.819929
#
# number of rings (size 3 to 8) (size 9 to 14) (size 15 to 20)
#    0.000    1.500    2.500    4.125    0.000    2.000 
#    0.000    0.000    0.000    0.000    0.000    0.875 
#    0.000    0.000    0.000    0.000    0.000    0.000 
#
# Total GULP energy -178702.614264 kJ/mol
# GULP energy per Si atom -5584.456696 kJ/mol
# Density = 1.578392 g / cm^3
# Si number density = 15.819929 Si / 1000 Ang^3
#
#
#
# Elastic Constant Matrix: (Units=GPa)
#
#
# Indices 1 2 3 4 5 6 
#
# 1 59.7539 33.2329 46.6269 0.0000 9.3315 0.0000
# 2 33.2329 63.5516 42.5671 0.0000 5.6565 0.0000
# 3 46.6269 42.5671 112.3227 0.0000 9.9212 0.0000
# 4 0.0000 0.0000 0.0000 23.4206 0.0000 1.0063
# 5 9.3315 5.6565 9.9212 0.0000 23.3283 0.0000
# 6 0.0000 0.0000 0.0000 1.0063 0.0000 23.2179
#
#
#
# Elastic Compliance Matrix: (Units=1/GPa)
#
#
# Indices 1 2 3 4 5 6 
#
# 1 0.029113 -0.009316 -0.008027 0.000000 -0.005973 0.000000
# 2 -0.009316 0.024141 -0.005292 0.000000 0.000124 0.000000
# 3 -0.008027 -0.005292 0.014384 0.000000 -0.001623 0.000000
# 4 0.000000 0.000000 0.000000 0.042777 0.000000 -0.001854
# 5 -0.005973 0.000124 -0.001623 0.000000 0.045916 0.000000
# 6 0.000000 0.000000 0.000000 -0.001854 0.000000 0.043151
#
#
# Mechanical properties :
#
#
# Convention : Reuss Voigt Hill
#
# Bulk Modulus (GPa) = 44.70887 53.38687 49.04787
# Shear Modulus (GPa) = 19.82495 21.54011 20.68253
#
# Velocity S-wave (km/s) = 3.54384 3.69396 3.61968
# Velocity P-wave (km/s) = 6.71324 7.21205 6.96711
#
# Compressibility (1/GPa) = 0.02236693
#
# Stress axis : x y z
#
# Youngs Moduli (GPa) = 34.34908 41.42410 69.52055
#
# Poissons Ratio (x) = 0.38589 0.55806
# Poissons Ratio (y) = 0.31998 0.36793
# Poissons Ratio (z) = 0.27573 0.21923
#
# Static dielectric constant tensor:
#      x y z
#    x 1.519530 0.000000 0.019750 
#    y 0.000000 1.529530 0.000000 
#    z 0.019750 0.000000 1.522850 
# 
# From -- ./inp_files/51384.got.cif
#   From: 2010.05.17/outbox.cif.g08.bks.cpg/sg11_26_cif.got.tgz:51384.got - 2010.06.03 12:22:45.
