data_PCOD9158579
_publ_section_title
;
Structure prediction by ZEFSAII (Michael W. Deem and Ramdas Pophale) SiO2 
 PCOD9158579
Probable space group: P 21/M
;
_chemical_formula_sum "Si O2"
_cell_formula_units_Z 28
_cell_length_a 12.956955
_cell_length_b 8.579850
_cell_length_c 15.509983
_cell_angle_alpha 90.000000
_cell_angle_beta 74.110675
_cell_angle_gamma 90.000000
_cell_volume 1658.346503
_symmetry_space_group_name_H-M "P 21/M"
_symmetry_group_IT_number 11
_symmetry_cell_setting 'monoclinic'
loop_
_space_group_symop_operation_xyz
x,y,z
-x,1/2+y,-z
-x,-y,-z
x,1/2-y,z
loop_
_atom_site_type_symbol
_atom_site_label
_atom_site_fract_x
_atom_site_fract_y
_atom_site_fract_z
Si Si1 0.154873 0.563842 0.899957
Si Si2 0.249048 0.438087 0.407665
Si Si3 0.702033 0.563591 0.278712
Si Si4 0.867566 0.560223 0.391053
Si Si5 0.486679 0.436809 0.406203
Si Si6 0.107988 0.938091 0.287849
Si Si7 0.923767 0.438282 0.897911
O O1 0.162913 0.750000 0.892651
O O2 0.249377 0.488150 0.823435
O O3 0.041646 0.509540 0.885066
O O4 0.146908 0.518639 0.002645
O O5 0.247419 0.250000 0.407671
O O6 0.178376 0.490719 0.506222
O O7 0.371628 0.488292 0.395135
O O8 0.196273 0.497920 0.332435
O O9 0.695907 0.750000 0.284210
O O10 0.786587 0.511242 0.333576
O O11 0.586610 0.494208 0.327216
O O12 0.867967 0.750000 0.390178
O O13 0.989037 0.509332 0.345234
O O14 0.500000 0.500000 0.500000
O O15 0.486592 0.250000 0.409927
O O16 0.109714 0.750000 0.291088
O O17 0.121027 0.984473 0.184925
O O18 0.936162 0.250000 0.895512
#
# Coordination Sequence:
#
# PCOD9158579 Si02
#       7
#     4   4   4   4   4   4   4
#     4  10  19  31  51  81 108 136 176 218 264 319
#     4  10  21  36  51  73 107 142 174 216 262 305
#     4  11  20  35  56  77 108 142 174 219 269 314
#     4   9  17  32  51  73 105 141 169 203 258 308
#     4  11  22  37  56  78 105 139 180 223 264 308
#     4  10  19  33  53  76 105 143 178 210 255 316
#     4   9  18  33  52  75 109 143 172 215 267 313
#
# _framework density 16.884288000000002
#
# number of rings (size 3 to 8) (size 9 to 14) (size 15 to 20)
#    0.000    2.000    2.857    1.714    0.000    2.286 
#    0.000    0.000    0.000    0.857    0.000    0.000 
#    0.000    0.000    0.000    0.000    0.000    0.000 
#
# Total GULP energy -156269.161575 kJ/mol
# GULP energy per Si atom -5581.041485 kJ/mol
# Density = 1.684586 g / cm^3
# Si number density = 16.884288 Si / 1000 Ang^3
#
#
#
# Elastic Constant Matrix: (Units=GPa)
#
#
# Indices 1 2 3 4 5 6 
#
# 1 132.1316 26.6844 88.6230 0.0000 10.4396 0.0000
# 2 26.6844 21.5801 32.5002 0.0000 0.2423 0.0000
# 3 88.6230 32.5002 156.2678 0.0000 2.9283 0.0000
# 4 0.0000 0.0000 0.0000 24.5494 0.0000 0.1617
# 5 10.4396 0.2423 2.9283 0.0000 24.7084 0.0000
# 6 0.0000 0.0000 0.0000 0.1617 0.0000 26.0856
#
#
#
# Elastic Compliance Matrix: (Units=1/GPa)
#
#
# Indices 1 2 3 4 5 6 
#
# 1 0.013513 -0.007647 -0.005981 0.000000 -0.004926 0.000000
# 2 -0.007647 0.071825 -0.010672 0.000000 0.003791 0.000000
# 3 -0.005981 -0.010672 0.011988 0.000000 0.001211 0.000000
# 4 0.000000 0.000000 0.000000 0.040736 0.000000 -0.000253
# 5 -0.004926 0.003791 0.001211 0.000000 0.042373 0.000000
# 6 0.000000 0.000000 0.000000 -0.000253 0.000000 0.038337
#
#
# Mechanical properties :
#
#
# Convention : Reuss Voigt Hill
#
# Bulk Modulus (GPa) = 20.52291 67.28828 43.90559
# Shear Modulus (GPa) = 17.62964 25.88014 21.75489
#
# Velocity S-wave (km/s) = 3.23483 3.91934 3.59342
# Velocity P-wave (km/s) = 5.11210 7.77308 6.57854
#
# Compressibility (1/GPa) = 0.04872604
#
# Stress axis : x y z
#
# Youngs Moduli (GPa) = 74.00168 13.92280 83.41554
#
# Poissons Ratio (x) = 0.10646 0.49891
# Poissons Ratio (y) = 0.56586 0.89025
# Poissons Ratio (z) = 0.44261 0.14859
#
# Static dielectric constant tensor:
#      x y z
#    x 1.541380 0.000000 -0.000810 
#    y 0.000000 1.576130 0.000000 
#    z -0.000810 0.000000 1.576790 
# 
# From -- ./inp_files/37495.got.cif
#   From: 2010.05.17/outbox.cif.g08.bks.cpg/sg11_19_cif.got.tgz:37495.got - 2010.06.03 12:22:45.
