data_PCOD9158240
_publ_section_title
;
Structure prediction by ZEFSAII (Michael W. Deem and Ramdas Pophale) SiO2 
 PCOD9158240
Probable space group: P 21/M
;
_chemical_formula_sum "Si O2"
_cell_formula_units_Z 28
_cell_length_a 14.059494
_cell_length_b 7.777594
_cell_length_c 14.173152
_cell_angle_alpha 90.000000
_cell_angle_beta 119.182719
_cell_angle_gamma 90.000000
_cell_volume 1353.100524
_symmetry_space_group_name_H-M "P 21/M"
_symmetry_group_IT_number 11
_symmetry_cell_setting 'monoclinic'
loop_
_space_group_symop_operation_xyz
x,y,z
-x,1/2+y,-z
-x,-y,-z
x,1/2-y,z
loop_
_atom_site_type_symbol
_atom_site_label
_atom_site_fract_x
_atom_site_fract_y
_atom_site_fract_z
Si Si1 0.140419 0.039739 0.762737
Si Si2 0.930984 0.454375 0.560083
Si Si3 0.121552 0.458379 0.958603
Si Si4 0.671558 0.450255 0.625649
Si Si5 0.535230 0.048705 0.382958
Si Si6 0.872524 0.046514 0.832807
Si Si7 0.724475 0.951115 0.352477
O O1 0.139429 0.250000 0.757508
O O2 0.173973 0.990142 0.884307
O O3 0.217220 0.979089 0.714219
O O4 0.014440 0.987080 0.681601
O O5 0.918036 0.250000 0.562852
O O6 0.812206 0.526043 0.479924
O O7 0.000000 0.500000 0.500000
O O8 0.121298 0.250000 0.962949
O O9 0.995660 0.521389 0.892111
O O10 0.168821 0.523001 0.079947
O O11 0.691658 0.250000 0.612463
O O12 0.582007 0.461497 0.665700
O O13 0.609447 0.524622 0.504891
O O14 0.785221 0.525841 0.716666
O O15 0.515763 0.250000 0.390340
O O16 0.609983 0.029599 0.327550
O O17 0.881337 0.250000 0.817702
O O18 0.707459 0.750000 0.330185
#
# Coordination Sequence:
#
# PCOD9158240 Si02
#       7
#     4   4   4   4   4   4   4
#     4   8  16  29  47  68  95 132 165 194 238 291
#     4   9  16  27  43  64  94 129 166 198 235 286
#     4   9  17  31  51  73  98 129 165 199 235 288
#     4   9  19  35  53  72  98 131 162 199 248 298
#     4  10  20  33  52  76  98 127 165 203 245 293
#     4   9  18  32  51  73  98 128 161 199 246 290
#     4  10  19  31  46  69 100 132 165 201 242 293
#
# _framework density 20.693214999999999
#
# number of rings (size 3 to 8) (size 9 to 14) (size 15 to 20)
#    0.000    2.857    0.000    2.143    2.000    1.143 
#    0.000    4.286    0.000    0.857    0.000    0.000 
#    0.000    0.000    0.000    0.000    0.000    0.000 
#
# Total GULP energy -156054.030399 kJ/mol
# GULP energy per Si atom -5573.358229 kJ/mol
# Density = 2.064612 g / cm^3
# Si number density = 20.693215 Si / 1000 Ang^3
#
#
#
# Elastic Constant Matrix: (Units=GPa)
#
#
# Indices 1 2 3 4 5 6 
#
# 1 70.9025 -2.3944 -1.3523 0.0000 -7.7145 0.0000
# 2 -2.3944 34.3082 -1.6145 0.0000 2.2369 0.0000
# 3 -1.3523 -1.6145 47.5761 0.0000 -3.9697 0.0000
# 4 0.0000 0.0000 0.0000 14.6457 0.0000 0.0998
# 5 -7.7145 2.2369 -3.9697 0.0000 26.7061 0.0000
# 6 0.0000 0.0000 0.0000 0.0998 0.0000 18.5504
#
#
#
# Elastic Compliance Matrix: (Units=1/GPa)
#
#
# Indices 1 2 3 4 5 6 
#
# 1 0.014610 0.000779 0.000798 0.000000 0.004274 0.000000
# 2 0.000779 0.029379 0.000843 0.000000 -0.002111 0.000000
# 3 0.000798 0.000843 0.021348 0.000000 0.003333 0.000000
# 4 0.000000 0.000000 0.000000 0.068282 0.000000 -0.000367
# 5 0.004274 -0.002111 0.003333 0.000000 0.039351 0.000000
# 6 0.000000 0.000000 0.000000 -0.000367 0.000000 0.053909
#
#
# Mechanical properties :
#
#
# Convention : Reuss Voigt Hill
#
# Bulk Modulus (GPa) = 14.24952 15.78492 15.01722
# Shear Modulus (GPa) = 20.37215 22.52366 21.44790
#
# Velocity S-wave (km/s) = 3.14105 3.30275 3.22292
# Velocity P-wave (km/s) = 4.47839 4.71051 4.59592
#
# Compressibility (1/GPa) = 0.07017781
#
# Stress axis : x y z
#
# Youngs Moduli (GPa) = 68.44431 34.03775 46.84197
#
# Poissons Ratio (x) = -0.02650 -0.03740
# Poissons Ratio (y) = -0.05329 -0.03949
# Poissons Ratio (z) = -0.05464 -0.02869
#
# Static dielectric constant tensor:
#      x y z
#    x 1.780050 0.000000 -0.030050 
#    y 0.000000 1.768770 0.000000 
#    z -0.030050 0.000000 1.764400 
# 
# From -- ./inp_files/51105.got.cif
#   From: 2010.05.17/outbox.cif.g08.bks.cpg/sg11_26_cif.got.tgz:51105.got - 2010.06.03 12:22:45.
