data_PCOD9158958
_publ_section_title
;
Structure prediction by ZEFSAII (Michael W. Deem and Ramdas Pophale) SiO2 
 PCOD9158958
Probable space group: P 21/M
;
_chemical_formula_sum "Si O2"
_cell_formula_units_Z 28
_cell_length_a 30.800548
_cell_length_b 8.849741
_cell_length_c 9.429399
_cell_angle_alpha 90.000000
_cell_angle_beta 139.864294
_cell_angle_gamma 90.000000
_cell_volume 1656.774681
_symmetry_space_group_name_H-M "P 21/M"
_symmetry_group_IT_number 11
_symmetry_cell_setting 'monoclinic'
loop_
_space_group_symop_operation_xyz
x,y,z
-x,1/2+y,-z
-x,-y,-z
x,1/2-y,z
loop_
_atom_site_type_symbol
_atom_site_label
_atom_site_fract_x
_atom_site_fract_y
_atom_site_fract_z
Si Si1 0.437432 0.069106 0.758757
Si Si2 0.314804 0.931219 0.625066
Si Si3 0.927439 0.071924 0.337404
Si Si4 0.797726 0.072096 0.866785
Si Si5 0.436274 0.068081 0.423681
Si Si6 0.310477 0.568498 0.942374
Si Si7 0.805240 0.928731 0.171890
O O1 0.440559 0.250000 0.774156
O O2 0.439134 0.025911 0.597071
O O3 0.370279 0.010055 0.666780
O O4 0.500000 0.000000 0.000000
O O5 0.325018 0.750000 0.643740
O O6 0.241859 0.964444 0.374093
O O7 0.320030 0.975413 0.801945
O O8 0.933351 0.250000 0.379032
O O9 0.878478 0.051075 0.077278
O O10 0.000000 0.000000 0.500000
O O11 0.880838 0.994123 0.341475
O O12 0.785707 0.250000 0.868991
O O13 0.772474 0.974156 0.937321
O O14 0.437281 0.250000 0.416361
O O15 0.500000 0.000000 0.500000
O O16 0.368950 0.004532 0.183061
O O17 0.313561 0.750000 0.960858
O O18 0.238918 0.509851 0.820261
O O19 0.805706 0.750000 0.191239
#
# Coordination Sequence:
#
# PCOD9158958 Si02
#       7
#     4   4   4   4   4   4   4
#     4  11  24  39  56  79 106 138 178 224 271 323
#     4  10  21  37  56  78 106 141 180 223 271 323
#     4   9  17  31  54  83 113 143 180 224 272 322
#     4   8  17  33  53  77 106 139 176 218 268 316
#     4  11  24  40  57  80 108 140 180 224 273 326
#     4  11  22  36  55  79 108 142 181 225 271 322
#     4  10  19  32  52  79 109 141 179 220 264 318
#
# _framework density 16.900306
#
# number of rings (size 3 to 8) (size 9 to 14) (size 15 to 20)
#    0.857    1.143    0.000    4.286    0.000    9.714 
#    0.000    0.000    0.000    0.857    0.000    0.000 
#    0.000    0.000    0.000    0.000    0.000    0.000 
#
# Total GULP energy -156040.370405 kJ/mol
# GULP energy per Si atom -5572.870372 kJ/mol
# Density = 1.686184 g / cm^3
# Si number density = 16.900306 Si / 1000 Ang^3
#
#
#
# Elastic Constant Matrix: (Units=GPa)
#
#
# Indices 1 2 3 4 5 6 
#
# 1 138.7464 53.4041 76.9944 0.0000 0.2070 0.0000
# 2 53.4041 64.8291 49.9977 0.0000 -3.1671 0.0000
# 3 76.9944 49.9977 113.8588 0.0000 -1.4335 0.0000
# 4 0.0000 0.0000 0.0000 25.8895 0.0000 5.7148
# 5 0.2070 -3.1671 -1.4335 0.0000 32.3688 0.0000
# 6 0.0000 0.0000 0.0000 5.7148 0.0000 31.2895
#
#
#
# Elastic Compliance Matrix: (Units=1/GPa)
#
#
# Indices 1 2 3 4 5 6 
#
# 1 0.012894 -0.005948 -0.006119 0.000000 -0.000935 0.000000
# 2 -0.005948 0.026177 -0.007444 0.000000 0.002270 0.000000
# 3 -0.006119 -0.007444 0.016190 0.000000 0.000028 0.000000
# 4 0.000000 0.000000 0.000000 0.040248 0.000000 -0.007351
# 5 -0.000935 0.002270 0.000028 0.000000 0.031123 0.000000
# 6 0.000000 0.000000 0.000000 -0.007351 0.000000 0.033302
#
#
# Mechanical properties :
#
#
# Convention : Reuss Voigt Hill
#
# Bulk Modulus (GPa) = 61.58254 75.35851 68.47052
# Shear Modulus (GPa) = 24.46550 27.04542 25.75546
#
# Velocity S-wave (km/s) = 3.80891 4.00470 3.90803
# Velocity P-wave (km/s) = 7.47406 8.12837 7.80807
#
# Compressibility (1/GPa) = 0.01623837
#
# Stress axis : x y z
#
# Youngs Moduli (GPa) = 77.55629 38.20165 61.76728
#
# Poissons Ratio (x) = 0.22723 0.37796
# Poissons Ratio (y) = 0.46131 0.45979
# Poissons Ratio (z) = 0.47457 0.28437
#
# Static dielectric constant tensor:
#      x y z
#    x 1.555750 0.000000 0.002350 
#    y 0.000000 1.563060 0.000000 
#    z 0.002350 0.000000 1.579260 
# 
# From -- ./inp_files/29118.got.cif
#   From: 2010.05.17/outbox.cif.g08.bks.cpg/sg11_15_cif.got.tgz:29118.got - 2010.06.03 12:22:45.
