data_PCOD9158270
_publ_section_title
;
Structure prediction by ZEFSAII (Michael W. Deem and Ramdas Pophale) SiO2 
 PCOD9158270
Probable space group: P 21/M
;
_chemical_formula_sum "Si O2"
_cell_formula_units_Z 32
_cell_length_a 23.543270
_cell_length_b 7.696895
_cell_length_c 14.464175
_cell_angle_alpha 90.000000
_cell_angle_beta 142.600322
_cell_angle_gamma 90.000000
_cell_volume 1591.953335
_symmetry_space_group_name_H-M "P 21/M"
_symmetry_group_IT_number 11
_symmetry_cell_setting 'monoclinic'
loop_
_space_group_symop_operation_xyz
x,y,z
-x,1/2+y,-z
-x,-y,-z
x,1/2-y,z
loop_
_atom_site_type_symbol
_atom_site_label
_atom_site_fract_x
_atom_site_fract_y
_atom_site_fract_z
Si Si1 0.886307 0.950684 0.244186
Si Si2 0.700010 0.549167 0.912973
Si Si3 0.499442 0.039839 0.389662
Si Si4 0.817537 0.543988 0.546043
Si Si5 0.201264 0.538813 0.139151
Si Si6 0.091960 0.954117 0.519524
Si Si7 0.308969 0.958571 0.456235
Si Si8 0.996765 0.958261 0.887636
O O1 0.886587 0.750000 0.213320
O O2 0.989674 0.023660 0.353997
O O3 0.882647 0.959035 0.350753
O O4 0.791021 0.031523 0.080652
O O5 0.693545 0.750000 0.935676
O O6 0.595899 0.473088 0.781561
O O7 0.726727 0.539378 0.839728
O O8 0.498294 0.250000 0.382337
O O9 0.592095 0.977883 0.455915
O O10 0.500000 0.000000 0.500000
O O11 0.827128 0.750000 0.551932
O O12 0.831560 0.474965 0.461089
O O13 0.725069 0.508128 0.485939
O O14 0.905782 0.470816 0.718908
O O15 0.206151 0.750000 0.140372
O O16 0.230314 0.485528 0.279975
O O17 0.096791 0.481362 0.978659
O O18 0.079273 0.750000 0.522974
O O19 0.311894 0.750000 0.457384
O O20 0.994938 0.750000 0.876860
O O21 0.000000 0.000000 0.000000
#
# Coordination Sequence:
#
# PCOD9158270 Si02
#       8
#     4   4   4   4   4   4   4   4
#     4   9  19  36  56  81 109 136 170 214 261 310
#     4  10  20  33  53  78 104 135 171 215 263 308
#     4  10  20  34  52  75 104 139 178 218 262 307
#     4  11  22  34  51  75 103 139 178 217 259 307
#     4  10  19  31  47  70 102 138 172 209 253 302
#     4  10  20  35  57  81 107 139 171 209 260 317
#     4  10  20  34  50  70 102 141 177 214 256 304
#     4  10  20  31  44  66  98 135 171 205 245 295
#
# _framework density 20.101089999999999
#
# number of rings (size 3 to 8) (size 9 to 14) (size 15 to 20)
#    0.000    2.000    2.500    1.500    0.000    3.000 
#    0.000    0.000    0.000    0.750    0.000    0.000 
#    0.000    0.000    0.000    0.000    0.000    0.000 
#
# Total GULP energy -178557.366837 kJ/mol
# GULP energy per Si atom -5579.917714 kJ/mol
# Density = 2.005534 g / cm^3
# Si number density = 20.101090 Si / 1000 Ang^3
#
#
#
# Elastic Constant Matrix: (Units=GPa)
#
#
# Indices 1 2 3 4 5 6 
#
# 1 116.4375 -3.1770 29.3901 0.0000 13.9524 0.0000
# 2 -3.1770 41.6286 3.6898 0.0000 4.7811 0.0000
# 3 29.3901 3.6898 81.8358 0.0000 14.4787 0.0000
# 4 0.0000 0.0000 0.0000 9.3926 0.0000 -4.4375
# 5 13.9524 4.7811 14.4787 0.0000 29.9001 0.0000
# 6 0.0000 0.0000 0.0000 -4.4375 0.0000 24.0390
#
#
#
# Elastic Compliance Matrix: (Units=1/GPa)
#
#
# Indices 1 2 3 4 5 6 
#
# 1 0.009780 0.001395 -0.002984 0.000000 -0.003342 0.000000
# 2 0.001395 0.024685 -0.000875 0.000000 -0.004174 0.000000
# 3 -0.002984 -0.000875 0.014283 0.000000 -0.005384 0.000000
# 4 0.000000 0.000000 0.000000 0.116639 0.000000 0.021531
# 5 -0.003342 -0.004174 -0.005384 0.000000 0.038279 0.000000
# 6 0.000000 0.000000 0.000000 0.021531 0.000000 0.045574
#
#
# Mechanical properties :
#
#
# Convention : Reuss Voigt Hill
#
# Bulk Modulus (GPa) = 22.82099 33.30085 28.06092
# Shear Modulus (GPa) = 18.60286 26.66627 22.63457
#
# Velocity S-wave (km/s) = 3.04545 3.64621 3.35929
# Velocity P-wave (km/s) = 4.87279 5.85911 5.38856
#
# Compressibility (1/GPa) = 0.04381931
#
# Stress axis : x y z
#
# Youngs Moduli (GPa) = 102.24977 40.50978 70.01187
#
# Poissons Ratio (x) = -0.05650 0.20891
# Poissons Ratio (y) = -0.14261 0.06129
# Poissons Ratio (z) = 0.30511 0.03546
#
# Static dielectric constant tensor:
#      x y z
#    x 1.716960 0.000000 0.030200 
#    y 0.000000 1.741180 0.000000 
#    z 0.030200 0.000000 1.749870 
# 
# From -- ./inp_files/54347.got.cif
#   From: 2010.05.17/outbox.cif.g08.bks.cpg/sg11_28_cif.got.tgz:54347.got - 2010.06.03 12:22:45.
