data_PCOD9158853
_publ_section_title
;
Structure prediction by ZEFSAII (Michael W. Deem and Ramdas Pophale) SiO2 
 PCOD9158853
Probable space group: P 21/M
;
_chemical_formula_sum "Si O2"
_cell_formula_units_Z 32
_cell_length_a 11.792572
_cell_length_b 8.906834
_cell_length_c 18.375399
_cell_angle_alpha 90.000000
_cell_angle_beta 87.791829
_cell_angle_gamma 90.000000
_cell_volume 1928.617307
_symmetry_space_group_name_H-M "P 21/M"
_symmetry_group_IT_number 11
_symmetry_cell_setting 'monoclinic'
loop_
_space_group_symop_operation_xyz
x,y,z
-x,1/2+y,-z
-x,-y,-z
x,1/2-y,z
loop_
_atom_site_type_symbol
_atom_site_label
_atom_site_fract_x
_atom_site_fract_y
_atom_site_fract_z
Si Si1 0.242810 0.929633 0.368836
Si Si2 0.375450 0.429128 0.502008
Si Si3 0.355113 0.078009 0.935133
Si Si4 0.988851 0.571361 0.580657
Si Si5 0.381049 0.428890 0.233733
Si Si6 0.647330 0.070672 0.216108
Si Si7 0.369455 0.922096 0.082661
Si Si8 0.238785 0.928297 0.635692
O O1 0.242696 0.750000 0.373413
O O2 0.306756 0.999168 0.436888
O O3 0.115506 0.993330 0.376099
O O4 0.308941 0.985568 0.295980
O O5 0.500000 0.500000 0.500000
O O6 0.380822 0.250000 0.494115
O O7 0.311650 0.476257 0.577191
O O8 0.319063 0.250000 0.942786
O O9 0.493090 0.075839 0.928090
O O10 0.317442 0.007871 0.859669
O O11 0.322806 0.986526 0.008063
O O12 0.968123 0.750000 0.574107
O O13 0.000000 0.500000 0.500000
O O14 0.106951 0.549889 0.620228
O O15 0.369745 0.250000 0.243406
O O16 0.515430 0.467549 0.236811
O O17 0.343564 0.478377 0.153858
O O18 0.650303 0.250000 0.204589
O O19 0.724765 0.033170 0.283274
O O20 0.334810 0.750000 0.094974
O O21 0.264276 0.750000 0.624273
#
# Coordination Sequence:
#
# PCOD9158853 Si02
#       8
#     4   4   4   4   4   4   4   4
#     4  12  24  38  55  76 104 137 177 220 265 314
#     4  12  24  37  55  77 105 137 172 211 260 318
#     4   9  16  26  43  69 101 137 174 209 247 299
#     4  11  22  38  59  79 101 133 176 225 270 313
#     4  10  19  32  51  76 107 139 173 214 263 314
#     4   9  18  32  50  74 105 138 169 209 259 312
#     4   9  16  27  44  68 101 139 175 209 250 302
#     4  10  21  37  56  77 103 135 175 218 264 314
#
# _framework density 16.592196999999999
#
# number of rings (size 3 to 8) (size 9 to 14) (size 15 to 20)
#    0.000    1.750    1.250    4.500    0.000    5.500 
#    0.000    0.000    0.000    0.000    0.000    0.875 
#    0.000    0.000    0.000    0.000    0.000    0.000 
#
# Total GULP energy -178654.325216 kJ/mol
# GULP energy per Si atom -5582.947663 kJ/mol
# Density = 1.655443 g / cm^3
# Si number density = 16.592197 Si / 1000 Ang^3
#
#
#
# Elastic Constant Matrix: (Units=GPa)
#
#
# Indices 1 2 3 4 5 6 
#
# 1 65.1553 48.2545 39.9191 0.0000 15.6984 0.0000
# 2 48.2545 109.9365 56.7891 0.0000 15.6178 0.0000
# 3 39.9191 56.7891 120.7442 0.0000 23.3705 0.0000
# 4 0.0000 0.0000 0.0000 33.1525 0.0000 -3.9077
# 5 15.6984 15.6178 23.3705 0.0000 2.1149 0.0000
# 6 0.0000 0.0000 0.0000 -3.9077 0.0000 20.5511
#
#
#
# Elastic Compliance Matrix: (Units=1/GPa)
#
#
# Indices 1 2 3 4 5 6 
#
# 1 0.017679 -0.008597 -0.009932 0.000000 0.042004 0.000000
# 2 -0.008597 0.015037 -0.004312 0.000000 0.000426 0.000000
# 3 -0.009932 -0.004312 0.006005 0.000000 0.039206 0.000000
# 4 0.000000 0.000000 0.000000 0.030855 0.000000 0.005867
# 5 0.042004 0.000426 0.039206 0.000000 -0.275339 0.000000
# 6 0.000000 0.000000 0.000000 0.005867 0.000000 0.049775
#
#
# Mechanical properties :
#
#
# Convention : Reuss Voigt Hill
#
# Bulk Modulus (GPa) = -143.66898 65.08460 -39.29219
# Shear Modulus (GPa) = -44.39460 21.22190 -11.58635
#
# Velocity S-wave (km/s) = -5.17826 3.58023 -2.64541
# Velocity P-wave (km/s) = 11.06927 7.51012 5.75008
#
# Compressibility (1/GPa) = -0.00696044
#
# Stress axis : x y z
#
# Youngs Moduli (GPa) = 56.56298 66.50408 166.51899
#
# Poissons Ratio (x) = 0.57173 1.65380
# Poissons Ratio (y) = 0.48626 0.71810
# Poissons Ratio (z) = 0.56176 0.28680
#
# Static dielectric constant tensor:
#      x y z
#    x 1.539750 0.000000 0.008270 
#    y 0.000000 1.558130 0.000000 
#    z 0.008270 0.000000 1.545330 
# 
# From -- ./inp_files/58721.got.cif
#   From: 2010.05.17/outbox.cif.g08.bks.cpg/sg11_30_cif.got.tgz:58721.got - 2010.06.03 12:22:45.
