data_PCOD9158630
_publ_section_title
;
Structure prediction by ZEFSAII (Michael W. Deem and Ramdas Pophale) SiO2 
 PCOD9158630
Probable space group: P 21/M
;
_chemical_formula_sum "Si O2"
_cell_formula_units_Z 28
_cell_length_a 31.064893
_cell_length_b 8.527682
_cell_length_c 10.576535
_cell_angle_alpha 90.000000
_cell_angle_beta 146.428451
_cell_angle_gamma 90.000000
_cell_volume 1549.358900
_symmetry_space_group_name_H-M "P 21/M"
_symmetry_group_IT_number 11
_symmetry_cell_setting 'monoclinic'
loop_
_space_group_symop_operation_xyz
x,y,z
-x,1/2+y,-z
-x,-y,-z
x,1/2-y,z
loop_
_atom_site_type_symbol
_atom_site_label
_atom_site_fract_x
_atom_site_fract_y
_atom_site_fract_z
Si Si1 0.673566 0.437516 0.688680
Si Si2 0.081582 0.937293 0.357139
Si Si3 0.742175 0.560532 0.595877
Si Si4 0.907228 0.939518 0.899899
Si Si5 0.765825 0.937445 0.154578
Si Si6 0.338693 0.058988 0.861726
Si Si7 0.504821 0.060271 0.368605
O O1 0.672827 0.250000 0.685647
O O2 0.704590 0.497723 0.631157
O O3 0.585501 0.492755 0.503163
O O4 0.728421 0.494179 0.936777
O O5 0.086986 0.750000 0.378252
O O6 0.991709 0.984338 0.160977
O O7 0.145672 0.012165 0.604351
O O8 0.099217 0.990772 0.256601
O O9 0.739700 0.750000 0.593039
O O10 0.696127 0.507494 0.357334
O O11 0.832430 0.513682 0.798138
O O12 0.906063 0.750000 0.884024
O O13 0.761094 0.750000 0.137649
O O14 0.715199 0.991429 0.152516
O O15 0.337009 0.250000 0.857070
O O16 0.427206 0.009389 0.104568
O O17 0.504705 0.250000 0.371508
O O18 0.500000 0.000000 0.500000
#
# Coordination Sequence:
#
# PCOD9158630 Si02
#       7
#     4   4   4   4   4   4   4
#     4  11  24  38  54  83 119 147 181 235 289 332
#     4  10  19  31  54  87 118 142 180 238 287 323
#     4  10  20  38  59  80 110 152 193 224 268 337
#     4   9  18  34  55  82 114 151 189 226 273 336
#     4  11  20  36  60  83 109 148 194 230 274 339
#     4   9  18  34  59  83 107 142 188 230 265 323
#     4  10  20  36  57  83 113 144 183 231 279 329
#
# _framework density 18.071991000000001
#
# number of rings (size 3 to 8) (size 9 to 14) (size 15 to 20)
#    0.000    2.000    2.857    1.286    0.000    2.286 
#    0.000    1.429    0.000    0.000    0.000    0.000 
#    0.000    0.000    0.000    0.000    0.000    0.000 
#
# Total GULP energy -156294.425447 kJ/mol
# GULP energy per Si atom -5581.943766 kJ/mol
# Density = 1.803086 g / cm^3
# Si number density = 18.071991 Si / 1000 Ang^3
#
#
#
# Elastic Constant Matrix: (Units=GPa)
#
#
# Indices 1 2 3 4 5 6 
#
# 1 161.9879 28.2569 98.5693 0.0000 5.6680 0.0000
# 2 28.2569 15.4235 24.5833 0.0000 3.5734 0.0000
# 3 98.5693 24.5833 161.2470 0.0000 10.2029 0.0000
# 4 0.0000 0.0000 0.0000 22.0577 0.0000 -2.8376
# 5 5.6680 3.5734 10.2029 0.0000 32.0603 0.0000
# 6 0.0000 0.0000 0.0000 -2.8376 0.0000 22.6760
#
#
#
# Elastic Compliance Matrix: (Units=1/GPa)
#
#
# Indices 1 2 3 4 5 6 
#
# 1 0.011563 -0.013286 -0.005110 0.000000 0.001063 0.000000
# 2 -0.013286 0.101874 -0.006981 0.000000 -0.006784 0.000000
# 3 -0.005110 -0.006981 0.010495 0.000000 -0.001658 0.000000
# 4 0.000000 0.000000 0.000000 0.046077 0.000000 0.005766
# 5 0.001063 -0.006784 -0.001658 0.000000 0.032287 0.000000
# 6 0.000000 0.000000 0.000000 0.005766 0.000000 0.044821
#
#
# Mechanical properties :
#
#
# Convention : Reuss Voigt Hill
#
# Bulk Modulus (GPa) = 13.66513 71.27527 42.47020
# Shear Modulus (GPa) = 15.51521 27.84206 21.67863
#
# Velocity S-wave (km/s) = 2.93323 3.92933 3.46724
# Velocity P-wave (km/s) = 4.36460 7.75316 6.29131
#
# Compressibility (1/GPa) = 0.07317899
#
# Stress axis : x y z
#
# Youngs Moduli (GPa) = 86.48104 9.81601 95.28552
#
# Poissons Ratio (x) = 0.13041 0.48694
# Poissons Ratio (y) = 1.14895 0.66517
# Poissons Ratio (z) = 0.44194 0.06852
#
# Static dielectric constant tensor:
#      x y z
#    x 1.596670 0.000000 0.032510 
#    y 0.000000 1.616320 0.000000 
#    z 0.032510 0.000000 1.614970 
# 
# From -- ./inp_files/28530.got.cif
#   From: 2010.05.17/outbox.cif.g08.bks.cpg/sg11_15_cif.got.tgz:28530.got - 2010.06.03 12:22:45.
