data_PCOD9158366
_publ_section_title
;
Structure prediction by ZEFSAII (Michael W. Deem and Ramdas Pophale) SiO2 
 PCOD9158366
Probable space group: P 21/M
;
_chemical_formula_sum "Si O2"
_cell_formula_units_Z 28
_cell_length_a 15.808926
_cell_length_b 7.919836
_cell_length_c 12.246577
_cell_angle_alpha 90.000000
_cell_angle_beta 118.667482
_cell_angle_gamma 90.000000
_cell_volume 1345.364906
_symmetry_space_group_name_H-M "P 21/M"
_symmetry_group_IT_number 11
_symmetry_cell_setting 'monoclinic'
loop_
_space_group_symop_operation_xyz
x,y,z
-x,1/2+y,-z
-x,-y,-z
x,1/2-y,z
loop_
_atom_site_type_symbol
_atom_site_label
_atom_site_fract_x
_atom_site_fract_y
_atom_site_fract_z
Si Si1 0.886183 0.546238 0.921418
Si Si2 0.507262 0.547666 0.875960
Si Si3 0.794509 0.449310 0.221241
Si Si4 0.688255 0.548384 0.367354
Si Si5 0.810110 0.956102 0.638654
Si Si6 0.996365 0.952659 0.623356
Si Si7 0.711936 0.943759 0.959259
O O1 0.887748 0.750000 0.924836
O O2 0.834585 0.489910 0.776548
O O3 0.809890 0.484237 0.966346
O O4 0.000000 0.500000 0.000000
O O5 0.512516 0.750000 0.878109
O O6 0.414872 0.497540 0.747034
O O7 0.500000 0.500000 0.000000
O O8 0.605678 0.478363 0.881124
O O9 0.786027 0.250000 0.192664
O O10 0.765326 0.477575 0.328013
O O11 0.902496 0.510962 0.265350
O O12 0.725948 0.548896 0.098045
O O13 0.697519 0.750000 0.371073
O O14 0.717847 0.491720 0.508295
O O15 0.808281 0.750000 0.641139
O O16 0.902610 0.014391 0.626435
O O17 0.995550 0.750000 0.630639
O O18 0.000000 0.000000 0.500000
O O19 0.706625 0.750000 0.917533
#
# Coordination Sequence:
#
# PCOD9158366 Si02
#       7
#     4   4   4   4   4   4   4
#     4  10  21  41  64  87 115 153 196 239 287 345
#     4  11  22  37  57  85 118 154 194 244 294 344
#     4  11  21  32  53  83 115 148 187 238 289 341
#     4  11  21  35  56  82 114 152 190 234 291 351
#     4   9  19  36  57  79 113 154 191 232 287 347
#     4  10  19  31  48  76 109 144 180 223 277 340
#     4  10  22  38  59  83 113 152 194 237 291 348
#
# _framework density 20.812199
#
# number of rings (size 3 to 8) (size 9 to 14) (size 15 to 20)
#    0.000    1.714    2.857    2.143    0.000    2.857 
#    0.000    2.857    0.000    0.000    0.000    0.000 
#    0.000    0.000    0.000    0.000    0.000    0.000 
#
# Total GULP energy -156097.364520 kJ/mol
# GULP energy per Si atom -5574.905876 kJ/mol
# Density = 2.076483 g / cm^3
# Si number density = 20.812199 Si / 1000 Ang^3
#
#
#
# Elastic Constant Matrix: (Units=GPa)
#
#
# Indices 1 2 3 4 5 6 
#
# 1 111.5702 9.2869 54.5149 0.0000 18.4010 0.0000
# 2 9.2869 31.0975 2.3921 0.0000 4.4735 0.0000
# 3 54.5149 2.3921 142.7561 0.0000 16.0929 0.0000
# 4 0.0000 0.0000 0.0000 18.0968 0.0000 4.3982
# 5 18.4010 4.4735 16.0929 0.0000 39.4837 0.0000
# 6 0.0000 0.0000 0.0000 4.3982 0.0000 18.3571
#
#
#
# Elastic Compliance Matrix: (Units=1/GPa)
#
#
# Indices 1 2 3 4 5 6 
#
# 1 0.011743 -0.002689 -0.004042 0.000000 -0.003520 0.000000
# 2 -0.002689 0.033308 0.000789 0.000000 -0.002842 0.000000
# 3 -0.004042 0.000789 0.008734 0.000000 -0.001766 0.000000
# 4 0.000000 0.000000 0.000000 0.058675 0.000000 -0.014058
# 5 -0.003520 -0.002842 -0.001766 0.000000 0.028009 0.000000
# 6 0.000000 0.000000 0.000000 -0.014058 0.000000 0.057843
#
#
# Mechanical properties :
#
#
# Convention : Reuss Voigt Hill
#
# Bulk Modulus (GPa) = 23.86616 46.42352 35.14484
# Shear Modulus (GPa) = 22.30514 29.80286 26.05400
#
# Velocity S-wave (km/s) = 3.27729 3.78827 3.54200
# Velocity P-wave (km/s) = 5.08066 6.44119 5.80095
#
# Compressibility (1/GPa) = 0.04190034
#
# Stress axis : x y z
#
# Youngs Moduli (GPa) = 85.16062 30.02263 114.48986
#
# Poissons Ratio (x) = 0.08074 0.46280
# Poissons Ratio (y) = 0.22903 -0.09036
# Poissons Ratio (z) = 0.34424 -0.02370
#
# Static dielectric constant tensor:
#      x y z
#    x 1.781750 0.000000 0.028530 
#    y 0.000000 1.756950 0.000000 
#    z 0.028530 0.000000 1.779670 
# 
# From -- ./inp_files/38497.got.cif
#   From: 2010.05.17/outbox.cif.g08.bks.cpg/sg11_20_cif.got.tgz:38497.got - 2010.06.03 12:22:45.
