data_PCOD9158704
_publ_section_title
;
Structure prediction by ZEFSAII (Michael W. Deem and Ramdas Pophale) SiO2 
 PCOD9158704
Probable space group: P 21/M
;
_chemical_formula_sum "Si O2"
_cell_formula_units_Z 32
_cell_length_a 21.607260
_cell_length_b 8.782522
_cell_length_c 12.939704
_cell_angle_alpha 90.000000
_cell_angle_beta 126.322345
_cell_angle_gamma 90.000000
_cell_volume 1978.405067
_symmetry_space_group_name_H-M "P 21/M"
_symmetry_group_IT_number 11
_symmetry_cell_setting 'monoclinic'
loop_
_space_group_symop_operation_xyz
x,y,z
-x,1/2+y,-z
-x,-y,-z
x,1/2-y,z
loop_
_atom_site_type_symbol
_atom_site_label
_atom_site_fract_x
_atom_site_fract_y
_atom_site_fract_z
Si Si1 0.681303 0.068783 0.477122
Si Si2 0.417733 0.567688 0.033720
Si Si3 0.837784 0.568154 0.713459
Si Si4 0.584657 0.931778 0.569573
Si Si5 0.003196 0.567398 0.118739
Si Si6 0.402957 0.068890 0.797577
Si Si7 0.832734 0.568269 0.955550
Si Si8 0.324632 0.568719 0.147847
O O1 0.679860 0.250000 0.485132
O O2 0.766138 0.006818 0.585582
O O3 0.624628 0.996481 0.506464
O O4 0.651683 0.016330 0.336251
O O5 0.412656 0.750000 0.011891
O O6 0.391532 0.483174 0.904209
O O7 0.507790 0.531813 0.140189
O O8 0.368135 0.528618 0.085009
O O9 0.836153 0.750000 0.700547
O O10 0.919908 0.503364 0.757891
O O11 0.830076 0.535023 0.829277
O O12 0.581005 0.750000 0.559535
O O13 0.500000 0.000000 0.500000
O O14 0.635816 0.982655 0.717620
O O15 0.009956 0.750000 0.120356
O O16 0.000000 0.500000 0.000000
O O17 0.918759 0.531331 0.079851
O O18 0.392942 0.250000 0.777617
O O19 0.820982 0.750000 0.954965
O O20 0.764275 0.478591 0.941421
O O21 0.332311 0.750000 0.171668
#
# Coordination Sequence:
#
# PCOD9158704 Si02
#       8
#     4   4   4   4   4   4   4   4
#     4  12  23  35  53  76 104 138 173 211 259 309
#     4   9  20  37  54  75 101 130 171 219 261 305
#     4  10  19  32  49  72 103 136 171 213 255 303
#     4  12  24  37  51  71 103 138 175 211 253 309
#     4   9  17  29  46  68  98 135 173 210 253 302
#     4  10  20  36  57  76  99 132 172 220 265 304
#     4   9  18  31  47  70 103 138 171 211 252 300
#     4  11  21  33  52  76 104 138 173 211 257 305
#
# _framework density 16.174645000000002
#
# number of rings (size 3 to 8) (size 9 to 14) (size 15 to 20)
#    0.000    1.750    1.250    5.250    0.000    5.000 
#    0.000    0.000    0.000    0.000    0.000    0.875 
#    0.000    0.000    0.000    0.000    0.000    0.000 
#
# Total GULP energy -178645.935540 kJ/mol
# GULP energy per Si atom -5582.685486 kJ/mol
# Density = 1.613783 g / cm^3
# Si number density = 16.174645 Si / 1000 Ang^3
#
#
#
# Elastic Constant Matrix: (Units=GPa)
#
#
# Indices 1 2 3 4 5 6 
#
# 1 29.2901 18.8840 22.2626 0.0000 13.0531 0.0000
# 2 18.8840 75.1316 38.6570 0.0000 7.7566 0.0000
# 3 22.2626 38.6570 79.2251 0.0000 16.9801 0.0000
# 4 0.0000 0.0000 0.0000 24.1869 0.0000 5.9566
# 5 13.0531 7.7566 16.9801 0.0000 24.3286 0.0000
# 6 0.0000 0.0000 0.0000 5.9566 0.0000 26.5917
#
#
#
# Elastic Compliance Matrix: (Units=1/GPa)
#
#
# Indices 1 2 3 4 5 6 
#
# 1 0.054012 -0.007904 -0.006644 0.000000 -0.021822 0.000000
# 2 -0.007904 0.018933 -0.007799 0.000000 0.003648 0.000000
# 3 -0.006644 -0.007799 0.019987 0.000000 -0.007899 0.000000
# 4 0.000000 0.000000 0.000000 0.043759 0.000000 -0.009802
# 5 -0.021822 0.003648 -0.007899 0.000000 0.057162 0.000000
# 6 0.000000 0.000000 0.000000 -0.009802 0.000000 0.039801
#
#
# Mechanical properties :
#
#
# Convention : Reuss Voigt Hill
#
# Bulk Modulus (GPa) = 20.73020 38.13932 29.43476
# Shear Modulus (GPa) = 16.98210 21.94435 19.46322
#
# Velocity S-wave (km/s) = 3.24376 3.68735 3.47265
# Velocity P-wave (km/s) = 5.18398 6.46217 5.85804
#
# Compressibility (1/GPa) = 0.04823881
#
# Stress axis : x y z
#
# Youngs Moduli (GPa) = 18.51439 52.81865 50.03147
#
# Poissons Ratio (x) = 0.41750 0.33239
# Poissons Ratio (y) = 0.14635 0.39018
# Poissons Ratio (z) = 0.12300 0.41191
#
# Static dielectric constant tensor:
#      x y z
#    x 1.538820 0.000000 0.021700 
#    y 0.000000 1.539130 0.000000 
#    z 0.021700 0.000000 1.519990 
# 
# From -- ./inp_files/42873.got.cif
#   From: 2010.05.17/outbox.cif.g08.bks.cpg/sg11_22_cif.got.tgz:42873.got - 2010.06.03 12:22:45.
