data_PCOD9158314
_publ_section_title
;
Structure prediction by ZEFSAII (Michael W. Deem and Ramdas Pophale) SiO2 
 PCOD9158314
Probable space group: P 21/M
;
_chemical_formula_sum "Si O2"
_cell_formula_units_Z 32
_cell_length_a 21.700695
_cell_length_b 9.423420
_cell_length_c 11.544467
_cell_angle_alpha 90.000000
_cell_angle_beta 37.297988
_cell_angle_gamma 90.000000
_cell_volume 1430.541195
_symmetry_space_group_name_H-M "P 21/M"
_symmetry_group_IT_number 11
_symmetry_cell_setting 'monoclinic'
loop_
_space_group_symop_operation_xyz
x,y,z
-x,1/2+y,-z
-x,-y,-z
x,1/2-y,z
loop_
_atom_site_type_symbol
_atom_site_label
_atom_site_fract_x
_atom_site_fract_y
_atom_site_fract_z
Si Si1 0.650726 0.407317 0.288124
Si Si2 0.167585 0.412102 0.280158
Si Si3 0.110723 0.913131 0.149458
Si Si4 0.402745 0.089873 0.836284
Si Si5 0.772633 0.093213 0.604320
Si Si6 0.250975 0.584127 0.632129
Si Si7 0.065899 0.417906 0.996543
Si Si8 0.455389 0.907141 0.964062
O O1 0.612121 0.250000 0.314923
O O2 0.599271 0.528469 0.289682
O O3 0.654219 0.422593 0.421625
O O4 0.770230 0.409288 0.069565
O O5 0.131216 0.250000 0.331838
O O6 0.110489 0.513717 0.274986
O O7 0.168194 0.477700 0.408212
O O8 0.285153 0.408898 0.058219
O O9 0.075999 0.750000 0.201981
O O10 0.053834 0.009595 0.139921
O O11 0.439973 0.250000 0.787277
O O12 0.462236 0.986859 0.833037
O O13 0.822156 0.250000 0.534747
O O14 0.745636 0.063143 0.510688
O O15 0.664069 0.104770 0.829518
O O16 0.213032 0.750000 0.704559
O O17 0.178532 0.460820 0.787643
O O18 0.048259 0.250000 0.024741
O O19 0.000000 0.500000 0.000000
O O20 0.500782 0.750000 0.894589
O O21 0.500000 0.000000 0.000000
#
# Coordination Sequence:
#
# PCOD9158314 Si02
#       8
#     4   4   4   4   4   4   4   4
#     4   8  14  25  43  66  91 118 150 192 237 277
#     4   9  16  26  43  69  97 123 156 199 241 280
#     4   9  16  28  46  68  94 124 159 198 239 281
#     4   9  16  26  42  65  92 120 153 194 235 277
#     4   9  18  32  50  71  97 130 163 196 239 289
#     4   9  18  33  51  72  98 128 162 198 238 286
#     4  11  21  33  50  73 100 129 161 197 239 285
#     4  10  19  31  48  70  96 126 159 196 239 285
#
# _framework density 22.369156
#
# number of rings (size 3 to 8) (size 9 to 14) (size 15 to 20)
#    0.000    2.750    0.000    3.375    0.000    7.000 
#    0.000    0.000    0.000    1.500    0.000    0.000 
#    0.000    0.000    0.000    0.000    0.000    0.000 
#
# Total GULP energy -178631.555608 kJ/mol
# GULP energy per Si atom -5582.236113 kJ/mol
# Density = 2.231824 g / cm^3
# Si number density = 22.369156 Si / 1000 Ang^3
#
#
#
# Elastic Constant Matrix: (Units=GPa)
#
#
# Indices 1 2 3 4 5 6 
#
# 1 105.1420 92.7110 21.2603 0.0000 54.4764 0.0000
# 2 92.7110 213.4168 32.0669 0.0000 41.4312 0.0000
# 3 21.2603 32.0669 81.5181 0.0000 16.2723 0.0000
# 4 0.0000 0.0000 0.0000 13.7999 0.0000 12.1841
# 5 54.4764 41.4312 16.2723 0.0000 45.3349 0.0000
# 6 0.0000 0.0000 0.0000 12.1841 0.0000 40.7057
#
#
#
# Elastic Compliance Matrix: (Units=1/GPa)
#
#
# Indices 1 2 3 4 5 6 
#
# 1 0.034364 -0.008516 0.001160 0.000000 -0.033927 0.000000
# 2 -0.008516 0.007936 -0.001611 0.000000 0.003559 0.000000
# 3 0.001160 -0.001611 0.013554 0.000000 -0.004786 0.000000
# 4 0.000000 0.000000 0.000000 0.098493 0.000000 -0.029481
# 5 -0.033927 0.003559 -0.004786 0.000000 0.061292 0.000000
# 6 0.000000 0.000000 0.000000 -0.029481 0.000000 0.033391
#
#
# Mechanical properties :
#
#
# Convention : Reuss Voigt Hill
#
# Bulk Modulus (GPa) = 26.37171 76.90592 51.63881
# Shear Modulus (GPa) = 17.88241 36.90403 27.39322
#
# Velocity S-wave (km/s) = 2.83047 4.06615 3.50322
# Velocity P-wave (km/s) = 4.74310 7.51663 6.28477
#
# Compressibility (1/GPa) = 0.03791942
#
# Stress axis : x y z
#
# Youngs Moduli (GPa) = 29.10048 126.00148 73.77930
#
# Poissons Ratio (x) = 1.07304 -0.08559
# Poissons Ratio (y) = 0.24782 0.11888
# Poissons Ratio (z) = -0.03376 0.20302
#
# Static dielectric constant tensor:
#      x y z
#    x 1.874410 0.000000 -0.079510 
#    y 0.000000 1.838360 0.000000 
#    z -0.079510 0.000000 1.910150 
# 
# From -- ./inp_files/42429.got.cif
#   From: 2010.05.17/outbox.cif.g08.bks.cpg/sg11_22_cif.got.tgz:42429.got - 2010.06.03 12:22:45.
