data_PCOD9158050
_publ_section_title
;
Structure prediction by ZEFSAII (Michael W. Deem and Ramdas Pophale) SiO2 
 PCOD9158050
Probable space group: P 21/M
;
_chemical_formula_sum "Si O2"
_cell_formula_units_Z 32
_cell_length_a 16.718400
_cell_length_b 8.492399
_cell_length_c 25.270899
_cell_angle_alpha 90.000000
_cell_angle_beta 153.501865
_cell_angle_gamma 90.000000
_cell_volume 1600.828757
_symmetry_space_group_name_H-M "P 21/M"
_symmetry_group_IT_number 11
_symmetry_cell_setting 'monoclinic'
loop_
_space_group_symop_operation_xyz
x,y,z
-x,1/2+y,-z
-x,-y,-z
x,1/2-y,z
loop_
_atom_site_type_symbol
_atom_site_label
_atom_site_fract_x
_atom_site_fract_y
_atom_site_fract_z
Si Si1 0.949942 0.567462 0.198978
Si Si2 0.582285 0.936338 0.377482
Si Si3 0.307306 0.071553 0.377240
Si Si4 0.950264 0.059621 0.631276
Si Si5 0.465802 0.060400 0.769717
Si Si6 0.146934 0.437529 0.974001
Si Si7 0.212107 0.073519 0.197175
Si Si8 0.114963 0.440245 0.617589
O O1 0.895220 0.750000 0.168498
O O2 0.161498 0.546796 0.314138
O O3 0.937920 0.500432 0.251311
O O4 0.869261 0.498699 0.096596
O O5 0.599244 0.750000 0.393333
O O6 0.613238 0.981520 0.334604
O O7 0.740145 0.012710 0.505660
O O8 0.377065 0.982878 0.268276
O O9 0.290072 0.250000 0.388777
O O10 0.269990 0.080923 0.292840
O O11 0.500000 0.000000 0.500000
O O12 0.956784 0.250000 0.636714
O O13 0.037580 0.004275 0.627866
O O14 0.487950 0.250000 0.783946
O O15 0.320852 0.013859 0.728004
O O16 0.658422 0.983055 0.890437
O O17 0.124034 0.250000 0.958033
O O18 0.987103 0.501811 0.916604
O O19 0.202724 0.250000 0.169307
O O20 0.107610 0.250000 0.612997
O O21 0.000000 0.500000 0.500000
#
# Coordination Sequence:
#
# PCOD9158050 Si02
#       8
#     4   4   4   4   4   4   4   4
#     4   9  19  35  53  77 108 141 180 226 272 320
#     4  11  22  35  54  83 116 146 184 231 277 327
#     4  10  19  30  47  72 103 142 183 223 270 322
#     4  10  20  35  58  85 114 146 180 225 281 333
#     4  10  22  39  57  80 112 147 182 227 278 329
#     4  10  21  38  59  80 107 147 192 231 269 321
#     4  10  21  36  53  76 109 147 187 228 273 327
#     4  10  20  37  60  85 113 145 180 222 276 332
#
# _framework density 19.989647000000001
#
# number of rings (size 3 to 8) (size 9 to 14) (size 15 to 20)
#    0.000    2.000    1.250    2.250    0.000    7.500 
#    0.000    0.625    0.000    0.000    0.000    0.000 
#    0.000    0.000    0.000    0.000    0.000    0.000 
#
# Total GULP energy -178463.477151 kJ/mol
# GULP energy per Si atom -5576.983661 kJ/mol
# Density = 1.994415 g / cm^3
# Si number density = 19.989647 Si / 1000 Ang^3
#
#
#
# Elastic Constant Matrix: (Units=GPa)
#
#
# Indices 1 2 3 4 5 6 
#
# 1 75.5621 0.2661 -1.8165 0.0000 1.6004 0.0000
# 2 0.2661 13.4505 7.5412 0.0000 -1.8397 0.0000
# 3 -1.8165 7.5412 49.2100 0.0000 9.6549 0.0000
# 4 0.0000 0.0000 0.0000 11.7443 0.0000 0.5324
# 5 1.6004 -1.8397 9.6549 0.0000 29.1711 0.0000
# 6 0.0000 0.0000 0.0000 0.5324 0.0000 19.3956
#
#
#
# Elastic Compliance Matrix: (Units=1/GPa)
#
#
# Indices 1 2 3 4 5 6 
#
# 1 0.013280 -0.000874 0.000832 0.000000 -0.001059 0.000000
# 2 -0.000874 0.084155 -0.014950 0.000000 0.010304 0.000000
# 3 0.000832 -0.014950 0.024423 0.000000 -0.009072 0.000000
# 4 0.000000 0.000000 0.000000 0.085254 0.000000 -0.002340
# 5 -0.001059 0.010304 -0.009072 0.000000 0.037991 0.000000
# 6 0.000000 0.000000 0.000000 -0.002340 0.000000 0.051622
#
#
# Mechanical properties :
#
#
# Convention : Reuss Voigt Hill
#
# Bulk Modulus (GPa) = 10.88461 16.68938 13.78700
# Shear Modulus (GPa) = 13.99254 20.87767 17.43511
#
# Velocity S-wave (km/s) = 2.64860 3.23526 2.95652
# Velocity P-wave (km/s) = 3.84843 4.72472 4.30891
#
# Compressibility (1/GPa) = 0.09187280
#
# Stress axis : x y z
#
# Youngs Moduli (GPa) = 75.30317 11.88282 40.94553
#
# Poissons Ratio (x) = 0.01039 -0.03406
# Poissons Ratio (y) = 0.06582 0.61214
# Poissons Ratio (z) = -0.06265 0.17765
#
# Static dielectric constant tensor:
#      x y z
#    x 1.740460 0.000000 -0.061560 
#    y 0.000000 1.718160 0.000000 
#    z -0.061560 0.000000 1.639750 
# 
# From -- ./inp_files/69123.got.cif
#   From: 2010.05.17/outbox.cif.g08.bks.cpg/sg11_35_cif.got.tgz:69123.got - 2010.06.03 12:22:45.
