data_PCOD9158578
_publ_section_title
;
Structure prediction by ZEFSAII (Michael W. Deem and Ramdas Pophale) SiO2 
 PCOD9158578
Probable space group: P 21/M
;
_chemical_formula_sum "Si O2"
_cell_formula_units_Z 32
_cell_length_a 12.286439
_cell_length_b 9.239172
_cell_length_c 31.293940
_cell_angle_alpha 90.000000
_cell_angle_beta 28.177473
_cell_angle_gamma 90.000000
_cell_volume 1677.448502
_symmetry_space_group_name_H-M "P 21/M"
_symmetry_group_IT_number 11
_symmetry_cell_setting 'monoclinic'
loop_
_space_group_symop_operation_xyz
x,y,z
-x,1/2+y,-z
-x,-y,-z
x,1/2-y,z
loop_
_atom_site_type_symbol
_atom_site_label
_atom_site_fract_x
_atom_site_fract_y
_atom_site_fract_z
Si Si1 0.141838 0.421642 0.488256
Si Si2 0.614101 0.922349 0.823684
Si Si3 0.148601 0.076380 0.009250
Si Si4 0.995977 0.913217 0.762741
Si Si5 0.298253 0.091556 0.051230
Si Si6 0.762915 0.083132 0.690563
Si Si7 0.367763 0.423412 0.682985
Si Si8 0.726376 0.580761 0.185436
O O1 0.164768 0.250000 0.471452
O O2 0.389146 0.496417 0.405873
O O3 0.000000 0.500000 0.500000
O O4 0.989384 0.437397 0.583745
O O5 0.573387 0.750000 0.839620
O O6 0.790222 0.958720 0.801802
O O7 0.368413 0.005299 0.910191
O O8 0.739981 0.972690 0.737214
O O9 0.141960 0.250000 0.004904
O O10 0.106517 0.992014 0.904533
O O11 0.201315 0.037695 0.040505
O O12 0.071930 0.750000 0.723414
O O13 0.885056 0.899946 0.847965
O O14 0.203202 0.021920 0.701453
O O15 0.392764 0.250000 0.008941
O O16 0.500000 0.000000 0.000000
O O17 0.759249 0.250000 0.707735
O O18 0.536897 0.065803 0.739083
O O19 0.393014 0.250000 0.673006
O O20 0.275006 0.458611 0.763440
O O21 0.792721 0.750000 0.159347
#
# Coordination Sequence:
#
# PCOD9158578 Si02
#       8
#     4   4   4   4   4   4   4   4
#     4  11  22  40  67  96 125 155 193 247 307 362
#     4  11  24  41  61  85 119 165 209 248 295 355
#     4  11  22  35  56  87 120 159 204 245 297 358
#     4  10  21  38  57  85 123 159 200 249 301 354
#     4  10  19  31  51  80 114 151 196 245 294 346
#     4  10  23  44  64  86 119 157 200 248 299 358
#     4  11  22  37  61  96 127 154 195 247 308 363
#     4  10  21  38  59  87 123 156 194 248 302 353
#
# _framework density 19.076591000000001
#
# number of rings (size 3 to 8) (size 9 to 14) (size 15 to 20)
#    0.000    1.500    3.750    1.500    0.000    4.500 
#    0.000    0.625    0.000    0.000    0.000    0.000 
#    0.000    0.000    0.000    0.000    0.000    0.000 
#
# Total GULP energy -178456.306830 kJ/mol
# GULP energy per Si atom -5576.759588 kJ/mol
# Density = 1.903317 g / cm^3
# Si number density = 19.076591 Si / 1000 Ang^3
#
#
#
# Elastic Constant Matrix: (Units=GPa)
#
#
# Indices 1 2 3 4 5 6 
#
# 1 56.8902 33.3626 21.5119 0.0000 -3.7064 0.0000
# 2 33.3626 72.4685 69.2203 0.0000 -15.1883 0.0000
# 3 21.5119 69.2203 103.6629 0.0000 -16.4555 0.0000
# 4 0.0000 0.0000 0.0000 35.1517 0.0000 -0.8474
# 5 -3.7064 -15.1883 -16.4555 0.0000 27.1062 0.0000
# 6 0.0000 0.0000 0.0000 -0.8474 0.0000 25.4294
#
#
#
# Elastic Compliance Matrix: (Units=1/GPa)
#
#
# Indices 1 2 3 4 5 6 
#
# 1 0.026070 -0.019352 0.007034 0.000000 -0.003008 0.000000
# 2 -0.019352 0.053539 -0.030314 0.000000 0.008951 0.000000
# 3 0.007034 -0.030314 0.028646 0.000000 0.001366 0.000000
# 4 0.000000 0.000000 0.000000 0.028471 0.000000 0.000949
# 5 -0.003008 0.008951 0.001366 0.000000 0.042325 0.000000
# 6 0.000000 0.000000 0.000000 0.000949 0.000000 0.039356
#
#
# Mechanical properties :
#
#
# Convention : Reuss Voigt Hill
#
# Bulk Modulus (GPa) = 43.49157 53.46790 48.47973
# Shear Modulus (GPa) = 16.05996 24.79925 20.42960
#
# Velocity S-wave (km/s) = 2.90464 3.60944 3.27605
# Velocity P-wave (km/s) = 5.83928 6.74237 6.30701
#
# Compressibility (1/GPa) = 0.02299296
#
# Stress axis : x y z
#
# Youngs Moduli (GPa) = 38.35774 18.67803 34.90946
#
# Poissons Ratio (x) = 0.36145 -0.24557
# Poissons Ratio (y) = 0.74228 1.05823
# Poissons Ratio (z) = -0.26982 0.56620
#
# Static dielectric constant tensor:
#      x y z
#    x 1.672130 0.000000 -0.010640 
#    y 0.000000 1.666330 0.000000 
#    z -0.010640 0.000000 1.666600 
# 
# From -- ./inp_files/42876.got.cif
#   From: 2010.05.17/outbox.cif.g08.bks.cpg/sg11_22_cif.got.tgz:42876.got - 2010.06.03 12:22:45.
