data_PCOD9158059
_publ_section_title
;
Structure prediction by ZEFSAII (Michael W. Deem and Ramdas Pophale) SiO2 
 PCOD9158059
Probable space group: P 21/M
;
_chemical_formula_sum "Si O2"
_cell_formula_units_Z 32
_cell_length_a 24.231060
_cell_length_b 7.758315
_cell_length_c 17.196398
_cell_angle_alpha 90.000000
_cell_angle_beta 149.542696
_cell_angle_gamma 90.000000
_cell_volume 1638.688104
_symmetry_space_group_name_H-M "P 21/M"
_symmetry_group_IT_number 11
_symmetry_cell_setting 'monoclinic'
loop_
_space_group_symop_operation_xyz
x,y,z
-x,1/2+y,-z
-x,-y,-z
x,1/2-y,z
loop_
_atom_site_type_symbol
_atom_site_label
_atom_site_fract_x
_atom_site_fract_y
_atom_site_fract_z
Si Si1 0.372182 0.042166 0.175397
Si Si2 0.628180 0.957040 0.654768
Si Si3 0.373292 0.454748 0.516144
Si Si4 0.376360 0.543976 0.831582
Si Si5 0.169439 0.037807 0.833534
Si Si6 0.955757 0.051910 0.647636
Si Si7 0.744523 0.043935 0.469195
Si Si8 0.838040 0.549802 0.350017
O O1 0.367527 0.250000 0.170734
O O2 0.333681 0.979473 0.214401
O O3 0.498791 0.997853 0.316936
O O4 0.287648 0.982789 0.007465
O O5 0.642601 0.750000 0.672433
O O6 0.665338 0.023999 0.615452
O O7 0.500000 0.000000 0.500000
O O8 0.366754 0.250000 0.503977
O O9 0.302187 0.510288 0.502853
O O10 0.363936 0.750000 0.820547
O O11 0.337877 0.484306 0.698893
O O12 0.290331 0.463626 0.786945
O O13 0.500000 0.500000 0.000000
O O14 0.167804 0.250000 0.829740
O O15 0.143500 0.982204 0.714248
O O16 0.074994 0.977347 0.777404
O O17 0.972887 0.250000 0.692603
O O18 0.864843 0.973430 0.594346
O O19 0.898692 0.047389 0.493231
O O20 0.752063 0.250000 0.469353
O O21 0.871012 0.750000 0.394257
#
# Coordination Sequence:
#
# PCOD9158059 Si02
#       8
#     4   4   4   4   4   4   4   4
#     4   9  17  31  50  72  98 127 155 189 241 294
#     4   8  15  28  46  68  95 125 154 187 233 287
#     4  10  19  30  47  73 100 124 156 197 236 285
#     4  10  21  35  49  67  96 131 163 198 240 285
#     4   9  18  31  51  74  95 122 160 204 240 284
#     4   9  18  35  52  68  92 125 167 206 238 277
#     4   9  19  33  49  67  90 125 164 196 230 281
#     4  10  19  31  48  72  97 125 161 199 241 287
#
# _framework density 19.527813999999999
#
# number of rings (size 3 to 8) (size 9 to 14) (size 15 to 20)
#    0.000    2.750    0.000    2.250    1.750    3.000 
#    0.000    1.875    0.000    0.750    0.000    0.000 
#    0.000    0.000    0.000    0.000    0.000    0.875 
#
# Total GULP energy -178307.169118 kJ/mol
# GULP energy per Si atom -5572.099035 kJ/mol
# Density = 1.948337 g / cm^3
# Si number density = 19.527814 Si / 1000 Ang^3
#
#
#
# Elastic Constant Matrix: (Units=GPa)
#
#
# Indices 1 2 3 4 5 6 
#
# 1 136.6499 -2.1447 15.1204 0.0000 -9.1011 0.0000
# 2 -2.1447 34.0894 -4.8806 0.0000 -1.3517 0.0000
# 3 15.1204 -4.8806 14.0556 0.0000 2.0433 0.0000
# 4 0.0000 0.0000 0.0000 11.4315 0.0000 -3.2881
# 5 -9.1011 -1.3517 2.0433 0.0000 22.8837 0.0000
# 6 0.0000 0.0000 0.0000 -3.2881 0.0000 11.2982
#
#
#
# Elastic Compliance Matrix: (Units=1/GPa)
#
#
# Indices 1 2 3 4 5 6 
#
# 1 0.008734 -0.000751 -0.010289 0.000000 0.004348 0.000000
# 2 -0.000751 0.030951 0.011482 0.000000 0.000504 0.000000
# 3 -0.010289 0.011482 0.087838 0.000000 -0.011257 0.000000
# 4 0.000000 0.000000 0.000000 0.095470 0.000000 0.027785
# 5 0.004348 0.000504 -0.011257 0.000000 0.046463 0.000000
# 6 0.000000 0.000000 0.000000 0.027785 0.000000 0.096596
#
#
# Mechanical properties :
#
#
# Convention : Reuss Voigt Hill
#
# Bulk Modulus (GPa) = 7.78767 22.33167 15.05967
# Shear Modulus (GPa) = 12.25578 20.90267 16.57922
#
# Velocity S-wave (km/s) = 2.50793 3.27525 2.91693
# Velocity P-wave (km/s) = 3.51893 5.07580 4.36730
#
# Compressibility (1/GPa) = 0.12840809
#
# Stress axis : x y z
#
# Youngs Moduli (GPa) = 114.49195 32.30879 11.38458
#
# Poissons Ratio (x) = 0.02427 0.11713
# Poissons Ratio (y) = 0.08600 -0.13072
# Poissons Ratio (z) = 1.17799 -0.37098
#
# Static dielectric constant tensor:
#      x y z
#    x 1.723290 0.000000 -0.018000 
#    y 0.000000 1.712560 0.000000 
#    z -0.018000 0.000000 1.681160 
# 
# From -- ./inp_files/54356.got.cif
#   From: 2010.05.17/outbox.cif.g08.bks.cpg/sg11_28_cif.got.tgz:54356.got - 2010.06.03 12:22:45.
