data_PCOD9158501
_publ_section_title
;
Structure prediction by ZEFSAII (Michael W. Deem and Ramdas Pophale) SiO2 
 PCOD9158501
Probable space group: P 21/M
;
_chemical_formula_sum "Si O2"
_cell_formula_units_Z 28
_cell_length_a 14.955961
_cell_length_b 7.623147
_cell_length_c 13.535928
_cell_angle_alpha 90.000000
_cell_angle_beta 122.043401
_cell_angle_gamma 90.000000
_cell_volume 1308.131485
_symmetry_space_group_name_H-M "P 21/M"
_symmetry_group_IT_number 11
_symmetry_cell_setting 'monoclinic'
loop_
_space_group_symop_operation_xyz
x,y,z
-x,1/2+y,-z
-x,-y,-z
x,1/2-y,z
loop_
_atom_site_type_symbol
_atom_site_label
_atom_site_fract_x
_atom_site_fract_y
_atom_site_fract_z
Si Si1 0.267126 0.049232 0.216100
Si Si2 0.309032 0.537998 0.921503
Si Si3 0.679872 0.953779 0.299023
Si Si4 0.452369 0.543935 0.184861
Si Si5 0.099449 0.039037 0.489468
Si Si6 0.100352 0.465398 0.264667
Si Si7 0.119425 0.538214 0.950000
O O1 0.294106 0.250000 0.252495
O O2 0.209039 0.973832 0.278061
O O3 0.370669 0.969119 0.227195
O O4 0.176771 0.040356 0.078595
O O5 0.316383 0.750000 0.919271
O O6 0.323183 0.463616 0.821424
O O7 0.194689 0.497024 0.900848
O O8 0.393903 0.473111 0.052368
O O9 0.681659 0.750000 0.331406
O O10 0.568528 0.031863 0.269875
O O11 0.790292 0.030349 0.401444
O O12 0.466819 0.750000 0.173140
O O13 0.105257 0.250000 0.488874
O O14 0.086796 0.977816 0.369408
O O15 0.000000 0.000000 0.500000
O O16 0.100994 0.250000 0.262829
O O17 0.998734 0.520392 0.141389
O O18 0.121203 0.750000 0.963126
#
# Coordination Sequence:
#
# PCOD9158501 Si02
#       7
#     4   4   4   4   4   4   4
#     4  10  19  31  50  76 100 128 166 206 243 287
#     4   9  17  29  49  74 102 133 161 195 247 299
#     4  10  20  33  52  74  97 129 169 206 242 285
#     4   9  19  35  50  70 101 134 163 198 248 298
#     4  10  21  38  56  75 100 130 163 202 243 290
#     4   9  18  33  52  72 100 135 166 197 245 298
#     4   9  17  31  50  73 102 135 162 194 246 301
#
# _framework density 21.404575999999999
#
# number of rings (size 3 to 8) (size 9 to 14) (size 15 to 20)
#    0.000    2.571    0.000    3.000    0.000    4.571 
#    0.000    3.571    0.000    0.000    0.000    0.000 
#    0.000    0.000    0.000    0.000    0.000    0.000 
#
# Total GULP energy -156275.954308 kJ/mol
# GULP energy per Si atom -5581.284082 kJ/mol
# Density = 2.135586 g / cm^3
# Si number density = 21.404576 Si / 1000 Ang^3
#
#
#
# Elastic Constant Matrix: (Units=GPa)
#
#
# Indices 1 2 3 4 5 6 
#
# 1 137.6397 -8.0675 52.8678 0.0000 8.5252 0.0000
# 2 -8.0675 36.6262 -5.1674 0.0000 5.6098 0.0000
# 3 52.8678 -5.1674 40.8915 0.0000 1.1696 0.0000
# 4 0.0000 0.0000 0.0000 9.7616 0.0000 -1.3644
# 5 8.5252 5.6098 1.1696 0.0000 37.7912 0.0000
# 6 0.0000 0.0000 0.0000 -1.3644 0.0000 17.6114
#
#
#
# Elastic Compliance Matrix: (Units=1/GPa)
#
#
# Indices 1 2 3 4 5 6 
#
# 1 0.014746 0.001032 -0.018852 0.000000 -0.002896 0.000000
# 2 0.001032 0.028566 0.002406 0.000000 -0.004548 0.000000
# 3 -0.018852 0.002406 0.049064 0.000000 0.002377 0.000000
# 4 0.000000 0.000000 0.000000 0.103563 0.000000 0.008023
# 5 -0.002896 -0.004548 0.002377 0.000000 0.027716 0.000000
# 6 0.000000 0.000000 0.000000 0.008023 0.000000 0.057403
#
#
# Mechanical properties :
#
#
# Convention : Reuss Voigt Hill
#
# Bulk Modulus (GPa) = 16.24744 32.71371 24.48058
# Shear Modulus (GPa) = 15.04194 24.73447 19.88820
#
# Velocity S-wave (km/s) = 2.65381 3.40305 3.05151
# Velocity P-wave (km/s) = 4.12279 5.54597 4.88647
#
# Compressibility (1/GPa) = 0.06154815
#
# Stress axis : x y z
#
# Youngs Moduli (GPa) = 67.81342 35.00650 20.38138
#
# Poissons Ratio (x) = -0.03613 0.38423
# Poissons Ratio (y) = -0.06998 -0.04903
# Poissons Ratio (z) = 1.27842 -0.08421
#
# Static dielectric constant tensor:
#      x y z
#    x 1.791020 0.000000 0.015930 
#    y 0.000000 1.806620 0.000000 
#    z 0.015930 0.000000 1.751110 
# 
# From -- ./inp_files/37841.got.cif
#   From: 2010.05.17/outbox.cif.g08.bks.cpg/sg11_19_cif.got.tgz:37841.got - 2010.06.03 12:22:45.
