data_PCOD9158262
_publ_section_title
;
Structure prediction by ZEFSAII (Michael W. Deem and Ramdas Pophale) SiO2 
 PCOD9158262
Probable space group: P 21/M
;
_chemical_formula_sum "Si O2"
_cell_formula_units_Z 32
_cell_length_a 21.362868
_cell_length_b 7.876848
_cell_length_c 24.133989
_cell_angle_alpha 90.000000
_cell_angle_beta 23.485842
_cell_angle_gamma 90.000000
_cell_volume 1618.430005
_symmetry_space_group_name_H-M "P 21/M"
_symmetry_group_IT_number 11
_symmetry_cell_setting 'monoclinic'
loop_
_space_group_symop_operation_xyz
x,y,z
-x,1/2+y,-z
-x,-y,-z
x,1/2-y,z
loop_
_atom_site_type_symbol
_atom_site_label
_atom_site_fract_x
_atom_site_fract_y
_atom_site_fract_z
Si Si1 0.654137 0.045351 0.245479
Si Si2 0.667716 0.547519 0.839158
Si Si3 0.843412 0.451025 0.193910
Si Si4 0.853789 0.951490 0.986777
Si Si5 0.157278 0.045678 0.406376
Si Si6 0.676732 0.543775 0.436270
Si Si7 0.021331 0.545803 0.345545
Si Si8 0.012927 0.452574 0.750822
O O1 0.654396 0.250000 0.248184
O O2 0.785685 0.978870 0.182060
O O3 0.485105 0.987887 0.404528
O O4 0.699896 0.995747 0.146355
O O5 0.675408 0.750000 0.830640
O O6 0.704166 0.483243 0.746733
O O7 0.811120 0.489775 0.761910
O O8 0.500000 0.500000 0.000000
O O9 0.868705 0.250000 0.166284
O O10 0.706041 0.477572 0.350555
O O11 0.999493 0.524536 0.095997
O O12 0.870278 0.750000 0.971415
O O13 0.875376 0.013846 0.906766
O O14 0.171100 0.250000 0.398941
O O15 0.116862 0.982050 0.500935
O O16 0.000000 0.000000 0.500000
O O17 0.678005 0.750000 0.432957
O O18 0.826188 0.484724 0.351233
O O19 0.006359 0.750000 0.355298
O O20 0.012648 0.478797 0.290059
O O21 0.028799 0.250000 0.733493
#
# Coordination Sequence:
#
# PCOD9158262 Si02
#       8
#     4   4   4   4   4   4   4   4
#     4  10  19  31  47  69  96 123 157 202 250 297
#     4  10  19  31  49  76 109 136 159 194 238 280
#     4   9  18  31  47  68  93 123 159 200 247 298
#     4  10  20  32  47  68  95 127 162 199 241 292
#     4   8  15  28  47  71  96 123 157 195 232 272
#     4   9  18  31  48  70  94 121 156 200 246 293
#     4   9  17  32  54  74  93 124 165 201 236 283
#     4   9  18  34  53  70  91 123 161 199 240 287
#
# _framework density 19.772248000000001
#
# number of rings (size 3 to 8) (size 9 to 14) (size 15 to 20)
#    0.000    2.750    0.000    1.500    0.000    2.500 
#    0.000    1.250    0.000    4.500    0.000    0.000 
#    0.000    0.000    0.000    0.000    0.000    0.000 
#
# Total GULP energy -178349.053161 kJ/mol
# GULP energy per Si atom -5573.407911 kJ/mol
# Density = 1.972725 g / cm^3
# Si number density = 19.772248 Si / 1000 Ang^3
#
#
#
# Elastic Constant Matrix: (Units=GPa)
#
#
# Indices 1 2 3 4 5 6 
#
# 1 83.2850 2.1762 43.4264 0.0000 40.4566 0.0000
# 2 2.1762 19.5578 -7.3162 0.0000 1.2811 0.0000
# 3 43.4264 -7.3162 131.0373 0.0000 39.4062 0.0000
# 4 0.0000 0.0000 0.0000 17.9456 0.0000 4.6261
# 5 40.4566 1.2811 39.4062 0.0000 32.6104 0.0000
# 6 0.0000 0.0000 0.0000 4.6261 0.0000 14.3249
#
#
#
# Elastic Compliance Matrix: (Units=1/GPa)
#
#
# Indices 1 2 3 4 5 6 
#
# 1 0.030547 -0.000011 0.001999 0.000000 -0.040311 0.000000
# 2 -0.000011 0.053863 0.005723 0.000000 -0.009018 0.000000
# 3 0.001999 0.005723 0.012727 0.000000 -0.018083 0.000000
# 4 0.000000 0.000000 0.000000 0.060784 0.000000 -0.019630
# 5 -0.040311 -0.009018 -0.018083 0.000000 0.102881 0.000000
# 6 0.000000 0.000000 0.000000 -0.019630 0.000000 0.076148
#
#
# Mechanical properties :
#
#
# Convention : Reuss Voigt Hill
#
# Bulk Modulus (GPa) = 8.88430 34.49478 21.68954
# Shear Modulus (GPa) = 13.92575 26.01576 19.97075
#
# Velocity S-wave (km/s) = 2.65676 3.63129 3.18156
# Velocity P-wave (km/s) = 3.73018 5.92162 4.94873
#
# Compressibility (1/GPa) = 0.11255811
#
# Stress axis : x y z
#
# Youngs Moduli (GPa) = 32.73677 18.56554 78.57550
#
# Poissons Ratio (x) = 0.00020 -0.15704
# Poissons Ratio (y) = 0.00035 -0.44968
# Poissons Ratio (z) = -0.06543 -0.10625
#
# Static dielectric constant tensor:
#      x y z
#    x 1.700770 0.000000 0.028970 
#    y 0.000000 1.707990 0.000000 
#    z 0.028970 0.000000 1.734700 
# 
# From -- ./inp_files/27294.got.cif
#   From: 2010.05.17/outbox.cif.g08.bks.cpg/sg11_14_cif.got.tgz:27294.got - 2010.06.03 12:22:45.
