data_PCOD9158244
_publ_section_title
;
Structure prediction by ZEFSAII (Michael W. Deem and Ramdas Pophale) SiO2 
 PCOD9158244
Probable space group: P 21/M
;
_chemical_formula_sum "Si O2"
_cell_formula_units_Z 32
_cell_length_a 17.139760
_cell_length_b 8.744960
_cell_length_c 14.545753
_cell_angle_alpha 90.000000
_cell_angle_beta 125.802330
_cell_angle_gamma 90.000000
_cell_volume 1768.239396
_symmetry_space_group_name_H-M "P 21/M"
_symmetry_group_IT_number 11
_symmetry_cell_setting 'monoclinic'
loop_
_space_group_symop_operation_xyz
x,y,z
-x,1/2+y,-z
-x,-y,-z
x,1/2-y,z
loop_
_atom_site_type_symbol
_atom_site_label
_atom_site_fract_x
_atom_site_fract_y
_atom_site_fract_z
Si Si1 0.381678 0.933308 0.014911
Si Si2 0.997810 0.068717 0.102011
Si Si3 0.820359 0.430863 0.668228
Si Si4 0.507321 0.432351 0.403804
Si Si5 0.200479 0.070405 0.997890
Si Si6 0.296440 0.071518 0.255930
Si Si7 0.690872 0.435502 0.414798
Si Si8 0.600762 0.566506 0.176718
O O1 0.374413 0.750000 0.012951
O O2 0.489393 0.975909 0.124609
O O3 0.292211 0.005057 0.007297
O O4 0.378926 0.991826 0.908011
O O5 0.000411 0.250000 0.094481
O O6 0.088014 0.013895 0.225064
O O7 0.899892 0.015424 0.084366
O O8 0.000000 0.000000 0.000000
O O9 0.838081 0.250000 0.679652
O O10 0.734127 0.468034 0.680095
O O11 0.782635 0.477382 0.541061
O O12 0.500000 0.500000 0.500000
O O13 0.518598 0.250000 0.418337
O O14 0.402182 0.464680 0.290339
O O15 0.596883 0.489265 0.407299
O O16 0.190110 0.250000 0.970155
O O17 0.223514 0.054423 0.122147
O O18 0.296269 0.250000 0.285306
O O19 0.689214 0.250000 0.406836
O O20 0.674990 0.506437 0.304035
O O21 0.605270 0.750000 0.172629
#
# Coordination Sequence:
#
# PCOD9158244 Si02
#       8
#     4   4   4   4   4   4   4   4
#     4  10  21  38  60  88 119 151 189 238 289 340
#     4  12  24  39  58  82 113 150 194 241 290 341
#     4  11  22  36  55  78 109 150 193 234 280 336
#     4  10  19  31  46  71 106 146 185 223 270 325
#     4  11  22  37  59  85 113 148 190 238 290 343
#     4  10  20  32  50  75 109 148 185 228 278 331
#     4  10  21  36  54  79 112 153 192 234 285 338
#     4  10  21  37  60  88 117 153 193 235 283 341
#
# _framework density 18.097097000000002
#
# number of rings (size 3 to 8) (size 9 to 14) (size 15 to 20)
#    0.000    1.500    2.500    3.375    0.000    4.500 
#    0.000    0.000    0.000    0.750    0.000    0.000 
#    0.000    0.000    0.000    0.000    0.000    0.000 
#
# Total GULP energy -178636.336068 kJ/mol
# GULP energy per Si atom -5582.385502 kJ/mol
# Density = 1.805591 g / cm^3
# Si number density = 18.097097 Si / 1000 Ang^3
#
#
#
# Elastic Constant Matrix: (Units=GPa)
#
#
# Indices 1 2 3 4 5 6 
#
# 1 64.2705 29.1347 32.2615 0.0000 7.6810 0.0000
# 2 29.1347 67.2987 50.6103 0.0000 8.2534 0.0000
# 3 32.2615 50.6103 120.7973 0.0000 11.0041 0.0000
# 4 0.0000 0.0000 0.0000 28.0269 0.0000 0.2061
# 5 7.6810 8.2534 11.0041 0.0000 25.3117 0.0000
# 6 0.0000 0.0000 0.0000 0.2061 0.0000 30.4282
#
#
#
# Elastic Compliance Matrix: (Units=1/GPa)
#
#
# Indices 1 2 3 4 5 6 
#
# 1 0.020060 -0.006565 -0.002340 0.000000 -0.002929 0.000000
# 2 -0.006565 0.024103 -0.008133 0.000000 -0.002331 0.000000
# 3 -0.002340 -0.008133 0.012499 0.000000 -0.002072 0.000000
# 4 0.000000 0.000000 0.000000 0.035682 0.000000 -0.000242
# 5 -0.002929 -0.002331 -0.002072 0.000000 0.042057 0.000000
# 6 0.000000 0.000000 0.000000 -0.000242 0.000000 0.032866
#
#
# Mechanical properties :
#
#
# Convention : Reuss Voigt Hill
#
# Bulk Modulus (GPa) = 44.27394 52.93107 48.60251
# Shear Modulus (GPa) = 23.93802 26.11070 25.02436
#
# Velocity S-wave (km/s) = 3.64092 3.80256 3.72261
# Velocity P-wave (km/s) = 6.49560 6.97073 6.73736
#
# Compressibility (1/GPa) = 0.02258665
#
# Stress axis : x y z
#
# Youngs Moduli (GPa) = 49.85033 41.48802 80.00395
#
# Poissons Ratio (x) = 0.27239 0.18720
# Poissons Ratio (y) = 0.32729 0.65065
# Poissons Ratio (z) = 0.11665 0.33741
#
# Static dielectric constant tensor:
#      x y z
#    x 1.628580 0.000000 0.019910 
#    y 0.000000 1.601890 0.000000 
#    z 0.019910 0.000000 1.649960 
# 
# From -- ./inp_files/51771.got.cif
#   From: 2010.05.17/outbox.cif.g08.bks.cpg/sg11_26_cif.got.tgz:51771.got - 2010.06.03 12:22:45.
