data_PCOD9158476
_publ_section_title
;
Structure prediction by ZEFSAII (Michael W. Deem and Ramdas Pophale) SiO2 
 PCOD9158476
Probable space group: P 21/M
;
_chemical_formula_sum "Si O2"
_cell_formula_units_Z 32
_cell_length_a 17.355309
_cell_length_b 7.685204
_cell_length_c 23.824918
_cell_angle_alpha 90.000000
_cell_angle_beta 31.468851
_cell_angle_gamma 90.000000
_cell_volume 1658.894407
_symmetry_space_group_name_H-M "P 21/M"
_symmetry_group_IT_number 11
_symmetry_cell_setting 'monoclinic'
loop_
_space_group_symop_operation_xyz
x,y,z
-x,1/2+y,-z
-x,-y,-z
x,1/2-y,z
loop_
_atom_site_type_symbol
_atom_site_label
_atom_site_fract_x
_atom_site_fract_y
_atom_site_fract_z
Si Si1 0.825202 0.962545 0.171870
Si Si2 0.022199 0.957494 0.619307
Si Si3 0.044854 0.039884 0.733780
Si Si4 0.318903 0.546930 0.376197
Si Si5 0.846973 0.957027 0.626841
Si Si6 0.113964 0.959197 0.055533
Si Si7 0.352006 0.041653 0.824788
Si Si8 0.667509 0.958027 0.382724
O O1 0.829711 0.750000 0.167042
O O2 0.756290 0.026409 0.156772
O O3 0.718208 0.015476 0.289494
O O4 0.987736 0.021588 0.089986
O O5 0.026853 0.750000 0.606374
O O6 0.179636 0.028269 0.497755
O O7 0.885592 0.020678 0.665615
O O8 0.006751 0.986965 0.694651
O O9 0.044963 0.250000 0.734518
O O10 0.209167 0.978205 0.649783
O O11 0.935595 0.980988 0.851715
O O12 0.326846 0.750000 0.387109
O O13 0.276766 0.535884 0.336530
O O14 0.481768 0.471381 0.283996
O O15 0.821871 0.750000 0.642662
O O16 0.000000 0.000000 0.500000
O O17 0.105920 0.750000 0.061404
O O18 0.272596 0.008450 0.933241
O O19 0.360603 0.250000 0.812747
O O20 0.680280 0.750000 0.374598
O O21 0.500000 0.000000 0.500000
#
# Coordination Sequence:
#
# PCOD9158476 Si02
#       8
#     4   4   4   4   4   4   4   4
#     4   8  16  31  49  66  91 129 164 197 241 284
#     4   9  18  31  50  75  98 124 159 194 231 287
#     4   9  19  33  48  69  96 127 162 198 239 286
#     4   9  19  32  47  74 105 128 156 194 243 294
#     4   9  17  31  50  72  99 129 159 192 237 290
#     4   9  18  34  50  67  94 128 166 204 242 281
#     4  10  19  31  50  73  96 126 163 202 242 287
#     4   9  18  31  46  65  94 130 161 193 237 284
#
# _framework density 19.289956
#
# number of rings (size 3 to 8) (size 9 to 14) (size 15 to 20)
#    0.000    3.000    0.000    3.000    1.750    4.000 
#    0.000    2.500    0.000    0.750    0.000    0.000 
#    0.000    0.000    0.000    0.000    0.000    0.000 
#
# Total GULP energy -178275.178317 kJ/mol
# GULP energy per Si atom -5571.099322 kJ/mol
# Density = 1.924605 g / cm^3
# Si number density = 19.289956 Si / 1000 Ang^3
#
#
#
# Elastic Constant Matrix: (Units=GPa)
#
#
# Indices 1 2 3 4 5 6 
#
# 1 96.7449 -8.6707 28.4127 0.0000 22.3875 0.0000
# 2 -8.6707 28.2360 -2.8791 0.0000 -1.9675 0.0000
# 3 28.4127 -2.8791 55.5178 0.0000 2.7943 0.0000
# 4 0.0000 0.0000 0.0000 18.8392 0.0000 1.2666
# 5 22.3875 -1.9675 2.7943 0.0000 16.8982 0.0000
# 6 0.0000 0.0000 0.0000 1.2666 0.0000 17.3684
#
#
#
# Elastic Compliance Matrix: (Units=1/GPa)
#
#
# Indices 1 2 3 4 5 6 
#
# 1 0.018140 0.003199 -0.007993 0.000000 -0.022338 0.000000
# 2 0.003199 0.036421 0.000254 0.000000 -0.000039 0.000000
# 3 -0.007993 0.000254 0.021763 0.000000 0.007021 0.000000
# 4 0.000000 0.000000 0.000000 0.053342 0.000000 -0.003890
# 5 -0.022338 -0.000039 0.007021 0.000000 0.087607 0.000000
# 6 0.000000 0.000000 0.000000 -0.003890 0.000000 0.057859
#
#
# Mechanical properties :
#
#
# Convention : Reuss Voigt Hill
#
# Bulk Modulus (GPa) = 14.87160 23.80271 19.33716
# Shear Modulus (GPa) = 16.30636 21.53023 18.91829
#
# Velocity S-wave (km/s) = 2.91061 3.34449 3.13506
# Velocity P-wave (km/s) = 4.36139 5.22306 4.81155
#
# Compressibility (1/GPa) = 0.06724227
#
# Stress axis : x y z
#
# Youngs Moduli (GPa) = 55.12686 27.45652 45.94983
#
# Poissons Ratio (x) = -0.08783 0.36729
# Poissons Ratio (y) = -0.17634 -0.01166
# Poissons Ratio (z) = 0.44065 -0.00696
#
# Static dielectric constant tensor:
#      x y z
#    x 1.705610 0.000000 -0.003120 
#    y 0.000000 1.735210 0.000000 
#    z -0.003120 0.000000 1.666000 
# 
# From -- ./inp_files/68293.got.cif
#   From: 2010.05.17/outbox.cif.g08.bks.cpg/sg11_35_cif.got.tgz:68293.got - 2010.06.03 12:22:45.
