data_PCOD9158606
_publ_section_title
;
Structure prediction by ZEFSAII (Michael W. Deem and Ramdas Pophale) SiO2 
 PCOD9158606
Probable space group: P 21/M
;
_chemical_formula_sum "Si O2"
_cell_formula_units_Z 20
_cell_length_a 19.368988
_cell_length_b 10.000521
_cell_length_c 11.751725
_cell_angle_alpha 90.000000
_cell_angle_beta 22.264226
_cell_angle_gamma 90.000000
_cell_volume 862.444254
_symmetry_space_group_name_H-M "P 21/M"
_symmetry_group_IT_number 11
_symmetry_cell_setting 'monoclinic'
loop_
_space_group_symop_operation_xyz
x,y,z
-x,1/2+y,-z
-x,-y,-z
x,1/2-y,z
loop_
_atom_site_type_symbol
_atom_site_label
_atom_site_fract_x
_atom_site_fract_y
_atom_site_fract_z
Si Si1 0.848533 0.109048 0.607414
Si Si2 0.763855 0.594392 0.078128
Si Si3 0.579529 0.592312 0.139790
Si Si4 0.961211 0.402922 0.952489
Si Si5 0.317038 0.984789 0.352712
O O1 0.799963 0.250000 0.738179
O O2 0.063959 0.093681 0.272379
O O3 0.794069 0.115932 0.557174
O O4 0.733572 0.993026 0.839930
O O5 0.748034 0.750000 0.144861
O O6 0.825412 0.484210 0.075985
O O7 0.596865 0.563352 0.247754
O O8 0.608934 0.750000 0.079687
O O9 0.391339 0.555531 0.363016
O O10 0.903499 0.250000 0.063300
O O11 0.168307 0.398101 0.584958
O O12 0.000000 0.500000 0.000000
O O13 0.500000 0.000000 0.000000
#
# Coordination Sequence:
#
# PCOD9158606 Si02
#       5
#     4   4   4   4   4
#     4   9  17  29  48  77 117 160 199 240 288 345
#     4   9  19  35  54  81 116 154 196 242 292 351
#     4  10  19  31  52  83 119 155 193 242 297 348
#     4  11  24  43  66  89 116 156 202 247 298 359
#     4   9  20  36  58  88 120 155 196 241 289 345
#
# _framework density 23.189903999999999
#
# number of rings (size 3 to 8) (size 9 to 14) (size 15 to 20)
#    0.000    2.400    0.000    1.800    0.000   13.600 
#    0.000    1.000    0.000    0.000    0.000    0.000 
#    0.000    0.000    0.000    0.000    0.000    0.000 
#
# Total GULP energy -111397.640536 kJ/mol
# GULP energy per Si atom -5569.882027 kJ/mol
# Density = 2.313712 g / cm^3
# Si number density = 23.189904 Si / 1000 Ang^3
#
#
#
# Elastic Constant Matrix: (Units=GPa)
#
#
# Indices 1 2 3 4 5 6 
#
# 1 193.8172 91.2653 28.9760 0.0000 -37.1775 0.0000
# 2 91.2653 154.0067 21.0858 0.0000 -1.3686 0.0000
# 3 28.9760 21.0858 71.5698 0.0000 -11.7524 0.0000
# 4 0.0000 0.0000 0.0000 18.9458 0.0000 9.1066
# 5 -37.1775 -1.3686 -11.7524 0.0000 34.8068 0.0000
# 6 0.0000 0.0000 0.0000 9.1066 0.0000 14.0479
#
#
#
# Elastic Compliance Matrix: (Units=1/GPa)
#
#
# Indices 1 2 3 4 5 6 
#
# 1 0.009859 -0.005662 -0.000668 0.000000 0.010083 0.000000
# 2 -0.005662 0.010023 -0.001682 0.000000 -0.006221 0.000000
# 3 -0.000668 -0.001682 0.015468 0.000000 0.004443 0.000000
# 4 0.000000 0.000000 0.000000 0.076673 0.000000 -0.049703
# 5 0.010083 -0.006221 0.004443 0.000000 0.040755 0.000000
# 6 0.000000 0.000000 0.000000 -0.049703 0.000000 0.103406
#
#
# Mechanical properties :
#
#
# Convention : Reuss Voigt Hill
#
# Bulk Modulus (GPa) = 51.74199 78.00533 64.87366
# Shear Modulus (GPa) = 17.94361 32.09787 25.02074
#
# Velocity S-wave (km/s) = 2.78469 3.72443 3.28830
# Velocity P-wave (km/s) = 5.71839 7.22536 6.51559
#
# Compressibility (1/GPa) = 0.01932666
#
# Stress axis : x y z
#
# Youngs Moduli (GPa) = 101.42603 99.76624 64.64911
#
# Poissons Ratio (x) = 0.56484 0.04319
# Poissons Ratio (y) = 0.57424 0.10877
# Poissons Ratio (z) = 0.06775 0.16785
#
# Static dielectric constant tensor:
#      x y z
#    x 2.006930 0.000000 -0.108850 
#    y 0.000000 1.857280 0.000000 
#    z -0.108850 0.000000 2.258160 
# 
# From -- ./inp_files/40878.got.cif
#   From: 2010.05.17/outbox.cif.g08.bks.cpg/sg11_21_cif.got.tgz:40878.got - 2010.06.03 12:22:45.
