data_PCOD9158357
_publ_section_title
;
Structure prediction by ZEFSAII (Michael W. Deem and Ramdas Pophale) SiO2 
 PCOD9158357
Probable space group: P 21/M
;
_chemical_formula_sum "Si O2"
_cell_formula_units_Z 32
_cell_length_a 25.763000
_cell_length_b 7.854222
_cell_length_c 16.603850
_cell_angle_alpha 90.000000
_cell_angle_beta 152.657887
_cell_angle_gamma 90.000000
_cell_volume 1543.146955
_symmetry_space_group_name_H-M "P 21/M"
_symmetry_group_IT_number 11
_symmetry_cell_setting 'monoclinic'
loop_
_space_group_symop_operation_xyz
x,y,z
-x,1/2+y,-z
-x,-y,-z
x,1/2-y,z
loop_
_atom_site_type_symbol
_atom_site_label
_atom_site_fract_x
_atom_site_fract_y
_atom_site_fract_z
Si Si1 0.715227 0.954505 0.543152
Si Si2 0.898554 0.048508 0.919617
Si Si3 0.879307 0.437027 0.356949
Si Si4 0.677416 0.456048 0.173418
Si Si5 0.804688 0.954426 0.496299
Si Si6 0.743020 0.442219 0.002968
Si Si7 0.540951 0.040451 0.829376
Si Si8 0.940722 0.459670 0.159562
O O1 0.711644 0.750000 0.532274
O O2 0.782320 0.016558 0.556444
O O3 0.586418 0.015111 0.361762
O O4 0.782961 0.997236 0.716908
O O5 0.900327 0.250000 0.929736
O O6 0.917677 0.983705 0.036287
O O7 0.000000 0.000000 0.000000
O O8 0.895690 0.250000 0.414466
O O9 0.795490 0.531385 0.301066
O O10 0.000000 0.500000 0.500000
O O11 0.810501 0.426493 0.179615
O O12 0.675411 0.250000 0.166426
O O13 0.694960 0.500783 0.290668
O O14 0.584689 0.511067 0.979491
O O15 0.810643 0.750000 0.506508
O O16 0.930294 0.013664 0.641441
O O17 0.717295 0.250000 0.937195
O O18 0.625766 0.519343 0.874875
O O19 0.835688 0.519604 0.070058
O O20 0.545986 0.250000 0.834915
O O21 0.940154 0.250000 0.164519
#
# Coordination Sequence:
#
# PCOD9158357 Si02
#       8
#     4   4   4   4   4   4   4   4
#     4  10  20  36  55  75 100 133 173 212 252 303
#     4  11  21  36  56  79 105 133 164 206 258 308
#     4   9  16  26  43  66  95 128 166 206 246 293
#     4   9  18  31  46  71 102 133 170 211 249 292
#     4  10  19  31  48  73 102 134 169 209 256 302
#     4   8  14  27  48  71  94 129 170 202 239 296
#     4   8  16  32  52  71  99 138 174 207 245 295
#     4   9  17  30  49  74 103 130 163 205 252 307
#
# _framework density 20.736847000000001
#
# number of rings (size 3 to 8) (size 9 to 14) (size 15 to 20)
#    0.000    2.750    1.250    2.625    0.000    2.500 
#    0.000    1.250    0.000    1.500    0.000    0.000 
#    0.000    0.000    0.000    0.000    0.000    0.000 
#
# Total GULP energy -178138.752759 kJ/mol
# GULP energy per Si atom -5566.836024 kJ/mol
# Density = 2.068965 g / cm^3
# Si number density = 20.736847 Si / 1000 Ang^3
#
#
#
# Elastic Constant Matrix: (Units=GPa)
#
#
# Indices 1 2 3 4 5 6 
#
# 1 84.3946 2.8068 42.8426 0.0000 -6.2510 0.0000
# 2 2.8068 16.8079 4.3387 0.0000 5.1056 0.0000
# 3 42.8426 4.3387 139.0962 0.0000 5.2540 0.0000
# 4 0.0000 0.0000 0.0000 18.4251 0.0000 -6.2897
# 5 -6.2510 5.1056 5.2540 0.0000 26.0804 0.0000
# 6 0.0000 0.0000 0.0000 -6.2897 0.0000 6.7618
#
#
#
# Elastic Compliance Matrix: (Units=1/GPa)
#
#
# Indices 1 2 3 4 5 6 
#
# 1 0.014653 -0.002770 -0.004615 0.000000 0.004984 0.000000
# 2 -0.002770 0.064100 -0.000652 0.000000 -0.013081 0.000000
# 3 -0.004615 -0.000652 0.008735 0.000000 -0.002738 0.000000
# 4 0.000000 0.000000 0.000000 0.079526 0.000000 0.073973
# 5 0.004984 -0.013081 -0.002738 0.000000 0.042650 0.000000
# 6 0.000000 0.000000 0.000000 0.073973 0.000000 0.216698
#
#
# Mechanical properties :
#
#
# Convention : Reuss Voigt Hill
#
# Bulk Modulus (GPa) = 14.00286 37.80832 25.90559
# Shear Modulus (GPa) = 10.72407 22.94083 16.83245
#
# Velocity S-wave (km/s) = 2.27656 3.32969 2.85216
# Velocity P-wave (km/s) = 3.69833 5.74930 4.83384
#
# Compressibility (1/GPa) = 0.07141398
#
# Stress axis : x y z
#
# Youngs Moduli (GPa) = 68.24423 15.60054 114.48794
#
# Poissons Ratio (x) = 0.04321 0.52838
# Poissons Ratio (y) = 0.18901 0.07467
# Poissons Ratio (z) = 0.31496 0.01018
#
# Static dielectric constant tensor:
#      x y z
#    x 1.796670 0.000000 -0.017130 
#    y 0.000000 1.777180 0.000000 
#    z -0.017130 0.000000 1.646510 
# 
# From -- ./inp_files/55665.got.cif
#   From: 2010.05.17/outbox.cif.g08.bks.cpg/sg11_28_cif.got.tgz:55665.got - 2010.06.03 12:22:45.
