data_PCOD9158550
_publ_section_title
;
Structure prediction by ZEFSAII (Michael W. Deem and Ramdas Pophale) SiO2 
 PCOD9158550
Probable space group: P 21/M
;
_chemical_formula_sum "Si O2"
_cell_formula_units_Z 32
_cell_length_a 23.859397
_cell_length_b 8.633212
_cell_length_c 29.611870
_cell_angle_alpha 90.000000
_cell_angle_beta 16.981834
_cell_angle_gamma 90.000000
_cell_volume 1781.485963
_symmetry_space_group_name_H-M "P 21/M"
_symmetry_group_IT_number 11
_symmetry_cell_setting 'monoclinic'
loop_
_space_group_symop_operation_xyz
x,y,z
-x,1/2+y,-z
-x,-y,-z
x,1/2-y,z
loop_
_atom_site_type_symbol
_atom_site_label
_atom_site_fract_x
_atom_site_fract_y
_atom_site_fract_z
Si Si1 0.147990 0.434991 0.816722
Si Si2 0.831914 0.436265 0.661353
Si Si3 0.777280 0.933856 0.984115
Si Si4 0.709984 0.063507 0.850624
Si Si5 0.589355 0.063843 0.038786
Si Si6 0.200122 0.062357 0.675852
Si Si7 0.443663 0.563670 0.657913
Si Si8 0.292494 0.563504 0.866875
O O1 0.163877 0.250000 0.809957
O O2 0.238438 0.480044 0.698555
O O3 0.257076 0.514450 0.773491
O O4 0.923422 0.472446 0.984123
O O5 0.835147 0.250000 0.656868
O O6 0.845218 0.484663 0.704447
O O7 0.623146 0.495407 0.805865
O O8 0.000000 0.500000 0.500000
O O9 0.777440 0.750000 0.980850
O O10 0.995030 0.996035 0.819699
O O11 0.674290 0.005251 0.020147
O O12 0.679323 0.986394 0.106525
O O13 0.706880 0.250000 0.852034
O O14 0.727349 0.018232 0.889891
O O15 0.500000 0.000000 0.000000
O O16 0.574935 0.250000 0.050364
O O17 0.187439 0.250000 0.684144
O O18 0.369874 0.008159 0.512652
O O19 0.448604 0.750000 0.654663
O O20 0.429996 0.512700 0.720318
O O21 0.302361 0.750000 0.864970
#
# Coordination Sequence:
#
# PCOD9158550 Si02
#       8
#     4   4   4   4   4   4   4   4
#     4   9  17  29  47  71 102 133 163 202 253 308
#     4  10  19  33  53  83 117 143 170 206 247 293
#     4  11  22  36  54  75  97 130 173 214 253 300
#     4   8  16  30  51  77 104 134 169 204 241 285
#     4  10  19  35  58  79 101 136 174 210 252 299
#     4   9  19  35  51  71  99 131 165 207 254 304
#     4  10  19  31  51  75  99 128 165 207 257 309
#     4   9  19  35  51  71 100 135 170 208 253 306
#
# _framework density 17.962533000000001
#
# number of rings (size 3 to 8) (size 9 to 14) (size 15 to 20)
#    0.000    2.500    0.000    3.375    0.000    4.000 
#    0.000    1.250    0.000    3.000    0.000    0.000 
#    0.000    0.000    0.000    0.000    0.000    0.000 
#
# Total GULP energy -178373.738716 kJ/mol
# GULP energy per Si atom -5574.179335 kJ/mol
# Density = 1.792165 g / cm^3
# Si number density = 17.962533 Si / 1000 Ang^3
#
#
#
# Elastic Constant Matrix: (Units=GPa)
#
#
# Indices 1 2 3 4 5 6 
#
# 1 148.6765 30.3488 48.2714 0.0000 28.4506 0.0000
# 2 30.3488 27.8381 15.4955 0.0000 9.9330 0.0000
# 3 48.2714 15.4955 52.1735 0.0000 33.1866 0.0000
# 4 0.0000 0.0000 0.0000 20.0911 0.0000 -4.3921
# 5 28.4506 9.9330 33.1866 0.0000 34.1217 0.0000
# 6 0.0000 0.0000 0.0000 -4.3921 0.0000 25.3809
#
#
#
# Elastic Compliance Matrix: (Units=1/GPa)
#
#
# Indices 1 2 3 4 5 6 
#
# 1 0.010802 -0.007450 -0.009000 0.000000 0.001915 0.000000
# 2 -0.007450 0.048176 -0.006414 0.000000 -0.001574 0.000000
# 3 -0.009000 -0.006414 0.061459 0.000000 -0.050404 0.000000
# 4 0.000000 0.000000 0.000000 0.051730 0.000000 0.008952
# 5 0.001915 -0.001574 -0.050404 0.000000 0.077191 0.000000
# 6 0.000000 0.000000 0.000000 0.008952 0.000000 0.040949
#
#
# Mechanical properties :
#
#
# Convention : Reuss Voigt Hill
#
# Bulk Modulus (GPa) = 13.38513 46.32438 29.85476
# Shear Modulus (GPa) = 13.85277 24.89023 19.37150
#
# Velocity S-wave (km/s) = 2.78007 3.72650 3.28752
# Velocity P-wave (km/s) = 4.21579 6.66042 5.57378
#
# Compressibility (1/GPa) = 0.07470979
#
# Stress axis : x y z
#
# Youngs Moduli (GPa) = 92.57224 20.75724 16.27096
#
# Poissons Ratio (x) = 0.15465 0.14643
# Poissons Ratio (y) = 0.68970 0.10436
# Poissons Ratio (z) = 0.83313 0.13313
#
# Static dielectric constant tensor:
#      x y z
#    x 1.624850 0.000000 0.049340 
#    y 0.000000 1.600520 0.000000 
#    z 0.049340 0.000000 1.617580 
# 
# From -- ./inp_files/67058.got.cif
#   From: 2010.05.17/outbox.cif.g08.bks.cpg/sg11_34_cif.got.tgz:67058.got - 2010.06.03 12:22:45.
