data_PCOD9158729
_publ_section_title
;
Structure prediction by ZEFSAII (Michael W. Deem and Ramdas Pophale) SiO2 
 PCOD9158729
Probable space group: P 21/M
;
_chemical_formula_sum "Si O2"
_cell_formula_units_Z 32
_cell_length_a 31.698571
_cell_length_b 8.890299
_cell_length_c 15.387672
_cell_angle_alpha 90.000000
_cell_angle_beta 151.655648
_cell_angle_gamma 90.000000
_cell_volume 2058.789318
_symmetry_space_group_name_H-M "P 21/M"
_symmetry_group_IT_number 11
_symmetry_cell_setting 'monoclinic'
loop_
_space_group_symop_operation_xyz
x,y,z
-x,1/2+y,-z
-x,-y,-z
x,1/2-y,z
loop_
_atom_site_type_symbol
_atom_site_label
_atom_site_fract_x
_atom_site_fract_y
_atom_site_fract_z
Si Si1 0.619214 0.429683 0.653465
Si Si2 0.378272 0.069731 0.629785
Si Si3 0.115308 0.570739 0.286024
Si Si4 0.436580 0.928981 0.257713
Si Si5 0.084937 0.429294 0.042320
Si Si6 0.754372 0.070495 0.753004
Si Si7 0.429978 0.069805 0.063479
Si Si8 0.705695 0.930091 0.334928
O O1 0.601746 0.250000 0.612972
O O2 0.618614 0.464134 0.754795
O O3 0.536788 0.516755 0.460876
O O4 0.708099 0.463672 0.761312
O O5 0.379261 0.250000 0.620968
O O6 0.344638 0.034387 0.665979
O O7 0.310399 0.998276 0.437798
O O8 0.475872 0.004036 0.790584
O O9 0.120871 0.750000 0.284280
O O10 0.114428 0.493279 0.189699
O O11 0.199611 0.511051 0.491061
O O12 0.019718 0.535969 0.155600
O O13 0.436089 0.750000 0.243066
O O14 0.405597 0.012285 0.115118
O O15 0.096369 0.250000 0.063603
O O16 0.148877 0.501851 0.087121
O O17 0.757687 0.250000 0.748319
O O18 0.440066 0.250000 0.081995
O O19 0.356396 0.028459 0.858555
O O20 0.719561 0.750000 0.358348
#
# Coordination Sequence:
#
# PCOD9158729 Si02
#       8
#     4   4   4   4   4   4   4   4
#     4   9  19  33  49  70  98 126 160 202 246 294
#     4  11  21  33  48  70  98 133 171 206 237 279
#     4  10  20  33  51  72  95 128 166 204 244 285
#     4  10  19  32  50  71  94 127 164 203 246 287
#     4  10  20  33  49  72 101 128 160 201 244 293
#     4  11  20  31  50  75 100 132 163 197 244 293
#     4  11  22  35  49  69  98 134 169 204 243 288
#     4  10  22  36  50  68  97 133 169 206 244 285
#
# _framework density 15.543115
#
# number of rings (size 3 to 8) (size 9 to 14) (size 15 to 20)
#    0.000    1.750    2.500    2.625    0.000    4.000 
#    0.000    0.000    0.000    0.000    0.000    0.875 
#    0.000    0.000    0.000    0.000    0.000    0.000 
#
# Total GULP energy -178637.558063 kJ/mol
# GULP energy per Si atom -5582.423689 kJ/mol
# Density = 1.550774 g / cm^3
# Si number density = 15.543115 Si / 1000 Ang^3
#
#
#
# Elastic Constant Matrix: (Units=GPa)
#
#
# Indices 1 2 3 4 5 6 
#
# 1 126.8159 50.9761 60.0380 0.0000 13.2575 0.0000
# 2 50.9761 48.9537 39.1598 0.0000 6.7668 0.0000
# 3 60.0380 39.1598 82.1040 0.0000 7.1374 0.0000
# 4 0.0000 0.0000 0.0000 26.0328 0.0000 2.7104
# 5 13.2575 6.7668 7.1374 0.0000 21.7999 0.0000
# 6 0.0000 0.0000 0.0000 2.7104 0.0000 24.0099
#
#
#
# Elastic Compliance Matrix: (Units=1/GPa)
#
#
# Indices 1 2 3 4 5 6 
#
# 1 0.015398 -0.010905 -0.005701 0.000000 -0.004113 0.000000
# 2 -0.010905 0.041345 -0.011535 0.000000 -0.002425 0.000000
# 3 -0.005701 -0.011535 0.021859 0.000000 -0.000110 0.000000
# 4 0.000000 0.000000 0.000000 0.038870 0.000000 -0.004388
# 5 -0.004113 -0.002425 -0.000110 0.000000 0.049162 0.000000
# 6 0.000000 0.000000 0.000000 -0.004388 0.000000 0.042145
#
#
# Mechanical properties :
#
#
# Convention : Reuss Voigt Hill
#
# Bulk Modulus (GPa) = 44.80020 62.02462 53.41241
# Shear Modulus (GPa) = 18.34856 21.54847 19.94852
#
# Velocity S-wave (km/s) = 3.43956 3.72744 3.58639
# Velocity P-wave (km/s) = 6.68280 7.64961 7.18249
#
# Compressibility (1/GPa) = 0.02232133
#
# Stress axis : x y z
#
# Youngs Moduli (GPa) = 64.94404 24.18648 45.74701
#
# Poissons Ratio (x) = 0.26376 0.26079
# Poissons Ratio (y) = 0.70823 0.52767
# Poissons Ratio (z) = 0.37023 0.27898
#
# Static dielectric constant tensor:
#      x y z
#    x 1.529190 0.000000 0.009960 
#    y 0.000000 1.519950 0.000000 
#    z 0.009960 0.000000 1.490100 
# 
# From -- ./inp_files/51194.got.cif
#   From: 2010.05.17/outbox.cif.g08.bks.cpg/sg11_26_cif.got.tgz:51194.got - 2010.06.03 12:22:45.
