data_PCOD9158596
_publ_section_title
;
Structure prediction by ZEFSAII (Michael W. Deem and Ramdas Pophale) SiO2 
 PCOD9158596
Probable space group: P 21/M
;
_chemical_formula_sum "Si O2"
_cell_formula_units_Z 28
_cell_length_a 18.627889
_cell_length_b 13.513482
_cell_length_c 15.861858
_cell_angle_alpha 90.000000
_cell_angle_beta 22.074105
_cell_angle_gamma 90.000000
_cell_volume 1500.541711
_symmetry_space_group_name_H-M "P 21/M"
_symmetry_group_IT_number 11
_symmetry_cell_setting 'monoclinic'
loop_
_space_group_symop_operation_xyz
x,y,z
-x,1/2+y,-z
-x,-y,-z
x,1/2-y,z
loop_
_atom_site_type_symbol
_atom_site_label
_atom_site_fract_x
_atom_site_fract_y
_atom_site_fract_z
Si Si1 0.467063 0.514999 0.291025
Si Si2 0.765538 0.365623 0.915401
Si Si3 0.518085 0.367490 0.890699
Si Si4 0.778506 0.474070 0.729101
Si Si5 0.981652 0.639341 0.078389
Si Si6 0.144509 0.361532 0.594629
Si Si7 0.324410 0.526929 0.631469
O O1 0.500931 0.601152 0.186508
O O2 0.306154 0.443088 0.426112
O O3 0.399247 0.550361 0.456171
O O4 0.648848 0.442043 0.100419
O O5 0.718470 0.250000 0.980219
O O6 0.722875 0.401935 0.867498
O O7 0.990327 0.377199 0.689649
O O8 0.511490 0.250000 0.909176
O O9 0.711391 0.415213 0.719304
O O10 0.347866 0.426389 0.123717
O O11 0.000000 0.500000 0.500000
O O12 0.933268 0.750000 0.105097
O O13 0.971189 0.634375 0.191176
O O14 0.819460 0.565912 0.221293
O O15 0.188929 0.610085 0.818821
O O16 0.224886 0.250000 0.499671
O O17 0.500000 0.500000 0.500000
#
# Coordination Sequence:
#
# PCOD9158596 Si02
#       7
#     4   4   4   4   4   4   4
#     4  10  20  34  52  74 106 140 173 214 266 316
#     4  10  19  31  52  80 103 128 169 214 257 311
#     4  10  22  38  55  79 110 142 178 219 264 319
#     4  10  21  38  58  79 106 140 177 218 263 313
#     4   9  19  34  51  75 105 136 174 218 263 313
#     4   9  17  31  52  77 105 134 166 211 264 312
#     4  10  20  34  54  77 104 140 180 222 265 312
#
# _framework density 18.659928000000001
#
# number of rings (size 3 to 8) (size 9 to 14) (size 15 to 20)
#    0.000    2.286    0.000    2.571    0.000    2.857 
#    0.000    3.571    0.000    0.000    0.000    0.000 
#    0.000    0.000    0.000    0.000    0.000    0.000 
#
# Total GULP energy -156208.077176 kJ/mol
# GULP energy per Si atom -5578.859899 kJ/mol
# Density = 1.861746 g / cm^3
# Si number density = 18.659928 Si / 1000 Ang^3
#
#
#
# Elastic Constant Matrix: (Units=GPa)
#
#
# Indices 1 2 3 4 5 6 
#
# 1 63.4877 22.8493 9.5200 0.0000 -13.0167 0.0000
# 2 22.8493 96.9450 15.3291 0.0000 -1.5058 0.0000
# 3 9.5200 15.3291 55.9333 0.0000 -8.9105 0.0000
# 4 0.0000 0.0000 0.0000 14.8523 0.0000 0.8432
# 5 -13.0167 -1.5058 -8.9105 0.0000 27.4887 0.0000
# 6 0.0000 0.0000 0.0000 0.8432 0.0000 17.0961
#
#
#
# Elastic Compliance Matrix: (Units=1/GPa)
#
#
# Indices 1 2 3 4 5 6 
#
# 1 0.019160 -0.004268 -0.000720 0.000000 0.008605 0.000000
# 2 -0.004268 0.011737 -0.002857 0.000000 -0.002304 0.000000
# 3 -0.000720 -0.002857 0.019723 0.000000 0.005896 0.000000
# 4 0.000000 0.000000 0.000000 0.067519 0.000000 -0.003330
# 5 0.008605 -0.002304 0.005896 0.000000 0.042238 0.000000
# 6 0.000000 0.000000 0.000000 -0.003330 0.000000 0.058657
#
#
# Mechanical properties :
#
#
# Convention : Reuss Voigt Hill
#
# Bulk Modulus (GPa) = 28.63018 34.64031 31.63525
# Shear Modulus (GPa) = 20.29478 23.13192 21.71335
#
# Velocity S-wave (km/s) = 3.30148 3.52470 3.41491
# Velocity P-wave (km/s) = 5.46895 5.93034 5.70431
#
# Compressibility (1/GPa) = 0.03492818
#
# Stress axis : x y z
#
# Youngs Moduli (GPa) = 52.19327 85.19971 50.70130
#
# Poissons Ratio (x) = 0.36365 0.03652
# Poissons Ratio (y) = 0.22277 0.14487
# Poissons Ratio (z) = 0.03760 0.24344
#
# Static dielectric constant tensor:
#      x y z
#    x 1.654600 0.000000 0.017550 
#    y 0.000000 1.626950 0.000000 
#    z 0.017550 0.000000 1.658140 
# 
# From -- ./inp_files/61472.got.cif
#   From: 2010.05.17/outbox.cif.g08.bks.cpg/sg11_31_cif.got.tgz:61472.got - 2010.06.03 12:22:45.
