data_PCOD9158964
_publ_section_title
;
Structure prediction by ZEFSAII (Michael W. Deem and Ramdas Pophale) SiO2 
 PCOD9158964
Probable space group: P 21/M
;
_chemical_formula_sum "Si O2"
_cell_formula_units_Z 32
_cell_length_a 25.921127
_cell_length_b 8.639001
_cell_length_c 10.490665
_cell_angle_alpha 90.000000
_cell_angle_beta 129.668676
_cell_angle_gamma 90.000000
_cell_volume 1808.295343
_symmetry_space_group_name_H-M "P 21/M"
_symmetry_group_IT_number 11
_symmetry_cell_setting 'monoclinic'
loop_
_space_group_symop_operation_xyz
x,y,z
-x,1/2+y,-z
-x,-y,-z
x,1/2-y,z
loop_
_atom_site_type_symbol
_atom_site_label
_atom_site_fract_x
_atom_site_fract_y
_atom_site_fract_z
Si Si1 0.348283 0.935511 0.521391
Si Si2 0.139487 0.936234 0.549916
Si Si3 0.494232 0.937181 0.847721
Si Si4 0.727885 0.935199 0.355982
Si Si5 0.711170 0.935803 0.832760
Si Si6 0.636622 0.561841 0.971471
Si Si7 0.007971 0.064527 0.655764
Si Si8 0.147892 0.935099 0.863918
O O1 0.347421 0.750000 0.512359
O O2 0.424141 0.986341 0.674887
O O3 0.300979 0.989793 0.562114
O O4 0.322820 0.004845 0.349143
O O5 0.146329 0.750000 0.553011
O O6 0.149323 0.979698 0.715184
O O7 0.062975 0.976865 0.391373
O O8 0.196674 0.015312 0.557511
O O9 0.494587 0.750000 0.853893
O O10 0.560186 0.987599 0.874137
O O11 0.500000 0.000000 0.000000
O O12 0.723336 0.750000 0.359038
O O13 0.681788 0.986233 0.163299
O O14 0.712267 0.750000 0.834876
O O15 0.669614 0.990468 0.891658
O O16 0.786655 0.997058 0.966740
O O17 0.637259 0.750000 0.970974
O O18 0.012225 0.250000 0.658141
O O19 0.078269 0.996475 0.813033
O O20 0.000000 0.000000 0.500000
O O21 0.148302 0.750000 0.870058
#
# Coordination Sequence:
#
# PCOD9158964 Si02
#       8
#     4   4   4   4   4   4   4   4
#     4  11  24  39  56  82 114 148 184 231 283 337
#     4   9  18  31  50  80 115 145 181 231 278 324
#     4  10  20  37  59  82 111 143 182 230 281 332
#     4  11  20  34  58  83 110 146 188 233 277 330
#     4  11  22  38  58  81 112 151 189 231 278 334
#     4   9  19  35  57  84 110 140 184 233 278 326
#     4   9  17  29  47  76 112 148 185 228 278 328
#     4  10  19  32  52  79 113 149 185 229 279 332
#
# _framework density 17.696224000000001
#
# number of rings (size 3 to 8) (size 9 to 14) (size 15 to 20)
#    0.000    2.000    2.500    2.625    0.000    3.500 
#    0.000    1.250    0.000    0.750    0.000    0.000 
#    0.000    0.000    0.000    0.000    0.000    0.000 
#
# Total GULP energy -178566.314865 kJ/mol
# GULP energy per Si atom -5580.197340 kJ/mol
# Density = 1.765595 g / cm^3
# Si number density = 17.696224 Si / 1000 Ang^3
#
#
#
# Elastic Constant Matrix: (Units=GPa)
#
#
# Indices 1 2 3 4 5 6 
#
# 1 120.8919 30.3027 81.3906 0.0000 24.1199 0.0000
# 2 30.3027 38.4598 33.9613 0.0000 7.8279 0.0000
# 3 81.3906 33.9613 133.2962 0.0000 16.7442 0.0000
# 4 0.0000 0.0000 0.0000 24.7464 0.0000 0.9365
# 5 24.1199 7.8279 16.7442 0.0000 36.2840 0.0000
# 6 0.0000 0.0000 0.0000 0.9365 0.0000 20.9014
#
#
#
# Elastic Compliance Matrix: (Units=1/GPa)
#
#
# Indices 1 2 3 4 5 6 
#
# 1 0.015796 -0.004356 -0.007786 0.000000 -0.005968 0.000000
# 2 -0.004356 0.035173 -0.006064 0.000000 -0.001894 0.000000
# 3 -0.007786 -0.006064 0.013786 0.000000 0.000122 0.000000
# 4 0.000000 0.000000 0.000000 0.040478 0.000000 -0.001814
# 5 -0.005968 -0.001894 0.000122 0.000000 0.031880 0.000000
# 6 0.000000 0.000000 0.000000 -0.001814 0.000000 0.047925
#
#
# Mechanical properties :
#
#
# Convention : Reuss Voigt Hill
#
# Bulk Modulus (GPa) = 35.28064 64.88413 50.08239
# Shear Modulus (GPa) = 21.65464 26.18591 23.92028
#
# Velocity S-wave (km/s) = 3.50192 3.85092 3.68056
# Velocity P-wave (km/s) = 6.02755 7.51784 6.81356
#
# Compressibility (1/GPa) = 0.02834416
#
# Stress axis : x y z
#
# Youngs Moduli (GPa) = 63.30679 28.43055 72.53993
#
# Poissons Ratio (x) = 0.12385 0.56476
# Poissons Ratio (y) = 0.27578 0.43986
# Poissons Ratio (z) = 0.49288 0.17239
#
# Static dielectric constant tensor:
#      x y z
#    x 1.600920 0.000000 0.028220 
#    y 0.000000 1.592240 0.000000 
#    z 0.028220 0.000000 1.585640 
# 
# From -- ./inp_files/43817.got.cif
#   From: 2010.05.17/outbox.cif.g08.bks.cpg/sg11_22_cif.got.tgz:43817.got - 2010.06.03 12:22:45.
