data_PCOD9158822
_publ_section_title
;
Structure prediction by ZEFSAII (Michael W. Deem and Ramdas Pophale) SiO2 
 PCOD9158822
Probable space group: P 21/M
;
_chemical_formula_sum "Si O2"
_cell_formula_units_Z 28
_cell_length_a 16.557265
_cell_length_b 8.929830
_cell_length_c 18.333843
_cell_angle_alpha 90.000000
_cell_angle_beta 154.534811
_cell_angle_gamma 90.000000
_cell_volume 1165.510033
_symmetry_space_group_name_H-M "P 21/M"
_symmetry_group_IT_number 11
_symmetry_cell_setting 'monoclinic'
loop_
_space_group_symop_operation_xyz
x,y,z
-x,1/2+y,-z
-x,-y,-z
x,1/2-y,z
loop_
_atom_site_type_symbol
_atom_site_label
_atom_site_fract_x
_atom_site_fract_y
_atom_site_fract_z
Si Si1 0.865455 0.922505 0.167072
Si Si2 0.190662 0.579668 0.028429
Si Si3 0.745186 0.572935 0.771504
Si Si4 0.884185 0.928039 0.340044
Si Si5 0.355114 0.421193 0.627624
Si Si6 0.665482 0.569284 0.549125
Si Si7 0.584430 0.418908 0.176993
O O1 0.928213 0.750000 0.211712
O O2 0.934664 0.988601 0.300764
O O3 0.639065 0.922087 0.996407
O O4 0.886455 0.001363 0.106773
O O5 0.125816 0.750000 0.976274
O O6 0.159951 0.508853 0.082905
O O7 0.418948 0.580227 0.204271
O O8 0.765360 0.750000 0.798339
O O9 0.785615 0.535716 0.719522
O O10 0.525811 0.524879 0.599030
O O11 0.906014 0.750000 0.356149
O O12 0.671351 0.968812 0.189257
O O13 0.000000 0.000000 0.500000
O O14 0.303550 0.250000 0.605861
O O15 0.264444 0.462200 0.475671
O O16 0.334493 0.533214 0.677791
O O17 0.625506 0.750000 0.518351
O O18 0.642382 0.250000 0.205790
#
# Coordination Sequence:
#
# PCOD9158822 Si02
#       7
#     4   4   4   4   4   4   4
#     4   9  19  34  52  73  96 124 160 199 238 282
#     4   9  16  25  39  60  87 119 155 193 233 278
#     4   9  14  20  32  51  80 117 154 191 231 275
#     4  11  23  38  54  73  98 126 156 194 240 288
#     4   8  14  25  39  58  86 119 155 193 232 274
#     4   8  14  22  32  50  79 117 156 191 230 275
#     4  10  19  32  51  74  97 124 160 198 238 284
#
# _framework density 24.023817000000001
#
# number of rings (size 3 to 8) (size 9 to 14) (size 15 to 20)
#    0.000    2.857    0.000    3.000    0.000    5.714 
#    0.000    0.000    0.000    0.000    0.000    0.000 
#    0.000    1.143    0.000    3.429    0.000   10.571 
#
# Total GULP energy -156528.594588 kJ/mol
# GULP energy per Si atom -5590.306950 kJ/mol
# Density = 2.396914 g / cm^3
# Si number density = 24.023817 Si / 1000 Ang^3
#
#
#
# Elastic Constant Matrix: (Units=GPa)
#
#
# Indices 1 2 3 4 5 6 
#
# 1 133.9138 45.2158 34.8313 0.0000 -41.5958 0.0000
# 2 45.2158 79.2085 41.4482 0.0000 -39.1089 0.0000
# 3 34.8313 41.4482 155.2677 0.0000 -48.4460 0.0000
# 4 0.0000 0.0000 0.0000 27.9719 0.0000 -14.2851
# 5 -41.5958 -39.1089 -48.4460 0.0000 61.2675 0.0000
# 6 0.0000 0.0000 0.0000 -14.2851 0.0000 25.7915
#
#
#
# Elastic Compliance Matrix: (Units=1/GPa)
#
#
# Indices 1 2 3 4 5 6 
#
# 1 0.010078 -0.003496 0.000147 0.000000 0.004727 0.000000
# 2 -0.003496 0.019976 -0.001739 0.000000 0.009002 0.000000
# 3 0.000147 -0.001739 0.008704 0.000000 0.005872 0.000000
# 4 0.000000 0.000000 0.000000 0.049851 0.000000 0.027611
# 5 0.004727 0.009002 0.005872 0.000000 0.029921 0.000000
# 6 0.000000 0.000000 0.000000 0.027611 0.000000 0.054065
#
#
# Mechanical properties :
#
#
# Convention : Reuss Voigt Hill
#
# Bulk Modulus (GPa) = 34.98799 67.93117 51.45958
# Shear Modulus (GPa) = 26.00137 39.46583 32.73360
#
# Velocity S-wave (km/s) = 3.29343 4.05752 3.69527
# Velocity P-wave (km/s) = 5.39052 7.09149 6.29869
#
# Compressibility (1/GPa) = 0.02858124
#
# Stress axis : x y z
#
# Youngs Moduli (GPa) = 99.22721 50.06122 114.89002
#
# Poissons Ratio (x) = 0.17502 -0.01693
# Poissons Ratio (y) = 0.34691 0.19983
# Poissons Ratio (z) = -0.01462 0.08707
#
# Static dielectric constant tensor:
#      x y z
#    x 1.970210 0.000000 0.064470 
#    y 0.000000 1.810050 0.000000 
#    z 0.064470 0.000000 1.986340 
# 
# From -- ./inp_files/61277.got.cif
#   From: 2010.05.17/outbox.cif.g08.bks.cpg/sg11_31_cif.got.tgz:61277.got - 2010.06.03 12:22:45.
