data_PCOD9158255
_publ_section_title
;
Structure prediction by ZEFSAII (Michael W. Deem and Ramdas Pophale) SiO2 
 PCOD9158255
Probable space group: P 21/M
;
_chemical_formula_sum "Si O2"
_cell_formula_units_Z 28
_cell_length_a 21.697976
_cell_length_b 7.503307
_cell_length_c 14.492079
_cell_angle_alpha 90.000000
_cell_angle_beta 144.712938
_cell_angle_gamma 90.000000
_cell_volume 1362.965746
_symmetry_space_group_name_H-M "P 21/M"
_symmetry_group_IT_number 11
_symmetry_cell_setting 'monoclinic'
loop_
_space_group_symop_operation_xyz
x,y,z
-x,1/2+y,-z
-x,-y,-z
x,1/2-y,z
loop_
_atom_site_type_symbol
_atom_site_label
_atom_site_fract_x
_atom_site_fract_y
_atom_site_fract_z
Si Si1 0.119601 0.962317 0.675693
Si Si2 0.762995 0.031650 0.998681
Si Si3 0.556160 0.464182 0.853952
Si Si4 0.881426 0.038642 0.964673
Si Si5 0.674190 0.032322 0.180730
Si Si6 0.123720 0.534405 0.251197
Si Si7 0.674663 0.039164 0.388215
O O1 0.130882 0.750000 0.692842
O O2 0.208435 0.022912 0.711015
O O3 0.155565 0.026207 0.820752
O O4 0.000000 0.000000 0.500000
O O5 0.763407 0.250000 0.997053
O O6 0.645559 0.976343 0.889889
O O7 0.804468 0.968108 0.950568
O O8 0.561073 0.250000 0.861252
O O9 0.434522 0.515604 0.689127
O O10 0.593546 0.527467 0.001659
O O11 0.862431 0.250000 0.936019
O O12 0.866961 0.967624 0.843119
O O13 0.005691 0.012698 0.142021
O O14 0.668857 0.250000 0.174943
O O15 0.656589 0.966838 0.262759
O O16 0.128467 0.750000 0.254418
O O17 0.220785 0.468140 0.432621
O O18 0.692770 0.250000 0.399732
#
# Coordination Sequence:
#
# PCOD9158255 Si02
#       7
#     4   4   4   4   4   4   4
#     4   9  17  29  44  66  93 121 153 188 226 273
#     4   8  16  31  50  67  90 124 156 188 233 276
#     4   9  17  32  50  68  89 121 162 193 221 271
#     4   9  17  33  53  69  91 124 158 191 229 280
#     4   8  16  30  46  63  91 127 153 181 229 278
#     4   9  19  32  48  72  97 121 152 192 238 280
#     4  10  19  31  47  68  96 124 151 189 237 278
#
# _framework density 20.543437999999998
#
# number of rings (size 3 to 8) (size 9 to 14) (size 15 to 20)
#    0.000    3.143    0.000    2.143    2.000    0.571 
#    0.000    5.000    0.000    0.000    0.000    0.000 
#    0.000    0.000    0.000    0.000    0.000    0.000 
#
# Total GULP energy -156155.870605 kJ/mol
# GULP energy per Si atom -5576.995379 kJ/mol
# Density = 2.049668 g / cm^3
# Si number density = 20.543438 Si / 1000 Ang^3
#
#
#
# Elastic Constant Matrix: (Units=GPa)
#
#
# Indices 1 2 3 4 5 6 
#
# 1 126.9807 -0.0254 37.1337 0.0000 0.8647 0.0000
# 2 -0.0254 51.5141 -6.4237 0.0000 -5.8424 0.0000
# 3 37.1337 -6.4237 70.5679 0.0000 11.7785 0.0000
# 4 0.0000 0.0000 0.0000 14.0127 0.0000 9.3365
# 5 0.8647 -5.8424 11.7785 0.0000 12.0944 0.0000
# 6 0.0000 0.0000 0.0000 9.3365 0.0000 8.1201
#
#
#
# Elastic Compliance Matrix: (Units=1/GPa)
#
#
# Indices 1 2 3 4 5 6 
#
# 1 0.009559 -0.000166 -0.005872 0.000000 0.004955 0.000000
# 2 -0.000166 0.020544 0.000357 0.000000 0.009589 0.000000
# 3 -0.005872 0.000357 0.020532 0.000000 -0.019403 0.000000
# 4 0.000000 0.000000 0.000000 0.305097 0.000000 -0.350800
# 5 0.004955 0.009589 -0.019403 0.000000 0.105856 0.000000
# 6 0.000000 0.000000 0.000000 -0.350800 0.000000 0.526500
#
#
# Mechanical properties :
#
#
# Convention : Reuss Voigt Hill
#
# Bulk Modulus (GPa) = 25.46287 34.49244 29.97765
# Shear Modulus (GPa) = 4.93807 21.40399 13.17103
#
# Velocity S-wave (km/s) = 1.55208 3.23133 2.53480
# Velocity P-wave (km/s) = 3.95392 5.54513 4.81570
#
# Compressibility (1/GPa) = 0.03927287
#
# Stress axis : x y z
#
# Youngs Moduli (GPa) = 104.61754 48.67593 48.70516
#
# Poissons Ratio (x) = 0.00806 0.28600
# Poissons Ratio (y) = 0.01732 -0.01738
# Poissons Ratio (z) = 0.61432 -0.01737
#
# Static dielectric constant tensor:
#      x y z
#    x 1.740310 0.000000 -0.005380 
#    y 0.000000 1.775670 0.000000 
#    z -0.005380 0.000000 1.718040 
# 
# From -- ./inp_files/21288.got.cif
#   From: 2010.05.17/outbox.cif.g08.bks.cpg/sg11_11_cif.got.tgz:21288.got - 2010.06.03 12:22:45.
