data_PCOD9158856
_publ_section_title
;
Structure prediction by ZEFSAII (Michael W. Deem and Ramdas Pophale) SiO2 
 PCOD9158856
Probable space group: P 21/M
;
_chemical_formula_sum "Si O2"
_cell_formula_units_Z 24
_cell_length_a 11.847567
_cell_length_b 8.438975
_cell_length_c 18.252411
_cell_angle_alpha 90.000000
_cell_angle_beta 48.524130
_cell_angle_gamma 90.000000
_cell_volume 1367.278564
_symmetry_space_group_name_H-M "P 21/M"
_symmetry_group_IT_number 11
_symmetry_cell_setting 'monoclinic'
loop_
_space_group_symop_operation_xyz
x,y,z
-x,1/2+y,-z
-x,-y,-z
x,1/2-y,z
loop_
_atom_site_type_symbol
_atom_site_label
_atom_site_fract_x
_atom_site_fract_y
_atom_site_fract_z
Si Si1 0.934074 0.568592 0.253526
Si Si2 0.252477 0.062693 0.121342
Si Si3 0.070767 0.930973 0.897721
Si Si4 0.598323 0.061889 0.390443
Si Si5 0.474255 0.060016 0.899959
Si Si6 0.608685 0.562036 0.229525
O O1 0.906880 0.750000 0.284396
O O2 0.966414 0.543427 0.153676
O O3 0.775393 0.476992 0.330925
O O4 0.094005 0.510608 0.215838
O O5 0.228901 0.250000 0.127172
O O6 0.384815 0.021460 0.121375
O O7 0.323809 0.011949 0.011116
O O8 0.025658 0.750000 0.902158
O O9 0.248150 0.947216 0.832407
O O10 0.000000 0.000000 0.000000
O O11 0.582948 0.250000 0.388305
O O12 0.500000 0.000000 0.500000
O O13 0.544934 0.976073 0.337844
O O14 0.487637 0.250000 0.904387
O O15 0.471109 0.031271 0.814030
O O16 0.650522 0.750000 0.210770
#
# Coordination Sequence:
#
# PCOD9158856 Si02
#       6
#     4   4   4   4   4   4
#     4  11  21  34  52  75 103 135 172 213 260 310
#     4  10  19  32  51  76 108 145 182 216 251 297
#     4  11  20  30  45  69 101 135 170 208 254 306
#     4  11  22  38  58  80 104 131 169 215 268 321
#     4   9  19  33  50  74 107 145 181 215 251 298
#     4  10  19  33  52  75 103 135 172 213 259 308
#
# _framework density 17.553117
#
# number of rings (size 3 to 8) (size 9 to 14) (size 15 to 20)
#    0.000    1.667    0.000    8.500    0.000    3.333 
#    0.000    0.000    0.000    1.000    0.000    0.000 
#    0.000    0.000    0.000    0.000    0.000    0.000 
#
# Total GULP energy -133708.119289 kJ/mol
# GULP energy per Si atom -5571.171637 kJ/mol
# Density = 1.751316 g / cm^3
# Si number density = 17.553117 Si / 1000 Ang^3
#
#
#
# Elastic Constant Matrix: (Units=GPa)
#
#
# Indices 1 2 3 4 5 6 
#
# 1 70.1724 20.5771 32.7447 0.0000 1.0342 0.0000
# 2 20.5771 68.6915 11.9759 0.0000 1.1222 0.0000
# 3 32.7447 11.9759 97.9903 0.0000 9.2884 0.0000
# 4 0.0000 0.0000 0.0000 26.3785 0.0000 -2.1114
# 5 1.0342 1.1222 9.2884 0.0000 24.5997 0.0000
# 6 0.0000 0.0000 0.0000 -2.1114 0.0000 27.0240
#
#
#
# Elastic Compliance Matrix: (Units=1/GPa)
#
#
# Indices 1 2 3 4 5 6 
#
# 1 0.018194 -0.004485 -0.005682 0.000000 0.001585 0.000000
# 2 -0.004485 0.015981 -0.000418 0.000000 -0.000383 0.000000
# 3 -0.005682 -0.000418 0.012581 0.000000 -0.004492 0.000000
# 4 0.000000 0.000000 0.000000 0.038148 0.000000 0.002981
# 5 0.001585 -0.000383 -0.004492 0.000000 0.042298 0.000000
# 6 0.000000 0.000000 0.000000 0.002981 0.000000 0.037237
#
#
# Mechanical properties :
#
#
# Convention : Reuss Voigt Hill
#
# Bulk Modulus (GPa) = 39.08572 40.82775 39.95674
# Shear Modulus (GPa) = 25.75504 27.03754 26.39629
#
# Velocity S-wave (km/s) = 3.83464 3.92896 3.88209
# Velocity P-wave (km/s) = 6.47468 6.62513 6.55033
#
# Compressibility (1/GPa) = 0.02558479
#
# Stress axis : x y z
#
# Youngs Moduli (GPa) = 54.96363 62.57584 79.48729
#
# Poissons Ratio (x) = 0.28068 0.45163
# Poissons Ratio (y) = 0.24654 0.03322
# Poissons Ratio (z) = 0.31229 0.02615
#
# Static dielectric constant tensor:
#      x y z
#    x 1.635300 0.000000 -0.010370 
#    y 0.000000 1.601350 0.000000 
#    z -0.010370 0.000000 1.605530 
# 
# From -- ./inp_files/58602.got.cif
#   From: 2010.05.17/outbox.cif.g08.bks.cpg/sg11_30_cif.got.tgz:58602.got - 2010.06.03 12:22:45.
