data_PCOD9158200
_publ_section_title
;
Structure prediction by ZEFSAII (Michael W. Deem and Ramdas Pophale) SiO2 
 PCOD9158200
Probable space group: P 21/M
;
_chemical_formula_sum "Si O2"
_cell_formula_units_Z 24
_cell_length_a 18.135427
_cell_length_b 7.587408
_cell_length_c 26.029334
_cell_angle_alpha 90.000000
_cell_angle_beta 160.783276
_cell_angle_gamma 90.000000
_cell_volume 1178.875550
_symmetry_space_group_name_H-M "P 21/M"
_symmetry_group_IT_number 11
_symmetry_cell_setting 'monoclinic'
loop_
_space_group_symop_operation_xyz
x,y,z
-x,1/2+y,-z
-x,-y,-z
x,1/2-y,z
loop_
_atom_site_type_symbol
_atom_site_label
_atom_site_fract_x
_atom_site_fract_y
_atom_site_fract_z
Si Si1 0.668949 0.038307 0.462802
Si Si2 0.279667 0.538959 0.387457
Si Si3 0.822613 0.533219 0.033459
Si Si4 0.836493 0.460130 0.232014
Si Si5 0.543395 0.544824 0.943387
Si Si6 0.221501 0.038296 0.112733
O O1 0.647524 0.250000 0.451652
O O2 0.693296 0.969269 0.536976
O O3 0.446148 0.971044 0.288356
O O4 0.903559 0.999547 0.589422
O O5 0.500000 0.500000 0.500000
O O6 0.255608 0.750000 0.375526
O O7 0.059068 0.474671 0.212997
O O8 0.821207 0.750000 0.032661
O O9 0.630619 0.472317 0.946808
O O10 0.797625 0.474219 0.958449
O O11 0.806058 0.250000 0.208801
O O12 0.672021 0.530316 0.168518
O O13 0.745346 0.533950 0.117833
O O14 0.493622 0.750000 0.901467
O O15 0.239918 0.250000 0.121977
O O16 0.000000 0.000000 0.000000
#
# Coordination Sequence:
#
# PCOD9158200 Si02
#       6
#     4   4   4   4   4   4
#     4  10  20  35  52  73 105 140 170 206 259 312
#     4  10  19  31  49  71  97 129 165 210 256 296
#     4   9  17  33  54  73  98 136 173 203 251 312
#     4  10  19  30  52  82 105 132 171 215 259 301
#     4   9  17  33  54  76 106 137 168 210 260 312
#     4  10  21  36  55  76 101 139 177 210 255 308
#
# _framework density 20.358383
#
# number of rings (size 3 to 8) (size 9 to 14) (size 15 to 20)
#    0.000    2.333    1.667    1.500    0.000    2.000 
#    0.000    1.667    0.000    0.000    0.000    0.000 
#    0.000    0.000    0.000    0.000    0.000    0.000 
#
# Total GULP energy -133977.178764 kJ/mol
# GULP energy per Si atom -5582.382448 kJ/mol
# Density = 2.031205 g / cm^3
# Si number density = 20.358383 Si / 1000 Ang^3
#
#
#
# Elastic Constant Matrix: (Units=GPa)
#
#
# Indices 1 2 3 4 5 6 
#
# 1 190.9120 0.2714 103.9262 0.0000 -1.3279 0.0000
# 2 0.2714 45.0713 0.4376 0.0000 -8.0529 0.0000
# 3 103.9262 0.4376 167.4073 0.0000 2.6420 0.0000
# 4 0.0000 0.0000 0.0000 9.8395 0.0000 11.5741
# 5 -1.3279 -8.0529 2.6420 0.0000 34.6863 0.0000
# 6 0.0000 0.0000 0.0000 11.5741 0.0000 13.6480
#
#
#
# Elastic Compliance Matrix: (Units=1/GPa)
#
#
# Indices 1 2 3 4 5 6 
#
# 1 0.007928 0.000127 -0.004933 0.000000 0.000709 0.000000
# 2 0.000127 0.023153 -0.000224 0.000000 0.005397 0.000000
# 3 -0.004933 -0.000224 0.009051 0.000000 -0.000930 0.000000
# 4 0.000000 0.000000 0.000000 41.513757 0.000000-35.205688
# 5 0.000709 0.005397 -0.000930 0.000000 0.030181 0.000000
# 6 0.000000 0.000000 0.000000-35.205688 0.000000 29.929409
#
#
# Mechanical properties :
#
#
# Convention : Reuss Voigt Hill
#
# Bulk Modulus (GPa) = 33.25523 68.07342 50.66433
# Shear Modulus (GPa) = 0.06990 31.55180 15.81085
#
# Velocity S-wave (km/s) = 0.18549 3.94104 2.78982
# Velocity P-wave (km/s) = 4.05170 7.36337 5.94287
#
# Compressibility (1/GPa) = 0.03007045
#
# Stress axis : x y z
#
# Youngs Moduli (GPa) = 126.12943 43.19133 110.48027
#
# Poissons Ratio (x) = -0.00548 0.54505
# Poissons Ratio (y) = -0.01599 0.02479
# Poissons Ratio (z) = 0.62225 0.00969
#
# Static dielectric constant tensor:
#      x y z
#    x 1.726070 0.000000 0.006420 
#    y 0.000000 1.762350 0.000000 
#    z 0.006420 0.000000 1.696080 
# 
# From -- ./inp_files/20547.got.cif
#   From: 2010.05.17/outbox.cif.g08.bks.cpg/sg11_11_cif.got.tgz:20547.got - 2010.06.03 12:22:45.
