data_PCOD9158263
_publ_section_title
;
Structure prediction by ZEFSAII (Michael W. Deem and Ramdas Pophale) SiO2 
 PCOD9158263
Probable space group: P 21/M
;
_chemical_formula_sum "Si O2"
_cell_formula_units_Z 32
_cell_length_a 15.127653
_cell_length_b 7.838566
_cell_length_c 26.842584
_cell_angle_alpha 90.000000
_cell_angle_beta 147.929149
_cell_angle_gamma 90.000000
_cell_volume 1690.053555
_symmetry_space_group_name_H-M "P 21/M"
_symmetry_group_IT_number 11
_symmetry_cell_setting 'monoclinic'
loop_
_space_group_symop_operation_xyz
x,y,z
-x,1/2+y,-z
-x,-y,-z
x,1/2-y,z
loop_
_atom_site_type_symbol
_atom_site_label
_atom_site_fract_x
_atom_site_fract_y
_atom_site_fract_z
Si Si1 0.565226 0.543331 0.944391
Si Si2 0.062626 0.544998 0.607468
Si Si3 0.734815 0.948306 0.922701
Si Si4 0.740389 0.543851 0.393455
Si Si5 0.953791 0.949260 0.869718
Si Si6 0.627642 0.053576 0.764550
Si Si7 0.890586 0.049656 0.156431
Si Si8 0.817318 0.459507 0.228255
O O1 0.575365 0.750000 0.951619
O O2 0.624871 0.492961 0.917372
O O3 0.376849 0.490619 0.864340
O O4 0.699959 0.470634 0.047074
O O5 0.051113 0.750000 0.604351
O O6 0.210197 0.503336 0.639315
O O7 0.099446 0.482631 0.680557
O O8 0.891576 0.481317 0.500613
O O9 0.697517 0.750000 0.895429
O O10 0.695812 0.044575 0.853538
O O11 0.924775 0.964687 0.031976
O O12 0.737007 0.750000 0.394072
O O13 0.559091 0.480665 0.322928
O O14 0.000386 0.750000 0.892418
O O15 0.999832 0.020762 0.836996
O O16 0.763602 0.966737 0.794525
O O17 0.618050 0.250000 0.744208
O O18 0.930684 0.250000 0.179140
O O19 0.902066 0.979174 0.217682
O O20 0.819388 0.250000 0.229136
#
# Coordination Sequence:
#
# PCOD9158263 Si02
#       8
#     4   4   4   4   4   4   4   4
#     4   9  17  28  44  68  96 123 150 181 220 270
#     4   9  17  32  53  73  95 122 149 182 227 278
#     4  10  19  31  47  69  96 124 154 188 228 273
#     4   9  19  33  49  72  98 121 148 185 230 276
#     4  10  20  33  47  65  91 124 159 193 230 268
#     4  11  21  32  47  67  92 122 156 192 229 272
#     4   9  18  31  46  65  91 122 155 191 225 261
#     4   9  16  28  48  71  92 118 154 188 221 268
#
# _framework density 18.934311999999998
#
# number of rings (size 3 to 8) (size 9 to 14) (size 15 to 20)
#    0.000    2.500    0.000    2.625    0.000    3.000 
#    0.000    1.250    0.000    0.750    0.000    0.000 
#    0.000    0.000    0.000    0.000    0.000    0.500 
#
# Total GULP energy -178564.549252 kJ/mol
# GULP energy per Si atom -5580.142164 kJ/mol
# Density = 1.889122 g / cm^3
# Si number density = 18.934312 Si / 1000 Ang^3
#
#
#
# Elastic Constant Matrix: (Units=GPa)
#
#
# Indices 1 2 3 4 5 6 
#
# 1 106.0688 -3.8187 65.8945 0.0000 -2.2086 0.0000
# 2 -3.8187 21.4314 -7.7813 0.0000 0.5872 0.0000
# 3 65.8945 -7.7813 68.9422 0.0000 2.8328 0.0000
# 4 0.0000 0.0000 0.0000 13.3135 0.0000 4.6899
# 5 -2.2086 0.5872 2.8328 0.0000 31.4189 0.0000
# 6 0.0000 0.0000 0.0000 4.6899 0.0000 9.8741
#
#
#
# Elastic Compliance Matrix: (Units=1/GPa)
#
#
# Indices 1 2 3 4 5 6 
#
# 1 0.024023 -0.004402 -0.023618 0.000000 0.003901 0.000000
# 2 -0.004402 0.049523 0.009884 0.000000 -0.002126 0.000000
# 3 -0.023618 0.009884 0.038413 0.000000 -0.005308 0.000000
# 4 0.000000 0.000000 0.000000 0.090205 0.000000 -0.042845
# 5 0.003901 -0.002126 -0.005308 0.000000 0.032620 0.000000
# 6 0.000000 0.000000 0.000000 -0.042845 0.000000 0.121625
#
#
# Mechanical properties :
#
#
# Convention : Reuss Voigt Hill
#
# Bulk Modulus (GPa) = 13.21230 33.89238 23.55234
# Shear Modulus (GPa) = 11.96426 20.39782 16.18104
#
# Velocity S-wave (km/s) = 2.51645 3.28578 2.92651
# Velocity P-wave (km/s) = 3.92893 5.68629 4.88725
#
# Compressibility (1/GPa) = 0.07568702
#
# Stress axis : x y z
#
# Youngs Moduli (GPa) = 41.62610 20.19262 26.03288
#
# Poissons Ratio (x) = 0.08888 0.61486
# Poissons Ratio (y) = 0.18322 -0.25731
# Poissons Ratio (z) = 0.98314 -0.19958
#
# Static dielectric constant tensor:
#      x y z
#    x 1.673840 0.000000 -0.000350 
#    y 0.000000 1.679560 0.000000 
#    z -0.000350 0.000000 1.644940 
# 
# From -- ./inp_files/51664.got.cif
#   From: 2010.05.17/outbox.cif.g08.bks.cpg/sg11_26_cif.got.tgz:51664.got - 2010.06.03 12:22:45.
