data_PCOD9158397
_publ_section_title
;
Structure prediction by ZEFSAII (Michael W. Deem and Ramdas Pophale) SiO2 
 PCOD9158397
Probable space group: P 21/M
;
_chemical_formula_sum "Si O2"
_cell_formula_units_Z 32
_cell_length_a 12.707530
_cell_length_b 7.701230
_cell_length_c 23.551532
_cell_angle_alpha 90.000000
_cell_angle_beta 46.055328
_cell_angle_gamma 90.000000
_cell_volume 1659.507001
_symmetry_space_group_name_H-M "P 21/M"
_symmetry_group_IT_number 11
_symmetry_cell_setting 'monoclinic'
loop_
_space_group_symop_operation_xyz
x,y,z
-x,1/2+y,-z
-x,-y,-z
x,1/2-y,z
loop_
_atom_site_type_symbol
_atom_site_label
_atom_site_fract_x
_atom_site_fract_y
_atom_site_fract_z
Si Si1 0.597873 0.536593 0.342796
Si Si2 0.162386 0.452233 0.457473
Si Si3 0.184450 0.951870 0.191809
Si Si4 0.314849 0.948237 0.513695
Si Si5 0.863369 0.951056 0.312251
Si Si6 0.523161 0.463233 0.854233
Si Si7 0.444287 0.540607 0.285658
Si Si8 0.650257 0.956804 0.976585
O O1 0.595960 0.750000 0.344349
O O2 0.472000 0.481475 0.434583
O O3 0.755400 0.475197 0.304734
O O4 0.546377 0.481094 0.299581
O O5 0.168166 0.250000 0.469325
O O6 0.218156 0.549485 0.492623
O O7 0.279508 0.490206 0.364293
O O8 0.000000 0.500000 0.500000
O O9 0.177790 0.750000 0.211672
O O10 0.323010 0.023900 0.175221
O O11 0.023910 0.030406 0.260673
O O12 0.225943 0.963168 0.109635
O O13 0.334233 0.750000 0.525292
O O14 0.229694 0.043801 0.595167
O O15 0.888629 0.750000 0.286958
O O16 0.524519 0.250000 0.855257
O O17 0.514390 0.520140 0.792538
O O18 0.388326 0.516249 0.945246
O O19 0.450407 0.750000 0.282888
O O20 0.672530 0.750000 0.968476
O O21 0.500000 0.000000 0.000000
#
# Coordination Sequence:
#
# PCOD9158397 Si02
#       8
#     4   4   4   4   4   4   4   4
#     4   8  16  31  49  69  94 127 167 207 246 289
#     4  11  22  35  49  69  99 133 163 198 244 292
#     4   9  18  30  45  70  99 127 158 195 243 297
#     4  10  20  34  50  71  95 126 169 210 248 290
#     4  10  19  31  49  72  98 129 165 206 250 294
#     4   8  15  28  48  71  93 121 157 194 238 292
#     4   9  17  32  52  71  94 125 164 206 243 288
#     4   9  16  29  48  70  96 126 156 191 238 294
#
# _framework density 19.282834999999999
#
# number of rings (size 3 to 8) (size 9 to 14) (size 15 to 20)
#    0.000    2.750    0.000    3.750    1.750    0.500 
#    0.000    5.625    0.000    0.750    0.000    0.000 
#    0.000    0.000    0.000    0.000    0.000    0.500 
#
# Total GULP energy -178371.288021 kJ/mol
# GULP energy per Si atom -5574.102751 kJ/mol
# Density = 1.923895 g / cm^3
# Si number density = 19.282835 Si / 1000 Ang^3
#
#
#
# Elastic Constant Matrix: (Units=GPa)
#
#
# Indices 1 2 3 4 5 6 
#
# 1 51.7092 -0.8677 33.0553 0.0000 -0.6276 0.0000
# 2 -0.8677 39.5112 -5.4177 0.0000 -1.6577 0.0000
# 3 33.0553 -5.4177 83.4252 0.0000 17.4949 0.0000
# 4 0.0000 0.0000 0.0000 18.5682 0.0000 2.6978
# 5 -0.6276 -1.6577 17.4949 0.0000 23.2550 0.0000
# 6 0.0000 0.0000 0.0000 2.6978 0.0000 7.3874
#
#
#
# Elastic Compliance Matrix: (Units=1/GPa)
#
#
# Indices 1 2 3 4 5 6 
#
# 1 0.028039 -0.000772 -0.013425 0.000000 0.010802 0.000000
# 2 -0.000772 0.025567 0.001886 0.000000 0.000383 0.000000
# 3 -0.013425 0.001886 0.020750 0.000000 -0.015838 0.000000
# 4 0.000000 0.000000 0.000000 0.056873 0.000000 -0.020769
# 5 0.010802 0.000383 -0.015838 0.000000 0.055236 0.000000
# 6 0.000000 0.000000 0.000000 -0.020769 0.000000 0.142951
#
#
# Mechanical properties :
#
#
# Convention : Reuss Voigt Hill
#
# Bulk Modulus (GPa) = 20.10701 25.35394 22.73048
# Shear Modulus (GPa) = 13.49104 19.70049 16.59577
#
# Velocity S-wave (km/s) = 2.64794 3.19981 2.93687
# Velocity P-wave (km/s) = 4.44959 5.17964 4.82843
#
# Compressibility (1/GPa) = 0.04973389
#
# Stress axis : x y z
#
# Youngs Moduli (GPa) = 35.66440 39.11297 48.19249
#
# Poissons Ratio (x) = 0.03019 0.64699
# Poissons Ratio (y) = 0.02753 -0.09088
# Poissons Ratio (z) = 0.47880 -0.07376
#
# Static dielectric constant tensor:
#      x y z
#    x 1.689220 0.000000 0.006030 
#    y 0.000000 1.707640 0.000000 
#    z 0.006030 0.000000 1.679260 
# 
# From -- ./inp_files/61737.got.cif
#   From: 2010.05.17/outbox.cif.g08.bks.cpg/sg11_31_cif.got.tgz:61737.got - 2010.06.03 12:22:45.
