data_PCOD9158089
_publ_section_title
;
Structure prediction by ZEFSAII (Michael W. Deem and Ramdas Pophale) SiO2 
 PCOD9158089
Probable space group: P 21/M
;
_chemical_formula_sum "Si O2"
_cell_formula_units_Z 32
_cell_length_a 11.097254
_cell_length_b 7.619850
_cell_length_c 20.713151
_cell_angle_alpha 90.000000
_cell_angle_beta 126.496615
_cell_angle_gamma 90.000000
_cell_volume 1408.010285
_symmetry_space_group_name_H-M "P 21/M"
_symmetry_group_IT_number 11
_symmetry_cell_setting 'monoclinic'
loop_
_space_group_symop_operation_xyz
x,y,z
-x,1/2+y,-z
-x,-y,-z
x,1/2-y,z
loop_
_atom_site_type_symbol
_atom_site_label
_atom_site_fract_x
_atom_site_fract_y
_atom_site_fract_z
Si Si1 0.941010 0.536353 0.884426
Si Si2 0.765024 0.035672 0.182619
Si Si3 0.174275 0.538425 0.541196
Si Si4 0.327603 0.546179 0.459300
Si Si5 0.718635 0.038998 0.027831
Si Si6 0.629214 0.034972 0.275323
Si Si7 0.328747 0.041454 0.125205
Si Si8 0.109489 0.039257 0.273464
O O1 0.950880 0.750000 0.890302
O O2 0.834563 0.469990 0.907516
O O3 0.862261 0.488260 0.791562
O O4 0.111756 0.474976 0.934020
O O5 0.759864 0.250000 0.180689
O O6 0.686691 0.976955 0.090536
O O7 0.701191 0.977796 0.230456
O O8 0.939595 0.982781 0.234872
O O9 0.183571 0.750000 0.543808
O O10 0.242064 0.468005 0.494960
O O11 0.277581 0.474859 0.633397
O O12 0.000000 0.500000 0.500000
O O13 0.500000 0.500000 0.500000
O O14 0.331853 0.750000 0.474545
O O15 0.228008 0.517805 0.364051
O O16 0.718483 0.250000 0.029778
O O17 0.627962 0.987171 0.935479
O O18 0.631107 0.250000 0.276891
O O19 0.457099 0.977490 0.214367
O O20 0.320415 0.250000 0.131000
O O21 0.108446 0.250000 0.274392
#
# Coordination Sequence:
#
# PCOD9158089 Si02
#       8
#     4   4   4   4   4   4   4   4
#     4   8  16  30  51  74  97 135 180 215 258 321
#     4   8  15  30  52  76  99 133 177 216 262 324
#     4  10  22  40  63  87 112 147 191 238 285 339
#     4  11  24  38  56  86 119 150 186 232 288 344
#     4   9  17  31  49  71 100 133 172 215 259 314
#     4   9  18  32  52  76 102 134 175 218 263 322
#     4  10  19  30  48  73 101 134 173 216 261 315
#     4   9  17  33  58  78  99 137 183 226 270 323
#
# _framework density 22.727105000000002
#
# number of rings (size 3 to 8) (size 9 to 14) (size 15 to 20)
#    0.000    2.750    0.000    3.000    1.750    2.500 
#    0.000    3.750    0.000    1.500    0.000    0.000 
#    0.000    0.000    0.000    0.000    0.000    0.000 
#
# Total GULP energy -178573.808503 kJ/mol
# GULP energy per Si atom -5580.431516 kJ/mol
# Density = 2.267538 g / cm^3
# Si number density = 22.727105 Si / 1000 Ang^3
#
#
#
# Elastic Constant Matrix: (Units=GPa)
#
#
# Indices 1 2 3 4 5 6 
#
# 1 92.3500 -0.1484 33.7907 0.0000 -16.5140 0.0000
# 2 -0.1484 43.0623 -3.3873 0.0000 0.0830 0.0000
# 3 33.7907 -3.3873 133.3109 0.0000 -11.4454 0.0000
# 4 0.0000 0.0000 0.0000 21.8039 0.0000 -2.5445
# 5 -16.5140 0.0830 -11.4454 0.0000 29.6596 0.0000
# 6 0.0000 0.0000 0.0000 -2.5445 0.0000 9.8383
#
#
#
# Elastic Compliance Matrix: (Units=1/GPa)
#
#
# Indices 1 2 3 4 5 6 
#
# 1 0.012934 -0.000184 -0.002756 0.000000 0.006139 0.000000
# 2 -0.000184 0.023272 0.000645 0.000000 0.000081 0.000000
# 3 -0.002756 0.000645 0.008361 0.000000 0.001690 0.000000
# 4 0.000000 0.000000 0.000000 0.047291 0.000000 0.012231
# 5 0.006139 0.000081 0.001690 0.000000 0.037786 0.000000
# 6 0.000000 0.000000 0.000000 0.012231 0.000000 0.104807
#
#
# Mechanical properties :
#
#
# Convention : Reuss Voigt Hill
#
# Bulk Modulus (GPa) = 25.01425 36.58147 30.79786
# Shear Modulus (GPa) = 19.81235 28.15822 23.98529
#
# Velocity S-wave (km/s) = 2.95574 3.52372 3.25216
# Velocity P-wave (km/s) = 4.76223 5.71720 5.26143
#
# Compressibility (1/GPa) = 0.03997722
#
# Stress axis : x y z
#
# Youngs Moduli (GPa) = 77.31422 42.96990 119.59768
#
# Poissons Ratio (x) = 0.00791 0.32963
# Poissons Ratio (y) = 0.01423 -0.07714
# Poissons Ratio (z) = 0.21309 -0.02771
#
# Static dielectric constant tensor:
#      x y z
#    x 1.869970 0.000000 -0.013190 
#    y 0.000000 1.850030 0.000000 
#    z -0.013190 0.000000 1.819260 
# 
# From -- ./inp_files/64423.got.cif
#   From: 2010.05.17/outbox.cif.g08.bks.cpg/sg11_33_cif.got.tgz:64423.got - 2010.06.03 12:22:45.
