data_PCOD9158876
_publ_section_title
;
Structure prediction by ZEFSAII (Michael W. Deem and Ramdas Pophale) SiO2 
 PCOD9158876
Probable space group: P 21/M
;
_chemical_formula_sum "Si O2"
_cell_formula_units_Z 32
_cell_length_a 22.979067
_cell_length_b 8.104671
_cell_length_c 9.719192
_cell_angle_alpha 90.000000
_cell_angle_beta 111.566853
_cell_angle_gamma 90.000000
_cell_volume 1683.355702
_symmetry_space_group_name_H-M "P 21/M"
_symmetry_group_IT_number 11
_symmetry_cell_setting 'monoclinic'
loop_
_space_group_symop_operation_xyz
x,y,z
-x,1/2+y,-z
-x,-y,-z
x,1/2-y,z
loop_
_atom_site_type_symbol
_atom_site_label
_atom_site_fract_x
_atom_site_fract_y
_atom_site_fract_z
Si Si1 0.763301 0.449844 0.012796
Si Si2 0.156058 0.551265 0.668876
Si Si3 0.037377 0.553820 0.736813
Si Si4 0.506791 0.445674 0.848695
Si Si5 0.370597 0.952227 0.211413
Si Si6 0.438536 0.553307 0.532123
Si Si7 0.100936 0.448763 0.353296
Si Si8 0.116307 0.052583 0.054767
O O1 0.762253 0.250000 0.010987
O O2 0.786618 0.503205 0.184801
O O3 0.817847 0.505416 0.956969
O O4 0.695381 0.508612 0.906547
O O5 0.154844 0.750000 0.673155
O O6 0.092163 0.486438 0.686251
O O7 0.152605 0.498706 0.508782
O O8 0.034742 0.750000 0.711095
O O9 0.062172 0.523737 0.912614
O O10 0.967561 0.486515 0.659590
O O11 0.511314 0.250000 0.852190
O O12 0.570874 0.509020 0.831855
O O13 0.449801 0.491539 0.696486
O O14 0.500000 0.500000 0.000000
O O15 0.370942 0.750000 0.209808
O O16 0.383112 0.002497 0.381247
O O17 0.500000 0.500000 0.500000
O O18 0.436260 0.750000 0.536939
O O19 0.097986 0.250000 0.347713
O O20 0.113182 0.505584 0.208975
O O21 0.109087 0.250000 0.045197
#
# Coordination Sequence:
#
# PCOD9158876 Si02
#       8
#     4   4   4   4   4   4   4   4
#     4   9  18  36  55  70  91 125 168 206 235 279
#     4   9  18  30  48  71  93 119 158 201 240 282
#     4   9  18  33  50  69  91 122 160 197 238 292
#     4  10  19  32  51  78 109 137 163 200 247 292
#     4   8  16  32  55  75  94 127 169 203 235 281
#     4   9  16  29  50  76 102 130 164 202 243 289
#     4  10  20  32  47  68  97 125 153 193 245 297
#     4  10  20  32  47  71  97 123 155 198 247 292
#
# _framework density 19.009647999999999
#
# number of rings (size 3 to 8) (size 9 to 14) (size 15 to 20)
#    0.000    2.750    0.000    3.375    0.000    3.500 
#    0.000    5.000    0.000    6.000    0.000    0.000 
#    0.000    0.000    0.000    0.000    0.000    0.000 
#
# Total GULP energy -178339.547097 kJ/mol
# GULP energy per Si atom -5573.110847 kJ/mol
# Density = 1.896638 g / cm^3
# Si number density = 19.009648 Si / 1000 Ang^3
#
#
#
# Elastic Constant Matrix: (Units=GPa)
#
#
# Indices 1 2 3 4 5 6 
#
# 1 42.4663 0.2539 37.5993 0.0000 24.5994 0.0000
# 2 0.2539 8.2483 -1.3129 0.0000 1.0809 0.0000
# 3 37.5993 -1.3129 162.7338 0.0000 15.4768 0.0000
# 4 0.0000 0.0000 0.0000 28.5706 0.0000 -4.0610
# 5 24.5994 1.0809 15.4768 0.0000 27.6853 0.0000
# 6 0.0000 0.0000 0.0000 -4.0610 0.0000 14.3846
#
#
#
# Elastic Compliance Matrix: (Units=1/GPa)
#
#
# Indices 1 2 3 4 5 6 
#
# 1 0.059181 0.002964 -0.009123 0.000000 -0.047600 0.000000
# 2 0.002964 0.122364 0.001064 0.000000 -0.008006 0.000000
# 3 -0.009123 0.001064 0.007915 0.000000 0.003639 0.000000
# 4 0.000000 0.000000 0.000000 0.036464 0.000000 0.010294
# 5 -0.047600 -0.008006 0.003639 0.000000 0.076693 0.000000
# 6 0.000000 0.000000 0.000000 0.010294 0.000000 0.072425
#
#
# Mechanical properties :
#
#
# Convention : Reuss Voigt Hill
#
# Bulk Modulus (GPa) = 5.57815 31.83654 18.70734
# Shear Modulus (GPa) = 11.23622 25.92199 18.57911
#
# Velocity S-wave (km/s) = 2.43385 3.69673 3.12965
# Velocity P-wave (km/s) = 3.29225 5.91651 4.78769
#
# Compressibility (1/GPa) = 0.17927088
#
# Stress axis : x y z
#
# Youngs Moduli (GPa) = 16.89732 8.17232 126.33870
#
# Poissons Ratio (x) = -0.02422 1.15255
# Poissons Ratio (y) = -0.05008 -0.13440
# Poissons Ratio (z) = 0.15415 -0.00869
#
# Static dielectric constant tensor:
#      x y z
#    x 1.657740 0.000000 0.006100 
#    y 0.000000 1.675070 0.000000 
#    z 0.006100 0.000000 1.692150 
# 
# From -- ./inp_files/27959.got.cif
#   From: 2010.05.17/outbox.cif.g08.bks.cpg/sg11_14_cif.got.tgz:27959.got - 2010.06.03 12:22:45.
