data_PCOD9158375
_publ_section_title
;
Structure prediction by ZEFSAII (Michael W. Deem and Ramdas Pophale) SiO2 
 PCOD9158375
Probable space group: P 21/M
;
_chemical_formula_sum "Si O2"
_cell_formula_units_Z 32
_cell_length_a 15.436155
_cell_length_b 8.873576
_cell_length_c 31.570817
_cell_angle_alpha 90.000000
_cell_angle_beta 28.540004
_cell_angle_gamma 90.000000
_cell_volume 2066.067628
_symmetry_space_group_name_H-M "P 21/M"
_symmetry_group_IT_number 11
_symmetry_cell_setting 'monoclinic'
loop_
_space_group_symop_operation_xyz
x,y,z
-x,1/2+y,-z
-x,-y,-z
x,1/2-y,z
loop_
_atom_site_type_symbol
_atom_site_label
_atom_site_fract_x
_atom_site_fract_y
_atom_site_fract_z
Si Si1 0.745712 0.570026 0.428928
Si Si2 0.033394 0.570486 0.917700
Si Si3 0.258339 0.069403 0.747611
Si Si4 0.274959 0.930769 0.896589
Si Si5 0.673215 0.430106 0.371398
Si Si6 0.324975 0.431782 0.300124
Si Si7 0.349734 0.568694 0.382378
Si Si8 0.949123 0.431859 0.419065
O O1 0.758508 0.750000 0.420276
O O2 0.762060 0.496772 0.375644
O O3 0.541886 0.532045 0.532884
O O4 0.886219 0.505993 0.402488
O O5 0.030308 0.750000 0.913770
O O6 0.104283 0.492101 0.844952
O O7 0.176140 0.534270 0.894279
O O8 0.841341 0.510897 0.017211
O O9 0.252542 0.250000 0.747986
O O10 0.453146 0.024553 0.684235
O O11 0.250103 0.000822 0.704371
O O12 0.264638 0.750000 0.906860
O O13 0.484076 0.976896 0.802934
O O14 0.690364 0.250000 0.363436
O O15 0.325572 0.250000 0.303172
O O16 0.316379 0.497406 0.351014
O O17 0.149016 0.475952 0.348796
O O18 0.346853 0.750000 0.379634
O O19 0.195304 0.525244 0.482392
O O20 0.942506 0.250000 0.417562
#
# Coordination Sequence:
#
# PCOD9158375 Si02
#       8
#     4   4   4   4   4   4   4   4
#     4  10  20  33  50  72  97 128 164 205 247 287
#     4  10  19  31  49  70  95 127 163 204 248 295
#     4  11  20  31  49  73 101 132 162 199 245 293
#     4   9  18  32  47  68  95 126 164 206 248 290
#     4  10  20  33  51  72  97 128 163 203 246 293
#     4  10  20  33  50  69  96 133 171 208 244 285
#     4  10  20  31  45  68 100 134 169 203 237 283
#     4  10  20  34  49  69  98 134 171 205 242 286
#
# _framework density 15.48836
#
# number of rings (size 3 to 8) (size 9 to 14) (size 15 to 20)
#    0.000    2.000    2.500    1.875    0.000    3.500 
#    0.000    0.000    0.000    0.000    0.000    0.875 
#    0.000    0.000    0.000    0.000    0.000    0.000 
#
# Total GULP energy -178609.725622 kJ/mol
# GULP energy per Si atom -5581.553926 kJ/mol
# Density = 1.545311 g / cm^3
# Si number density = 15.488360 Si / 1000 Ang^3
#
#
#
# Elastic Constant Matrix: (Units=GPa)
#
#
# Indices 1 2 3 4 5 6 
#
# 1 125.3471 41.5135 77.6900 0.0000 12.4716 0.0000
# 2 41.5135 31.7025 41.5800 0.0000 11.1770 0.0000
# 3 77.6900 41.5800 114.5162 0.0000 15.9251 0.0000
# 4 0.0000 0.0000 0.0000 22.6596 0.0000 7.7301
# 5 12.4716 11.1770 15.9251 0.0000 24.8174 0.0000
# 6 0.0000 0.0000 0.0000 7.7301 0.0000 25.5180
#
#
#
# Elastic Compliance Matrix: (Units=1/GPa)
#
#
# Indices 1 2 3 4 5 6 
#
# 1 0.016223 -0.013669 -0.006330 0.000000 0.002066 0.000000
# 2 -0.013669 0.076803 -0.016204 0.000000 -0.017322 0.000000
# 3 -0.006330 -0.016204 0.019163 0.000000 -0.001818 0.000000
# 4 0.000000 0.000000 0.000000 0.049218 0.000000 -0.014909
# 5 0.002066 -0.017322 -0.001818 0.000000 0.048224 0.000000
# 6 0.000000 0.000000 0.000000 -0.014909 0.000000 0.043704
#
#
# Mechanical properties :
#
#
# Convention : Reuss Voigt Hill
#
# Bulk Modulus (GPa) = 25.13699 65.90365 45.52032
# Shear Modulus (GPa) = 14.74920 21.98450 18.36685
#
# Velocity S-wave (km/s) = 3.08925 3.77161 3.44735
# Velocity P-wave (km/s) = 5.38418 7.84917 6.73049
#
# Compressibility (1/GPa) = 0.03978202
#
# Stress axis : x y z
#
# Youngs Moduli (GPa) = 61.64236 13.02038 52.18394
#
# Poissons Ratio (x) = 0.17798 0.33031
# Poissons Ratio (y) = 0.84261 0.84559
# Poissons Ratio (z) = 0.39018 0.21098
#
# Static dielectric constant tensor:
#      x y z
#    x 1.491140 0.000000 -0.009730 
#    y 0.000000 1.512260 0.000000 
#    z -0.009730 0.000000 1.503960 
# 
# From -- ./inp_files/51200.got.cif
#   From: 2010.05.17/outbox.cif.g08.bks.cpg/sg11_26_cif.got.tgz:51200.got - 2010.06.03 12:22:45.
