data_PCOD9158171
_publ_section_title
;
Structure prediction by ZEFSAII (Michael W. Deem and Ramdas Pophale) SiO2 
 PCOD9158171
Probable space group: P 21/M
;
_chemical_formula_sum "Si O2"
_cell_formula_units_Z 32
_cell_length_a 20.837777
_cell_length_b 7.615054
_cell_length_c 27.037484
_cell_angle_alpha 90.000000
_cell_angle_beta 158.694621
_cell_angle_gamma 90.000000
_cell_volume 1558.842736
_symmetry_space_group_name_H-M "P 21/M"
_symmetry_group_IT_number 11
_symmetry_cell_setting 'monoclinic'
loop_
_space_group_symop_operation_xyz
x,y,z
-x,1/2+y,-z
-x,-y,-z
x,1/2-y,z
loop_
_atom_site_type_symbol
_atom_site_label
_atom_site_fract_x
_atom_site_fract_y
_atom_site_fract_z
Si Si1 0.197908 0.959443 0.660049
Si Si2 0.298024 0.539276 0.841445
Si Si3 0.644444 0.544006 0.412487
Si Si4 0.284607 0.040132 0.201705
Si Si5 0.977255 0.539947 0.903908
Si Si6 0.016224 0.965628 0.720504
Si Si7 0.876973 0.465554 0.093611
Si Si8 0.513098 0.543495 0.213863
O O1 0.216139 0.750000 0.674208
O O2 0.241109 0.027075 0.746290
O O3 0.340407 0.027333 0.723151
O O4 0.000000 0.000000 0.500000
O O5 0.279802 0.750000 0.826848
O O6 0.166553 0.476505 0.789971
O O7 0.500000 0.500000 0.000000
O O8 0.680334 0.750000 0.429485
O O9 0.478812 0.528931 0.330176
O O10 0.584618 0.466511 0.316753
O O11 0.825508 0.472640 0.564661
O O12 0.295286 0.250000 0.212327
O O13 0.184598 0.972005 0.178957
O O14 0.155147 0.994894 0.063055
O O15 0.957030 0.750000 0.886840
O O16 0.005054 0.475795 0.868245
O O17 0.017421 0.750000 0.722059
O O18 0.057427 0.022874 0.805752
O O19 0.877985 0.250000 0.094601
O O20 0.676300 0.526061 0.939487
O O21 0.481507 0.750000 0.200573
#
# Coordination Sequence:
#
# PCOD9158171 Si02
#       8
#     4   4   4   4   4   4   4   4
#     4  11  23  37  54  79 110 141 176 222 271 321
#     4  10  21  38  58  80 106 138 179 222 269 322
#     4  10  19  34  54  76 105 140 177 214 257 311
#     4  10  19  30  50  78 107 137 171 215 262 307
#     4   9  17  32  52  76 105 137 174 213 257 309
#     4   9  18  32  53  77 101 134 175 214 252 308
#     4   9  16  30  53  78 100 130 174 217 254 302
#     4  10  19  33  55  77 101 136 176 220 265 313
#
# _framework density 20.528048999999999
#
# number of rings (size 3 to 8) (size 9 to 14) (size 15 to 20)
#    0.000    2.250    1.250    2.250    0.000    5.000 
#    0.000    1.250    0.000    1.500    0.000    0.000 
#    0.000    0.000    0.000    0.000    0.000    0.000 
#
# Total GULP energy -178691.449819 kJ/mol
# GULP energy per Si atom -5584.107807 kJ/mol
# Density = 2.048133 g / cm^3
# Si number density = 20.528049 Si / 1000 Ang^3
#
#
#
# Elastic Constant Matrix: (Units=GPa)
#
#
# Indices 1 2 3 4 5 6 
#
# 1 211.6610 -9.2631 129.9788 0.0000 4.1210 0.0000
# 2 -9.2631 38.4412 -2.9580 0.0000 -10.6051 0.0000
# 3 129.9788 -2.9580 169.9775 0.0000 -13.0660 0.0000
# 4 0.0000 0.0000 0.0000 12.5118 0.0000 8.2841
# 5 4.1210 -10.6051 -13.0660 0.0000 34.3490 0.0000
# 6 0.0000 0.0000 0.0000 8.2841 0.0000 15.4712
#
#
#
# Elastic Compliance Matrix: (Units=1/GPa)
#
#
# Indices 1 2 3 4 5 6 
#
# 1 0.009423 0.000653 -0.007484 0.000000 -0.003776 0.000000
# 2 0.000653 0.028723 0.000697 0.000000 0.009055 0.000000
# 3 -0.007484 0.000697 0.012056 0.000000 0.005699 0.000000
# 4 0.000000 0.000000 0.000000 0.123822 0.000000 -0.066300
# 5 -0.003776 0.009055 0.005699 0.000000 0.034529 0.000000
# 6 0.000000 0.000000 0.000000 -0.066300 0.000000 0.100137
#
#
# Mechanical properties :
#
#
# Convention : Reuss Voigt Hill
#
# Bulk Modulus (GPa) = 26.36276 72.84392 49.60334
# Shear Modulus (GPa) = 14.98790 32.62122 23.80456
#
# Velocity S-wave (km/s) = 2.70500 3.99068 3.40900
# Velocity P-wave (km/s) = 4.75670 7.53632 6.30168
#
# Compressibility (1/GPa) = 0.03793230
#
# Stress axis : x y z
#
# Youngs Moduli (GPa) = 106.12826 34.81572 82.94402
#
# Poissons Ratio (x) = -0.02273 0.62076
# Poissons Ratio (y) = -0.06930 -0.05777
# Poissons Ratio (z) = 0.79428 -0.02425
#
# Static dielectric constant tensor:
#      x y z
#    x 1.725710 0.000000 -0.007660 
#    y 0.000000 1.755210 0.000000 
#    z -0.007660 0.000000 1.693590 
# 
# From -- ./inp_files/72135.got.cif
#   From: 2010.05.17/outbox.cif.g08.bks.cpg/sg11_37_cif.got.tgz:72135.got - 2010.06.03 12:22:45.
