data_PCOD9158477
_publ_section_title
;
Structure prediction by ZEFSAII (Michael W. Deem and Ramdas Pophale) SiO2 
 PCOD9158477
Probable space group: P 21/M
;
_chemical_formula_sum "Si O2"
_cell_formula_units_Z 32
_cell_length_a 23.545581
_cell_length_b 8.073690
_cell_length_c 12.626769
_cell_angle_alpha 90.000000
_cell_angle_beta 46.513227
_cell_angle_gamma 90.000000
_cell_volume 1741.530336
_symmetry_space_group_name_H-M "P 21/M"
_symmetry_group_IT_number 11
_symmetry_cell_setting 'monoclinic'
loop_
_space_group_symop_operation_xyz
x,y,z
-x,1/2+y,-z
-x,-y,-z
x,1/2-y,z
loop_
_atom_site_type_symbol
_atom_site_label
_atom_site_fract_x
_atom_site_fract_y
_atom_site_fract_z
Si Si1 0.184561 0.951363 0.687698
Si Si2 0.984309 0.050944 0.141168
Si Si3 0.847858 0.947693 0.028811
Si Si4 0.315716 0.945276 0.361448
Si Si5 0.459141 0.058188 0.659011
Si Si6 0.705351 0.446007 0.071873
Si Si7 0.657285 0.047382 0.901231
Si Si8 0.511790 0.558250 0.815967
O O1 0.185675 0.750000 0.692791
O O2 0.259791 0.012151 0.525688
O O3 0.105200 0.002649 0.726581
O O4 0.178350 0.012069 0.816748
O O5 0.984724 0.250000 0.148739
O O6 0.062258 0.990715 0.100977
O O7 0.000000 0.000000 0.000000
O O8 0.847259 0.750000 0.018092
O O9 0.786893 0.020720 0.024065
O O10 0.298204 0.750000 0.379458
O O11 0.304403 0.012222 0.256821
O O12 0.407224 0.966928 0.268413
O O13 0.477060 0.250000 0.655449
O O14 0.500000 0.000000 0.500000
O O15 0.365778 0.032907 0.775095
O O16 0.489596 0.956560 0.720798
O O17 0.689374 0.250000 0.094444
O O18 0.698921 0.501413 0.957378
O O19 0.655843 0.250000 0.901322
O O20 0.566103 0.993568 0.024916
O O21 0.522845 0.750000 0.830285
#
# Coordination Sequence:
#
# PCOD9158477 Si02
#       8
#     4   4   4   4   4   4   4   4
#     4   9  18  31  49  74 102 129 160 202 253 302
#     4   8  15  29  47  69  97 129 161 197 244 297
#     4  10  19  31  50  74 101 131 165 202 244 301
#     4  10  19  32  52  75  98 127 167 212 255 297
#     4  11  22  36  52  71  99 133 166 203 248 293
#     4  10  20  35  53  73  98 129 168 207 246 293
#     4   8  17  34  52  70  94 128 170 212 249 290
#     4  10  20  34  50  71  99 132 169 206 246 293
#
# _framework density 18.374642999999999
#
# number of rings (size 3 to 8) (size 9 to 14) (size 15 to 20)
#    0.000    2.500    0.000    3.375    1.750    1.000 
#    0.000    3.125    0.000    0.750    0.000    0.000 
#    0.000    0.000    0.000    0.000    0.000    1.125 
#
# Total GULP energy -178355.533836 kJ/mol
# GULP energy per Si atom -5573.610432 kJ/mol
# Density = 1.833282 g / cm^3
# Si number density = 18.374643 Si / 1000 Ang^3
#
#
#
# Elastic Constant Matrix: (Units=GPa)
#
#
# Indices 1 2 3 4 5 6 
#
# 1 97.6237 -4.6928 26.8142 0.0000 -14.8761 0.0000
# 2 -4.6928 25.8307 1.7222 0.0000 0.8163 0.0000
# 3 26.8142 1.7222 53.5087 0.0000 -2.3264 0.0000
# 4 0.0000 0.0000 0.0000 12.8783 0.0000 -3.6388
# 5 -14.8761 0.8163 -2.3264 0.0000 13.7345 0.0000
# 6 0.0000 0.0000 0.0000 -3.6388 0.0000 16.7095
#
#
#
# Elastic Compliance Matrix: (Units=1/GPa)
#
#
# Indices 1 2 3 4 5 6 
#
# 1 0.014377 0.002605 -0.006667 0.000000 0.014288 0.000000
# 2 0.002605 0.039357 -0.002570 0.000000 0.000047 0.000000
# 3 -0.006667 -0.002570 0.021967 0.000000 -0.003348 0.000000
# 4 0.000000 0.000000 0.000000 0.082741 0.000000 0.018019
# 5 0.014288 0.000047 -0.003348 0.000000 0.087715 0.000000
# 6 0.000000 0.000000 0.000000 0.018019 0.000000 0.063770
#
#
# Mechanical properties :
#
#
# Convention : Reuss Voigt Hill
#
# Bulk Modulus (GPa) = 16.01642 24.96114 20.48878
# Shear Modulus (GPa) = 14.53469 18.87241 16.70355
#
# Velocity S-wave (km/s) = 2.81556 3.20830 3.01832
# Velocity P-wave (km/s) = 4.39378 5.22861 4.82927
#
# Compressibility (1/GPa) = 0.06243593
#
# Stress axis : x y z
#
# Youngs Moduli (GPa) = 69.55468 25.40857 45.52318
#
# Poissons Ratio (x) = -0.06619 0.30352
# Poissons Ratio (y) = -0.18119 0.11700
# Poissons Ratio (z) = 0.46374 0.06530
#
# Static dielectric constant tensor:
#      x y z
#    x 1.648210 0.000000 -0.016110 
#    y 0.000000 1.653870 0.000000 
#    z -0.016110 0.000000 1.638980 
# 
# From -- ./inp_files/42767.got.cif
#   From: 2010.05.17/outbox.cif.g08.bks.cpg/sg11_22_cif.got.tgz:42767.got - 2010.06.03 12:22:45.
