data_PCOD9158967
_publ_section_title
;
Structure prediction by ZEFSAII (Michael W. Deem and Ramdas Pophale) SiO2 
 PCOD9158967
Probable space group: P 21/M
;
_chemical_formula_sum "Si O2"
_cell_formula_units_Z 28
_cell_length_a 23.513363
_cell_length_b 8.640168
_cell_length_c 19.448565
_cell_angle_alpha 90.000000
_cell_angle_beta 156.821212
_cell_angle_gamma 90.000000
_cell_volume 1555.182478
_symmetry_space_group_name_H-M "P 21/M"
_symmetry_group_IT_number 11
_symmetry_cell_setting 'monoclinic'
loop_
_space_group_symop_operation_xyz
x,y,z
-x,1/2+y,-z
-x,-y,-z
x,1/2-y,z
loop_
_atom_site_type_symbol
_atom_site_label
_atom_site_fract_x
_atom_site_fract_y
_atom_site_fract_z
Si Si1 0.658832 0.936747 0.163219
Si Si2 0.620682 0.562932 0.684990
Si Si3 0.783471 0.938441 0.154010
Si Si4 0.064362 0.565784 0.001409
Si Si5 0.094499 0.435681 0.456351
Si Si6 0.976665 0.071518 0.765066
Si Si7 0.316163 0.428766 0.098581
O O1 0.654125 0.750000 0.158205
O O2 0.719255 0.985083 0.155767
O O3 0.771741 0.985441 0.347667
O O4 0.500000 0.000000 0.000000
O O5 0.500000 0.500000 0.500000
O O6 0.620079 0.750000 0.685201
O O7 0.603147 0.505651 0.744889
O O8 0.776786 0.505524 0.833372
O O9 0.789018 0.750000 0.156885
O O10 0.686787 0.995190 0.981596
O O11 0.945434 0.999675 0.322670
O O12 0.074194 0.750000 0.015107
O O13 0.970554 0.515389 0.830721
O O14 0.000000 0.500000 0.000000
O O15 0.086673 0.250000 0.447069
O O16 0.104737 0.496180 0.389659
O O17 0.934570 0.250000 0.726865
O O18 0.146576 0.069395 0.931880
O O19 0.362606 0.250000 0.144077
#
# Coordination Sequence:
#
# PCOD9158967 Si02
#       7
#     4   4   4   4   4   4   4
#     4  10  22  36  51  73 105 140 174 210 258 314
#     4  10  19  33  52  77 107 142 180 220 265 317
#     4   9  17  33  55  77  98 129 172 218 261 308
#     4  11  21  35  55  80 109 142 178 221 268 316
#     4  10  19  32  52  80 105 130 169 218 262 308
#     4   9  17  32  53  77 103 136 174 214 260 312
#     4   7  13  27  49  72  96 125 166 215 258 299
#
# _framework density 18.004318999999999
#
# number of rings (size 3 to 8) (size 9 to 14) (size 15 to 20)
#    0.000    2.571    0.000    4.714    0.000    1.714 
#    0.000    2.143    0.000    5.143    0.000    0.000 
#    0.000    0.000    0.000    0.000    0.000    0.000 
#
# Total GULP energy -156067.907722 kJ/mol
# GULP energy per Si atom -5573.853847 kJ/mol
# Density = 1.796334 g / cm^3
# Si number density = 18.004319 Si / 1000 Ang^3
#
#
#
# Elastic Constant Matrix: (Units=GPa)
#
#
# Indices 1 2 3 4 5 6 
#
# 1 156.2030 43.2204 87.7994 0.0000 -39.0499 0.0000
# 2 43.2204 64.1187 31.0749 0.0000 -12.3103 0.0000
# 3 87.7994 31.0749 118.3478 0.0000 -38.6487 0.0000
# 4 0.0000 0.0000 0.0000 26.9967 0.0000 -1.6451
# 5 -39.0499 -12.3103 -38.6487 0.0000 32.3466 0.0000
# 6 0.0000 0.0000 0.0000 -1.6451 0.0000 25.6143
#
#
#
# Elastic Compliance Matrix: (Units=1/GPa)
#
#
# Indices 1 2 3 4 5 6 
#
# 1 0.012641 -0.004317 -0.006227 0.000000 0.006177 0.000000
# 2 -0.004317 0.019420 -0.001943 0.000000 -0.000142 0.000000
# 3 -0.006227 -0.001943 0.017847 0.000000 0.013067 0.000000
# 4 0.000000 0.000000 0.000000 0.037187 0.000000 0.002388
# 5 0.006177 -0.000142 0.013067 0.000000 0.053931 0.000000
# 6 0.000000 0.000000 0.000000 0.002388 0.000000 0.039194
#
#
# Mechanical properties :
#
#
# Convention : Reuss Voigt Hill
#
# Bulk Modulus (GPa) = 40.10630 73.65095 56.87862
# Shear Modulus (GPa) = 23.41856 28.76318 26.09087
#
# Velocity S-wave (km/s) = 3.61046 4.00130 3.81089
# Velocity P-wave (km/s) = 6.30118 7.89578 7.14312
#
# Compressibility (1/GPa) = 0.02493374
#
# Stress axis : x y z
#
# Youngs Moduli (GPa) = 79.10887 51.49236 56.03201
#
# Poissons Ratio (x) = 0.22228 0.34892
# Poissons Ratio (y) = 0.34150 0.10888
# Poissons Ratio (z) = 0.49263 0.10006
#
# Static dielectric constant tensor:
#      x y z
#    x 1.634820 0.000000 -0.038560 
#    y 0.000000 1.581830 0.000000 
#    z -0.038560 0.000000 1.594070 
# 
# From -- ./inp_files/66719.got.cif
#   From: 2010.05.17/outbox.cif.g08.bks.cpg/sg11_34_cif.got.tgz:66719.got - 2010.06.03 12:22:45.
