data_PCOD9158855
_publ_section_title
;
Structure prediction by ZEFSAII (Michael W. Deem and Ramdas Pophale) SiO2 
 PCOD9158855
Probable space group: P 21/M
;
_chemical_formula_sum "Si O2"
_cell_formula_units_Z 28
_cell_length_a 15.092609
_cell_length_b 14.026153
_cell_length_c 16.509392
_cell_angle_alpha 90.000000
_cell_angle_beta 153.941808
_cell_angle_gamma 90.000000
_cell_volume 1535.250099
_symmetry_space_group_name_H-M "P 21/M"
_symmetry_group_IT_number 11
_symmetry_cell_setting 'monoclinic'
loop_
_space_group_symop_operation_xyz
x,y,z
-x,1/2+y,-z
-x,-y,-z
x,1/2-y,z
loop_
_atom_site_type_symbol
_atom_site_label
_atom_site_fract_x
_atom_site_fract_y
_atom_site_fract_z
Si Si1 0.246149 0.045645 0.121754
Si Si2 0.841728 0.983369 0.298225
Si Si3 0.525440 0.139039 0.018130
Si Si4 0.848629 0.360905 0.868842
Si Si5 0.886471 0.359583 0.591442
Si Si6 0.618775 0.137981 0.517921
Si Si7 0.450733 0.357685 0.147897
O O1 0.435630 0.076259 0.333707
O O2 0.312189 0.071340 0.085039
O O3 0.194067 0.935582 0.094911
O O4 0.057501 0.107459 0.998130
O O5 0.958166 0.930540 0.321643
O O6 0.731365 0.079817 0.178987
O O7 0.658191 0.914908 0.176567
O O8 0.000000 0.000000 0.500000
O O9 0.542351 0.250000 0.011467
O O10 0.467749 0.130791 0.066127
O O11 0.855667 0.250000 0.897699
O O12 0.677913 0.373971 0.659460
O O13 0.960989 0.250000 0.648358
O O14 0.815508 0.381829 0.624039
O O15 0.677881 0.364420 0.369267
O O16 0.570610 0.250000 0.463884
O O17 0.378345 0.250000 0.105984
#
# Coordination Sequence:
#
# PCOD9158855 Si02
#       7
#     4   4   4   4   4   4   4
#     4  10  19  32  51  76 108 138 168 217 263 306
#     4  11  21  34  54  82 110 138 171 216 271 324
#     4  10  22  36  54  81 109 140 177 219 266 316
#     4  10  20  32  50  77 103 138 178 212 258 311
#     4   9  17  31  53  80 107 136 172 220 267 305
#     4   9  18  32  52  80 106 131 172 221 263 304
#     4   9  17  32  54  79 106 134 172 220 266 309
#
# _framework density 18.238071999999999
#
# number of rings (size 3 to 8) (size 9 to 14) (size 15 to 20)
#    0.000    2.286    1.429    3.000    2.000    0.571 
#    0.000    0.000    0.000    7.714    0.000    0.000 
#    0.000    0.000    0.000    0.000    0.000    0.000 
#
# Total GULP energy -156264.677285 kJ/mol
# GULP energy per Si atom -5580.881332 kJ/mol
# Density = 1.819656 g / cm^3
# Si number density = 18.238072 Si / 1000 Ang^3
#
#
#
# Elastic Constant Matrix: (Units=GPa)
#
#
# Indices 1 2 3 4 5 6 
#
# 1 35.5633 22.2257 8.5558 0.0000 5.8220 0.0000
# 2 22.2257 116.8575 40.7443 0.0000 12.5317 0.0000
# 3 8.5558 40.7443 86.0496 0.0000 3.9928 0.0000
# 4 0.0000 0.0000 0.0000 19.7211 0.0000 7.7030
# 5 5.8220 12.5317 3.9928 0.0000 18.2199 0.0000
# 6 0.0000 0.0000 0.0000 7.7030 0.0000 30.3238
#
#
#
# Elastic Compliance Matrix: (Units=1/GPa)
#
#
# Indices 1 2 3 4 5 6 
#
# 1 0.032654 -0.005356 -0.000401 0.000000 -0.006662 0.000000
# 2 -0.005356 0.011833 -0.004821 0.000000 -0.005371 0.000000
# 3 -0.000401 -0.004821 0.013926 0.000000 0.000393 0.000000
# 4 0.000000 0.000000 0.000000 0.056293 0.000000 -0.014300
# 5 -0.006662 -0.005371 0.000393 0.000000 0.060622 0.000000
# 6 0.000000 0.000000 0.000000 -0.014300 0.000000 0.036610
#
#
# Mechanical properties :
#
#
# Convention : Reuss Voigt Hill
#
# Bulk Modulus (GPa) = 26.84214 42.39132 34.61673
# Shear Modulus (GPa) = 20.36554 24.78258 22.57406
#
# Velocity S-wave (km/s) = 3.34526 3.69024 3.52197
# Velocity P-wave (km/s) = 5.44707 6.43824 5.96328
#
# Compressibility (1/GPa) = 0.03725486
#
# Stress axis : x y z
#
# Youngs Moduli (GPa) = 30.62458 84.50883 71.80956
#
# Poissons Ratio (x) = 0.45264 0.02883
# Poissons Ratio (y) = 0.16403 0.34621
# Poissons Ratio (z) = 0.01229 0.40743
#
# Static dielectric constant tensor:
#      x y z
#    x 1.626000 0.000000 -0.016400 
#    y 0.000000 1.627780 0.000000 
#    z -0.016400 0.000000 1.667010 
# 
# From -- ./inp_files/66207.got.cif
#   From: 2010.05.17/outbox.cif.g08.bks.cpg/sg11_34_cif.got.tgz:66207.got - 2010.06.03 12:22:45.
