data_PCOD9158598
_publ_section_title
;
Structure prediction by ZEFSAII (Michael W. Deem and Ramdas Pophale) SiO2 
 PCOD9158598
Probable space group: P 21/M
;
_chemical_formula_sum "Si O2"
_cell_formula_units_Z 24
_cell_length_a 14.022262
_cell_length_b 13.675456
_cell_length_c 6.569324
_cell_angle_alpha 90.000000
_cell_angle_beta 92.515167
_cell_angle_gamma 90.000000
_cell_volume 1258.525421
_symmetry_space_group_name_H-M "P 21/M"
_symmetry_group_IT_number 11
_symmetry_cell_setting 'monoclinic'
loop_
_space_group_symop_operation_xyz
x,y,z
-x,1/2+y,-z
-x,-y,-z
x,1/2-y,z
loop_
_atom_site_type_symbol
_atom_site_label
_atom_site_fract_x
_atom_site_fract_y
_atom_site_fract_z
Si Si1 0.639531 0.531536 0.446839
Si Si2 0.531711 0.065342 0.811206
Si Si3 0.853037 0.519126 0.554552
Si Si4 0.667443 0.145468 0.137677
Si Si5 0.860250 0.359905 0.905833
Si Si6 0.032380 0.635592 0.702219
O O1 0.562327 0.598971 0.321834
O O2 0.592833 0.497826 0.655241
O O3 0.749090 0.561044 0.489383
O O4 0.646342 0.437384 0.299265
O O5 0.600244 0.140230 0.932147
O O6 0.500000 0.000000 0.000000
O O7 0.928574 0.603407 0.614389
O O8 0.898115 0.445967 0.390523
O O9 0.845449 0.445763 0.745636
O O10 0.655554 0.250000 0.239668
O O11 0.773270 0.137481 0.057413
O O12 0.861122 0.250000 0.814701
O O13 0.954290 0.372565 0.052901
O O14 0.053073 0.750000 0.654126
#
# Coordination Sequence:
#
# PCOD9158598 Si02
#       6
#     4   4   4   4   4   4
#     4  10  19  33  54  80 104 145 182 222 268 333
#     4   9  19  35  52  76 110 138 176 218 269 329
#     4  11  20  34  58  80 107 151 184 224 286 328
#     4  10  19  31  52  81 110 139 176 228 276 319
#     4  10  19  32  52  81 111 140 181 229 274 326
#     4  10  22  37  52  79 113 142 186 234 273 331
#
# _framework density 19.069936999999999
#
# number of rings (size 3 to 8) (size 9 to 14) (size 15 to 20)
#    0.000    2.000    3.333    1.000    0.000    1.333 
#    0.000    0.833    0.000    4.000    0.000    0.000 
#    0.000    0.000    0.000    0.000    0.000    0.000 
#
# Total GULP energy -133656.644102 kJ/mol
# GULP energy per Si atom -5569.026838 kJ/mol
# Density = 1.902653 g / cm^3
# Si number density = 19.069937 Si / 1000 Ang^3
#
#
#
# Elastic Constant Matrix: (Units=GPa)
#
#
# Indices 1 2 3 4 5 6 
#
# 1 103.2434 -9.7967 18.5464 0.0000 32.0304 0.0000
# 2 -9.7967 24.3513 -0.1535 0.0000 7.2229 0.0000
# 3 18.5464 -0.1535 65.0600 0.0000 8.3199 0.0000
# 4 0.0000 0.0000 0.0000 -44.3462 0.0000 44.3191
# 5 32.0304 7.2229 8.3199 0.0000 36.5059 0.0000
# 6 0.0000 0.0000 0.0000 44.3191 0.0000 -26.9669
#
#
#
# Elastic Compliance Matrix: (Units=1/GPa)
#
#
# Indices 1 2 3 4 5 6 
#
# 1 0.016076 0.011116 -0.002546 0.000000 -0.015725 0.000000
# 2 0.011116 0.051409 -0.000514 0.000000 -0.019807 0.000000
# 3 -0.002546 -0.000514 0.016270 0.000000 -0.001373 0.000000
# 4 0.000000 0.000000 0.000000 0.035100 0.000000 0.057685
# 5 -0.015725 -0.019807 -0.001373 0.000000 0.045421 0.000000
# 6 0.000000 0.000000 0.000000 0.057685 0.000000 0.057720
#
#
# Mechanical properties :
#
#
# Convention : Reuss Voigt Hill
#
# Bulk Modulus (GPa) = 10.01331 23.31636 16.66483
# Shear Modulus (GPa) = 20.90517 5.30912 13.10714
#
# Velocity S-wave (km/s) = 3.31454 1.67035 2.62452
# Velocity P-wave (km/s) = 4.46211 3.99667 4.23579
#
# Compressibility (1/GPa) = 0.09986707
#
# Stress axis : x y z
#
# Youngs Moduli (GPa) = 62.20325 19.45172 61.46108
#
# Poissons Ratio (x) = -0.21622 0.15646
# Poissons Ratio (y) = -0.69143 0.03162
# Poissons Ratio (z) = 0.15835 0.01001
#
# Static dielectric constant tensor:
#      x y z
#    x 1.724750 0.000000 0.038500 
#    y 0.000000 1.651990 0.000000 
#    z 0.038500 0.000000 1.679720 
# 
# From -- ./inp_files/6296.got.cif
#   From: 2010.05.17/outbox.cif.g08.bks.cpg/sg11_4_cif.got.tgz:6296.got - 2010.06.03 12:22:45.
