data_PCOD9158209
_publ_section_title
;
Structure prediction by ZEFSAII (Michael W. Deem and Ramdas Pophale) SiO2 
 PCOD9158209
Probable space group: P 21/M
;
_chemical_formula_sum "Si O2"
_cell_formula_units_Z 32
_cell_length_a 20.599908
_cell_length_b 8.843251
_cell_length_c 12.521111
_cell_angle_alpha 90.000000
_cell_angle_beta 53.982781
_cell_angle_gamma 90.000000
_cell_volume 1844.942716
_symmetry_space_group_name_H-M "P 21/M"
_symmetry_group_IT_number 11
_symmetry_cell_setting 'monoclinic'
loop_
_space_group_symop_operation_xyz
x,y,z
-x,1/2+y,-z
-x,-y,-z
x,1/2-y,z
loop_
_atom_site_type_symbol
_atom_site_label
_atom_site_fract_x
_atom_site_fract_y
_atom_site_fract_z
Si Si1 0.492596 0.932220 0.171383
Si Si2 0.459113 0.068065 0.643052
Si Si3 0.370876 0.930559 0.111294
Si Si4 0.874082 0.430553 0.116363
Si Si5 0.982889 0.930781 0.187723
Si Si6 0.725941 0.567417 0.142655
Si Si7 0.222249 0.431718 0.147325
Si Si8 0.964031 0.568227 0.642785
O O1 0.502770 0.750000 0.156069
O O2 0.495990 0.977700 0.291198
O O3 0.412003 0.971377 0.184634
O O4 0.567192 0.005317 0.036710
O O5 0.461664 0.250000 0.634189
O O6 0.365705 0.024145 0.745221
O O7 0.500000 0.000000 0.500000
O O8 0.367841 0.750000 0.106423
O O9 0.284165 0.998236 0.171276
O O10 0.871950 0.250000 0.130082
O O11 0.909543 0.504875 0.188966
O O12 0.788722 0.494593 0.163214
O O13 0.937588 0.467312 0.959817
O O14 0.977078 0.750000 0.202341
O O15 0.992079 0.004647 0.294534
O O16 0.732166 0.750000 0.142233
O O17 0.750381 0.521897 0.998438
O O18 0.228400 0.250000 0.146572
O O19 0.130098 0.474040 0.256001
O O20 0.969628 0.750000 0.635950
O O21 0.000000 0.500000 0.500000
#
# Coordination Sequence:
#
# PCOD9158209 Si02
#       8
#     4   4   4   4   4   4   4   4
#     4   9  18  35  53  76 111 147 177 218 279 331
#     4  10  21  37  56  77 109 148 183 223 275 330
#     4  10  19  30  54  85 109 137 182 232 272 318
#     4  10  20  33  55  86 115 143 182 235 281 325
#     4  10  20  35  56  83 115 148 184 228 279 335
#     4  10  19  35  57  80 108 146 187 230 277 327
#     4  10  20  36  57  80 111 147 184 225 276 329
#     4  11  23  39  59  82 112 151 189 229 281 337
#
# _framework density 17.344712999999999
#
# number of rings (size 3 to 8) (size 9 to 14) (size 15 to 20)
#    0.000    2.000    2.500    1.500    0.000    4.000 
#    0.000    1.250    0.000    6.000    0.000    0.000 
#    0.000    0.000    0.000    0.000    0.000    0.000 
#
# Total GULP energy -178624.817380 kJ/mol
# GULP energy per Si atom -5582.025543 kJ/mol
# Density = 1.730524 g / cm^3
# Si number density = 17.344713 Si / 1000 Ang^3
#
#
#
# Elastic Constant Matrix: (Units=GPa)
#
#
# Indices 1 2 3 4 5 6 
#
# 1 172.3852 48.1788 88.2578 0.0000 19.5477 0.0000
# 2 48.1788 28.9874 41.2461 0.0000 6.6800 0.0000
# 3 88.2578 41.2461 128.4995 0.0000 14.5888 0.0000
# 4 0.0000 0.0000 0.0000 27.7152 0.0000 0.9266
# 5 19.5477 6.6800 14.5888 0.0000 26.6774 0.0000
# 6 0.0000 0.0000 0.0000 0.9266 0.0000 34.6514
#
#
#
# Elastic Compliance Matrix: (Units=1/GPa)
#
#
# Indices 1 2 3 4 5 6 
#
# 1 0.011798 -0.014447 -0.003087 0.000000 -0.003339 0.000000
# 2 -0.014447 0.081840 -0.016229 0.000000 -0.001032 0.000000
# 3 -0.003087 -0.016229 0.015346 0.000000 -0.002067 0.000000
# 4 0.000000 0.000000 0.000000 0.036114 0.000000 -0.000966
# 5 -0.003339 -0.001032 -0.002067 0.000000 0.041320 0.000000
# 6 0.000000 0.000000 0.000000 -0.000966 0.000000 0.028885
#
#
# Mechanical properties :
#
#
# Convention : Reuss Voigt Hill
#
# Bulk Modulus (GPa) = 24.12104 76.13749 50.12926
# Shear Modulus (GPa) = 16.85507 27.95476 22.40492
#
# Velocity S-wave (km/s) = 3.12070 4.01897 3.59798
# Velocity P-wave (km/s) = 5.18865 8.09495 6.79891
#
# Compressibility (1/GPa) = 0.04145759
#
# Stress axis : x y z
#
# Youngs Moduli (GPa) = 84.76327 12.21903 65.16269
#
# Poissons Ratio (x) = 0.17652 0.20114
# Poissons Ratio (y) = 1.22455 1.05756
# Poissons Ratio (z) = 0.26164 0.19831
#
# Static dielectric constant tensor:
#      x y z
#    x 1.587760 0.000000 0.003700 
#    y 0.000000 1.582610 0.000000 
#    z 0.003700 0.000000 1.561240 
# 
# From -- ./inp_files/42744.got.cif
#   From: 2010.05.17/outbox.cif.g08.bks.cpg/sg11_22_cif.got.tgz:42744.got - 2010.06.03 12:22:45.
