data_PCOD9158084
_publ_section_title
;
Structure prediction by ZEFSAII (Michael W. Deem and Ramdas Pophale) SiO2 
 PCOD9158084
Probable space group: P 21/M
;
_chemical_formula_sum "Si O2"
_cell_formula_units_Z 32
_cell_length_a 16.831557
_cell_length_b 8.552423
_cell_length_c 24.527984
_cell_angle_alpha 90.000000
_cell_angle_beta 29.012388
_cell_angle_gamma 90.000000
_cell_volume 1712.442131
_symmetry_space_group_name_H-M "P 21/M"
_symmetry_group_IT_number 11
_symmetry_cell_setting 'monoclinic'
loop_
_space_group_symop_operation_xyz
x,y,z
-x,1/2+y,-z
-x,-y,-z
x,1/2-y,z
loop_
_atom_site_type_symbol
_atom_site_label
_atom_site_fract_x
_atom_site_fract_y
_atom_site_fract_z
Si Si1 0.549383 0.062921 0.588546
Si Si2 0.521713 0.060932 0.728276
Si Si3 0.888144 0.937219 0.518820
Si Si4 0.083281 0.063268 0.620807
Si Si5 0.032683 0.439343 0.201806
Si Si6 0.051573 0.923718 0.913823
Si Si7 0.724881 0.439780 0.313713
Si Si8 0.268961 0.072737 0.968904
O O1 0.542052 0.250000 0.590989
O O2 0.483731 0.010057 0.688390
O O3 0.737241 0.008652 0.476229
O O4 0.456849 0.998423 0.590483
O O5 0.506361 0.250000 0.737229
O O6 0.405408 0.000265 0.847005
O O7 0.707575 0.012046 0.628524
O O8 0.872673 0.750000 0.531776
O O9 0.960337 0.975131 0.415525
O O10 0.000000 0.000000 0.500000
O O11 0.093488 0.250000 0.619651
O O12 0.965144 0.996303 0.737857
O O13 0.035967 0.250000 0.197003
O O14 0.855098 0.487182 0.282229
O O15 0.186221 0.497687 0.073043
O O16 0.112203 0.750000 0.889540
O O17 0.890151 0.913743 0.973953
O O18 0.185167 0.001636 0.795335
O O19 0.000000 0.000000 0.000000
O O20 0.721748 0.250000 0.316873
O O21 0.325444 0.250000 0.948813
#
# Coordination Sequence:
#
# PCOD9158084 Si02
#       8
#     4   4   4   4   4   4   4   4
#     4  10  19  30  48  72  97 131 174 214 253 300
#     4   9  17  31  52  77 104 132 163 202 249 297
#     4  10  21  37  58  83 106 126 151 190 243 299
#     4  10  21  36  53  74 101 129 159 202 252 295
#     4   9  18  33  51  70  96 136 180 210 240 288
#     4   9  16  26  40  60  89 126 168 211 252 290
#     4   9  18  30  43  63  95 133 172 216 257 287
#     4   8  15  29  48  69  96 131 167 203 243 288
#
# _framework density 18.686764
#
# number of rings (size 3 to 8) (size 9 to 14) (size 15 to 20)
#    0.000    2.750    0.000    3.375    0.000    4.500 
#    0.000    3.125    0.000    0.750    0.000    0.000 
#    0.000    0.000    0.000    0.000    0.000    0.000 
#
# Total GULP energy -178141.204579 kJ/mol
# GULP energy per Si atom -5566.912643 kJ/mol
# Density = 1.864423 g / cm^3
# Si number density = 18.686764 Si / 1000 Ang^3
#
#
#
# Elastic Constant Matrix: (Units=GPa)
#
#
# Indices 1 2 3 4 5 6 
#
# 1 84.4880 11.2266 42.7963 0.0000 16.7942 0.0000
# 2 11.2266 11.5996 9.7455 0.0000 9.0103 0.0000
# 3 42.7963 9.7455 93.8666 0.0000 32.2951 0.0000
# 4 0.0000 0.0000 0.0000 18.0729 0.0000 2.5520
# 5 16.7942 9.0103 32.2951 0.0000 28.9515 0.0000
# 6 0.0000 0.0000 0.0000 2.5520 0.0000 21.9296
#
#
#
# Elastic Compliance Matrix: (Units=1/GPa)
#
#
# Indices 1 2 3 4 5 6 
#
# 1 0.016538 -0.011523 -0.006941 0.000000 0.001735 0.000000
# 2 -0.011523 0.121745 0.005436 0.000000 -0.037270 0.000000
# 3 -0.006941 0.005436 0.020205 0.000000 -0.020204 0.000000
# 4 0.000000 0.000000 0.000000 0.056256 0.000000 -0.006547
# 5 0.001735 -0.037270 -0.020204 0.000000 0.067670 0.000000
# 6 0.000000 0.000000 0.000000 -0.006547 0.000000 0.046362
#
#
# Mechanical properties :
#
#
# Convention : Reuss Voigt Hill
#
# Bulk Modulus (GPa) = 7.55096 35.27678 21.41387
# Shear Modulus (GPa) = 12.53214 22.20318 17.36766
#
# Velocity S-wave (km/s) = 2.59249 3.45073 3.05193
# Velocity P-wave (km/s) = 3.60706 5.89879 4.88910
#
# Compressibility (1/GPa) = 0.13243341
#
# Stress axis : x y z
#
# Youngs Moduli (GPa) = 60.46704 8.21391 49.49366
#
# Poissons Ratio (x) = 0.09464 0.34352
# Poissons Ratio (y) = 0.69673 -0.26906
# Poissons Ratio (z) = 0.41969 -0.04465
#
# Static dielectric constant tensor:
#      x y z
#    x 1.656150 0.000000 0.038360 
#    y 0.000000 0.988150 0.000000 
#    z 0.038360 0.000000 1.729390 
# 
# From -- ./inp_files/69430.got.cif
#   From: 2010.05.17/outbox.cif.g08.bks.cpg/sg11_35_cif.got.tgz:69430.got - 2010.06.03 12:22:45.
