data_PCOD9158973
_publ_section_title
;
Structure prediction by ZEFSAII (Michael W. Deem and Ramdas Pophale) SiO2 
 PCOD9158973
Probable space group: P 21/M
;
_chemical_formula_sum "Si O2"
_cell_formula_units_Z 32
_cell_length_a 20.856669
_cell_length_b 9.366083
_cell_length_c 11.857957
_cell_angle_alpha 90.000000
_cell_angle_beta 133.417662
_cell_angle_gamma 90.000000
_cell_volume 1682.544026
_symmetry_space_group_name_H-M "P 21/M"
_symmetry_group_IT_number 11
_symmetry_cell_setting 'monoclinic'
loop_
_space_group_symop_operation_xyz
x,y,z
-x,1/2+y,-z
-x,-y,-z
x,1/2-y,z
loop_
_atom_site_type_symbol
_atom_site_label
_atom_site_fract_x
_atom_site_fract_y
_atom_site_fract_z
Si Si1 0.248799 0.583062 0.283453
Si Si2 0.300674 0.588002 0.793532
Si Si3 0.862762 0.502998 0.260576
Si Si4 0.187244 0.921729 0.455262
Si Si5 0.540059 0.081269 0.439629
Si Si6 0.261958 0.411534 0.082552
Si Si7 0.046291 0.096969 0.404716
Si Si8 0.413322 0.923604 0.133975
O O1 0.228261 0.750000 0.234747
O O2 0.204407 0.539806 0.347298
O O3 0.354422 0.572743 0.427758
O O4 0.224987 0.482261 0.150867
O O5 0.326863 0.750000 0.799732
O O6 0.213499 0.586876 0.768378
O O7 0.264292 0.521642 0.633528
O O8 0.378330 0.529756 0.967528
O O9 0.910043 0.588621 0.418140
O O10 0.942322 0.420570 0.296917
O O11 0.811113 0.589417 0.103500
O O12 0.189610 0.750000 0.466024
O O13 0.094495 0.976927 0.390520
O O14 0.516408 0.250000 0.411350
O O15 0.500000 0.000000 0.500000
O O16 0.501469 0.000163 0.283596
O O17 0.293946 0.250000 0.140337
O O18 0.339464 0.515005 0.130750
O O19 0.066792 0.250000 0.377994
O O20 0.417226 0.750000 0.144294
#
# Coordination Sequence:
#
# PCOD9158973 Si02
#       8
#     4   4   4   4   4   4   4   4
#     4  10  22  38  55  74 103 142 180 217 261 317
#     4   8  15  30  53  77 103 137 174 210 255 312
#     4   9  19  32  51  81 113 137 166 213 268 312
#     4   9  19  37  56  74 102 143 181 215 262 316
#     4  11  21  34  53  78 106 138 177 222 267 311
#     4  11  21  33  53  79 107 137 173 218 263 309
#     4  10  19  33  56  83 109 137 173 217 263 313
#     4  10  19  32  52  80 110 136 168 215 268 318
#
# _framework density 19.018818
#
# number of rings (size 3 to 8) (size 9 to 14) (size 15 to 20)
#    0.000    2.250    1.250    1.875    0.000    6.000 
#    0.000    1.875    0.000    0.000    0.000    0.000 
#    0.000    0.000    0.000    0.000    0.000    0.000 
#
# Total GULP energy -178288.460479 kJ/mol
# GULP energy per Si atom -5571.514390 kJ/mol
# Density = 1.897553 g / cm^3
# Si number density = 19.018818 Si / 1000 Ang^3
#
#
#
# Elastic Constant Matrix: (Units=GPa)
#
#
# Indices 1 2 3 4 5 6 
#
# 1 44.1118 10.0458 5.4978 0.0000 -15.3715 0.0000
# 2 10.0458 69.3673 14.3322 0.0000 -7.3226 0.0000
# 3 5.4978 14.3322 40.3024 0.0000 -1.5489 0.0000
# 4 0.0000 0.0000 0.0000 8.7408 0.0000 2.0595
# 5 -15.3715 -7.3226 -1.5489 0.0000 27.1381 0.0000
# 6 0.0000 0.0000 0.0000 2.0595 0.0000 10.9817
#
#
#
# Elastic Compliance Matrix: (Units=1/GPa)
#
#
# Indices 1 2 3 4 5 6 
#
# 1 0.028919 -0.001987 -0.002635 0.000000 0.015694 0.000000
# 2 -0.001987 0.016117 -0.005348 0.000000 0.002918 0.000000
# 3 -0.002635 -0.005348 0.027020 0.000000 -0.001394 0.000000
# 4 0.000000 0.000000 0.000000 0.119696 0.000000 -0.022448
# 5 0.015694 0.002918 -0.001394 0.000000 0.046446 0.000000
# 6 0.000000 0.000000 0.000000 -0.022448 0.000000 0.095270
#
#
# Mechanical properties :
#
#
# Convention : Reuss Voigt Hill
#
# Bulk Modulus (GPa) = 19.18810 23.72590 21.45700
# Shear Modulus (GPa) = 13.48505 17.63249 15.55877
#
# Velocity S-wave (km/s) = 2.66566 3.04815 2.86330
# Velocity P-wave (km/s) = 4.42552 4.98902 4.71570
#
# Compressibility (1/GPa) = 0.05211563
#
# Stress axis : x y z
#
# Youngs Moduli (GPa) = 34.57884 62.04701 37.00927
#
# Poissons Ratio (x) = 0.12328 0.09753
# Poissons Ratio (y) = 0.06871 0.19793
# Poissons Ratio (z) = 0.09112 0.33184
#
# Static dielectric constant tensor:
#      x y z
#    x 1.643930 0.000000 -0.005600 
#    y 0.000000 1.691090 0.000000 
#    z -0.005600 0.000000 1.700480 
# 
# From -- ./inp_files/42852.got.cif
#   From: 2010.05.17/outbox.cif.g08.bks.cpg/sg11_22_cif.got.tgz:42852.got - 2010.06.03 12:22:45.
