data_PCOD9158308
_publ_section_title
;
Structure prediction by ZEFSAII (Michael W. Deem and Ramdas Pophale) SiO2 
 PCOD9158308
Probable space group: P 21/M
;
_chemical_formula_sum "Si O2"
_cell_formula_units_Z 32
_cell_length_a 6.974428
_cell_length_b 9.382595
_cell_length_c 23.109722
_cell_angle_alpha 90.000000
_cell_angle_beta 67.047986
_cell_angle_gamma 90.000000
_cell_volume 1392.536486
_symmetry_space_group_name_H-M "P 21/M"
_symmetry_group_IT_number 11
_symmetry_cell_setting 'monoclinic'
loop_
_space_group_symop_operation_xyz
x,y,z
-x,1/2+y,-z
-x,-y,-z
x,1/2-y,z
loop_
_atom_site_type_symbol
_atom_site_label
_atom_site_fract_x
_atom_site_fract_y
_atom_site_fract_z
Si Si1 0.330839 0.919350 0.303221
Si Si2 0.219984 0.911551 0.539035
Si Si3 0.681480 0.593519 0.029487
Si Si4 0.096737 0.920289 0.676099
Si Si5 0.616960 0.420409 0.827835
Si Si6 0.285435 0.412888 0.421332
Si Si7 0.961470 0.081645 0.191948
Si Si8 0.946836 0.092523 0.926390
O O1 0.327805 0.750000 0.313399
O O2 0.459213 0.949249 0.228967
O O3 0.101069 0.978655 0.313058
O O4 0.379308 0.997939 0.357273
O O5 0.289467 0.750000 0.518657
O O6 0.247009 0.943975 0.603867
O O7 0.967141 0.913250 0.559744
O O8 0.310501 0.019316 0.481641
O O9 0.626940 0.750000 0.012281
O O10 0.534284 0.556340 0.100463
O O11 0.902414 0.608240 0.036828
O O12 0.734881 0.482339 0.972839
O O13 0.037980 0.750000 0.680308
O O14 0.166603 0.946393 0.733861
O O15 0.669653 0.250000 0.820870
O O16 0.810180 0.523677 0.816992
O O17 0.355588 0.250000 0.410427
O O18 0.957891 0.250000 0.181333
O O19 0.931761 0.998085 0.135946
O O20 0.903687 0.250000 0.908117
#
# Coordination Sequence:
#
# PCOD9158308 Si02
#       8
#     4   4   4   4   4   4   4   4
#     4   9  15  23  37  56  79 108 141 178 219 261
#     4   8  13  21  32  47  70 103 143 180 211 249
#     4   9  19  36  54  70  91 119 151 189 229 268
#     4   8  15  26  38  54  79 111 144 178 217 259
#     4   9  18  32  49  69  92 119 153 191 229 269
#     4   9  15  21  30  47  74 108 143 176 212 257
#     4  10  19  31  48  70  96 124 152 185 227 273
#     4  10  20  34  52  72  93 119 151 186 226 272
#
# _framework density 22.979648999999998
#
# number of rings (size 3 to 8) (size 9 to 14) (size 15 to 20)
#    0.000    3.000    0.000    2.250    0.000    5.500 
#    0.000    0.000    0.000    0.000    0.000    0.000 
#    0.000    1.000    0.000    2.000    0.000    8.250 
#
# Total GULP energy -178551.404922 kJ/mol
# GULP energy per Si atom -5579.731404 kJ/mol
# Density = 2.292735 g / cm^3
# Si number density = 22.979649 Si / 1000 Ang^3
#
#
#
# Elastic Constant Matrix: (Units=GPa)
#
#
# Indices 1 2 3 4 5 6 
#
# 1 36.8232 21.7539 17.3509 0.0000 3.0581 0.0000
# 2 21.7539 111.2865 108.2480 0.0000 10.7264 0.0000
# 3 17.3509 108.2480 168.9444 0.0000 6.2239 0.0000
# 4 0.0000 0.0000 0.0000 39.4119 0.0000 11.0500
# 5 3.0581 10.7264 6.2239 0.0000 41.1340 0.0000
# 6 0.0000 0.0000 0.0000 11.0500 0.0000 10.9581
#
#
#
# Elastic Compliance Matrix: (Units=1/GPa)
#
#
# Indices 1 2 3 4 5 6 
#
# 1 0.030931 -0.007758 0.001815 0.000000 -0.000551 0.000000
# 2 -0.007758 0.026445 -0.016004 0.000000 -0.003898 0.000000
# 3 0.001815 -0.016004 0.015927 0.000000 0.001628 0.000000
# 4 0.000000 0.000000 0.000000 0.035374 0.000000 -0.035671
# 5 -0.000551 -0.003898 0.001628 0.000000 0.025122 0.000000
# 6 0.000000 0.000000 0.000000 -0.035671 0.000000 0.127227
#
#
# Mechanical properties :
#
#
# Convention : Reuss Voigt Hill
#
# Bulk Modulus (GPa) = 34.00447 67.97329 50.98888
# Shear Modulus (GPa) = 15.88707 29.61421 22.75064
#
# Velocity S-wave (km/s) = 2.63221 3.59376 3.14989
# Velocity P-wave (km/s) = 4.90590 6.84574 5.95533
#
# Compressibility (1/GPa) = 0.02940790
#
# Stress axis : x y z
#
# Youngs Moduli (GPa) = 32.33022 37.81496 62.78761
#
# Poissons Ratio (x) = 0.29337 -0.11393
# Poissons Ratio (y) = 0.25082 1.00482
# Poissons Ratio (z) = -0.05866 0.60517
#
# Static dielectric constant tensor:
#      x y z
#    x 1.927830 0.000000 0.015020 
#    y 0.000000 1.815700 0.000000 
#    z 0.015020 0.000000 1.871030 
# 
# From -- ./inp_files/66645.got.cif
#   From: 2010.05.17/outbox.cif.g08.bks.cpg/sg11_34_cif.got.tgz:66645.got - 2010.06.03 12:22:45.
