data_PCOD9158638
_publ_section_title
;
Structure prediction by ZEFSAII (Michael W. Deem and Ramdas Pophale) SiO2 
 PCOD9158638
Probable space group: P 21/M
;
_chemical_formula_sum "Si O2"
_cell_formula_units_Z 32
_cell_length_a 12.528138
_cell_length_b 8.784266
_cell_length_c 29.640480
_cell_angle_alpha 90.000000
_cell_angle_beta 146.000283
_cell_angle_gamma 90.000000
_cell_volume 1824.045680
_symmetry_space_group_name_H-M "P 21/M"
_symmetry_group_IT_number 11
_symmetry_cell_setting 'monoclinic'
loop_
_space_group_symop_operation_xyz
x,y,z
-x,1/2+y,-z
-x,-y,-z
x,1/2-y,z
loop_
_atom_site_type_symbol
_atom_site_label
_atom_site_fract_x
_atom_site_fract_y
_atom_site_fract_z
Si Si1 0.741858 0.431513 0.631784
Si Si2 0.421024 0.066781 0.275629
Si Si3 0.818483 0.066951 0.461259
Si Si4 0.680040 0.433177 0.508855
Si Si5 0.225806 0.931455 0.124248
Si Si6 0.806510 0.068427 0.989979
Si Si7 0.682250 0.568536 0.038500
Si Si8 0.935708 0.932075 0.784468
O O1 0.754372 0.250000 0.642085
O O2 0.772908 0.468113 0.589791
O O3 0.526014 0.487280 0.565855
O O4 0.882042 0.513279 0.715609
O O5 0.420324 0.250000 0.270508
O O6 0.620693 0.020556 0.367890
O O7 0.245178 0.027111 0.247160
O O8 0.381591 0.990202 0.213867
O O9 0.827943 0.250000 0.462718
O O10 0.802260 0.023003 0.508158
O O11 0.000000 0.000000 0.500000
O O12 0.647231 0.250000 0.495718
O O13 0.200801 0.750000 0.119464
O O14 0.267947 0.966035 0.086567
O O15 0.025825 0.011713 0.066851
O O16 0.803945 0.250000 0.995914
O O17 0.695311 0.988781 0.991469
O O18 0.675441 0.750000 0.037346
O O19 0.874913 0.509664 0.130110
O O20 0.500000 0.500000 0.000000
O O21 0.958099 0.750000 0.793654
#
# Coordination Sequence:
#
# PCOD9158638 Si02
#       8
#     4   4   4   4   4   4   4   4
#     4  10  19  31  55  86 111 143 189 238 281 334
#     4  10  20  35  57  81 113 150 189 235 286 336
#     4  10  21  38  56  79 111 150 187 227 280 336
#     4   9  18  35  54  77 114 151 184 229 289 339
#     4  10  20  33  56  87 116 147 190 238 281 330
#     4  10  20  36  56  83 118 153 187 231 286 336
#     4  12  25  41  61  86 116 151 191 234 284 346
#     4  11  21  37  59  84 116 151 187 234 286 337
#
# _framework density 17.543420999999999
#
# number of rings (size 3 to 8) (size 9 to 14) (size 15 to 20)
#    0.000    1.750    2.500    2.625    0.000    3.500 
#    0.000    1.250    0.000    4.500    0.000    0.000 
#    0.000    0.000    0.000    0.000    0.000    0.000 
#
# Total GULP energy -178692.179858 kJ/mol
# GULP energy per Si atom -5584.130621 kJ/mol
# Density = 1.750349 g / cm^3
# Si number density = 17.543421 Si / 1000 Ang^3
#
#
#
# Elastic Constant Matrix: (Units=GPa)
#
#
# Indices 1 2 3 4 5 6 
#
# 1 166.4624 63.3396 82.7978 0.0000 -7.5744 0.0000
# 2 63.3396 66.0107 49.0239 0.0000 -3.7804 0.0000
# 3 82.7978 49.0239 103.9674 0.0000 -7.2275 0.0000
# 4 0.0000 0.0000 0.0000 32.2733 0.0000 -1.7862
# 5 -7.5744 -3.7804 -7.2275 0.0000 29.5014 0.0000
# 6 0.0000 0.0000 0.0000 -1.7862 0.0000 30.9585
#
#
#
# Elastic Compliance Matrix: (Units=1/GPa)
#
#
# Indices 1 2 3 4 5 6 
#
# 1 0.011538 -0.006530 -0.006065 0.000000 0.000640 0.000000
# 2 -0.006530 0.027012 -0.007541 0.000000 -0.000063 0.000000
# 3 -0.006065 -0.007541 0.018138 0.000000 0.001920 0.000000
# 4 0.000000 0.000000 0.000000 0.031085 0.000000 0.001794
# 5 0.000640 -0.000063 0.001920 0.000000 0.034523 0.000000
# 6 0.000000 0.000000 0.000000 0.001794 0.000000 0.032405
#
#
# Mechanical properties :
#
#
# Convention : Reuss Voigt Hill
#
# Bulk Modulus (GPa) = 60.91796 80.75144 70.83470
# Shear Modulus (GPa) = 24.94475 27.96527 26.45501
#
# Velocity S-wave (km/s) = 3.77488 3.99690 3.88748
# Velocity P-wave (km/s) = 7.33479 8.21156 7.78553
#
# Compressibility (1/GPa) = 0.01641552
#
# Stress axis : x y z
#
# Youngs Moduli (GPa) = 86.67097 37.02116 55.13433
#
# Poissons Ratio (x) = 0.24175 0.33439
# Poissons Ratio (y) = 0.56598 0.41575
# Poissons Ratio (z) = 0.52565 0.27916
#
# Static dielectric constant tensor:
#      x y z
#    x 1.595340 0.000000 -0.028250 
#    y 0.000000 1.585250 0.000000 
#    z -0.028250 0.000000 1.577790 
# 
# From -- ./inp_files/73156.got.cif
#   From: 2010.05.17/outbox.cif.g08.bks.cpg/sg11_37_cif.got.tgz:73156.got - 2010.06.03 12:22:45.
