data_PCOD9158650
_publ_section_title
;
Structure prediction by ZEFSAII (Michael W. Deem and Ramdas Pophale) SiO2 
 PCOD9158650
Probable space group: P 21/M
;
_chemical_formula_sum "Si O2"
_cell_formula_units_Z 32
_cell_length_a 16.814998
_cell_length_b 8.917107
_cell_length_c 22.645153
_cell_angle_alpha 90.000000
_cell_angle_beta 140.996423
_cell_angle_gamma 90.000000
_cell_volume 2136.984347
_symmetry_space_group_name_H-M "P 21/M"
_symmetry_group_IT_number 11
_symmetry_cell_setting 'monoclinic'
loop_
_space_group_symop_operation_xyz
x,y,z
-x,1/2+y,-z
-x,-y,-z
x,1/2-y,z
loop_
_atom_site_type_symbol
_atom_site_label
_atom_site_fract_x
_atom_site_fract_y
_atom_site_fract_z
Si Si1 0.746210 0.070259 0.484572
Si Si2 0.139414 0.930876 0.576774
Si Si3 0.522893 0.577038 0.420099
Si Si4 0.306799 0.423063 0.362014
Si Si5 0.194625 0.068575 0.842825
Si Si6 0.910184 0.068975 0.693503
Si Si7 0.543312 0.568981 0.962345
Si Si8 0.303332 0.069122 0.776380
O O1 0.734173 0.250000 0.480501
O O2 0.799796 0.030164 0.451611
O O3 0.844746 0.026127 0.593272
O O4 0.611099 0.999749 0.422298
O O5 0.133658 0.750000 0.578080
O O6 0.223894 0.999674 0.677505
O O7 0.000000 0.000000 0.500000
O O8 0.501397 0.750000 0.393575
O O9 0.391592 0.497386 0.360176
O O10 0.606774 0.569789 0.528701
O O11 0.283034 0.250000 0.335016
O O12 0.178324 0.505812 0.305907
O O13 0.189327 0.250000 0.839065
O O14 0.236703 0.026040 0.800508
O O15 0.054695 0.014677 0.777593
O O16 0.307947 0.029016 0.953138
O O17 0.908953 0.250000 0.695791
O O18 0.531300 0.750000 0.955862
O O19 0.445296 0.497054 0.860166
O O20 0.500000 0.500000 0.000000
O O21 0.306330 0.250000 0.775032
#
# Coordination Sequence:
#
# PCOD9158650 Si02
#       8
#     4   4   4   4   4   4   4   4
#     4   9  18  30  43  59  83 115 147 179 215 252
#     4  11  22  34  47  64  87 117 151 185 221 258
#     4   9  16  26  41  58  77 106 143 177 208 247
#     4   9  16  25  37  57  83 108 135 170 211 252
#     4   8  15  27  44  63  85 113 143 176 216 260
#     4   9  15  26  42  59  82 113 144 172 207 254
#     4   9  16  28  45  65  86 111 144 181 222 265
#     4  10  19  32  47  63  85 115 150 187 224 259
#
# _framework density 14.974372000000001
#
# number of rings (size 3 to 8) (size 9 to 14) (size 15 to 20)
#    0.000    2.750    0.000    3.375    0.000    6.000 
#    0.000    6.250    0.000    0.000    0.000    0.000 
#    0.000    1.000    0.000    3.000    0.000    4.000 
#
# Total GULP energy -178197.456155 kJ/mol
# GULP energy per Si atom -5568.670505 kJ/mol
# Density = 1.494029 g / cm^3
# Si number density = 14.974372 Si / 1000 Ang^3
#
#
#
# Elastic Constant Matrix: (Units=GPa)
#
#
# Indices 1 2 3 4 5 6 
#
# 1 118.7652 46.5931 62.0215 0.0000 27.1194 0.0000
# 2 46.5931 49.7552 39.0760 0.0000 9.8908 0.0000
# 3 62.0215 39.0760 108.1010 0.0000 22.2587 0.0000
# 4 0.0000 0.0000 0.0000 20.4838 0.0000 3.3422
# 5 27.1194 9.8908 22.2587 0.0000 23.1691 0.0000
# 6 0.0000 0.0000 0.0000 3.3422 0.0000 24.2767
#
#
#
# Elastic Compliance Matrix: (Units=1/GPa)
#
#
# Indices 1 2 3 4 5 6 
#
# 1 0.017390 -0.011161 -0.003407 0.000000 -0.012318 0.000000
# 2 -0.011161 0.035374 -0.007435 0.000000 0.005105 0.000000
# 3 -0.003407 -0.007435 0.015480 0.000000 -0.007711 0.000000
# 4 0.000000 0.000000 0.000000 0.049941 0.000000 -0.006875
# 5 -0.012318 0.005105 -0.007711 0.000000 0.062807 0.000000
# 6 0.000000 0.000000 0.000000 -0.006875 0.000000 0.042138
#
#
# Mechanical properties :
#
#
# Convention : Reuss Voigt Hill
#
# Bulk Modulus (GPa) = 41.25407 63.55585 52.40496
# Shear Modulus (GPa) = 18.16758 22.18133 20.17445
#
# Velocity S-wave (km/s) = 3.48694 3.85292 3.67449
# Velocity P-wave (km/s) = 6.61977 7.89484 7.28526
#
# Compressibility (1/GPa) = 0.02424003
#
# Stress axis : x y z
#
# Youngs Moduli (GPa) = 57.50324 28.26930 64.59820
#
# Poissons Ratio (x) = 0.31551 0.22007
# Poissons Ratio (y) = 0.64179 0.48027
# Poissons Ratio (z) = 0.19590 0.21017
#
# Static dielectric constant tensor:
#      x y z
#    x 1.490870 0.000000 0.016150 
#    y 0.000000 1.501800 0.000000 
#    z 0.016150 0.000000 1.504320 
# 
# From -- ./inp_files/51361.got.cif
#   From: 2010.05.17/outbox.cif.g08.bks.cpg/sg11_26_cif.got.tgz:51361.got - 2010.06.03 12:22:45.
