data_PCOD9158697
_publ_section_title
;
Structure prediction by ZEFSAII (Michael W. Deem and Ramdas Pophale) SiO2 
 PCOD9158697
Probable space group: P 21/M
;
_chemical_formula_sum "Si O2"
_cell_formula_units_Z 32
_cell_length_a 21.426774
_cell_length_b 8.737709
_cell_length_c 24.099127
_cell_angle_alpha 90.000000
_cell_angle_beta 156.319596
_cell_angle_gamma 90.000000
_cell_volume 1812.119264
_symmetry_space_group_name_H-M "P 21/M"
_symmetry_group_IT_number 11
_symmetry_cell_setting 'monoclinic'
loop_
_space_group_symop_operation_xyz
x,y,z
-x,1/2+y,-z
-x,-y,-z
x,1/2-y,z
loop_
_atom_site_type_symbol
_atom_site_label
_atom_site_fract_x
_atom_site_fract_y
_atom_site_fract_z
Si Si1 0.008695 0.066096 0.069389
Si Si2 0.157071 0.934748 0.760737
Si Si3 0.315327 0.433128 0.187303
Si Si4 0.314478 0.933845 0.775995
Si Si5 0.179771 0.433752 0.557999
Si Si6 0.646200 0.565795 0.652211
Si Si7 0.498628 0.933032 0.237590
Si Si8 0.363424 0.432905 0.018759
O O1 0.000684 0.250000 0.061561
O O2 0.181807 0.022954 0.231285
O O3 0.851527 0.000687 0.967860
O O4 0.000000 0.000000 0.000000
O O5 0.167968 0.750000 0.774487
O O6 0.264091 0.985798 0.795871
O O7 0.981544 0.975538 0.601761
O O8 0.215682 0.011080 0.864485
O O9 0.304911 0.250000 0.178054
O O10 0.351104 0.480103 0.280283
O O11 0.445654 0.491925 0.251581
O O12 0.308270 0.750000 0.770997
O O13 0.486165 0.980507 0.895856
O O14 0.200109 0.994229 0.635192
O O15 0.183250 0.250000 0.567111
O O16 0.328823 0.478533 0.642432
O O17 0.500000 0.500000 0.500000
O O18 0.636535 0.750000 0.642726
O O19 0.492698 0.750000 0.237330
O O20 0.386106 0.989727 0.096699
O O21 0.365547 0.250000 0.026564
#
# Coordination Sequence:
#
# PCOD9158697 Si02
#       8
#     4   4   4   4   4   4   4   4
#     4   9  17  31  51  78 107 137 171 206 243 286
#     4  10  19  32  49  72 100 129 163 209 259 308
#     4  10  20  35  55  79 103 133 173 213 248 294
#     4   9  18  31  49  72  98 128 165 207 255 308
#     4   9  19  33  50  72  99 130 167 208 254 307
#     4   9  19  33  52  80 112 139 166 202 247 292
#     4  10  20  36  55  73  95 131 172 209 251 302
#     4  10  20  33  49  72  99 129 165 208 254 303
#
# _framework density 17.658881999999998
#
# number of rings (size 3 to 8) (size 9 to 14) (size 15 to 20)
#    0.000    2.500    0.000    3.000    0.000    5.000 
#    0.000    1.250    0.000    4.500    0.000    0.000 
#    0.000    0.000    0.000    0.000    0.000    0.000 
#
# Total GULP energy -178427.895957 kJ/mol
# GULP energy per Si atom -5575.871749 kJ/mol
# Density = 1.761869 g / cm^3
# Si number density = 17.658882 Si / 1000 Ang^3
#
#
#
# Elastic Constant Matrix: (Units=GPa)
#
#
# Indices 1 2 3 4 5 6 
#
# 1 64.8089 14.7074 15.1696 0.0000 -4.6653 0.0000
# 2 14.7074 25.5566 17.3713 0.0000 -3.0916 0.0000
# 3 15.1696 17.3713 91.4571 0.0000 -18.8962 0.0000
# 4 0.0000 0.0000 0.0000 27.0539 0.0000 -2.5536
# 5 -4.6653 -3.0916 -18.8962 0.0000 14.7641 0.0000
# 6 0.0000 0.0000 0.0000 -2.5536 0.0000 26.0666
#
#
#
# Elastic Compliance Matrix: (Units=1/GPa)
#
#
# Indices 1 2 3 4 5 6 
#
# 1 0.017949 -0.009604 -0.000539 0.000000 0.002971 0.000000
# 2 -0.009604 0.050114 -0.008680 0.000000 -0.003650 0.000000
# 3 -0.000539 -0.008680 0.016669 0.000000 0.019347 0.000000
# 4 0.000000 0.000000 0.000000 0.037308 0.000000 0.003655
# 5 0.002971 -0.003650 0.019347 0.000000 0.092668 0.000000
# 6 0.000000 0.000000 0.000000 0.003655 0.000000 0.038721
#
#
# Mechanical properties :
#
#
# Convention : Reuss Voigt Hill
#
# Bulk Modulus (GPa) = 21.23719 30.70211 25.96965
# Shear Modulus (GPa) = 16.29880 22.54855 19.42368
#
# Velocity S-wave (km/s) = 3.04136 3.57724 3.32013
# Velocity P-wave (km/s) = 4.93818 5.87249 5.42549
#
# Compressibility (1/GPa) = 0.04708720
#
# Stress axis : x y z
#
# Youngs Moduli (GPa) = 55.71202 19.95461 59.98987
#
# Poissons Ratio (x) = 0.19164 0.03235
# Poissons Ratio (y) = 0.53504 0.52070
# Poissons Ratio (z) = 0.03005 0.17320
#
# Static dielectric constant tensor:
#      x y z
#    x 1.676270 0.000000 0.034310 
#    y 0.000000 1.589070 0.000000 
#    z 0.034310 0.000000 1.614300 
# 
# From -- ./inp_files/72292.got.cif
#   From: 2010.05.17/outbox.cif.g08.bks.cpg/sg11_37_cif.got.tgz:72292.got - 2010.06.03 12:22:45.
