data_PCOD9158264
_publ_section_title
;
Structure prediction by ZEFSAII (Michael W. Deem and Ramdas Pophale) SiO2 
 PCOD9158264
Probable space group: P 21/M
;
_chemical_formula_sum "Si O2"
_cell_formula_units_Z 28
_cell_length_a 9.794435
_cell_length_b 7.998968
_cell_length_c 26.563081
_cell_angle_alpha 90.000000
_cell_angle_beta 40.778326
_cell_angle_gamma 90.000000
_cell_volume 1359.233968
_symmetry_space_group_name_H-M "P 21/M"
_symmetry_group_IT_number 11
_symmetry_cell_setting 'monoclinic'
loop_
_space_group_symop_operation_xyz
x,y,z
-x,1/2+y,-z
-x,-y,-z
x,1/2-y,z
loop_
_atom_site_type_symbol
_atom_site_label
_atom_site_fract_x
_atom_site_fract_y
_atom_site_fract_z
Si Si1 0.277862 0.048813 0.584074
Si Si2 0.836441 0.049689 0.675754
Si Si3 0.929720 0.451908 0.075748
Si Si4 0.293109 0.546125 0.177550
Si Si5 0.582161 0.447402 0.245728
Si Si6 0.361260 0.450980 0.991576
Si Si7 0.153496 0.451853 0.731207
O O1 0.269859 0.250000 0.587383
O O2 0.243525 0.993314 0.651572
O O3 0.076768 0.989764 0.607448
O O4 0.500000 0.000000 0.500000
O O5 0.846092 0.250000 0.674870
O O6 0.748448 0.988731 0.754300
O O7 0.657037 0.006906 0.686308
O O8 0.919885 0.250000 0.079429
O O9 0.716219 0.517584 0.160593
O O10 0.000000 0.500000 0.000000
O O11 0.123746 0.510463 0.056469
O O12 0.296013 0.750000 0.177499
O O13 0.508609 0.487818 0.093290
O O14 0.090745 0.496254 0.201038
O O15 0.572963 0.250000 0.242273
O O16 0.712271 0.486034 0.259604
O O17 0.354037 0.250000 0.991597
O O18 0.500000 0.500000 0.000000
O O19 0.157305 0.250000 0.731134
#
# Coordination Sequence:
#
# PCOD9158264 Si02
#       7
#     4   4   4   4   4   4   4
#     4   9  19  36  60  87 110 133 169 211 255 312
#     4   9  18  35  57  77  99 135 175 208 249 309
#     4  10  22  36  50  72 104 140 180 223 268 314
#     4   8  15  30  52  72  91 124 175 218 248 295
#     4  11  22  34  49  77 111 139 174 221 265 307
#     4  10  19  31  47  69  96 128 167 214 261 303
#     4   9  18  34  55  78 103 137 176 211 253 314
#
# _framework density 20.59984
#
# number of rings (size 3 to 8) (size 9 to 14) (size 15 to 20)
#    0.000    2.571    0.000    3.857    0.000    4.000 
#    0.000    3.571    0.000    0.000    0.000    0.000 
#    0.000    0.000    0.000    0.000    0.000    0.000 
#
# Total GULP energy -156170.364313 kJ/mol
# GULP energy per Si atom -5577.513011 kJ/mol
# Density = 2.055295 g / cm^3
# Si number density = 20.599840 Si / 1000 Ang^3
#
#
#
# Elastic Constant Matrix: (Units=GPa)
#
#
# Indices 1 2 3 4 5 6 
#
# 1 96.5810 0.3968 26.1011 0.0000 -29.5985 0.0000
# 2 0.3968 16.0792 11.7577 0.0000 -6.6418 0.0000
# 3 26.1011 11.7577 100.0674 0.0000 -31.1453 0.0000
# 4 0.0000 0.0000 0.0000 19.3369 0.0000 2.3219
# 5 -29.5985 -6.6418 -31.1453 0.0000 32.3374 0.0000
# 6 0.0000 0.0000 0.0000 2.3219 0.0000 20.4549
#
#
#
# Elastic Compliance Matrix: (Units=1/GPa)
#
#
# Indices 1 2 3 4 5 6 
#
# 1 0.014860 0.005712 0.000073 0.000000 0.014845 0.000000
# 2 0.005712 0.072102 -0.005320 0.000000 0.014913 0.000000
# 3 0.000073 -0.005320 0.014681 0.000000 0.013114 0.000000
# 4 0.000000 0.000000 0.000000 0.052429 0.000000 -0.005952
# 5 0.014845 0.014913 0.013114 0.000000 0.060206 0.000000
# 6 0.000000 0.000000 0.000000 -0.005952 0.000000 0.049564
#
#
# Mechanical properties :
#
#
# Convention : Reuss Voigt Hill
#
# Bulk Modulus (GPa) = 9.74913 32.13764 20.94338
# Shear Modulus (GPa) = 16.82923 26.05730 21.44327
#
# Velocity S-wave (km/s) = 2.86135 3.56044 3.22987
# Velocity P-wave (km/s) = 3.95719 5.70413 4.90899
#
# Compressibility (1/GPa) = 0.10257327
#
# Stress axis : x y z
#
# Youngs Moduli (GPa) = 67.29342 13.86932 68.11574
#
# Poissons Ratio (x) = -0.07922 -0.00499
# Poissons Ratio (y) = -0.38437 0.36237
# Poissons Ratio (z) = -0.00493 0.07378
#
# Static dielectric constant tensor:
#      x y z
#    x 1.774450 0.000000 -0.023720 
#    y 0.000000 1.726830 0.000000 
#    z -0.023720 0.000000 1.760720 
# 
# From -- ./inp_files/28974.got.cif
#   From: 2010.05.17/outbox.cif.g08.bks.cpg/sg11_15_cif.got.tgz:28974.got - 2010.06.03 12:22:45.
