data_PCOD9158670
_publ_section_title
;
Structure prediction by ZEFSAII (Michael W. Deem and Ramdas Pophale) SiO2 
 PCOD9158670
Probable space group: P 21/M
;
_chemical_formula_sum "Si O2"
_cell_formula_units_Z 24
_cell_length_a 12.192754
_cell_length_b 8.585528
_cell_length_c 23.871519
_cell_angle_alpha 90.000000
_cell_angle_beta 146.072209
_cell_angle_gamma 90.000000
_cell_volume 1394.755123
_symmetry_space_group_name_H-M "P 21/M"
_symmetry_group_IT_number 11
_symmetry_cell_setting 'monoclinic'
loop_
_space_group_symop_operation_xyz
x,y,z
-x,1/2+y,-z
-x,-y,-z
x,1/2-y,z
loop_
_atom_site_type_symbol
_atom_site_label
_atom_site_fract_x
_atom_site_fract_y
_atom_site_fract_z
Si Si1 0.785249 0.436394 0.391269
Si Si2 0.476556 0.438854 0.355929
Si Si3 0.111221 0.562606 0.252909
Si Si4 0.303248 0.564367 0.888610
Si Si5 0.761196 0.064719 0.571837
Si Si6 0.205779 0.065902 0.725842
O O1 0.798012 0.250000 0.398314
O O2 0.614553 0.484568 0.362415
O O3 0.732116 0.492120 0.306408
O O4 0.000000 0.500000 0.500000
O O5 0.468989 0.250000 0.353969
O O6 0.256717 0.504307 0.266280
O O7 0.592556 0.498750 0.460456
O O8 0.104970 0.750000 0.251331
O O9 0.206283 0.502400 0.352042
O O10 0.889382 0.500657 0.160944
O O11 0.300385 0.750000 0.889147
O O12 0.288996 0.508390 0.817941
O O13 0.500000 0.500000 0.000000
O O14 0.726486 0.250000 0.562614
O O15 0.969685 0.045684 0.629502
O O16 0.246444 0.250000 0.743746
#
# Coordination Sequence:
#
# PCOD9158670 Si02
#       6
#     4   4   4   4   4   4
#     4  11  21  33  51  76 110 154 195 229 266 317
#     4  10  19  32  48  71 108 151 187 222 264 316
#     4  10  20  33  51  78 108 140 180 225 273 324
#     4  11  22  39  62  86 108 137 175 223 279 331
#     4   8  15  29  47  70 104 142 177 219 264 311
#     4  10  19  35  55  80 111 143 183 231 272 320
#
# _framework density 17.207322000000001
#
# number of rings (size 3 to 8) (size 9 to 14) (size 15 to 20)
#    0.000    2.000    1.667    4.500    0.000    1.333 
#    0.000    0.833    0.000    1.000    0.000    0.000 
#    0.000    0.000    0.000    0.000    0.000    0.000 
#
# Total GULP energy -133871.568118 kJ/mol
# GULP energy per Si atom -5577.982005 kJ/mol
# Density = 1.716816 g / cm^3
# Si number density = 17.207322 Si / 1000 Ang^3
#
#
#
# Elastic Constant Matrix: (Units=GPa)
#
#
# Indices 1 2 3 4 5 6 
#
# 1 126.5040 50.2910 63.0129 0.0000 27.2861 0.0000
# 2 50.2910 70.5391 42.3782 0.0000 11.2109 0.0000
# 3 63.0129 42.3782 105.0828 0.0000 11.2379 0.0000
# 4 0.0000 0.0000 0.0000 24.7634 0.0000 0.8765
# 5 27.2861 11.2109 11.2379 0.0000 13.7862 0.0000
# 6 0.0000 0.0000 0.0000 0.8765 0.0000 26.6334
#
#
#
# Elastic Compliance Matrix: (Units=1/GPa)
#
#
# Indices 1 2 3 4 5 6 
#
# 1 0.019510 -0.005463 -0.006399 0.000000 -0.028955 0.000000
# 2 -0.005463 0.021568 -0.005152 0.000000 -0.002527 0.000000
# 3 -0.006399 -0.005152 0.014930 0.000000 0.004685 0.000000
# 4 0.000000 0.000000 0.000000 0.040429 0.000000 -0.001330
# 5 -0.028955 -0.002527 0.004685 0.000000 0.128082 0.000000
# 6 0.000000 0.000000 0.000000 -0.001330 0.000000 0.037591
#
#
# Mechanical properties :
#
#
# Convention : Reuss Voigt Hill
#
# Bulk Modulus (GPa) = 45.49638 68.16559 56.83098
# Shear Modulus (GPa) = 16.47633 22.79951 19.63792
#
# Velocity S-wave (km/s) = 3.09774 3.64399 3.38191
# Velocity P-wave (km/s) = 6.26835 7.57662 6.95332
#
# Compressibility (1/GPa) = 0.02197977
#
# Stress axis : x y z
#
# Youngs Moduli (GPa) = 51.25655 46.36454 66.97777
#
# Poissons Ratio (x) = 0.25329 0.42861
# Poissons Ratio (y) = 0.28002 0.34507
# Poissons Ratio (z) = 0.32800 0.23887
#
# Static dielectric constant tensor:
#      x y z
#    x 1.608860 0.000000 -0.001450 
#    y 0.000000 1.583490 0.000000 
#    z -0.001450 0.000000 1.568730 
# 
# From -- ./inp_files/42256.got.cif
#   From: 2010.05.17/outbox.cif.g08.bks.cpg/sg11_22_cif.got.tgz:42256.got - 2010.06.03 12:22:45.
