data_PCOD9158555
_publ_section_title
;
Structure prediction by ZEFSAII (Michael W. Deem and Ramdas Pophale) SiO2 
 PCOD9158555
Probable space group: P 21/M
;
_chemical_formula_sum "Si O2"
_cell_formula_units_Z 24
_cell_length_a 14.736591
_cell_length_b 19.710358
_cell_length_c 6.947299
_cell_angle_alpha 90.000000
_cell_angle_beta 43.050470
_cell_angle_gamma 90.000000
_cell_volume 1377.528975
_symmetry_space_group_name_H-M "P 21/M"
_symmetry_group_IT_number 11
_symmetry_cell_setting 'monoclinic'
loop_
_space_group_symop_operation_xyz
x,y,z
-x,1/2+y,-z
-x,-y,-z
x,1/2-y,z
loop_
_atom_site_type_symbol
_atom_site_label
_atom_site_fract_x
_atom_site_fract_y
_atom_site_fract_z
Si Si1 0.856442 0.326036 0.891196
Si Si2 0.622655 0.326159 0.980772
Si Si3 0.543871 0.923806 0.495158
Si Si4 0.631564 0.372109 0.542036
Si Si5 0.989950 0.960997 0.313889
Si Si6 0.219381 0.486676 0.672679
O O1 0.907595 0.250000 0.832868
O O2 0.774065 0.332336 0.820373
O O3 0.743378 0.339568 0.229336
O O4 0.967243 0.383146 0.728736
O O5 0.577831 0.250000 0.110673
O O6 0.544078 0.387342 0.204411
O O7 0.614288 0.333064 0.766070
O O8 0.504700 0.880372 0.367286
O O9 0.689595 0.931664 0.359123
O O10 0.500000 0.000000 0.500000
O O11 0.689064 0.447034 0.500542
O O12 0.850078 0.966798 0.419740
O O13 0.000000 0.000000 0.500000
O O14 0.101983 0.992956 0.000598
#
# Coordination Sequence:
#
# PCOD9158555 Si02
#       6
#     4   4   4   4   4   4
#     4   9  18  32  49  72  99 125 160 205 249 294
#     4  10  19  31  51  77 101 128 162 201 249 302
#     4   9  19  33  50  74 102 129 161 200 245 299
#     4   9  17  31  52  75  99 126 159 204 254 295
#     4  10  19  32  51  71  96 129 167 208 244 281
#     4   9  19  32  48  73  97 126 167 204 242 289
#
# _framework density 17.422501
#
# number of rings (size 3 to 8) (size 9 to 14) (size 15 to 20)
#    0.000    2.667    0.000    2.500    0.000    4.667 
#    0.000    0.833    0.000    1.000    0.000    0.000 
#    0.000    0.000    0.000    0.000    0.000    0.000 
#
# Total GULP energy -133634.031576 kJ/mol
# GULP energy per Si atom -5568.084649 kJ/mol
# Density = 1.738285 g / cm^3
# Si number density = 17.422501 Si / 1000 Ang^3
#
#
#
# Elastic Constant Matrix: (Units=GPa)
#
#
# Indices 1 2 3 4 5 6 
#
# 1 150.6703 54.4208 30.4670 0.0000 15.1538 0.0000
# 2 54.4208 96.0799 27.7534 0.0000 5.7845 0.0000
# 3 30.4670 27.7534 24.5228 0.0000 16.0345 0.0000
# 4 0.0000 0.0000 0.0000 18.2836 0.0000 3.8449
# 5 15.1538 5.7845 16.0345 0.0000 28.8555 0.0000
# 6 0.0000 0.0000 0.0000 3.8449 0.0000 21.9095
#
#
#
# Elastic Compliance Matrix: (Units=1/GPa)
#
#
# Indices 1 2 3 4 5 6 
#
# 1 0.009380 -0.002785 -0.008867 0.000000 0.000560 0.000000
# 2 -0.002785 0.018573 -0.025259 0.000000 0.011775 0.000000
# 3 -0.008867 -0.025259 0.116272 0.000000 -0.054890 0.000000
# 4 0.000000 0.000000 0.000000 0.056789 0.000000 -0.009966
# 5 0.000560 0.011775 -0.054890 0.000000 0.062502 0.000000
# 6 0.000000 0.000000 0.000000 -0.009966 0.000000 0.047391
#
#
# Mechanical properties :
#
#
# Convention : Reuss Voigt Hill
#
# Bulk Modulus (GPa) = 14.20415 55.17281 34.68848
# Shear Modulus (GPa) = 12.24898 24.38520 18.31709
#
# Velocity S-wave (km/s) = 2.65440 3.74523 3.24597
# Velocity P-wave (km/s) = 4.19105 7.10202 5.83110
#
# Compressibility (1/GPa) = 0.07040194
#
# Stress axis : x y z
#
# Youngs Moduli (GPa) = 106.61311 53.84234 8.60052
#
# Poissons Ratio (x) = 0.14995 0.07626
# Poissons Ratio (y) = 0.29692 0.21724
# Poissons Ratio (z) = 0.94539 1.35999
#
# Static dielectric constant tensor:
#      x y z
#    x 1.612800 0.000000 0.011870 
#    y 0.000000 1.607190 0.000000 
#    z 0.011870 0.000000 1.585560 
# 
# From -- ./inp_files/4602.got.cif
#   From: 2010.05.17/outbox.cif.g08.bks.cpg/sg11_3_cif.got.tgz:4602.got - 2010.06.03 12:22:45.
