data_PCOD9158568
_publ_section_title
;
Structure prediction by ZEFSAII (Michael W. Deem and Ramdas Pophale) SiO2 
 PCOD9158568
Probable space group: P 21/M
;
_chemical_formula_sum "Si O2"
_cell_formula_units_Z 28
_cell_length_a 17.262634
_cell_length_b 7.881104
_cell_length_c 21.892340
_cell_angle_alpha 90.000000
_cell_angle_beta 154.243287
_cell_angle_gamma 90.000000
_cell_volume 1294.275837
_symmetry_space_group_name_H-M "P 21/M"
_symmetry_group_IT_number 11
_symmetry_cell_setting 'monoclinic'
loop_
_space_group_symop_operation_xyz
x,y,z
-x,1/2+y,-z
-x,-y,-z
x,1/2-y,z
loop_
_atom_site_type_symbol
_atom_site_label
_atom_site_fract_x
_atom_site_fract_y
_atom_site_fract_z
Si Si1 0.985989 0.453314 0.587154
Si Si2 0.222760 0.954770 0.104438
Si Si3 0.677028 0.456684 0.958611
Si Si4 0.972384 0.954031 0.718482
Si Si5 0.712573 0.953573 0.291380
Si Si6 0.828629 0.057338 0.803078
Si Si7 0.335897 0.065181 0.424174
O O1 0.990646 0.250000 0.590138
O O2 0.810713 0.508325 0.425136
O O3 0.992686 0.512784 0.661370
O O4 0.155307 0.518141 0.667812
O O5 0.195592 0.750000 0.084969
O O6 0.323953 0.999773 0.114336
O O7 0.287439 0.991048 0.219505
O O8 0.034933 0.049014 0.966616
O O9 0.679724 0.250000 0.963835
O O10 0.490188 0.517247 0.854173
O O11 0.855715 0.516403 0.120595
O O12 0.964487 0.750000 0.722025
O O13 0.781123 0.024338 0.606742
O O14 0.704454 0.750000 0.279658
O O15 0.787610 0.250000 0.754881
O O16 0.808365 0.932085 0.732775
O O17 0.387192 0.250000 0.483668
O O18 0.500000 0.000000 0.500000
#
# Coordination Sequence:
#
# PCOD9158568 Si02
#       7
#     4   4   4   4   4   4   4
#     4  10  21  37  57  85 119 149 186 235 284 335
#     4   9  17  32  53  76 104 140 180 224 271 327
#     4   9  17  34  59  84 110 145 193 235 273 334
#     4  10  21  38  60  82 110 151 191 229 283 346
#     4   9  19  37  61  85 112 151 191 231 282 341
#     4  10  19  31  51  78 107 140 181 226 274 324
#     4  11  23  39  57  78 109 147 189 233 280 337
#
# _framework density 21.633721000000001
#
# number of rings (size 3 to 8) (size 9 to 14) (size 15 to 20)
#    0.000    2.286    1.429    1.286    0.000    4.000 
#    0.000    4.286    0.000    0.000    0.000    0.000 
#    0.000    0.000    0.000    0.000    0.000    0.000 
#
# Total GULP energy -155986.954363 kJ/mol
# GULP energy per Si atom -5570.962656 kJ/mol
# Density = 2.158448 g / cm^3
# Si number density = 21.633721 Si / 1000 Ang^3
#
#
#
# Elastic Constant Matrix: (Units=GPa)
#
#
# Indices 1 2 3 4 5 6 
#
# 1 146.0703 0.8114 46.9040 0.0000 8.2862 0.0000
# 2 0.8114 22.1311 -0.7545 0.0000 4.8851 0.0000
# 3 46.9040 -0.7545 56.4390 0.0000 31.4069 0.0000
# 4 0.0000 0.0000 0.0000 19.2785 0.0000 -5.3025
# 5 8.2862 4.8851 31.4069 0.0000 35.3411 0.0000
# 6 0.0000 0.0000 0.0000 -5.3025 0.0000 19.6389
#
#
#
# Elastic Compliance Matrix: (Units=1/GPa)
#
#
# Indices 1 2 3 4 5 6 
#
# 1 0.011478 -0.003759 -0.016580 0.000000 0.012563 0.000000
# 2 -0.003759 0.049903 0.014124 0.000000 -0.018568 0.000000
# 3 -0.016580 0.014124 0.060556 0.000000 -0.051880 0.000000
# 4 0.000000 0.000000 0.000000 0.056032 0.000000 0.015129
# 5 0.012563 -0.018568 -0.051880 0.000000 0.074021 0.000000
# 6 0.000000 0.000000 0.000000 0.015129 0.000000 0.055004
#
#
# Mechanical properties :
#
#
# Convention : Reuss Voigt Hill
#
# Bulk Modulus (GPa) = 9.13186 35.39580 22.26383
# Shear Modulus (GPa) = 14.04773 26.69698 20.37236
#
# Velocity S-wave (km/s) = 2.55099 3.51671 3.07203
# Velocity P-wave (km/s) = 3.59263 5.73468 4.78506
#
# Compressibility (1/GPa) = 0.10950674
#
# Stress axis : x y z
#
# Youngs Moduli (GPa) = 87.12091 20.03875 16.51355
#
# Poissons Ratio (x) = 0.07533 0.27380
# Poissons Ratio (y) = 0.32750 -0.23324
# Poissons Ratio (z) = 1.44450 -0.28303
#
# Static dielectric constant tensor:
#      x y z
#    x 1.826690 0.000000 0.020380 
#    y 0.000000 1.891070 0.000000 
#    z 0.020380 0.000000 1.872430 
# 
# From -- ./inp_files/65446.got.cif
#   From: 2010.05.17/outbox.cif.g08.bks.cpg/sg11_33_cif.got.tgz:65446.got - 2010.06.03 12:22:45.
