data_PCOD9158415
_publ_section_title
;
Structure prediction by ZEFSAII (Michael W. Deem and Ramdas Pophale) SiO2 
 PCOD9158415
Probable space group: P 21/M
;
_chemical_formula_sum "Si O2"
_cell_formula_units_Z 28
_cell_length_a 14.787171
_cell_length_b 8.567277
_cell_length_c 19.716092
_cell_angle_alpha 90.000000
_cell_angle_beta 42.095178
_cell_angle_gamma 90.000000
_cell_volume 1674.401233
_symmetry_space_group_name_H-M "P 21/M"
_symmetry_group_IT_number 11
_symmetry_cell_setting 'monoclinic'
loop_
_space_group_symop_operation_xyz
x,y,z
-x,1/2+y,-z
-x,-y,-z
x,1/2-y,z
loop_
_atom_site_type_symbol
_atom_site_label
_atom_site_fract_x
_atom_site_fract_y
_atom_site_fract_z
Si Si1 0.213060 0.938491 0.892643
Si Si2 0.791779 0.938569 0.609608
Si Si3 0.893630 0.936659 0.316041
Si Si4 0.974560 0.938589 0.120861
Si Si5 0.513825 0.938769 0.700481
Si Si6 0.593296 0.436021 0.508541
Si Si7 0.013846 0.436084 0.381924
O O1 0.212421 0.750000 0.891849
O O2 0.367673 0.991306 0.807991
O O3 0.141216 0.998056 0.864383
O O4 0.116788 0.988610 0.008349
O O5 0.802741 0.750000 0.596988
O O6 0.638769 0.984418 0.678944
O O7 0.853909 0.980770 0.648092
O O8 0.888257 0.013741 0.499270
O O9 0.878065 0.750000 0.324166
O O10 0.948666 0.988416 0.212171
O O11 0.747036 0.009649 0.411656
O O12 0.992778 0.984401 0.321534
O O13 0.970125 0.750000 0.121678
O O14 0.512908 0.750000 0.697542
O O15 0.542113 0.000998 0.609367
O O16 0.500000 0.500000 0.500000
O O17 0.587442 0.250000 0.511924
O O18 0.012167 0.250000 0.374370
#
# Coordination Sequence:
#
# PCOD9158415 Si02
#       7
#     4   4   4   4   4   4   4
#     4   9  18  33  53  75  97 126 167 208 247 294
#     4   9  18  32  50  72 101 132 165 204 251 302
#     4  11  21  34  51  72 101 135 168 206 250 296
#     4   9  19  34  51  72  98 130 168 207 247 292
#     4  10  19  33  53  75 100 130 163 204 252 301
#     4  12  24  35  48  71 103 135 165 200 246 301
#     4  10  19  31  49  74 100 131 168 207 249 299
#
# _framework density 16.722396
#
# number of rings (size 3 to 8) (size 9 to 14) (size 15 to 20)
#    0.000    2.000    1.429    3.000    0.000    4.571 
#    0.000    0.000    0.000    0.857    0.000    0.000 
#    0.000    0.000    0.000    0.000    0.000    0.571 
#
# Total GULP energy -156251.895990 kJ/mol
# GULP energy per Si atom -5580.424857 kJ/mol
# Density = 1.668433 g / cm^3
# Si number density = 16.722396 Si / 1000 Ang^3
#
#
#
# Elastic Constant Matrix: (Units=GPa)
#
#
# Indices 1 2 3 4 5 6 
#
# 1 124.1687 19.6392 65.3134 0.0000 -20.3502 0.0000
# 2 19.6392 18.9517 15.5680 0.0000 -6.1339 0.0000
# 3 65.3134 15.5680 94.2060 0.0000 -16.1521 0.0000
# 4 0.0000 0.0000 0.0000 7.7528 0.0000 1.0406
# 5 -20.3502 -6.1339 -16.1521 0.0000 24.2060 0.0000
# 6 0.0000 0.0000 0.0000 1.0406 0.0000 25.7411
#
#
#
# Elastic Compliance Matrix: (Units=1/GPa)
#
#
# Indices 1 2 3 4 5 6 
#
# 1 0.013976 -0.006509 -0.007772 0.000000 0.004915 0.000000
# 2 -0.006509 0.066246 -0.005076 0.000000 0.007928 0.000000
# 3 -0.007772 -0.005076 0.017504 0.000000 0.003860 0.000000
# 4 0.000000 0.000000 0.000000 0.129689 0.000000 -0.005243
# 5 0.004915 0.007928 0.003860 0.000000 0.050029 0.000000
# 6 0.000000 0.000000 0.000000 -0.005243 0.000000 0.039060
#
#
# Mechanical properties :
#
#
# Convention : Reuss Voigt Hill
#
# Bulk Modulus (GPa) = 16.94506 48.70749 32.82627
# Shear Modulus (GPa) = 13.33735 20.66038 16.99886
#
# Velocity S-wave (km/s) = 2.82720 3.51877 3.19177
# Velocity P-wave (km/s) = 4.56208 6.76013 5.76680
#
# Compressibility (1/GPa) = 0.05901426
#
# Stress axis : x y z
#
# Youngs Moduli (GPa) = 71.54894 15.09528 57.13065
#
# Poissons Ratio (x) = 0.09825 0.44400
# Poissons Ratio (y) = 0.46568 0.28997
# Poissons Ratio (z) = 0.55605 0.07662
#
# Static dielectric constant tensor:
#      x y z
#    x 1.563800 0.000000 -0.009720 
#    y 0.000000 1.566620 0.000000 
#    z -0.009720 0.000000 1.551820 
# 
# From -- ./inp_files/60083.got.cif
#   From: 2010.05.17/outbox.cif.g08.bks.cpg/sg11_31_cif.got.tgz:60083.got - 2010.06.03 12:22:45.
