data_PCOD9158145
_publ_section_title
;
Structure prediction by ZEFSAII (Michael W. Deem and Ramdas Pophale) SiO2 
 PCOD9158145
Probable space group: P 21/M
;
_chemical_formula_sum "Si O2"
_cell_formula_units_Z 32
_cell_length_a 20.027169
_cell_length_b 7.655282
_cell_length_c 11.071187
_cell_angle_alpha 90.000000
_cell_angle_beta 120.204125
_cell_angle_gamma 90.000000
_cell_volume 1466.927312
_symmetry_space_group_name_H-M "P 21/M"
_symmetry_group_IT_number 11
_symmetry_cell_setting 'monoclinic'
loop_
_space_group_symop_operation_xyz
x,y,z
-x,1/2+y,-z
-x,-y,-z
x,1/2-y,z
loop_
_atom_site_type_symbol
_atom_site_label
_atom_site_fract_x
_atom_site_fract_y
_atom_site_fract_z
Si Si1 0.515811 0.950407 0.687451
Si Si2 0.756626 0.538272 0.019481
Si Si3 0.381424 0.539782 0.717387
Si Si4 0.916032 0.952977 0.078667
Si Si5 0.338066 0.037059 0.307425
Si Si6 0.758256 0.542657 0.552319
Si Si7 0.606843 0.046389 0.007002
Si Si8 0.914510 0.455001 0.804714
O O1 0.501794 0.750000 0.640839
O O2 0.435424 0.032801 0.658273
O O3 0.575148 0.027252 0.643324
O O4 0.564823 0.951774 0.858072
O O5 0.757326 0.750000 0.027687
O O6 0.844506 0.472996 0.089442
O O7 0.698895 0.469280 0.068252
O O8 0.714662 0.491276 0.855341
O O9 0.389881 0.750000 0.726183
O O10 0.292431 0.498661 0.610649
O O11 0.408997 0.476508 0.873437
O O12 0.921535 0.750000 0.118692
O O13 0.002755 0.027141 0.164555
O O14 0.894590 0.961531 0.916411
O O15 0.341962 0.250000 0.315779
O O16 0.294107 0.971289 0.384903
O O17 0.763087 0.750000 0.569549
O O18 0.844640 0.475445 0.648290
O O19 0.585418 0.250000 0.980032
O O20 0.925272 0.250000 0.840176
#
# Coordination Sequence:
#
# PCOD9158145 Si02
#       8
#     4   4   4   4   4   4   4   4
#     4   9  18  35  56  73  96 132 168 207 257 306
#     4   9  16  31  53  74 102 134 165 203 249 301
#     4  10  22  37  51  71 100 134 172 214 256 296
#     4   9  17  31  51  76 105 135 167 203 245 295
#     4   8  15  29  49  72  98 129 162 200 245 291
#     4  11  21  34  51  71 103 140 173 206 244 302
#     4  10  20  33  51  77 104 126 163 219 261 293
#     4  10  19  30  49  77 107 136 165 202 248 297
#
# _framework density 21.814305000000001
#
# number of rings (size 3 to 8) (size 9 to 14) (size 15 to 20)
#    0.000    2.500    1.250    2.250    0.000    3.000 
#    0.000    0.625    0.000    0.750    0.000    0.000 
#    0.000    0.000    0.000    0.000    0.000    0.000 
#
# Total GULP energy -178605.324083 kJ/mol
# GULP energy per Si atom -5581.416378 kJ/mol
# Density = 2.176465 g / cm^3
# Si number density = 21.814305 Si / 1000 Ang^3
#
#
#
# Elastic Constant Matrix: (Units=GPa)
#
#
# Indices 1 2 3 4 5 6 
#
# 1 89.1136 6.8480 17.0731 0.0000 29.0989 0.0000
# 2 6.8480 53.7263 2.1531 0.0000 -2.8489 0.0000
# 3 17.0731 2.1531 67.8867 0.0000 19.9206 0.0000
# 4 0.0000 0.0000 0.0000 16.7686 0.0000 2.6817
# 5 29.0989 -2.8489 19.9206 0.0000 37.0429 0.0000
# 6 0.0000 0.0000 0.0000 2.6817 0.0000 13.3956
#
#
#
# Elastic Compliance Matrix: (Units=1/GPa)
#
#
# Indices 1 2 3 4 5 6 
#
# 1 0.015456 -0.002610 -0.000217 0.000000 -0.012225 0.000000
# 2 -0.002610 0.019213 -0.001173 0.000000 0.004159 0.000000
# 3 -0.000217 -0.001173 0.017572 0.000000 -0.009369 0.000000
# 4 0.000000 0.000000 0.000000 0.061608 0.000000 -0.012333
# 5 -0.012225 0.004159 -0.009369 0.000000 0.041958 0.000000
# 6 0.000000 0.000000 0.000000 -0.012333 0.000000 0.077120
#
#
# Mechanical properties :
#
#
# Convention : Reuss Voigt Hill
#
# Bulk Modulus (GPa) = 22.60367 29.20834 25.90600
# Shear Modulus (GPa) = 19.55627 25.75157 22.65392
#
# Velocity S-wave (km/s) = 2.99739 3.43955 3.22606
# Velocity P-wave (km/s) = 4.72900 5.40302 5.07721
#
# Compressibility (1/GPa) = 0.04424060
#
# Stress axis : x y z
#
# Youngs Moduli (GPa) = 64.70110 52.04804 56.91028
#
# Poissons Ratio (x) = 0.13582 0.01234
# Poissons Ratio (y) = 0.16884 0.06678
# Poissons Ratio (z) = 0.01403 0.06107
#
# Static dielectric constant tensor:
#      x y z
#    x 1.858470 0.000000 0.027010 
#    y 0.000000 1.788670 0.000000 
#    z 0.027010 0.000000 1.797380 
# 
# From -- ./inp_files/42871.got.cif
#   From: 2010.05.17/outbox.cif.g08.bks.cpg/sg11_22_cif.got.tgz:42871.got - 2010.06.03 12:22:45.
