data_PCOD9158099
_publ_section_title
;
Structure prediction by ZEFSAII (Michael W. Deem and Ramdas Pophale) SiO2 
 PCOD9158099
Probable space group: P 21/M
;
_chemical_formula_sum "Si O2"
_cell_formula_units_Z 28
_cell_length_a 25.186933
_cell_length_b 7.517048
_cell_length_c 8.014070
_cell_angle_alpha 90.000000
_cell_angle_beta 137.662612
_cell_angle_gamma 90.000000
_cell_volume 1021.904062
_symmetry_space_group_name_H-M "P 21/M"
_symmetry_group_IT_number 11
_symmetry_cell_setting 'monoclinic'
loop_
_space_group_symop_operation_xyz
x,y,z
-x,1/2+y,-z
-x,-y,-z
x,1/2-y,z
loop_
_atom_site_type_symbol
_atom_site_label
_atom_site_fract_x
_atom_site_fract_y
_atom_site_fract_z
Si Si1 0.593911 0.958246 0.085298
Si Si2 0.018668 0.037106 0.318234
Si Si3 0.257271 0.964252 0.750933
Si Si4 0.118801 0.962623 0.213227
Si Si5 0.698145 0.542600 0.623156
Si Si6 0.548263 0.461790 0.445820
Si Si7 0.158451 0.041224 0.852220
O O1 0.583009 0.750000 0.095264
O O2 0.645281 0.041109 0.353644
O O3 0.654123 0.973895 0.069950
O O4 0.509586 0.032411 0.835725
O O5 0.014746 0.250000 0.328379
O O6 0.073831 0.963538 0.595993
O O7 0.068291 0.002049 0.263586
O O8 0.931947 0.968286 0.062485
O O9 0.256524 0.750000 0.754598
O O10 0.205074 0.026138 0.468800
O O11 0.211929 0.029024 0.808580
O O12 0.121855 0.750000 0.203305
O O13 0.712024 0.750000 0.618693
O O14 0.635679 0.535647 0.630197
O O15 0.782205 0.461827 0.871515
O O16 0.500000 0.500000 0.500000
O O17 0.555142 0.250000 0.448126
O O18 0.147699 0.250000 0.858963
#
# Coordination Sequence:
#
# PCOD9158099 Si02
#       7
#     4   4   4   4   4   4   4
#     4  10  22  38  53  71  99 133 165 198 239 290
#     4   8  13  23  41  65  93 124 157 195 240 286
#     4  10  19  30  48  74 101 130 165 204 244 286
#     4   8  14  24  39  64  96 125 156 197 241 282
#     4  10  21  37  55  75 100 129 163 202 242 286
#     4  11  23  38  57  79 101 127 160 198 242 290
#     4   9  17  30  50  74  98 127 163 202 245 291
#
# _framework density 27.399833000000001
#
# number of rings (size 3 to 8) (size 9 to 14) (size 15 to 20)
#    0.000    2.571    0.000    2.143    0.000    6.286 
#    0.000    0.000    0.000    0.857    0.000    0.000 
#    0.000    0.000    0.000    0.000    0.000    1.000 
#
# Total GULP energy -156667.301979 kJ/mol
# GULP energy per Si atom -5595.260785 kJ/mol
# Density = 2.733747 g / cm^3
# Si number density = 27.399833 Si / 1000 Ang^3
#
#
#
# Elastic Constant Matrix: (Units=GPa)
#
#
# Indices 1 2 3 4 5 6 
#
# 1 105.5245 21.0568 33.9743 0.0000 23.1556 0.0000
# 2 21.0568 127.5294 10.0521 0.0000 -1.3149 0.0000
# 3 33.9743 10.0521 234.7563 0.0000 24.9679 0.0000
# 4 0.0000 0.0000 0.0000 10.7919 0.0000 -3.3880
# 5 23.1556 -1.3149 24.9679 0.0000 66.0308 0.0000
# 6 0.0000 0.0000 0.0000 -3.3880 0.0000 32.7448
#
#
#
# Elastic Compliance Matrix: (Units=1/GPa)
#
#
# Indices 1 2 3 4 5 6 
#
# 1 0.010950 -0.001753 -0.001143 0.000000 -0.003442 0.000000
# 2 -0.001753 0.008154 -0.000186 0.000000 0.000847 0.000000
# 3 -0.001143 -0.000186 0.004575 0.000000 -0.001333 0.000000
# 4 0.000000 0.000000 0.000000 0.095773 0.000000 0.009909
# 5 -0.003442 0.000847 -0.001333 0.000000 0.016872 0.000000
# 6 0.000000 0.000000 0.000000 0.009909 0.000000 0.031565
#
#
# Mechanical properties :
#
#
# Convention : Reuss Voigt Hill
#
# Bulk Modulus (GPa) = 57.09632 66.44183 61.76908
# Shear Modulus (GPa) = 27.79453 48.76198 38.27825
#
# Velocity S-wave (km/s) = 3.18843 4.22316 3.74173
# Velocity P-wave (km/s) = 5.86841 6.93410 6.42339
#
# Compressibility (1/GPa) = 0.01751426
#
# Stress axis : x y z
#
# Youngs Moduli (GPa) = 91.32528 122.63642 218.58419
#
# Poissons Ratio (x) = 0.21502 0.24995
# Poissons Ratio (y) = 0.16012 0.04056
# Poissons Ratio (z) = 0.10443 0.02275
#
# Static dielectric constant tensor:
#      x y z
#    x 2.209520 0.000000 -0.076570 
#    y 0.000000 1.977280 0.000000 
#    z -0.076570 0.000000 2.237960 
# 
# From -- ./inp_files/29083.got.cif
#   From: 2010.05.17/outbox.cif.g08.bks.cpg/sg11_15_cif.got.tgz:29083.got - 2010.06.03 12:22:45.
