data_PCOD9158188
_publ_section_title
;
Structure prediction by ZEFSAII (Michael W. Deem and Ramdas Pophale) SiO2 
 PCOD9158188
Probable space group: P 21/M
;
_chemical_formula_sum "Si O2"
_cell_formula_units_Z 28
_cell_length_a 10.401484
_cell_length_b 24.373511
_cell_length_c 5.307928
_cell_angle_alpha 90.000000
_cell_angle_beta 92.774516
_cell_angle_gamma 90.000000
_cell_volume 1344.092101
_symmetry_space_group_name_H-M "P 21/M"
_symmetry_group_IT_number 11
_symmetry_cell_setting 'monoclinic'
loop_
_space_group_symop_operation_xyz
x,y,z
-x,1/2+y,-z
-x,-y,-z
x,1/2-y,z
loop_
_atom_site_type_symbol
_atom_site_label
_atom_site_fract_x
_atom_site_fract_y
_atom_site_fract_z
Si Si1 0.574003 0.375862 0.638921
Si Si2 0.315533 0.395056 0.343929
Si Si3 0.233228 0.684642 0.648342
Si Si4 0.573230 0.809285 0.033176
Si Si5 0.829493 0.811862 0.378079
Si Si6 0.075323 0.814779 0.114319
Si Si7 0.412256 0.992942 0.240983
O O1 0.426841 0.394030 0.569104
O O2 0.641617 0.351673 0.398871
O O3 0.556231 0.326325 0.833938
O O4 0.639767 0.430741 0.750229
O O5 0.192186 0.360783 0.425510
O O6 0.309041 0.457558 0.248658
O O7 0.380706 0.357510 0.139613
O O8 0.261113 0.750000 0.679150
O O9 0.154217 0.677877 0.380010
O O10 0.149176 0.663731 0.876165
O O11 0.560526 0.750000 0.902458
O O12 0.690227 0.803997 0.241466
O O13 0.868690 0.750000 0.478191
O O14 0.930604 0.830844 0.176168
O O15 0.065880 0.750000 0.062438
O O16 0.500000 0.000000 0.500000
O O17 0.500000 0.000000 0.000000
#
# Coordination Sequence:
#
# PCOD9158188 Si02
#       7
#     4   4   4   4   4   4   4
#     4  10  21  35  52  78 112 142 180 220 269 323
#     4  10  20  33  54  80 109 140 178 225 273 323
#     4  10  21  35  54  79 107 144 180 217 265 320
#     4  10  19  30  51  81 110 138 169 218 279 327
#     4   9  19  34  52  79 108 140 179 225 273 321
#     4   9  20  36  54  76 105 143 185 219 260 321
#     4  10  20  36  55  77 107 145 185 216 262 321
#
# _framework density 20.831906
#
# number of rings (size 3 to 8) (size 9 to 14) (size 15 to 20)
#    0.000    2.286    1.429    0.857    4.000    1.714 
#    0.000    0.000    0.000    1.714    0.000    0.000 
#    0.000    0.000    0.000    0.000    0.000    0.000 
#
# Total GULP energy -156007.161336 kJ/mol
# GULP energy per Si atom -5571.684333 kJ/mol
# Density = 2.078449 g / cm^3
# Si number density = 20.831906 Si / 1000 Ang^3
#
#
#
# Elastic Constant Matrix: (Units=GPa)
#
#
# Indices 1 2 3 4 5 6 
#
# 1 46.2653 30.0493 36.4086 0.0000 -28.5822 0.0000
# 2 30.0493 82.6456 16.8246 0.0000 -15.1609 0.0000
# 3 36.4086 16.8246 118.6633 0.0000 -36.9571 0.0000
# 4 0.0000 0.0000 0.0000 20.7141 0.0000 4.4786
# 5 -28.5822 -15.1609 -36.9571 0.0000 38.0032 0.0000
# 6 0.0000 0.0000 0.0000 4.4786 0.0000 -1.2440
#
#
#
# Elastic Compliance Matrix: (Units=1/GPa)
#
#
# Indices 1 2 3 4 5 6 
#
# 1 0.051456 -0.012389 -0.005046 0.000000 0.028850 0.000000
# 2 -0.012389 0.016047 0.000886 0.000000 -0.002054 0.000000
# 3 -0.005046 0.000886 0.012592 0.000000 0.008803 0.000000
# 4 0.000000 0.000000 0.000000 0.027146 0.000000 0.097730
# 5 0.028850 -0.002054 0.008803 0.000000 0.055753 0.000000
# 6 0.000000 0.000000 0.000000 0.097730 0.000000 -0.452009
#
#
# Mechanical properties :
#
#
# Convention : Reuss Voigt Hill
#
# Bulk Modulus (GPa) = 21.27811 46.01545 33.64678
# Shear Modulus (GPa) = -20.81146 22.44744 0.81799
#
# Velocity S-wave (km/s) = -3.16415 3.28617 0.62731
# Velocity P-wave (km/s) = 1.76431 6.04445 4.08795
#
# Compressibility (1/GPa) = 0.04699665
#
# Stress axis : x y z
#
# Youngs Moduli (GPa) = 19.43426 62.31603 79.41844
#
# Poissons Ratio (x) = 0.77205 0.40073
# Poissons Ratio (y) = 0.24078 -0.07039
# Poissons Ratio (z) = 0.09806 -0.05523
#
# Static dielectric constant tensor:
#      x y z
#    x 1.758210 0.000000 -0.036390 
#    y 0.000000 1.817410 0.000000 
#    z -0.036390 0.000000 1.727730 
# 
# From -- ./inp_files/5027.got.cif
#   From: 2010.05.17/outbox.cif.g08.bks.cpg/sg11_3_cif.got.tgz:5027.got - 2010.06.03 12:22:45.
