data_PCOD9158076
_publ_section_title
;
Structure prediction by ZEFSAII (Michael W. Deem and Ramdas Pophale) SiO2 
 PCOD9158076
Probable space group: P 21/M
;
_chemical_formula_sum "Si O2"
_cell_formula_units_Z 32
_cell_length_a 29.112108
_cell_length_b 7.458108
_cell_length_c 14.498143
_cell_angle_alpha 90.000000
_cell_angle_beta 29.293556
_cell_angle_gamma 90.000000
_cell_volume 1540.196179
_symmetry_space_group_name_H-M "P 21/M"
_symmetry_group_IT_number 11
_symmetry_cell_setting 'monoclinic'
loop_
_space_group_symop_operation_xyz
x,y,z
-x,1/2+y,-z
-x,-y,-z
x,1/2-y,z
loop_
_atom_site_type_symbol
_atom_site_label
_atom_site_fract_x
_atom_site_fract_y
_atom_site_fract_z
Si Si1 0.614092 0.465364 0.601475
Si Si2 0.125403 0.968340 0.164459
Si Si3 0.024838 0.536003 0.062059
Si Si4 0.217912 0.531265 0.814976
Si Si5 0.611519 0.463786 0.806990
Si Si6 0.931629 0.967087 0.410311
Si Si7 0.776943 0.457603 0.823869
Si Si8 0.393309 0.534557 0.983602
O O1 0.622048 0.250000 0.590823
O O2 0.685063 0.531124 0.399286
O O3 0.645105 0.533136 0.649019
O O4 0.504117 0.501999 0.778150
O O5 0.120735 0.750000 0.174498
O O6 0.163479 0.035046 0.195580
O O7 0.021482 0.024710 0.314760
O O8 0.195164 0.021039 0.959423
O O9 0.026895 0.750000 0.068370
O O10 0.952899 0.472873 0.268050
O O11 0.128726 0.472970 0.909485
O O12 0.000000 0.500000 0.000000
O O13 0.218805 0.750000 0.812848
O O14 0.627727 0.250000 0.779272
O O15 0.500000 0.500000 0.000000
O O16 0.640114 0.534797 0.857084
O O17 0.927490 0.750000 0.418285
O O18 0.839380 0.034666 0.622342
O O19 0.761627 0.250000 0.876052
O O20 0.675580 0.535306 0.974934
O O21 0.382829 0.750000 0.004447
#
# Coordination Sequence:
#
# PCOD9158076 Si02
#       8
#     4   4   4   4   4   4   4   4
#     4   9  16  28  48  67  82 114 160 190 215 265
#     4   8  15  30  49  68  91 119 153 190 229 277
#     4   9  18  32  49  71  99 127 153 186 229 273
#     4   8  15  29  49  69  90 121 158 191 224 270
#     4   8  14  25  40  58  81 108 140 177 215 257
#     4   9  18  32  49  69  94 123 154 189 229 272
#     4  10  19  30  48  71  92 120 155 190 233 279
#     4   9  18  30  42  63  95 120 142 185 238 275
#
# _framework density 20.776575000000001
#
# number of rings (size 3 to 8) (size 9 to 14) (size 15 to 20)
#    0.000    3.250    0.000    1.875    0.000    2.000 
#    0.000    3.750    0.000    8.250    0.000    0.000 
#    0.000    0.000    0.000    0.000    0.000    0.000 
#
# Total GULP energy -178314.228540 kJ/mol
# GULP energy per Si atom -5572.319642 kJ/mol
# Density = 2.072929 g / cm^3
# Si number density = 20.776575 Si / 1000 Ang^3
#
#
#
# Elastic Constant Matrix: (Units=GPa)
#
#
# Indices 1 2 3 4 5 6 
#
# 1 115.0242 -4.4168 35.2461 0.0000 2.0783 0.0000
# 2 -4.4168 61.2879 -10.4056 0.0000 -1.6872 0.0000
# 3 35.2461 -10.4056 91.1464 0.0000 9.0114 0.0000
# 4 0.0000 0.0000 0.0000 8.0717 0.0000 5.0505
# 5 2.0783 -1.6872 9.0114 0.0000 14.1297 0.0000
# 6 0.0000 0.0000 0.0000 5.0505 0.0000 5.1669
#
#
#
# Elastic Compliance Matrix: (Units=1/GPa)
#
#
# Indices 1 2 3 4 5 6 
#
# 1 0.009877 0.000076 -0.003915 0.000000 0.001053 0.000000
# 2 0.000076 0.016649 0.001789 0.000000 0.000836 0.000000
# 3 -0.003915 0.001789 0.013460 0.000000 -0.007795 0.000000
# 4 0.000000 0.000000 0.000000 0.318989 0.000000 -0.311806
# 5 0.001053 0.000836 -0.007795 0.000000 0.075689 0.000000
# 6 0.000000 0.000000 0.000000 -0.311806 0.000000 0.498326
#
#
# Mechanical properties :
#
#
# Convention : Reuss Voigt Hill
#
# Bulk Modulus (GPa) = 27.86641 34.25621 31.06131
# Shear Modulus (GPa) = 5.26841 21.94264 13.60552
#
# Velocity S-wave (km/s) = 1.59413 3.25333 2.56178
# Velocity P-wave (km/s) = 4.10242 5.53497 4.87164
#
# Compressibility (1/GPa) = 0.03588550
#
# Stress axis : x y z
#
# Youngs Moduli (GPa) = 101.24169 60.06513 74.29352
#
# Poissons Ratio (x) = -0.00457 0.29086
# Poissons Ratio (y) = -0.00771 -0.13288
# Poissons Ratio (z) = 0.39636 -0.10743
#
# Static dielectric constant tensor:
#      x y z
#    x 1.778470 0.000000 0.010410 
#    y 0.000000 1.791940 0.000000 
#    z 0.010410 0.000000 1.720950 
# 
# From -- ./inp_files/54322.got.cif
#   From: 2010.05.17/outbox.cif.g08.bks.cpg/sg11_28_cif.got.tgz:54322.got - 2010.06.03 12:22:45.
