data_PCOD9158648
_publ_section_title
;
Structure prediction by ZEFSAII (Michael W. Deem and Ramdas Pophale) SiO2 
 PCOD9158648
Probable space group: P 21/M
;
_chemical_formula_sum "Si O2"
_cell_formula_units_Z 30
_cell_length_a 13.785990
_cell_length_b 15.604445
_cell_length_c 7.508442
_cell_angle_alpha 90.000000
_cell_angle_beta 135.625133
_cell_angle_gamma 90.000000
_cell_volume 1129.615422
_symmetry_space_group_name_H-M "P 21/M"
_symmetry_group_IT_number 11
_symmetry_cell_setting 'monoclinic'
loop_
_space_group_symop_operation_xyz
x,y,z
-x,1/2+y,-z
-x,-y,-z
x,1/2-y,z
loop_
_atom_site_type_symbol
_atom_site_label
_atom_site_fract_x
_atom_site_fract_y
_atom_site_fract_z
Si Si1 0.812278 0.098292 0.165040
Si Si2 0.360935 0.454145 0.253627
Si Si3 0.597400 0.888184 0.276150
Si Si4 0.440195 0.906041 0.731135
Si Si5 0.136425 0.348585 0.020462
Si Si6 0.160782 0.648642 0.397363
Si Si7 0.591619 0.250000 0.809860
Si Si8 0.882832 0.849648 0.440229
O O1 0.818694 0.100126 0.389175
O O2 0.974453 0.101547 0.323655
O O3 0.716273 0.176387 0.977638
O O4 0.731826 0.016500 0.986583
O O5 0.500000 0.500000 0.500000
O O6 0.430332 0.382784 0.221417
O O7 0.253237 0.411854 0.247223
O O8 0.531202 0.825754 0.337742
O O9 0.745675 0.872826 0.373271
O O10 0.576467 0.991281 0.267922
O O11 0.480902 0.864631 0.970304
O O12 0.297873 0.870280 0.466989
O O13 0.160769 0.250000 0.099736
O O14 0.133385 0.355173 0.798474
O O15 0.983509 0.374837 0.880374
O O16 0.152469 0.750000 0.427734
O O17 0.911633 0.750000 0.514075
#
# Coordination Sequence:
#
# PCOD9158648 Si02
#       8
#     4   4   4   4   4   4   2   4
#     4  11  20  36  58  89 121 151 190 243 302 353
#     4  12  26  42  56  84 117 167 215 236 272 345
#     4  11  20  31  55  93 122 146 180 243 313 359
#     4  11  21  35  54  87 118 149 194 242 297 344
#     4   9  21  39  58  87 120 153 193 241 305 359
#     4  10  19  36  66  95 118 146 183 248 325 367
#     4  12  18  34  58  90 128 150 178 246 316 366
#     4  10  19  31  58  92 123 145 183 236 308 371
#
# _framework density 26.557714000000001
#
# number of rings (size 3 to 8) (size 9 to 14) (size 15 to 20)
#    0.000    1.333    6.000    1.600    1.867    1.600 
#    1.200    0.667    0.000    0.000    0.000    0.000 
#    0.000    0.000    0.000    0.000    0.000    0.000 
#
# Total GULP energy -167317.624086 kJ/mol
# GULP energy per Si atom -5577.254136 kJ/mol
# Density = 2.649727 g / cm^3
# Si number density = 26.557714 Si / 1000 Ang^3
#
#
#
# Elastic Constant Matrix: (Units=GPa)
#
#
# Indices 1 2 3 4 5 6 
#
# 1 67.9154 1.6736 30.9571 0.0000 22.4919 0.0000
# 2 1.6736 59.9194 38.1295 0.0000 13.0831 0.0000
# 3 30.9571 38.1295 159.8956 0.0000 66.5201 0.0000
# 4 0.0000 0.0000 0.0000 41.7056 0.0000 22.4585
# 5 22.4919 13.0831 66.5201 0.0000 64.2985 0.0000
# 6 0.0000 0.0000 0.0000 22.4585 0.0000 19.3285
#
#
#
# Elastic Compliance Matrix: (Units=1/GPa)
#
#
# Indices 1 2 3 4 5 6 
#
# 1 0.016975 0.001670 -0.001884 0.000000 -0.004329 0.000000
# 2 0.001670 0.019921 -0.005520 0.000000 0.001074 0.000000
# 3 -0.001884 -0.005520 0.012629 0.000000 -0.011284 0.000000
# 4 0.000000 0.000000 0.000000 0.064060 0.000000 -0.074434
# 5 -0.004329 0.001074 -0.011284 0.000000 0.028522 0.000000
# 6 0.000000 0.000000 0.000000 -0.074434 0.000000 0.138225
#
#
# Mechanical properties :
#
#
# Convention : Reuss Voigt Hill
#
# Bulk Modulus (GPa) = 26.27643 47.69453 36.98548
# Shear Modulus (GPa) = 16.42106 39.53117 27.97612
#
# Velocity S-wave (km/s) = 2.48929 3.86229 3.24915
# Velocity P-wave (km/s) = 4.26353 6.15529 5.29458
#
# Compressibility (1/GPa) = 0.03805692
#
# Stress axis : x y z
#
# Youngs Moduli (GPa) = 58.90883 50.19851 79.18008
#
# Poissons Ratio (x) = -0.08382 0.14916
# Poissons Ratio (y) = -0.09837 0.43710
# Poissons Ratio (z) = 0.11098 0.27711
#
# Static dielectric constant tensor:
#      x y z
#    x 2.334910 0.000000 -0.121620 
#    y 0.000000 2.086520 0.000000 
#    z -0.121620 0.000000 2.159000 
# 
# From -- ./inp_files/41583.got.cif
#   From: 2010.05.17/outbox.cif.g08.bks.cpg/sg11_21_cif.got.tgz:41583.got - 2010.06.03 12:22:45.
