data_PCOD9158609
_publ_section_title
;
Structure prediction by ZEFSAII (Michael W. Deem and Ramdas Pophale) SiO2 
 PCOD9158609
Probable space group: P 21/M
;
_chemical_formula_sum "Si O2"
_cell_formula_units_Z 24
_cell_length_a 15.097061
_cell_length_b 7.934564
_cell_length_c 14.985801
_cell_angle_alpha 90.000000
_cell_angle_beta 144.869198
_cell_angle_gamma 90.000000
_cell_volume 1032.997479
_symmetry_space_group_name_H-M "P 21/M"
_symmetry_group_IT_number 11
_symmetry_cell_setting 'monoclinic'
loop_
_space_group_symop_operation_xyz
x,y,z
-x,1/2+y,-z
-x,-y,-z
x,1/2-y,z
loop_
_atom_site_type_symbol
_atom_site_label
_atom_site_fract_x
_atom_site_fract_y
_atom_site_fract_z
Si Si1 0.799498 0.441843 0.260248
Si Si2 0.135471 0.546542 0.499630
Si Si3 0.732024 0.546942 0.934364
Si Si4 0.083386 0.955022 0.257430
Si Si5 0.436943 0.064490 0.043987
Si Si6 0.335002 0.548533 0.323360
O O1 0.752638 0.250000 0.200782
O O2 0.752630 0.490326 0.323838
O O3 0.739781 0.568226 0.137147
O O4 0.981595 0.450203 0.400385
O O5 0.114203 0.750000 0.487651
O O6 0.159258 0.502717 0.416231
O O7 0.731673 0.750000 0.945840
O O8 0.689464 0.512061 0.797430
O O9 0.597335 0.477483 0.889672
O O10 0.906438 0.485271 0.099600
O O11 0.077455 0.750000 0.249214
O O12 0.195873 0.015054 0.271793
O O13 0.498312 0.250000 0.111284
O O14 0.500000 0.000000 0.000000
O O15 0.500000 0.500000 0.500000
O O16 0.326246 0.750000 0.315854
#
# Coordination Sequence:
#
# PCOD9158609 Si02
#       6
#     4   4   4   4   4   4
#     4  10  19  31  52  84 118 152 194 238 288 347
#     4   9  17  33  56  81 113 152 192 237 290 349
#     4  10  21  41  66  88 117 159 204 252 308 365
#     4   9  18  37  64  90 117 158 205 247 300 360
#     4  11  23  39  60  84 119 160 201 246 300 362
#     4  11  24  41  63  91 124 159 201 253 307 368
#
# _framework density 23.233357999999999
#
# number of rings (size 3 to 8) (size 9 to 14) (size 15 to 20)
#    0.000    2.000    1.667    2.000    0.000    3.333 
#    0.000    5.833    0.000    0.000    0.000    0.000 
#    0.000    0.000    0.000    0.000    0.000    0.000 
#
# Total GULP energy -133698.356525 kJ/mol
# GULP energy per Si atom -5570.764855 kJ/mol
# Density = 2.318048 g / cm^3
# Si number density = 23.233358 Si / 1000 Ang^3
#
#
#
# Elastic Constant Matrix: (Units=GPa)
#
#
# Indices 1 2 3 4 5 6 
#
# 1 219.5545 11.9352 40.6454 0.0000 -33.6674 0.0000
# 2 11.9352 34.1627 -1.7704 0.0000 -3.9960 0.0000
# 3 40.6454 -1.7704 59.7809 0.0000 -33.6144 0.0000
# 4 0.0000 0.0000 0.0000 34.5868 0.0000 -1.5948
# 5 -33.6674 -3.9960 -33.6144 0.0000 46.3175 0.0000
# 6 0.0000 0.0000 0.0000 -1.5948 0.0000 23.3811
#
#
#
# Elastic Compliance Matrix: (Units=1/GPa)
#
#
# Indices 1 2 3 4 5 6 
#
# 1 0.005438 -0.001830 -0.002733 0.000000 0.001812 0.000000
# 2 -0.001830 0.030735 0.004895 0.000000 0.004874 0.000000
# 3 -0.002733 0.004895 0.030158 0.000000 0.020323 0.000000
# 4 0.000000 0.000000 0.000000 0.029004 0.000000 0.001978
# 5 0.001812 0.004874 0.020323 0.000000 0.038076 0.000000
# 6 0.000000 0.000000 0.000000 0.001978 0.000000 0.042904
#
#
# Mechanical properties :
#
#
# Convention : Reuss Voigt Hill
#
# Bulk Modulus (GPa) = 14.92635 46.12429 30.52532
# Shear Modulus (GPa) = 25.25477 38.36962 31.81219
#
# Velocity S-wave (km/s) = 3.30055 4.06826 3.70435
# Velocity P-wave (km/s) = 4.57857 6.47791 5.60922
#
# Compressibility (1/GPa) = 0.06699562
#
# Stress axis : x y z
#
# Youngs Moduli (GPa) = 183.89674 32.53657 33.15854
#
# Poissons Ratio (x) = 0.05953 0.09061
# Poissons Ratio (y) = 0.33644 -0.16230
# Poissons Ratio (z) = 0.50255 -0.15926
#
# Static dielectric constant tensor:
#      x y z
#    x 1.977600 0.000000 0.067060 
#    y 0.000000 1.933890 0.000000 
#    z 0.067060 0.000000 2.023260 
# 
# From -- ./inp_files/51835.got.cif
#   From: 2010.05.17/outbox.cif.g08.bks.cpg/sg11_26_cif.got.tgz:51835.got - 2010.06.03 12:22:45.
