data_PCOD9158523
_publ_section_title
;
Structure prediction by ZEFSAII (Michael W. Deem and Ramdas Pophale) SiO2 
 PCOD9158523
Probable space group: P 21/M
;
_chemical_formula_sum "Si O2"
_cell_formula_units_Z 28
_cell_length_a 11.396707
_cell_length_b 7.457239
_cell_length_c 15.004323
_cell_angle_alpha 90.000000
_cell_angle_beta 65.419373
_cell_angle_gamma 90.000000
_cell_volume 1159.625416
_symmetry_space_group_name_H-M "P 21/M"
_symmetry_group_IT_number 11
_symmetry_cell_setting 'monoclinic'
loop_
_space_group_symop_operation_xyz
x,y,z
-x,1/2+y,-z
-x,-y,-z
x,1/2-y,z
loop_
_atom_site_type_symbol
_atom_site_label
_atom_site_fract_x
_atom_site_fract_y
_atom_site_fract_z
Si Si1 0.854242 0.030339 0.896405
Si Si2 0.411865 0.455216 0.751084
Si Si3 0.145399 0.540519 0.618730
Si Si4 0.668538 0.029864 0.593683
Si Si5 0.132806 0.451799 0.825078
Si Si6 0.586129 0.462418 0.058537
Si Si7 0.139741 0.533956 0.311351
O O1 0.857561 0.250000 0.895749
O O2 0.730762 0.972802 0.991176
O O3 0.837854 0.974783 0.798070
O O4 0.992706 0.966599 0.889191
O O5 0.389981 0.250000 0.728619
O O6 0.521884 0.532752 0.653107
O O7 0.269943 0.540252 0.803505
O O8 0.466339 0.454187 0.834162
O O9 0.168006 0.750000 0.630331
O O10 0.258022 0.474255 0.518806
O O11 0.134574 0.444925 0.716680
O O12 0.005345 0.522612 0.617458
O O13 0.666753 0.250000 0.594922
O O14 0.755229 0.972381 0.650609
O O15 0.132828 0.250000 0.862423
O O16 0.589269 0.250000 0.070983
O O17 0.500000 0.500000 0.000000
O O18 0.142879 0.750000 0.309979
#
# Coordination Sequence:
#
# PCOD9158523 Si02
#       7
#     4   4   4   4   4   4   4
#     4   8  16  32  54  76 101 136 170 206 255 306
#     4  10  21  38  57  76 102 137 177 215 252 305
#     4  10  19  31  50  77 107 136 171 216 261 304
#     4   9  18  32  51  75 105 141 172 209 266 313
#     4   9  19  37  57  75  99 137 179 211 251 310
#     4  11  22  37  57  81 109 137 168 208 257 309
#     4   9  16  31  53  74 101 137 174 207 251 313
#
# _framework density 24.145726
#
# number of rings (size 3 to 8) (size 9 to 14) (size 15 to 20)
#    0.000    2.571    0.000    3.000    0.000    4.000 
#    0.000   11.429    0.000    0.000    0.000    0.000 
#    0.000    0.000    0.000    0.000    0.000    0.000 
#
# Total GULP energy -156473.782386 kJ/mol
# GULP energy per Si atom -5588.349371 kJ/mol
# Density = 2.409077 g / cm^3
# Si number density = 24.145726 Si / 1000 Ang^3
#
#
#
# Elastic Constant Matrix: (Units=GPa)
#
#
# Indices 1 2 3 4 5 6 
#
# 1 93.7586 -0.4237 19.5015 0.0000 -22.1592 0.0000
# 2 -0.4237 86.8660 -0.1076 0.0000 -2.4554 0.0000
# 3 19.5015 -0.1076 93.6233 0.0000 -33.1038 0.0000
# 4 0.0000 0.0000 0.0000 10.7477 0.0000 -0.1474
# 5 -22.1592 -2.4554 -33.1038 0.0000 40.3022 0.0000
# 6 0.0000 0.0000 0.0000 -0.1474 0.0000 8.2942
#
#
#
# Elastic Compliance Matrix: (Units=1/GPa)
#
#
# Indices 1 2 3 4 5 6 
#
# 1 0.012268 0.000245 -0.000232 0.000000 0.006569 0.000000
# 2 0.000245 0.011546 0.000364 0.000000 0.001138 0.000000
# 3 -0.000232 0.000364 0.015069 0.000000 0.012272 0.000000
# 4 0.000000 0.000000 0.000000 0.093065 0.000000 0.001654
# 5 0.006569 0.001138 0.012272 0.000000 0.038574 0.000000
# 6 0.000000 0.000000 0.000000 0.001654 0.000000 0.120596
#
#
# Mechanical properties :
#
#
# Convention : Reuss Voigt Hill
#
# Bulk Modulus (GPa) = 25.22867 34.68758 29.95813
# Shear Modulus (GPa) = 16.47037 28.88734 22.67885
#
# Velocity S-wave (km/s) = 2.61458 3.46262 3.06804
# Velocity P-wave (km/s) = 4.42560 5.51211 4.99847
#
# Compressibility (1/GPa) = 0.03963744
#
# Stress axis : x y z
#
# Youngs Moduli (GPa) = 81.51483 86.61169 66.36075
#
# Poissons Ratio (x) = -0.02124 0.01541
# Poissons Ratio (y) = -0.01999 -0.02418
# Poissons Ratio (z) = 0.01893 -0.03156
#
# Static dielectric constant tensor:
#      x y z
#    x 1.960610 0.000000 -0.014820 
#    y 0.000000 1.903280 0.000000 
#    z -0.014820 0.000000 1.888270 
# 
# From -- ./inp_files/37638.got.cif
#   From: 2010.05.17/outbox.cif.g08.bks.cpg/sg11_19_cif.got.tgz:37638.got - 2010.06.03 12:22:45.
