data_PCOD9158256
_publ_section_title
;
Structure prediction by ZEFSAII (Michael W. Deem and Ramdas Pophale) SiO2 
 PCOD9158256
Probable space group: P 21/M
;
_chemical_formula_sum "Si O2"
_cell_formula_units_Z 28
_cell_length_a 17.110172
_cell_length_b 8.594148
_cell_length_c 21.914909
_cell_angle_alpha 90.000000
_cell_angle_beta 148.468113
_cell_angle_gamma 90.000000
_cell_volume 1685.295838
_symmetry_space_group_name_H-M "P 21/M"
_symmetry_group_IT_number 11
_symmetry_cell_setting 'monoclinic'
loop_
_space_group_symop_operation_xyz
x,y,z
-x,1/2+y,-z
-x,-y,-z
x,1/2-y,z
loop_
_atom_site_type_symbol
_atom_site_label
_atom_site_fract_x
_atom_site_fract_y
_atom_site_fract_z
Si Si1 0.238561 0.935568 0.006503
Si Si2 0.518133 0.934708 0.912886
Si Si3 0.277510 0.561287 0.841336
Si Si4 0.982237 0.061403 0.251109
Si Si5 0.297338 0.061687 0.414652
Si Si6 0.631053 0.063429 0.669169
Si Si7 0.839381 0.934790 0.913077
O O1 0.229255 0.750000 0.005663
O O2 0.402495 0.981846 0.090747
O O3 0.199671 0.010945 0.044809
O O4 0.118926 0.985032 0.874679
O O5 0.523547 0.750000 0.906673
O O6 0.351753 0.978466 0.825703
O O7 0.621718 0.981149 0.039574
O O8 0.292357 0.750000 0.857913
O O9 0.109154 0.517879 0.748607
O O10 0.986379 0.250000 0.253287
O O11 0.151207 0.007166 0.353997
O O12 0.294828 0.250000 0.409784
O O13 0.456364 0.016037 0.549484
O O14 0.295393 0.997678 0.344528
O O15 0.638715 0.250000 0.675252
O O16 0.716657 0.996728 0.783951
O O17 0.844238 0.750000 0.913701
O O18 0.000000 0.000000 0.000000
#
# Coordination Sequence:
#
# PCOD9158256 Si02
#       7
#     4   4   4   4   4   4   4
#     4  10  19  31  47  68  96 127 157 190 231 279
#     4   9  15  24  39  61  90 123 157 190 229 278
#     4   8  14  24  39  60  89 123 156 192 233 276
#     4   8  14  26  45  68  92 120 153 189 230 273
#     4   9  17  31  51  71  93 123 159 198 236 276
#     4  10  20  33  49  70  95 124 158 194 236 281
#     4  12  24  37  52  70  94 123 156 193 233 278
#
# _framework density 16.614293
#
# number of rings (size 3 to 8) (size 9 to 14) (size 15 to 20)
#    0.000    2.571    0.000    4.286    0.000    2.286 
#    0.000    2.857    0.000    0.000    0.000    1.000 
#    0.000    0.000    0.000    0.000    0.000    0.000 
#
# Total GULP energy -155961.971521 kJ/mol
# GULP energy per Si atom -5570.070411 kJ/mol
# Density = 1.657648 g / cm^3
# Si number density = 16.614293 Si / 1000 Ang^3
#
#
#
# Elastic Constant Matrix: (Units=GPa)
#
#
# Indices 1 2 3 4 5 6 
#
# 1 130.5231 13.4711 45.2799 0.0000 28.1934 0.0000
# 2 13.4711 28.8065 12.8134 0.0000 1.4140 0.0000
# 3 45.2799 12.8134 47.0017 0.0000 10.3762 0.0000
# 4 0.0000 0.0000 0.0000 17.2683 0.0000 -1.1589
# 5 28.1934 1.4140 10.3762 0.0000 26.0837 0.0000
# 6 0.0000 0.0000 0.0000 -1.1589 0.0000 27.3505
#
#
#
# Elastic Compliance Matrix: (Units=1/GPa)
#
#
# Indices 1 2 3 4 5 6 
#
# 1 0.013738 -0.001203 -0.010571 0.000000 -0.010579 0.000000
# 2 -0.001203 0.039742 -0.010400 0.000000 0.003283 0.000000
# 3 -0.010571 -0.010400 0.034695 0.000000 -0.001812 0.000000
# 4 0.000000 0.000000 0.000000 0.058075 0.000000 0.002461
# 5 -0.010579 0.003283 -0.001812 0.000000 0.050315 0.000000
# 6 0.000000 0.000000 0.000000 0.002461 0.000000 0.036667
#
#
# Mechanical properties :
#
#
# Convention : Reuss Voigt Hill
#
# Bulk Modulus (GPa) = 22.81755 38.82892 30.82324
# Shear Modulus (GPa) = 17.11219 23.12495 20.11857
#
# Velocity S-wave (km/s) = 3.21279 3.73483 3.48360
# Velocity P-wave (km/s) = 5.24654 6.48229 5.89688
#
# Compressibility (1/GPa) = 0.04382591
#
# Stress axis : x y z
#
# Youngs Moduli (GPa) = 72.79095 25.16238 28.82241
#
# Poissons Ratio (x) = 0.03027 0.30469
# Poissons Ratio (y) = 0.08756 0.29976
# Poissons Ratio (z) = 0.76950 0.26169
#
# Static dielectric constant tensor:
#      x y z
#    x 1.597050 0.000000 0.040100 
#    y 0.000000 1.563250 0.000000 
#    z 0.040100 0.000000 1.547600 
# 
# From -- ./inp_files/42372.got.cif
#   From: 2010.05.17/outbox.cif.g08.bks.cpg/sg11_22_cif.got.tgz:42372.got - 2010.06.03 12:22:45.
