data_PCOD9158458
_publ_section_title
;
Structure prediction by ZEFSAII (Michael W. Deem and Ramdas Pophale) SiO2 
 PCOD9158458
Probable space group: P 21/M
;
_chemical_formula_sum "Si O2"
_cell_formula_units_Z 32
_cell_length_a 27.837782
_cell_length_b 8.884586
_cell_length_c 21.977416
_cell_angle_alpha 90.000000
_cell_angle_beta 18.765152
_cell_angle_gamma 90.000000
_cell_volume 1748.581349
_symmetry_space_group_name_H-M "P 21/M"
_symmetry_group_IT_number 11
_symmetry_cell_setting 'monoclinic'
loop_
_space_group_symop_operation_xyz
x,y,z
-x,1/2+y,-z
-x,-y,-z
x,1/2-y,z
loop_
_atom_site_type_symbol
_atom_site_label
_atom_site_fract_x
_atom_site_fract_y
_atom_site_fract_z
Si Si1 0.881382 0.572131 0.686911
Si Si2 0.442093 0.928285 0.778598
Si Si3 0.873576 0.428444 0.911426
Si Si4 0.070745 0.927784 0.577188
Si Si5 0.268351 0.427404 0.807696
Si Si6 0.454262 0.069288 0.895037
Si Si7 0.614982 0.929325 0.813678
Si Si8 0.433318 0.070178 0.495873
O O1 0.880723 0.750000 0.676551
O O2 0.000000 0.500000 0.500000
O O3 0.940026 0.547002 0.684763
O O4 0.711801 0.519159 0.884576
O O5 0.442718 0.750000 0.792402
O O6 0.564388 0.956668 0.578963
O O7 0.467601 0.021712 0.808849
O O8 0.281162 0.961667 0.940028
O O9 0.894841 0.250000 0.884266
O O10 0.008350 0.509786 0.715405
O O11 0.847731 0.483691 0.011299
O O12 0.101339 0.750000 0.544131
O O13 0.217221 0.012412 0.377944
O O14 0.243411 0.250000 0.845076
O O15 0.429698 0.473522 0.641923
O O16 0.289897 0.461315 0.710045
O O17 0.466053 0.250000 0.886823
O O18 0.568418 0.987941 0.802811
O O19 0.608521 0.750000 0.825490
O O20 0.500000 0.000000 0.000000
O O21 0.468200 0.250000 0.461949
#
# Coordination Sequence:
#
# PCOD9158458 Si02
#       8
#     4   4   4   4   4   4   4   4
#     4  10  22  36  55  81 108 135 173 217 268 324
#     4   9  17  30  49  75 108 145 182 224 271 322
#     4  10  19  31  49  76 110 146 183 226 273 324
#     4  11  22  39  59  83 110 144 183 226 275 327
#     4   9  15  24  41  66 101 143 182 223 268 319
#     4  11  22  38  57  82 110 143 182 226 274 327
#     4  12  26  44  62  83 109 144 183 226 276 329
#     4   8  15  26  40  65 102 142 182 221 269 322
#
# _framework density 18.300549
#
# number of rings (size 3 to 8) (size 9 to 14) (size 15 to 20)
#    0.000    2.000    1.250    4.125    0.000    6.500 
#    0.000    0.000    0.000    0.000    0.000    0.875 
#    0.000    0.000    0.000    0.000    0.000    0.000 
#
# Total GULP energy -178502.091187 kJ/mol
# GULP energy per Si atom -5578.190350 kJ/mol
# Density = 1.825890 g / cm^3
# Si number density = 18.300549 Si / 1000 Ang^3
#
#
#
# Elastic Constant Matrix: (Units=GPa)
#
#
# Indices 1 2 3 4 5 6 
#
# 1 29.0093 23.0633 1.2843 0.0000 17.6624 0.0000
# 2 23.0633 56.5362 32.9208 0.0000 5.1072 0.0000
# 3 1.2843 32.9208 36.3517 0.0000 28.2942 0.0000
# 4 0.0000 0.0000 0.0000 29.2933 0.0000 7.4188
# 5 17.6624 5.1072 28.2942 0.0000 33.8385 0.0000
# 6 0.0000 0.0000 0.0000 7.4188 0.0000 26.5890
#
#
#
# Elastic Compliance Matrix: (Units=1/GPa)
#
#
# Indices 1 2 3 4 5 6 
#
# 1 0.003381 0.019309 -0.039990 0.000000 0.028759 0.000000
# 2 0.019309 -0.002076 0.025198 0.000000 -0.030834 0.000000
# 3 -0.039990 0.025198 -0.020575 0.000000 0.034274 0.000000
# 4 0.000000 0.000000 0.000000 0.036733 0.000000 -0.010249
# 5 0.028759 -0.030834 0.034274 0.000000 -0.009463 0.000000
# 6 0.000000 0.000000 0.000000 -0.010249 0.000000 0.040469
#
#
# Mechanical properties :
#
#
# Convention : Reuss Voigt Hill
#
# Bulk Modulus (GPa) = -97.69357 26.27047 -35.71155
# Shear Modulus (GPa) = 138.79450 22.25273 80.52362
#
# Velocity S-wave (km/s) = 8.71816 3.49084 6.64050
# Velocity P-wave (km/s) = 6.91687 5.53481 6.26407
#
# Compressibility (1/GPa) = -0.01023609
#
# Stress axis : x y z
#
# Youngs Moduli (GPa) = 295.73633 -481.63380 -48.60349
#
# Poissons Ratio (x) = 9.29973 -1.94365
# Poissons Ratio (y) = -5.71029 1.22471
# Poissons Ratio (z) = 11.82647 12.13618
#
# Static dielectric constant tensor:
#      x y z
#    x 1.649700 0.000000 0.032450 
#    y 0.000000 1.615030 0.000000 
#    z 0.032450 0.000000 1.479680 
# 
# From -- ./inp_files/66977.got.cif
#   From: 2010.05.17/outbox.cif.g08.bks.cpg/sg11_34_cif.got.tgz:66977.got - 2010.06.03 12:22:45.
