data_PCOD9158077
_publ_section_title
;
Structure prediction by ZEFSAII (Michael W. Deem and Ramdas Pophale) SiO2 
 PCOD9158077
Probable space group: P 21/M
;
_chemical_formula_sum "Si O2"
_cell_formula_units_Z 24
_cell_length_a 20.357237
_cell_length_b 9.044387
_cell_length_c 11.667482
_cell_angle_alpha 90.000000
_cell_angle_beta 43.468235
_cell_angle_gamma 90.000000
_cell_volume 1477.860524
_symmetry_space_group_name_H-M "P 21/M"
_symmetry_group_IT_number 11
_symmetry_cell_setting 'monoclinic'
loop_
_space_group_symop_operation_xyz
x,y,z
-x,1/2+y,-z
-x,-y,-z
x,1/2-y,z
loop_
_atom_site_type_symbol
_atom_site_label
_atom_site_fract_x
_atom_site_fract_y
_atom_site_fract_z
Si Si1 0.711554 0.572496 0.829084
Si Si2 0.084929 0.071821 0.320562
Si Si3 0.943466 0.927459 0.907054
Si Si4 0.520384 0.073079 0.097588
Si Si5 0.853984 0.426343 0.236858
Si Si6 0.688094 0.573311 0.589485
O O1 0.699116 0.750000 0.852509
O O2 0.812485 0.531456 0.756391
O O3 0.709846 0.534609 0.695426
O O4 0.621945 0.494097 0.003606
O O5 0.076284 0.250000 0.337776
O O6 0.077014 0.028778 0.197351
O O7 0.000000 0.000000 0.500000
O O8 0.932595 0.750000 0.930532
O O9 0.052492 0.963988 0.804630
O O10 0.875574 0.004808 0.085447
O O11 0.526821 0.250000 0.078003
O O12 0.423961 0.039909 0.290355
O O13 0.500000 0.000000 0.000000
O O14 0.847973 0.250000 0.236611
O O15 0.760618 0.491238 0.414914
O O16 0.701137 0.750000 0.562277
#
# Coordination Sequence:
#
# PCOD9158077 Si02
#       6
#     4   4   4   4   4   4
#     4   9  18  31  47  70  99 128 157 192 236 282
#     4  10  20  33  50  72  98 128 159 191 232 284
#     4   9  19  34  48  66  95 127 156 189 234 280
#     4   9  17  29  46  69  96 126 158 193 236 281
#     4  10  19  30  48  71  92 120 159 198 232 272
#     4   9  17  29  46  69  96 123 151 188 235 280
#
# _framework density 16.239691000000001
#
# number of rings (size 3 to 8) (size 9 to 14) (size 15 to 20)
#    0.000    2.667    0.000    3.000    0.000    5.333 
#    0.000    0.000    0.000    1.000    0.000    0.000 
#    0.000    0.000    0.000    0.000    0.000    0.000 
#
# Total GULP energy -133764.328317 kJ/mol
# GULP energy per Si atom -5573.513680 kJ/mol
# Density = 1.620273 g / cm^3
# Si number density = 16.239691 Si / 1000 Ang^3
#
#
#
# Elastic Constant Matrix: (Units=GPa)
#
#
# Indices 1 2 3 4 5 6 
#
# 1 104.5568 35.5166 80.5603 0.0000 -11.3807 0.0000
# 2 35.5166 32.4250 62.0013 0.0000 -9.7959 0.0000
# 3 80.5603 62.0013 173.3536 0.0000 -20.4789 0.0000
# 4 0.0000 0.0000 0.0000 35.0552 0.0000 -4.8028
# 5 -11.3807 -9.7959 -20.4789 0.0000 24.5793 0.0000
# 6 0.0000 0.0000 0.0000 -4.8028 0.0000 19.1592
#
#
#
# Elastic Compliance Matrix: (Units=1/GPa)
#
#
# Indices 1 2 3 4 5 6 
#
# 1 0.015941 -0.010382 -0.003673 0.000000 0.000183 0.000000
# 2 -0.010382 0.107021 -0.032146 0.000000 0.011063 0.000000
# 3 -0.003673 -0.032146 0.019142 0.000000 0.001437 0.000000
# 4 0.000000 0.000000 0.000000 0.029541 0.000000 0.007405
# 5 0.000183 0.011063 0.001437 0.000000 0.046375 0.000000
# 6 0.000000 0.000000 0.000000 0.007405 0.000000 0.054051
#
#
# Mechanical properties :
#
#
# Convention : Reuss Voigt Hill
#
# Bulk Modulus (GPa) = 20.11932 74.05463 47.08698
# Shear Modulus (GPa) = 13.12197 24.57589 18.84893
#
# Velocity S-wave (km/s) = 2.84565 3.89436 3.41056
# Velocity P-wave (km/s) = 4.81797 8.11920 6.67586
#
# Compressibility (1/GPa) = 0.04970346
#
# Stress axis : x y z
#
# Youngs Moduli (GPa) = 62.73202 9.34394 52.23981
#
# Poissons Ratio (x) = 0.09700 0.19189
# Poissons Ratio (y) = 0.65126 1.67928
# Poissons Ratio (z) = 0.23043 0.30037
#
# Static dielectric constant tensor:
#      x y z
#    x 1.551630 0.000000 -0.019670 
#    y 0.000000 1.529250 0.000000 
#    z -0.019670 0.000000 1.530600 
# 
# From -- ./inp_files/40429.got.cif
#   From: 2010.05.17/outbox.cif.g08.bks.cpg/sg11_21_cif.got.tgz:40429.got - 2010.06.03 12:22:45.
