data_PCOD9158325
_publ_section_title
;
Structure prediction by ZEFSAII (Michael W. Deem and Ramdas Pophale) SiO2 
 PCOD9158325
Probable space group: P 21/M
;
_chemical_formula_sum "Si O2"
_cell_formula_units_Z 32
_cell_length_a 17.327489
_cell_length_b 7.760064
_cell_length_c 26.651754
_cell_angle_alpha 90.000000
_cell_angle_beta 153.197790
_cell_angle_gamma 90.000000
_cell_volume 1615.914932
_symmetry_space_group_name_H-M "P 21/M"
_symmetry_group_IT_number 11
_symmetry_cell_setting 'monoclinic'
loop_
_space_group_symop_operation_xyz
x,y,z
-x,1/2+y,-z
-x,-y,-z
x,1/2-y,z
loop_
_atom_site_type_symbol
_atom_site_label
_atom_site_fract_x
_atom_site_fract_y
_atom_site_fract_z
Si Si1 0.547765 0.047887 0.971780
Si Si2 0.422409 0.041934 0.648191
Si Si3 0.145731 0.042614 0.918211
Si Si4 0.409992 0.042499 0.156017
Si Si5 0.554443 0.542507 0.453034
Si Si6 0.060412 0.043630 0.478821
Si Si7 0.230038 0.957505 0.329271
Si Si8 0.296089 0.552610 0.742672
O O1 0.522351 0.250000 0.949158
O O2 0.417675 0.948962 0.860575
O O3 0.500000 0.000000 0.000000
O O4 0.735641 0.001651 0.060628
O O5 0.417279 0.250000 0.643323
O O6 0.440992 0.980192 0.601691
O O7 0.241626 0.973311 0.565599
O O8 0.571452 0.997390 0.774542
O O9 0.136842 0.250000 0.917009
O O10 0.953922 0.977970 0.796718
O O11 0.250276 0.981766 0.028829
O O12 0.411748 0.250000 0.151872
O O13 0.585086 0.970764 0.231654
O O14 0.544606 0.750000 0.445559
O O15 0.716166 0.499500 0.582349
O O16 0.385723 0.478189 0.384570
O O17 0.078990 0.250000 0.484842
O O18 0.889613 0.980793 0.351179
O O19 0.000000 0.000000 0.500000
O O20 0.226818 0.750000 0.323733
O O21 0.265335 0.750000 0.708762
#
# Coordination Sequence:
#
# PCOD9158325 Si02
#       8
#     4   4   4   4   4   4   4   4
#     4  11  22  35  52  75 104 137 172 215 262 310
#     4  10  20  32  49  75 108 139 172 215 263 314
#     4   9  19  36  56  77 102 136 178 218 264 315
#     4   9  17  31  50  71 100 136 173 215 256 304
#     4   9  19  35  54  80 110 138 169 216 273 319
#     4  10  19  31  48  71 101 137 174 211 251 299
#     4   9  18  36  60  79 102 137 176 217 266 325
#     4   9  18  33  49  68  99 138 177 215 256 303
#
# _framework density 19.803021999999999
#
# number of rings (size 3 to 8) (size 9 to 14) (size 15 to 20)
#    0.000    2.500    1.250    1.875    0.000    4.500 
#    0.000    1.875    0.000    0.000    0.000    0.000 
#    0.000    0.000    0.000    0.000    0.000    0.000 
#
# Total GULP energy -178244.472754 kJ/mol
# GULP energy per Si atom -5570.139774 kJ/mol
# Density = 1.975795 g / cm^3
# Si number density = 19.803022 Si / 1000 Ang^3
#
#
#
# Elastic Constant Matrix: (Units=GPa)
#
#
# Indices 1 2 3 4 5 6 
#
# 1 116.4297 -1.3749 76.7266 0.0000 -23.6166 0.0000
# 2 -1.3749 35.3059 9.8124 0.0000 1.9922 0.0000
# 3 76.7266 9.8124 153.4586 0.0000 -0.0416 0.0000
# 4 0.0000 0.0000 0.0000 18.6195 0.0000 -6.5296
# 5 -23.6166 1.9922 -0.0416 0.0000 24.8432 0.0000
# 6 0.0000 0.0000 0.0000 -6.5296 0.0000 19.4610
#
#
#
# Elastic Compliance Matrix: (Units=1/GPa)
#
#
# Indices 1 2 3 4 5 6 
#
# 1 0.018149 0.002306 -0.009217 0.000000 0.017053 0.000000
# 2 0.002306 0.029263 -0.003024 0.000000 -0.000159 0.000000
# 3 -0.009217 -0.003024 0.011316 0.000000 -0.008501 0.000000
# 4 0.000000 0.000000 0.000000 0.060869 0.000000 0.020423
# 5 0.017053 -0.000159 -0.008501 0.000000 0.056462 0.000000
# 6 0.000000 0.000000 0.000000 0.020423 0.000000 0.058237
#
#
# Mechanical properties :
#
#
# Convention : Reuss Voigt Hill
#
# Bulk Modulus (GPa) = 25.73475 52.83581 39.28528
# Shear Modulus (GPa) = 18.71825 27.25340 22.98583
#
# Velocity S-wave (km/s) = 3.07778 3.71377 3.41063
# Velocity P-wave (km/s) = 5.06497 6.71774 5.94903
#
# Compressibility (1/GPa) = 0.03885797
#
# Stress axis : x y z
#
# Youngs Moduli (GPa) = 55.09926 34.17259 88.37158
#
# Poissons Ratio (x) = -0.07881 0.81453
# Poissons Ratio (y) = -0.12707 0.26726
# Poissons Ratio (z) = 0.50785 0.10335
#
# Static dielectric constant tensor:
#      x y z
#    x 1.710390 0.000000 -0.003450 
#    y 0.000000 1.727300 0.000000 
#    z -0.003450 0.000000 1.755710 
# 
# From -- ./inp_files/69149.got.cif
#   From: 2010.05.17/outbox.cif.g08.bks.cpg/sg11_35_cif.got.tgz:69149.got - 2010.06.03 12:22:45.
