data_PCOD9158060
_publ_section_title
;
Structure prediction by ZEFSAII (Michael W. Deem and Ramdas Pophale) SiO2 
 PCOD9158060
Probable space group: P 21/M
;
_chemical_formula_sum "Si O2"
_cell_formula_units_Z 28
_cell_length_a 18.201232
_cell_length_b 14.288251
_cell_length_c 6.189452
_cell_angle_alpha 90.000000
_cell_angle_beta 104.019099
_cell_angle_gamma 90.000000
_cell_volume 1561.708786
_symmetry_space_group_name_H-M "P 21/M"
_symmetry_group_IT_number 11
_symmetry_cell_setting 'monoclinic'
loop_
_space_group_symop_operation_xyz
x,y,z
-x,1/2+y,-z
-x,-y,-z
x,1/2-y,z
loop_
_atom_site_type_symbol
_atom_site_label
_atom_site_fract_x
_atom_site_fract_y
_atom_site_fract_z
Si Si1 0.646884 0.355210 0.622261
Si Si2 0.490472 0.641233 0.149853
Si Si3 0.386802 0.988580 0.782028
Si Si4 0.989707 0.073956 0.299632
Si Si5 0.143082 0.645174 0.551862
Si Si6 0.119234 0.496078 0.154137
Si Si7 0.748555 0.456205 0.025167
O O1 0.655407 0.250000 0.541412
O O2 0.565853 0.361424 0.685225
O O3 0.649452 0.435381 0.445775
O O4 0.710206 0.377912 0.845785
O O5 0.504319 0.750000 0.106892
O O6 0.565537 0.580402 0.241793
O O7 0.444546 0.587028 0.929072
O O8 0.320753 0.008011 0.907448
O O9 0.937376 0.149739 0.378707
O O10 0.072606 0.084190 0.249812
O O11 0.000000 0.000000 0.500000
O O12 0.936906 0.032703 0.072729
O O13 0.167420 0.750000 0.513150
O O14 0.133575 0.579615 0.335707
O O15 0.201142 0.594909 0.756869
O O16 0.197666 0.479365 0.085182
#
# Coordination Sequence:
#
# PCOD9158060 Si02
#       7
#     4   4   4   4   4   4   4
#     4  10  19  31  48  71 100 132 164 202 249 298
#     4   9  19  34  51  71  95 126 167 211 250 294
#     4  10  19  32  50  72  99 130 165 204 251 304
#     4   8  16  31  48  66  90 124 162 195 225 272
#     4  10  19  30  47  73 101 127 157 196 244 296
#     4   9  17  30  47  67  94 128 161 192 235 285
#     4  10  20  30  45  72 102 132 161 197 244 301
#
# _framework density 17.929078000000001
#
# number of rings (size 3 to 8) (size 9 to 14) (size 15 to 20)
#    0.000    2.571    0.000    2.143    0.000    5.714 
#    0.000    0.000    0.000    0.857    0.000   33.000 
#    0.000    0.000    0.000    0.000    0.000    0.000 
#
# Total GULP energy -155882.235236 kJ/mol
# GULP energy per Si atom -5567.222687 kJ/mol
# Density = 1.788827 g / cm^3
# Si number density = 17.929078 Si / 1000 Ang^3
#
#
#
# Elastic Constant Matrix: (Units=GPa)
#
#
# Indices 1 2 3 4 5 6 
#
# 1 122.1325 45.6569 25.1085 0.0000 -6.8671 0.0000
# 2 45.6569 51.1936 16.4936 0.0000 -5.1821 0.0000
# 3 25.1085 16.4936 93.2606 0.0000 2.5909 0.0000
# 4 0.0000 0.0000 0.0000 11.5204 0.0000 -1.7091
# 5 -6.8671 -5.1821 2.5909 0.0000 19.2822 0.0000
# 6 0.0000 0.0000 0.0000 -1.7091 0.0000 11.8490
#
#
#
# Elastic Compliance Matrix: (Units=1/GPa)
#
#
# Indices 1 2 3 4 5 6 
#
# 1 0.012535 -0.010485 -0.001572 0.000000 0.001858 0.000000
# 2 -0.010485 0.030220 -0.002653 0.000000 0.004744 0.000000
# 3 -0.001572 -0.002653 0.011694 0.000000 -0.002844 0.000000
# 4 0.000000 0.000000 0.000000 0.088701 0.000000 0.012795
# 5 0.001858 0.004744 -0.002844 0.000000 0.054180 0.000000
# 6 0.000000 0.000000 0.000000 0.012795 0.000000 0.086241
#
#
# Mechanical properties :
#
#
# Convention : Reuss Voigt Hill
#
# Bulk Modulus (GPa) = 39.95512 49.01164 44.48338
# Shear Modulus (GPa) = 15.56012 20.48548 18.02280
#
# Velocity S-wave (km/s) = 2.94916 3.38388 3.17397
# Velocity P-wave (km/s) = 5.82496 6.53171 6.18844
#
# Compressibility (1/GPa) = 0.02502808
#
# Stress axis : x y z
#
# Youngs Moduli (GPa) = 79.77650 33.09107 85.51244
#
# Poissons Ratio (x) = 0.34695 0.13443
# Poissons Ratio (y) = 0.83644 0.22691
# Poissons Ratio (z) = 0.12542 0.08781
#
# Static dielectric constant tensor:
#      x y z
#    x 1.681280 0.000000 -0.018760 
#    y 0.000000 1.563800 0.000000 
#    z -0.018760 0.000000 1.616130 
# 
# From -- ./inp_files/7885.got.cif
#   From: 2010.05.17/outbox.cif.g08.bks.cpg/sg11_4_cif.got.tgz:7885.got - 2010.06.03 12:22:45.
