data_PCOD9158489
_publ_section_title
;
Structure prediction by ZEFSAII (Michael W. Deem and Ramdas Pophale) SiO2 
 PCOD9158489
Probable space group: P 21/M
;
_chemical_formula_sum "Si O2"
_cell_formula_units_Z 28
_cell_length_a 19.762263
_cell_length_b 8.727337
_cell_length_c 14.737149
_cell_angle_alpha 90.000000
_cell_angle_beta 137.977379
_cell_angle_gamma 90.000000
_cell_volume 1701.504670
_symmetry_space_group_name_H-M "P 21/M"
_symmetry_group_IT_number 11
_symmetry_cell_setting 'monoclinic'
loop_
_space_group_symop_operation_xyz
x,y,z
-x,1/2+y,-z
-x,-y,-z
x,1/2-y,z
loop_
_atom_site_type_symbol
_atom_site_label
_atom_site_fract_x
_atom_site_fract_y
_atom_site_fract_z
Si Si1 0.304441 0.064439 0.016457
Si Si2 0.104747 0.065339 0.712058
Si Si3 0.619256 0.067137 0.520319
Si Si4 0.691935 0.934926 0.407772
Si Si5 0.887412 0.565257 0.490274
Si Si6 0.617195 0.565710 0.711121
Si Si7 0.505985 0.434115 0.904860
O O1 0.311151 0.250000 0.017789
O O2 0.321423 0.020466 0.138160
O O3 0.395130 0.995989 0.047483
O O4 0.196871 0.017237 0.867957
O O5 0.098707 0.250000 0.708326
O O6 0.127088 0.019622 0.629748
O O7 0.995810 0.998148 0.628449
O O8 0.624242 0.250000 0.522770
O O9 0.500671 0.021419 0.391818
O O10 0.679969 0.998515 0.496827
O O11 0.652118 0.007358 0.651643
O O12 0.692783 0.750000 0.412131
O O13 0.793642 0.986222 0.458106
O O14 0.593540 0.981014 0.251249
O O15 0.890249 0.750000 0.495360
O O16 0.620537 0.750000 0.705755
O O17 0.508461 0.250000 0.911009
O O18 0.500000 0.500000 0.000000
#
# Coordination Sequence:
#
# PCOD9158489 Si02
#       7
#     4   4   4   4   4   4   4
#     4  10  19  34  53  74 102 133 167 205 250 301
#     4   9  18  33  53  74  99 131 168 209 248 291
#     4  10  19  31  50  75 101 130 167 208 246 298
#     4  10  20  34  51  72 101 136 168 205 252 299
#     4   9  18  33  51  72  99 132 170 207 246 293
#     4   9  18  32  50  72 101 134 164 201 250 302
#     4  11  22  33  48  72 104 137 167 201 247 300
#
# _framework density 16.456022000000001
#
# number of rings (size 3 to 8) (size 9 to 14) (size 15 to 20)
#    0.000    2.286    1.429    1.714    0.000    5.143 
#    0.000    2.857    0.000    0.857    0.000    0.000 
#    0.000    0.000    0.000    0.000    0.000    0.000 
#
# Total GULP energy -156223.042327 kJ/mol
# GULP energy per Si atom -5579.394369 kJ/mol
# Density = 1.641857 g / cm^3
# Si number density = 16.456022 Si / 1000 Ang^3
#
#
#
# Elastic Constant Matrix: (Units=GPa)
#
#
# Indices 1 2 3 4 5 6 
#
# 1 117.8490 24.4849 89.4154 0.0000 -6.8488 0.0000
# 2 24.4849 10.7463 31.0030 0.0000 -2.2285 0.0000
# 3 89.4154 31.0030 152.2194 0.0000 -4.8660 0.0000
# 4 0.0000 0.0000 0.0000 20.9983 0.0000 0.1795
# 5 -6.8488 -2.2285 -4.8660 0.0000 24.7756 0.0000
# 6 0.0000 0.0000 0.0000 0.1795 0.0000 29.6403
#
#
#
# Elastic Compliance Matrix: (Units=1/GPa)
#
#
# Indices 1 2 3 4 5 6 
#
# 1 0.017781 -0.024712 -0.005359 0.000000 0.001640 0.000000
# 2 -0.024712 0.263199 -0.038795 0.000000 0.009223 0.000000
# 3 -0.005359 -0.038795 0.017571 0.000000 -0.001520 0.000000
# 4 0.000000 0.000000 0.000000 0.047625 0.000000 -0.000288
# 5 0.001640 0.009223 -0.001520 0.000000 0.041347 0.000000
# 6 0.000000 0.000000 0.000000 -0.000288 0.000000 0.033740
#
#
# Mechanical properties :
#
#
# Convention : Reuss Voigt Hill
#
# Bulk Modulus (GPa) = 6.21826 63.40235 34.81031
# Shear Modulus (GPa) = 8.16190 24.14358 16.15274
#
# Velocity S-wave (km/s) = 2.22948 3.83450 3.13640
# Velocity P-wave (km/s) = 3.22713 7.62998 5.85794
#
# Compressibility (1/GPa) = 0.16081667
#
# Stress axis : x y z
#
# Youngs Moduli (GPa) = 56.23862 3.79941 56.91340
#
# Poissons Ratio (x) = 0.09389 0.30502
# Poissons Ratio (y) = 1.38979 2.20798
# Poissons Ratio (z) = 0.30140 0.14740
#
# Static dielectric constant tensor:
#      x y z
#    x 1.528330 0.000000 -0.005740 
#    y 0.000000 1.558730 0.000000 
#    z -0.005740 0.000000 1.546670 
# 
# From -- ./inp_files/53227.got.cif
#   From: 2010.05.17/outbox.cif.g08.bks.cpg/sg11_27_cif.got.tgz:53227.got - 2010.06.03 12:22:45.
