data_PCOD9158874
_publ_section_title
;
Structure prediction by ZEFSAII (Michael W. Deem and Ramdas Pophale) SiO2 
 PCOD9158874
Probable space group: P 21/M
;
_chemical_formula_sum "Si O2"
_cell_formula_units_Z 24
_cell_length_a 9.484707
_cell_length_b 13.783616
_cell_length_c 8.161856
_cell_angle_alpha 90.000000
_cell_angle_beta 94.329356
_cell_angle_gamma 90.000000
_cell_volume 1063.983811
_symmetry_space_group_name_H-M "P 21/M"
_symmetry_group_IT_number 11
_symmetry_cell_setting 'monoclinic'
loop_
_space_group_symop_operation_xyz
x,y,z
-x,1/2+y,-z
-x,-y,-z
x,1/2-y,z
loop_
_atom_site_type_symbol
_atom_site_label
_atom_site_fract_x
_atom_site_fract_y
_atom_site_fract_z
Si Si1 0.409443 0.862377 0.698972
Si Si2 0.850143 0.075341 0.145190
Si Si3 0.977404 0.887944 0.529837
Si Si4 0.907906 0.638856 0.053647
Si Si5 0.230115 0.644520 0.344998
Si Si6 0.270114 0.423390 0.277664
O O1 0.425818 0.750000 0.739746
O O2 0.313514 0.908136 0.833624
O O3 0.324715 0.868654 0.519364
O O4 0.564403 0.906029 0.696950
O O5 0.931940 0.120336 0.997547
O O6 0.931291 0.130914 0.299192
O O7 0.875599 0.959025 0.154151
O O8 0.066626 0.845455 0.389020
O O9 0.000000 0.000000 0.500000
O O10 0.815295 0.879067 0.572357
O O11 0.888372 0.750000 0.108343
O O12 0.803366 0.623735 0.887661
O O13 0.271068 0.750000 0.275174
O O14 0.246965 0.539572 0.263974
#
# Coordination Sequence:
#
# PCOD9158874 Si02
#       6
#     4   4   4   4   4   4
#     4  10  19  32  53  77 103 137 170 207 260 309
#     4   9  19  35  53  75 101 133 169 207 250 301
#     4   8  16  32  52  73  98 129 165 208 251 292
#     4  10  20  36  56  75 101 136 173 211 250 297
#     4   9  18  33  52  74 104 139 171 207 255 306
#     4  10  19  32  51  78 106 133 172 215 251 297
#
# _framework density 22.556733000000001
#
# number of rings (size 3 to 8) (size 9 to 14) (size 15 to 20)
#    0.000    2.667    0.000    1.500    0.000    5.333 
#    0.000   15.000    0.000   14.000    0.000    0.000 
#    0.000    0.000    0.000    0.000    0.000    0.000 
#
# Total GULP energy -133776.035923 kJ/mol
# GULP energy per Si atom -5574.001497 kJ/mol
# Density = 2.250539 g / cm^3
# Si number density = 22.556733 Si / 1000 Ang^3
#
#
#
# Elastic Constant Matrix: (Units=GPa)
#
#
# Indices 1 2 3 4 5 6 
#
# 1 139.7493 36.1536 -1.3931 0.0000 -19.7271 0.0000
# 2 36.1536 170.4957 18.7481 0.0000 -0.7993 0.0000
# 3 -1.3931 18.7481 20.7189 0.0000 1.2135 0.0000
# 4 0.0000 0.0000 0.0000 20.6303 0.0000 9.2596
# 5 -19.7271 -0.7993 1.2135 0.0000 25.4440 0.0000
# 6 0.0000 0.0000 0.0000 9.2596 0.0000 21.1820
#
#
#
# Elastic Compliance Matrix: (Units=1/GPa)
#
#
# Indices 1 2 3 4 5 6 
#
# 1 0.008619 -0.002020 0.002025 0.000000 0.006522 0.000000
# 2 -0.002020 0.006993 -0.006402 0.000000 -0.001041 0.000000
# 3 0.002025 -0.006402 0.054266 0.000000 -0.001219 0.000000
# 4 0.000000 0.000000 0.000000 0.060304 0.000000 -0.026362
# 5 0.006522 -0.001041 -0.001219 0.000000 0.044384 0.000000
# 6 0.000000 0.000000 0.000000 -0.026362 0.000000 0.058734
#
#
# Mechanical properties :
#
#
# Convention : Reuss Voigt Hill
#
# Bulk Modulus (GPa) = 17.51807 48.66457 33.09132
# Shear Modulus (GPa) = 18.85920 31.94826 25.40373
#
# Velocity S-wave (km/s) = 2.89464 3.76753 3.35955
# Velocity P-wave (km/s) = 4.35373 6.36764 5.45444
#
# Compressibility (1/GPa) = 0.05708390
#
# Stress axis : x y z
#
# Youngs Moduli (GPa) = 116.02129 143.00641 18.42771
#
# Poissons Ratio (x) = 0.28884 -0.03732
# Poissons Ratio (y) = 0.23434 0.11798
# Poissons Ratio (z) = -0.23496 0.91558
#
# Static dielectric constant tensor:
#      x y z
#    x 1.823860 0.000000 0.028040 
#    y 0.000000 1.725650 0.000000 
#    z 0.028040 0.000000 1.997410 
# 
# From -- ./inp_files/31129.got.cif
#   From: 2010.05.17/outbox.cif.g08.bks.cpg/sg11_16_cif.got.tgz:31129.got - 2010.06.03 12:22:45.
