data_PCOD9158482
_publ_section_title
;
Structure prediction by ZEFSAII (Michael W. Deem and Ramdas Pophale) SiO2 
 PCOD9158482
Probable space group: P 21/M
;
_chemical_formula_sum "Si O2"
_cell_formula_units_Z 24
_cell_length_a 10.104268
_cell_length_b 13.842611
_cell_length_c 8.787630
_cell_angle_alpha 90.000000
_cell_angle_beta 125.093513
_cell_angle_gamma 90.000000
_cell_volume 1005.685000
_symmetry_space_group_name_H-M "P 21/M"
_symmetry_group_IT_number 11
_symmetry_cell_setting 'monoclinic'
loop_
_space_group_symop_operation_xyz
x,y,z
-x,1/2+y,-z
-x,-y,-z
x,1/2-y,z
loop_
_atom_site_type_symbol
_atom_site_label
_atom_site_fract_x
_atom_site_fract_y
_atom_site_fract_z
Si Si1 0.554046 0.861746 0.703401
Si Si2 0.090365 0.991938 0.290621
Si Si3 0.350646 0.861746 0.296599
Si Si4 0.785767 0.861695 0.113619
Si Si5 0.827852 0.361695 0.113619
Si Si6 0.700257 0.008062 0.290622
O O1 0.504922 0.750000 0.706609
O O2 0.519309 0.872915 0.500000
O O3 0.443041 0.940021 0.713952
O O4 0.725394 0.872306 0.899125
O O5 0.961039 0.908412 0.243897
O O6 0.229089 0.940021 0.286047
O O7 0.174256 0.028454 0.499999
O O8 0.979717 0.077172 0.150338
O O9 0.298313 0.750000 0.293391
O O10 0.326269 0.872306 0.100874
O O11 0.783405 0.750000 0.152049
O O12 0.670623 0.922828 0.150339
O O13 0.868645 0.250000 0.152050
O O14 0.782860 0.408412 0.243899
#
# Coordination Sequence:
#
# PCOD9158482 Si02
#       6
#     4   4   4   4   4   4
#     4   9  18  33  52  72  96 128 162 195 236 288
#     4  10  20  33  50  73 100 128 160 198 240 286
#     4   9  18  33  52  72  96 128 162 195 236 288
#     4  10  19  31  50  74  98 125 161 202 240 281
#     4  10  19  31  50  74  98 125 161 202 240 281
#     4  10  20  33  50  73 100 128 160 198 240 286
#
# _framework density 23.864332999999998
#
# number of rings (size 3 to 8) (size 9 to 14) (size 15 to 20)
#    0.000    2.333    0.000    4.000    0.000    4.000 
#    0.000    3.333    0.000    4.000    0.000    9.333 
#    0.000    0.000    0.000    0.000    0.000    0.000 
#
# Total GULP energy -134089.556453 kJ/mol
# GULP energy per Si atom -5587.064852 kJ/mol
# Density = 2.381002 g / cm^3
# Si number density = 23.864333 Si / 1000 Ang^3
#
#
#
# Elastic Constant Matrix: (Units=GPa)
#
#
# Indices 1 2 3 4 5 6 
#
# 1 35.6245 23.0186 -4.0655 0.0000 -0.4321 0.0000
# 2 23.0186 170.1299 22.9495 0.0000 -0.0026 0.0000
# 3 -4.0655 22.9495 127.8406 0.0000 3.8299 0.0000
# 4 0.0000 0.0000 0.0000 36.4722 0.0000 0.7695
# 5 -0.4321 -0.0026 3.8299 0.0000 14.1364 0.0000
# 6 0.0000 0.0000 0.0000 0.7695 0.0000 15.5884
#
#
#
# Elastic Compliance Matrix: (Units=1/GPa)
#
#
# Indices 1 2 3 4 5 6 
#
# 1 0.031158 -0.004455 0.001777 0.000000 0.000470 0.000000
# 2 -0.004455 0.006662 -0.001344 0.000000 0.000229 0.000000
# 3 0.001777 -0.001344 0.008185 0.000000 -0.002163 0.000000
# 4 0.000000 0.000000 0.000000 0.027447 0.000000 -0.001355
# 5 0.000470 0.000229 -0.002163 0.000000 0.071340 0.000000
# 6 0.000000 0.000000 0.000000 -0.001355 0.000000 0.064217
#
#
# Mechanical properties :
#
#
# Convention : Reuss Voigt Hill
#
# Bulk Modulus (GPa) = 26.34472 46.37780 36.36126
# Shear Modulus (GPa) = 21.76679 32.68557 27.22618
#
# Velocity S-wave (km/s) = 3.02339 3.70488 3.38135
# Velocity P-wave (km/s) = 4.82194 6.14635 5.52398
#
# Compressibility (1/GPa) = 0.03795827
#
# Stress axis : x y z
#
# Youngs Moduli (GPa) = 32.09471 150.10432 122.17604
#
# Poissons Ratio (x) = 0.66876 -0.21705
# Poissons Ratio (y) = 0.14299 0.16427
# Poissons Ratio (z) = -0.05702 0.20182
#
# Static dielectric constant tensor:
#      x y z
#    x 1.932240 0.000000 0.000010 
#    y 0.000000 1.881590 0.000000 
#    z 0.000010 0.000000 1.932650 
# 
# From -- ./inp_files/12537.got.cif
#   From: 2010.05.17/outbox.cif.g08.bks.cpg/sg11_7_cif.got.tgz:12537.got - 2010.06.03 12:22:45.
