data_PCOD9158480
_publ_section_title
;
Structure prediction by ZEFSAII (Michael W. Deem and Ramdas Pophale) SiO2 
 PCOD9158480
Probable space group: P 21/M
;
_chemical_formula_sum "Si O2"
_cell_formula_units_Z 28
_cell_length_a 9.852600
_cell_length_b 8.909689
_cell_length_c 32.371271
_cell_angle_alpha 90.000000
_cell_angle_beta 145.976957
_cell_angle_gamma 90.000000
_cell_volume 1589.987226
_symmetry_space_group_name_H-M "P 21/M"
_symmetry_group_IT_number 11
_symmetry_cell_setting 'monoclinic'
loop_
_space_group_symop_operation_xyz
x,y,z
-x,1/2+y,-z
-x,-y,-z
x,1/2-y,z
loop_
_atom_site_type_symbol
_atom_site_label
_atom_site_fract_x
_atom_site_fract_y
_atom_site_fract_z
Si Si1 0.753995 0.429641 0.208144
Si Si2 0.142513 0.429088 0.239734
Si Si3 0.194610 0.070346 0.079810
Si Si4 0.150312 0.071878 0.681757
Si Si5 0.721034 0.428745 0.811969
Si Si6 0.972080 0.571792 0.557440
Si Si7 0.386100 0.428230 0.604305
O O1 0.771589 0.250000 0.219065
O O2 0.469481 0.468544 0.135064
O O3 0.870048 0.510837 0.277001
O O4 0.898503 0.466905 0.203096
O O5 0.157448 0.250000 0.238392
O O6 0.167557 0.506800 0.201766
O O7 0.367412 0.486105 0.324001
O O8 0.172337 0.250000 0.074818
O O9 0.170792 0.005383 0.119965
O O10 0.000000 0.000000 0.000000
O O11 0.113090 0.250000 0.671096
O O12 0.430722 0.040225 0.739307
O O13 0.980468 0.990478 0.605760
O O14 0.751832 0.250000 0.821883
O O15 0.020757 0.750000 0.569354
O O16 0.726528 0.546099 0.469507
O O17 0.183481 0.487541 0.585258
O O18 0.419274 0.250000 0.618853
#
# Coordination Sequence:
#
# PCOD9158480 Si02
#       7
#     4   4   4   4   4   4   4
#     4   9  21  38  56  79 110 144 179 218 268 324
#     4  11  21  35  55  80 109 145 182 221 271 324
#     4  10  20  38  62  86 112 140 175 219 263 317
#     4  10  19  32  53  79 106 138 183 230 272 318
#     4  10  20  34  55  83 111 141 179 222 264 317
#     4  10  19  31  50  74 104 141 183 229 275 319
#     4  10  20  32  48  75 107 141 181 228 275 319
#
# _framework density 17.610202999999998
#
# number of rings (size 3 to 8) (size 9 to 14) (size 15 to 20)
#    0.000    2.000    1.429    2.571    0.000    4.571 
#    0.000    1.429    0.000    0.000    0.000    0.000 
#    0.000    0.000    0.000    0.000    0.000    0.000 
#
# Total GULP energy -156326.623462 kJ/mol
# GULP energy per Si atom -5583.093695 kJ/mol
# Density = 1.757012 g / cm^3
# Si number density = 17.610203 Si / 1000 Ang^3
#
#
#
# Elastic Constant Matrix: (Units=GPa)
#
#
# Indices 1 2 3 4 5 6 
#
# 1 106.2462 43.8167 45.9693 0.0000 -14.6138 0.0000
# 2 43.8167 54.1416 43.6914 0.0000 -13.6080 0.0000
# 3 45.9693 43.6914 106.0635 0.0000 -22.8464 0.0000
# 4 0.0000 0.0000 0.0000 32.9754 0.0000 -7.2426
# 5 -14.6138 -13.6080 -22.8464 0.0000 20.0789 0.0000
# 6 0.0000 0.0000 0.0000 -7.2426 0.0000 24.1634
#
#
#
# Elastic Compliance Matrix: (Units=1/GPa)
#
#
# Indices 1 2 3 4 5 6 
#
# 1 0.014499 -0.009772 -0.001871 0.000000 0.001802 0.000000
# 2 -0.009772 0.035172 -0.008810 0.000000 0.006701 0.000000
# 3 -0.001871 -0.008810 0.016279 0.000000 0.011190 0.000000
# 4 0.000000 0.000000 0.000000 0.032463 0.000000 0.009730
# 5 0.001802 0.006701 0.011190 0.000000 0.068388 0.000000
# 6 0.000000 0.000000 0.000000 0.009730 0.000000 0.044301
#
#
# Mechanical properties :
#
#
# Convention : Reuss Voigt Hill
#
# Bulk Modulus (GPa) = 39.92845 59.26732 49.59788
# Shear Modulus (GPa) = 19.20447 24.30845 21.75646
#
# Velocity S-wave (km/s) = 3.30590 3.71935 3.51870
# Velocity P-wave (km/s) = 6.10694 7.22308 6.68833
#
# Compressibility (1/GPa) = 0.02504480
#
# Stress axis : x y z
#
# Youngs Moduli (GPa) = 68.96903 28.43161 61.42997
#
# Poissons Ratio (x) = 0.27783 0.11492
# Poissons Ratio (y) = 0.67395 0.54121
# Poissons Ratio (z) = 0.12902 0.25049
#
# Static dielectric constant tensor:
#      x y z
#    x 1.592260 0.000000 -0.000300 
#    y 0.000000 1.582520 0.000000 
#    z -0.000300 0.000000 1.587280 
# 
# From -- ./inp_files/28223.got.cif
#   From: 2010.05.17/outbox.cif.g08.bks.cpg/sg11_15_cif.got.tgz:28223.got - 2010.06.03 12:22:45.
