data_PCOD9158500
_publ_section_title
;
Structure prediction by ZEFSAII (Michael W. Deem and Ramdas Pophale) SiO2 
 PCOD9158500
Probable space group: P 21/M
;
_chemical_formula_sum "Si O2"
_cell_formula_units_Z 32
_cell_length_a 21.347359
_cell_length_b 7.685813
_cell_length_c 22.598521
_cell_angle_alpha 90.000000
_cell_angle_beta 26.835309
_cell_angle_gamma 90.000000
_cell_volume 1673.794028
_symmetry_space_group_name_H-M "P 21/M"
_symmetry_group_IT_number 11
_symmetry_cell_setting 'monoclinic'
loop_
_space_group_symop_operation_xyz
x,y,z
-x,1/2+y,-z
-x,-y,-z
x,1/2-y,z
loop_
_atom_site_type_symbol
_atom_site_label
_atom_site_fract_x
_atom_site_fract_y
_atom_site_fract_z
Si Si1 0.644558 0.037701 0.528564
Si Si2 0.663083 0.044816 0.165389
Si Si3 0.857081 0.459809 0.588118
Si Si4 0.343455 0.958804 0.613950
Si Si5 0.441558 0.543307 0.113683
Si Si6 0.771731 0.051623 0.537744
Si Si7 0.841033 0.040272 0.122634
Si Si8 0.472467 0.956154 0.834755
O O1 0.643807 0.250000 0.530963
O O2 0.681857 0.977919 0.431393
O O3 0.749152 0.974245 0.491709
O O4 0.488354 0.980010 0.676777
O O5 0.691673 0.250000 0.136394
O O6 0.776275 0.971586 0.115578
O O7 0.643464 0.980878 0.114295
O O8 0.845806 0.250000 0.593913
O O9 0.715932 0.522799 0.739951
O O10 0.856390 0.528340 0.520854
O O11 0.000000 0.500000 0.500000
O O12 0.327573 0.750000 0.625398
O O13 0.245807 0.027423 0.748119
O O14 0.500000 0.000000 0.500000
O O15 0.435934 0.750000 0.122592
O O16 0.539822 0.481380 0.084823
O O17 0.500000 0.500000 0.000000
O O18 0.820166 0.250000 0.488714
O O19 0.614768 0.050472 0.696095
O O20 0.824339 0.250000 0.135527
O O21 0.000000 0.000000 0.000000
O O22 0.493159 0.750000 0.806771
#
# Coordination Sequence:
#
# PCOD9158500 Si02
#       8
#     4   4   4   4   4   4   4   4
#     4   9  16  27  48  74  96 122 156 201 249 289
#     4   9  17  30  48  71  99 128 159 201 247 291
#     4   9  18  31  49  72  99 131 162 197 237 285
#     4  10  19  31  50  75  99 124 159 204 248 292
#     4  10  20  34  52  76 103 131 164 206 249 289
#     4   8  15  28  44  68  99 127 158 199 242 286
#     4  10  21  35  49  69  99 134 168 203 244 295
#     4   9  16  27  47  73  97 127 162 201 246 291
#
# _framework density 19.118241000000001
#
# number of rings (size 3 to 8) (size 9 to 14) (size 15 to 20)
#    0.000    2.750    1.250    1.500    0.000    4.000 
#    0.000    0.000    2.750    0.000    0.000    0.000 
#    0.000    0.000    0.000    0.000    0.000    0.000 
#
# Total GULP energy -178194.125490 kJ/mol
# GULP energy per Si atom -5568.566422 kJ/mol
# Density = 1.907473 g / cm^3
# Si number density = 19.118241 Si / 1000 Ang^3
#
#
#
# Elastic Constant Matrix: (Units=GPa)
#
#
# Indices 1 2 3 4 5 6 
#
# 1 243.4651 2.7728 76.4442 0.0000 15.4688 0.0000
# 2 2.7728 37.2803 -3.1510 0.0000 3.3616 0.0000
# 3 76.4442 -3.1510 75.7177 0.0000 7.8974 0.0000
# 4 0.0000 0.0000 0.0000 16.2648 0.0000 -3.6414
# 5 15.4688 3.3616 7.8974 0.0000 31.2284 0.0000
# 6 0.0000 0.0000 0.0000 -3.6414 0.0000 17.4560
#
#
#
# Elastic Compliance Matrix: (Units=1/GPa)
#
#
# Indices 1 2 3 4 5 6 
#
# 1 0.006107 -0.000839 -0.006054 0.000000 -0.001404 0.000000
# 2 -0.000839 0.027362 0.002311 0.000000 -0.003114 0.000000
# 3 -0.006054 0.002311 0.019647 0.000000 -0.002218 0.000000
# 4 0.000000 0.000000 0.000000 0.064495 0.000000 0.013454
# 5 -0.001404 -0.003114 -0.002218 0.000000 0.033614 0.000000
# 6 0.000000 0.000000 0.000000 0.013454 0.000000 0.060093
#
#
# Mechanical properties :
#
#
# Convention : Reuss Voigt Hill
#
# Bulk Modulus (GPa) = 22.75266 56.51058 39.63162
# Shear Modulus (GPa) = 21.26453 31.68297 26.47375
#
# Velocity S-wave (km/s) = 3.33868 4.07530 3.72524
# Velocity P-wave (km/s) = 5.17583 7.19491 6.26722
#
# Compressibility (1/GPa) = 0.04395090
#
# Stress axis : x y z
#
# Youngs Moduli (GPa) = 163.74610 36.54655 50.89904
#
# Poissons Ratio (x) = 0.03068 0.30815
# Poissons Ratio (y) = 0.13744 -0.11762
# Poissons Ratio (z) = 0.99134 -0.08446
#
# Static dielectric constant tensor:
#      x y z
#    x 1.740050 0.000000 0.088130 
#    y 0.000000 1.742290 0.000000 
#    z 0.088130 0.000000 2.771000 
# 
# From -- ./inp_files/66423.got.cif
#   From: 2010.05.17/outbox.cif.g08.bks.cpg/sg11_34_cif.got.tgz:66423.got - 2010.06.03 12:22:45.
