data_PCOD9158219
_publ_section_title
;
Structure prediction by ZEFSAII (Michael W. Deem and Ramdas Pophale) SiO2 
 PCOD9158219
Probable space group: P 21/M
;
_chemical_formula_sum "Si O2"
_cell_formula_units_Z 32
_cell_length_a 13.872380
_cell_length_b 8.348589
_cell_length_c 26.792403
_cell_angle_alpha 90.000000
_cell_angle_beta 147.377726
_cell_angle_gamma 90.000000
_cell_volume 1672.798569
_symmetry_space_group_name_H-M "P 21/M"
_symmetry_group_IT_number 11
_symmetry_cell_setting 'monoclinic'
loop_
_space_group_symop_operation_xyz
x,y,z
-x,1/2+y,-z
-x,-y,-z
x,1/2-y,z
loop_
_atom_site_type_symbol
_atom_site_label
_atom_site_fract_x
_atom_site_fract_y
_atom_site_fract_z
Si Si1 0.524133 0.939143 0.885549
Si Si2 0.013180 0.557029 0.448608
Si Si3 0.835280 0.940079 0.220079
Si Si4 0.578091 0.059666 0.606108
Si Si5 0.407268 0.558935 0.624353
Si Si6 0.784253 0.561158 0.606917
Si Si7 0.317862 0.057289 0.946922
Si Si8 0.619532 0.940293 0.275005
O O1 0.547249 0.750000 0.888796
O O2 0.329922 0.971948 0.825870
O O3 0.517420 0.019100 0.828593
O O4 0.667043 0.999973 0.989313
O O5 0.019582 0.750000 0.448198
O O6 0.210396 0.498246 0.519620
O O7 0.000000 0.500000 0.500000
O O8 0.819364 0.505985 0.343700
O O9 0.801952 0.750000 0.210237
O O10 0.830396 0.986274 0.158850
O O11 0.030172 0.978365 0.326100
O O12 0.594295 0.250000 0.606075
O O13 0.389893 0.003468 0.499326
O O14 0.557531 0.018301 0.655090
O O15 0.732735 0.976354 0.641840
O O16 0.413746 0.750000 0.621418
O O17 0.419750 0.517514 0.688396
O O18 0.803562 0.750000 0.607737
O O19 0.319054 0.250000 0.950101
O O20 0.500000 0.000000 0.000000
O O21 0.627388 0.750000 0.285813
#
# Coordination Sequence:
#
# PCOD9158219 Si02
#       8
#     4   4   4   4   4   4   4   4
#     4  10  19  31  47  71 102 133 165 201 239 285
#     4   8  16  28  41  59  85 118 155 193 229 269
#     4  10  19  32  51  73  98 130 164 200 244 292
#     4  10  21  36  52  71  96 128 163 204 247 286
#     4  10  19  32  49  68  92 128 164 201 245 286
#     4  10  21  36  52  74  98 125 162 204 245 289
#     4   8  16  30  47  68  96 128 161 197 239 286
#     4  10  19  31  45  68  97 129 166 201 237 286
#
# _framework density 19.129619000000002
#
# number of rings (size 3 to 8) (size 9 to 14) (size 15 to 20)
#    0.000    2.500    0.000    2.250    1.750    3.500 
#    0.000    0.000    0.000    0.000    0.000    0.875 
#    0.000    0.000    0.000    0.000    0.000    0.000 
#
# Total GULP energy -178297.048061 kJ/mol
# GULP energy per Si atom -5571.782752 kJ/mol
# Density = 1.908608 g / cm^3
# Si number density = 19.129619 Si / 1000 Ang^3
#
#
#
# Elastic Constant Matrix: (Units=GPa)
#
#
# Indices 1 2 3 4 5 6 
#
# 1 57.1673 -7.3753 -5.9224 0.0000 -10.3557 0.0000
# 2 -7.3753 15.0159 -1.4292 0.0000 0.5640 0.0000
# 3 -5.9224 -1.4292 47.8177 0.0000 -18.0223 0.0000
# 4 0.0000 0.0000 0.0000 17.3163 0.0000 -6.3910
# 5 -10.3557 0.5640 -18.0223 0.0000 25.2232 0.0000
# 6 0.0000 0.0000 0.0000 -6.3910 0.0000 21.8447
#
#
#
# Elastic Compliance Matrix: (Units=1/GPa)
#
#
# Indices 1 2 3 4 5 6 
#
# 1 0.022704 0.011425 0.008992 0.000000 0.015491 0.000000
# 2 0.011425 0.072536 0.006487 0.000000 0.007704 0.000000
# 3 0.008992 0.006487 0.032239 0.000000 0.026582 0.000000
# 4 0.000000 0.000000 0.000000 0.064740 0.000000 0.018941
# 5 0.015491 0.007704 0.026582 0.000000 0.064826 0.000000
# 6 0.000000 0.000000 0.000000 0.018941 0.000000 0.051319
#
#
# Mechanical properties :
#
#
# Convention : Reuss Voigt Hill
#
# Bulk Modulus (GPa) = 5.51613 10.06080 7.78846
# Shear Modulus (GPa) = 15.87377 21.85869 18.86623
#
# Velocity S-wave (km/s) = 2.88375 3.38400 3.14384
# Velocity P-wave (km/s) = 3.73869 4.53203 4.15434
#
# Compressibility (1/GPa) = 0.18128663
#
# Stress axis : x y z
#
# Youngs Moduli (GPa) = 44.04474 13.78629 31.01854
#
# Poissons Ratio (x) = -0.15751 -0.27892
# Poissons Ratio (y) = -0.50323 -0.20120
# Poissons Ratio (z) = -0.39605 -0.08943
#
# Static dielectric constant tensor:
#      x y z
#    x 1.681260 0.000000 -0.033030 
#    y 0.000000 1.568010 0.000000 
#    z -0.033030 0.000000 1.714770 
# 
# From -- ./inp_files/71635.got.cif
#   From: 2010.05.17/outbox.cif.g08.bks.cpg/sg11_36_cif.got.tgz:71635.got - 2010.06.03 12:22:45.
