data_PCOD9158151
_publ_section_title
;
Structure prediction by ZEFSAII (Michael W. Deem and Ramdas Pophale) SiO2 
 PCOD9158151
Probable space group: P 21/M
;
_chemical_formula_sum "Si O2"
_cell_formula_units_Z 32
_cell_length_a 21.663002
_cell_length_b 13.392048
_cell_length_c 6.100448
_cell_angle_alpha 90.000000
_cell_angle_beta 110.248393
_cell_angle_gamma 90.000000
_cell_volume 1660.440349
_symmetry_space_group_name_H-M "P 21/M"
_symmetry_group_IT_number 11
_symmetry_cell_setting 'monoclinic'
loop_
_space_group_symop_operation_xyz
x,y,z
-x,1/2+y,-z
-x,-y,-z
x,1/2-y,z
loop_
_atom_site_type_symbol
_atom_site_label
_atom_site_fract_x
_atom_site_fract_y
_atom_site_fract_z
Si Si1 0.812218 0.866472 0.756535
Si Si2 0.721966 0.512452 0.977897
Si Si3 0.162825 0.981839 0.587981
Si Si4 0.486183 0.077056 0.178011
Si Si5 0.634871 0.638501 0.213312
Si Si6 0.065876 0.632970 0.181056
Si Si7 0.604492 0.019762 0.557560
Si Si8 0.932829 0.544685 0.155949
O O1 0.802715 0.750000 0.711292
O O2 0.760455 0.912822 0.863324
O O3 0.809623 0.930440 0.532327
O O4 0.883962 0.888572 0.947970
O O5 0.670298 0.449842 0.768105
O O6 0.778235 0.451904 0.176699
O O7 0.681360 0.578705 0.102156
O O8 0.131412 0.897927 0.394485
O O9 0.103684 0.026867 0.660828
O O10 0.557926 0.098608 0.371303
O O11 0.442887 0.027694 0.316868
O O12 0.435295 0.149128 0.996424
O O13 0.500000 0.000000 0.000000
O O14 0.658923 0.750000 0.297162
O O15 0.624463 0.567910 0.411750
O O16 0.063770 0.750000 0.130585
O O17 0.002811 0.598599 0.246740
O O18 0.061826 0.561971 0.962007
#
# Coordination Sequence:
#
# PCOD9158151 Si02
#       8
#     4   4   4   4   4   4   4   4
#     4  10  20  33  50  75 109 145 178 215 262 316
#     4  10  20  32  48  73 108 144 174 208 250 309
#     4  10  21  35  51  77 109 140 178 218 259 314
#     4   8  16  31  48  68  94 127 166 205 244 289
#     4  10  19  30  49  78 106 132 165 207 255 306
#     4  10  20  36  58  79 102 135 175 221 270 317
#     4   9  17  30  48  69  95 133 171 201 242 295
#     4   9  20  37  54  79 107 134 174 222 270 320
#
# _framework density 19.271996999999999
#
# number of rings (size 3 to 8) (size 9 to 14) (size 15 to 20)
#    0.000    2.500    0.000    1.875    0.000    7.000 
#    0.000    0.000    0.000    0.750    0.000   48.125 
#    0.000    0.000    0.000    0.000    0.000    0.000 
#
# Total GULP energy -178274.228655 kJ/mol
# GULP energy per Si atom -5571.069645 kJ/mol
# Density = 1.922813 g / cm^3
# Si number density = 19.271997 Si / 1000 Ang^3
#
#
#
# Elastic Constant Matrix: (Units=GPa)
#
#
# Indices 1 2 3 4 5 6 
#
# 1 97.0070 28.6390 42.1632 0.0000 -0.0342 0.0000
# 2 28.6390 67.1666 22.4197 0.0000 2.9132 0.0000
# 3 42.1632 22.4197 88.7848 0.0000 7.3993 0.0000
# 4 0.0000 0.0000 0.0000 2.1916 0.0000 1.6388
# 5 -0.0342 2.9132 7.3993 0.0000 60.5860 0.0000
# 6 0.0000 0.0000 0.0000 1.6388 0.0000 6.0500
#
#
#
# Elastic Compliance Matrix: (Units=1/GPa)
#
#
# Indices 1 2 3 4 5 6 
#
# 1 0.013991 -0.004108 -0.005682 0.000000 0.000899 0.000000
# 2 -0.004108 0.017470 -0.002415 0.000000 -0.000547 0.000000
# 3 -0.005682 -0.002415 0.014712 0.000000 -0.001684 0.000000
# 4 0.000000 0.000000 0.000000 0.572196 0.000000 -0.154998
# 5 0.000899 -0.000547 -0.001684 0.000000 0.016738 0.000000
# 6 0.000000 0.000000 0.000000 -0.154998 0.000000 0.207276
#
#
# Mechanical properties :
#
#
# Convention : Reuss Voigt Hill
#
# Bulk Modulus (GPa) = 45.94992 48.82247 47.38620
# Shear Modulus (GPa) = 5.72052 24.41463 15.06757
#
# Velocity S-wave (km/s) = 1.72475 3.56314 2.79917
# Velocity P-wave (km/s) = 5.27835 6.50510 5.92356
#
# Compressibility (1/GPa) = 0.02176282
#
# Stress axis : x y z
#
# Youngs Moduli (GPa) = 71.47311 57.24164 67.97348
#
# Poissons Ratio (x) = 0.23516 0.38622
# Poissons Ratio (y) = 0.29362 0.16415
# Poissons Ratio (z) = 0.40611 0.13823
#
# Static dielectric constant tensor:
#      x y z
#    x 1.699320 0.000000 0.054020 
#    y 0.000000 1.866940 0.000000 
#    z 0.054020 0.000000 1.728510 
# 
# From -- ./inp_files/9419.got.cif
#   From: 2010.05.17/outbox.cif.g08.bks.cpg/sg11_5_cif.got.tgz:9419.got - 2010.06.03 12:22:45.
