data_PCOD9158283
_publ_section_title
;
Structure prediction by ZEFSAII (Michael W. Deem and Ramdas Pophale) SiO2 
 PCOD9158283
Probable space group: P 21/M
;
_chemical_formula_sum "Si O2"
_cell_formula_units_Z 32
_cell_length_a 29.011720
_cell_length_b 8.268792
_cell_length_c 23.623099
_cell_angle_alpha 90.000000
_cell_angle_beta 17.763332
_cell_angle_gamma 90.000000
_cell_volume 1728.918626
_symmetry_space_group_name_H-M "P 21/M"
_symmetry_group_IT_number 11
_symmetry_cell_setting 'monoclinic'
loop_
_space_group_symop_operation_xyz
x,y,z
-x,1/2+y,-z
-x,-y,-z
x,1/2-y,z
loop_
_atom_site_type_symbol
_atom_site_label
_atom_site_fract_x
_atom_site_fract_y
_atom_site_fract_z
Si Si1 0.006557 0.446248 0.853642
Si Si2 0.312366 0.943579 0.557613
Si Si3 0.846215 0.055062 0.149014
Si Si4 0.952814 0.555056 0.438647
Si Si5 0.723941 0.942813 0.895211
Si Si6 0.650837 0.554234 0.855156
Si Si7 0.391439 0.942650 0.852963
Si Si8 0.068421 0.947359 0.184127
O O1 0.009430 0.250000 0.849941
O O2 0.164229 0.504794 0.695539
O O3 0.983173 0.503837 0.817044
O O4 0.871754 0.497811 0.054357
O O5 0.320230 0.750000 0.548753
O O6 0.285099 0.000937 0.654643
O O7 0.460514 0.009515 0.354292
O O8 0.840696 0.250000 0.154982
O O9 0.000000 0.000000 0.000000
O O10 0.948586 0.750000 0.443186
O O11 0.801695 0.496907 0.646060
O O12 0.969140 0.500564 0.354222
O O13 0.107108 0.506514 0.289838
O O14 0.733170 0.750000 0.882220
O O15 0.662136 0.001686 0.907121
O O16 0.620410 0.990798 0.069504
O O17 0.652884 0.750000 0.852839
O O18 0.500000 0.500000 0.000000
O O19 0.384026 0.750000 0.865886
O O20 0.239638 0.997853 0.998110
O O21 0.065638 0.750000 0.186291
#
# Coordination Sequence:
#
# PCOD9158283 Si02
#       8
#     4   4   4   4   4   4   4   4
#     4   9  16  30  51  73  96 129 169 206 246 298
#     4  10  19  31  47  72 102 130 163 208 252 295
#     4   8  15  27  45  67  95 129 164 201 245 293
#     4   9  18  35  55  75  99 133 170 202 241 298
#     4  10  20  35  54  77 101 130 168 210 249 292
#     4  10  22  36  52  77 109 137 167 207 249 289
#     4  10  20  35  53  73  97 131 168 204 248 301
#     4   8  16  31  52  74  96 123 165 210 242 284
#
# _framework density 18.508678
#
# number of rings (size 3 to 8) (size 9 to 14) (size 15 to 20)
#    0.000    2.750    0.000    2.250    0.000    3.000 
#    0.000    5.000    0.000    0.000    0.000    0.000 
#    0.000    0.000    0.000    0.000    0.000    0.000 
#
# Total GULP energy -178331.895078 kJ/mol
# GULP energy per Si atom -5572.871721 kJ/mol
# Density = 1.846655 g / cm^3
# Si number density = 18.508678 Si / 1000 Ang^3
#
#
#
# Elastic Constant Matrix: (Units=GPa)
#
#
# Indices 1 2 3 4 5 6 
#
# 1 -190.2486 33.6089 -164.6471 0.0000 -36.9893 0.0000
# 2 33.6089 7.5074 22.3495 0.0000 9.8659 0.0000
# 3 -164.6471 22.3495 -22.2743 0.0000 -18.5520 0.0000
# 4 0.0000 0.0000 0.0000 8.8732 0.0000 -5.4346
# 5 -36.9893 9.8659 -18.5520 0.0000 6.0229 0.0000
# 6 0.0000 0.0000 0.0000 -5.4346 0.0000 18.6587
#
#
#
# Elastic Compliance Matrix: (Units=1/GPa)
#
#
# Indices 1 2 3 4 5 6 
#
# 1 0.004046 0.013933 -0.004941 0.000000 -0.013193 0.000000
# 2 0.013933 0.085901 0.008170 0.000000 -0.029978 0.000000
# 3 -0.004941 0.008170 0.010166 0.000000 -0.012414 0.000000
# 4 0.000000 0.000000 0.000000 0.137169 0.000000 0.039953
# 5 -0.013193 -0.029978 -0.012414 0.000000 0.095876 0.000000
# 6 0.000000 0.000000 0.000000 0.039953 0.000000 0.065231
#
#
# Mechanical properties :
#
#
# Convention : Reuss Voigt Hill
#
# Bulk Modulus (GPa) = 7.43845 -46.93252 -19.74704
# Shear Modulus (GPa) = 12.22858 0.28916 6.25887
#
# Velocity S-wave (km/s) = 2.57319 0.39569 1.84090
# Velocity P-wave (km/s) = 3.58553 5.02029 2.48468
#
# Compressibility (1/GPa) = 0.13443660
#
# Stress axis : x y z
#
# Youngs Moduli (GPa) = 247.14249 11.64137 98.36595
#
# Poissons Ratio (x) = -0.16220 0.48603
# Poissons Ratio (y) = -3.44339 -0.80366
# Poissons Ratio (z) = 1.22115 -0.09511
#
# Static dielectric constant tensor:
#      x y z
#    x 1.641740 0.000000 0.043330 
#    y 0.000000 1.641780 0.000000 
#    z 0.043330 0.000000 1.633650 
# 
# From -- ./inp_files/67116.got.cif
#   From: 2010.05.17/outbox.cif.g08.bks.cpg/sg11_34_cif.got.tgz:67116.got - 2010.06.03 12:22:45.
