data_PCOD9158184
_publ_section_title
;
Structure prediction by ZEFSAII (Michael W. Deem and Ramdas Pophale) SiO2 
 PCOD9158184
Probable space group: P 21/M
;
_chemical_formula_sum "Si O2"
_cell_formula_units_Z 32
_cell_length_a 29.090095
_cell_length_b 8.294481
_cell_length_c 22.669665
_cell_angle_alpha 90.000000
_cell_angle_beta 161.218989
_cell_angle_gamma 90.000000
_cell_volume 1761.045200
_symmetry_space_group_name_H-M "P 21/M"
_symmetry_group_IT_number 11
_symmetry_cell_setting 'monoclinic'
loop_
_space_group_symop_operation_xyz
x,y,z
-x,1/2+y,-z
-x,-y,-z
x,1/2-y,z
loop_
_atom_site_type_symbol
_atom_site_label
_atom_site_fract_x
_atom_site_fract_y
_atom_site_fract_z
Si Si1 0.663381 0.443537 0.202789
Si Si2 0.454994 0.943655 0.631481
Si Si3 0.837943 0.942214 0.301556
Si Si4 0.399525 0.446667 0.075250
Si Si5 0.697104 0.444377 0.375195
Si Si6 0.592135 0.054758 0.556609
Si Si7 0.833294 0.557597 0.656136
Si Si8 0.081092 0.555480 0.039895
O O1 0.666225 0.250000 0.204521
O O2 0.755082 0.508888 0.260188
O O3 0.719489 0.496769 0.335299
O O4 0.500000 0.500000 0.000000
O O5 0.467072 0.750000 0.644691
O O6 0.566201 0.002600 0.816516
O O7 0.466422 0.002734 0.578274
O O8 0.297662 0.984048 0.465403
O O9 0.839035 0.750000 0.299091
O O10 0.743012 0.003375 0.130762
O O11 0.000000 0.000000 0.500000
O O12 0.396349 0.250000 0.072469
O O13 0.538227 0.492215 0.204564
O O14 0.701343 0.250000 0.382262
O O15 0.807117 0.509357 0.556907
O O16 0.593075 0.250000 0.556487
O O17 0.756030 0.998027 0.762363
O O18 0.500000 0.000000 0.500000
O O19 0.823803 0.750000 0.649945
O O20 0.983029 0.503159 0.865837
O O21 0.085294 0.750000 0.045155
O O22 0.000000 0.500000 0.000000
#
# Coordination Sequence:
#
# PCOD9158184 Si02
#       8
#     4   4   4   4   4   4   4   4
#     4  11  21  36  58  84 112 145 184 230 279 331
#     4   9  17  33  55  76 102 140 179 218 269 325
#     4  11  22  38  56  81 114 149 187 232 280 333
#     4   8  15  31  54  77 103 136 177 223 266 319
#     4   9  18  34  54  78 109 145 181 219 272 329
#     4  10  21  36  54  77 107 143 180 221 267 322
#     4  10  19  30  50  82 112 137 173 226 276 316
#     4  10  20  34  53  79 109 139 175 220 272 320
#
# _framework density 18.171026999999999
#
# number of rings (size 3 to 8) (size 9 to 14) (size 15 to 20)
#    0.000    2.250    2.500    1.875    0.000    2.500 
#    0.000    1.875    0.000    4.500    0.000    0.000 
#    0.000    0.000    0.000    0.000    0.000    0.000 
#
# Total GULP energy -178477.471020 kJ/mol
# GULP energy per Si atom -5577.420969 kJ/mol
# Density = 1.812967 g / cm^3
# Si number density = 18.171027 Si / 1000 Ang^3
#
#
#
# Elastic Constant Matrix: (Units=GPa)
#
#
# Indices 1 2 3 4 5 6 
#
# 1 146.6604 12.3050 100.1332 0.0000 -22.2110 0.0000
# 2 12.3050 8.1415 18.7964 0.0000 -4.6083 0.0000
# 3 100.1332 18.7964 167.3318 0.0000 -23.3708 0.0000
# 4 0.0000 0.0000 0.0000 22.5332 0.0000 0.8265
# 5 -22.2110 -4.6083 -23.3708 0.0000 35.9529 0.0000
# 6 0.0000 0.0000 0.0000 0.8265 0.0000 28.1982
#
#
#
# Elastic Compliance Matrix: (Units=1/GPa)
#
#
# Indices 1 2 3 4 5 6 
#
# 1 0.011818 -0.001116 -0.006541 0.000000 0.002906 0.000000
# 2 -0.001116 0.169316 -0.016956 0.000000 0.009991 0.000000
# 3 -0.006541 -0.016956 0.012018 0.000000 0.001598 0.000000
# 4 0.000000 0.000000 0.000000 0.044427 0.000000 -0.001302
# 5 0.002906 0.009991 0.001598 0.000000 0.031929 0.000000
# 6 0.000000 0.000000 0.000000 -0.001302 0.000000 0.035501
#
#
# Mechanical properties :
#
#
# Convention : Reuss Voigt Hill
#
# Bulk Modulus (GPa) = 6.94800 64.95587 35.95194
# Shear Modulus (GPa) = 12.43133 30.06348 21.24741
#
# Velocity S-wave (km/s) = 2.61842 4.07193 3.42321
# Velocity P-wave (km/s) = 3.60187 7.61131 5.95422
#
# Compressibility (1/GPa) = 0.14392621
#
# Stress axis : x y z
#
# Youngs Moduli (GPa) = 84.61712 5.90613 83.20807
#
# Poissons Ratio (x) = 0.00659 0.54424
# Poissons Ratio (y) = 0.09443 1.41087
# Poissons Ratio (z) = 0.55346 0.10014
#
# Static dielectric constant tensor:
#      x y z
#    x 1.608450 0.000000 -0.046160 
#    y 0.000000 1.633500 0.000000 
#    z -0.046160 0.000000 1.634190 
# 
# From -- ./inp_files/67302.got.cif
#   From: 2010.05.17/outbox.cif.g08.bks.cpg/sg11_34_cif.got.tgz:67302.got - 2010.06.03 12:22:45.
