data_PCOD9158602
_publ_section_title
;
Structure prediction by ZEFSAII (Michael W. Deem and Ramdas Pophale) SiO2 
 PCOD9158602
Probable space group: P 21/M
;
_chemical_formula_sum "Si O2"
_cell_formula_units_Z 28
_cell_length_a 20.179085
_cell_length_b 8.700357
_cell_length_c 15.849744
_cell_angle_alpha 90.000000
_cell_angle_beta 35.760173
_cell_angle_gamma 90.000000
_cell_volume 1626.171555
_symmetry_space_group_name_H-M "P 21/M"
_symmetry_group_IT_number 11
_symmetry_cell_setting 'monoclinic'
loop_
_space_group_symop_operation_xyz
x,y,z
-x,1/2+y,-z
-x,-y,-z
x,1/2-y,z
loop_
_atom_site_type_symbol
_atom_site_label
_atom_site_fract_x
_atom_site_fract_y
_atom_site_fract_z
Si Si1 0.400250 0.064110 0.295790
Si Si2 0.779628 0.066824 0.045167
Si Si3 0.625440 0.433557 0.363292
Si Si4 0.626476 0.934746 0.860869
Si Si5 0.759055 0.565493 0.383581
Si Si6 0.002210 0.566781 0.902583
Si Si7 0.654939 0.934655 0.015600
O O1 0.413773 0.250000 0.284031
O O2 0.339644 0.021453 0.269356
O O3 0.323594 0.019232 0.454304
O O4 0.526153 0.992219 0.166646
O O5 0.795447 0.250000 0.025546
O O6 0.680251 0.034172 0.215714
O O7 0.738842 0.004491 0.997603
O O8 0.892982 0.990586 0.964320
O O9 0.500000 0.500000 0.500000
O O10 0.624010 0.250000 0.376666
O O11 0.702742 0.509515 0.354990
O O12 0.622634 0.750000 0.866442
O O13 0.685640 0.981946 0.887245
O O14 0.500000 0.000000 0.000000
O O15 0.768396 0.750000 0.373819
O O16 0.883174 0.492576 0.259642
O O17 0.002630 0.750000 0.907660
O O18 0.000000 0.500000 0.000000
O O19 0.656322 0.750000 0.019839
#
# Coordination Sequence:
#
# PCOD9158602 Si02
#       7
#     4   4   4   4   4   4   4
#     4   9  18  33  53  79 111 146 179 215 264 321
#     4  11  23  38  55  76 105 142 180 220 265 315
#     4  11  23  36  52  75 107 142 175 215 266 319
#     4   8  15  29  49  75 108 142 177 215 260 315
#     4  11  22  36  56  79 106 140 179 221 265 315
#     4  12  24  40  60  79 102 136 180 225 267 314
#     4  10  19  31  52  82 112 143 178 221 268 314
#
# _framework density 17.218354999999999
#
# number of rings (size 3 to 8) (size 9 to 14) (size 15 to 20)
#    0.000    1.714    1.429    3.857    0.000    6.857 
#    0.000    0.000    0.000    0.857    0.000    0.000 
#    0.000    0.000    0.000    0.000    0.000    0.000 
#
# Total GULP energy -156256.139357 kJ/mol
# GULP energy per Si atom -5580.576406 kJ/mol
# Density = 1.717917 g / cm^3
# Si number density = 17.218355 Si / 1000 Ang^3
#
#
#
# Elastic Constant Matrix: (Units=GPa)
#
#
# Indices 1 2 3 4 5 6 
#
# 1 137.6700 36.0925 22.7842 0.0000 4.8545 0.0000
# 2 36.0925 46.1849 9.9589 0.0000 -2.9291 0.0000
# 3 22.7842 9.9589 14.2921 0.0000 -8.3860 0.0000
# 4 0.0000 0.0000 0.0000 23.8111 0.0000 -4.8138
# 5 4.8545 -2.9291 -8.3860 0.0000 33.5966 0.0000
# 6 0.0000 0.0000 0.0000 -4.8138 0.0000 28.2218
#
#
#
# Elastic Compliance Matrix: (Units=1/GPa)
#
#
# Indices 1 2 3 4 5 6 
#
# 1 0.012329 -0.005813 -0.019855 0.000000 -0.007244 0.000000
# 2 -0.005813 0.028415 -0.010060 0.000000 0.000806 0.000000
# 3 -0.019855 -0.010060 0.128641 0.000000 0.034101 0.000000
# 4 0.000000 0.000000 0.000000 0.043497 0.000000 0.007419
# 5 -0.007244 0.000806 0.034101 0.000000 0.039394 0.000000
# 6 0.000000 0.000000 0.000000 0.007419 0.000000 0.036699
#
#
# Mechanical properties :
#
#
# Convention : Reuss Voigt Hill
#
# Bulk Modulus (GPa) = 10.21146 37.31313 23.76230
# Shear Modulus (GPa) = 12.72025 25.74666 19.23346
#
# Velocity S-wave (km/s) = 2.72096 3.87111 3.34583
# Velocity P-wave (km/s) = 3.97680 6.45742 5.36252
#
# Compressibility (1/GPa) = 0.09792915
#
# Stress axis : x y z
#
# Youngs Moduli (GPa) = 81.10862 35.19244 7.77360
#
# Poissons Ratio (x) = 0.20458 0.15434
# Poissons Ratio (y) = 0.47149 0.07820
# Poissons Ratio (z) = 1.61041 0.35403
#
# Static dielectric constant tensor:
#      x y z
#    x 1.587150 0.000000 0.031100 
#    y 0.000000 1.576080 0.000000 
#    z 0.031100 0.000000 1.568010 
# 
# From -- ./inp_files/53189.got.cif
#   From: 2010.05.17/outbox.cif.g08.bks.cpg/sg11_27_cif.got.tgz:53189.got - 2010.06.03 12:22:45.
