data_PCOD9158371
_publ_section_title
;
Structure prediction by ZEFSAII (Michael W. Deem and Ramdas Pophale) SiO2 
 PCOD9158371
Probable space group: P 21/M
;
_chemical_formula_sum "Si O2"
_cell_formula_units_Z 32
_cell_length_a 25.670010
_cell_length_b 8.024979
_cell_length_c 12.319983
_cell_angle_alpha 90.000000
_cell_angle_beta 134.068842
_cell_angle_gamma 90.000000
_cell_volume 1823.516198
_symmetry_space_group_name_H-M "P 21/M"
_symmetry_group_IT_number 11
_symmetry_cell_setting 'monoclinic'
loop_
_space_group_symop_operation_xyz
x,y,z
-x,1/2+y,-z
-x,-y,-z
x,1/2-y,z
loop_
_atom_site_type_symbol
_atom_site_label
_atom_site_fract_x
_atom_site_fract_y
_atom_site_fract_z
Si Si1 0.926632 0.950806 0.832088
Si Si2 0.795403 0.545625 0.795781
Si Si3 0.125075 0.055353 0.875647
Si Si4 0.038881 0.445247 0.356743
Si Si5 0.420376 0.449924 0.849545
Si Si6 0.678617 0.944159 0.472287
Si Si7 0.155012 0.944764 0.683366
Si Si8 0.270164 0.947120 0.673396
O O1 0.924068 0.750000 0.823675
O O2 0.859044 0.008113 0.805866
O O3 0.930082 0.011412 0.712980
O O4 0.000000 0.000000 0.000000
O O5 0.792893 0.750000 0.790262
O O6 0.719350 0.484075 0.635438
O O7 0.819947 0.495143 0.951384
O O8 0.110624 0.250000 0.876110
O O9 0.155543 0.033475 0.799366
O O10 0.047465 0.966250 0.769954
O O11 0.056178 0.250000 0.391643
O O12 0.077378 0.534838 0.512647
O O13 0.415358 0.250000 0.843707
O O14 0.394510 0.510849 0.691309
O O15 0.354448 0.520895 0.826896
O O16 0.500000 0.500000 0.000000
O O17 0.665772 0.750000 0.475420
O O18 0.733951 0.962556 0.449525
O O19 0.169208 0.750000 0.722841
O O20 0.214062 0.007912 0.681804
O O21 0.258899 0.750000 0.640680
#
# Coordination Sequence:
#
# PCOD9158371 Si02
#       8
#     4   4   4   4   4   4   4   4
#     4  10  19  31  49  69  93 121 155 203 249 300
#     4   9  17  32  49  68  94 124 161 199 245 298
#     4  11  22  35  52  68  92 129 170 216 254 297
#     4  11  22  35  52  71  93 125 167 214 259 305
#     4   9  17  29  51  78 110 137 156 189 230 287
#     4   8  16  30  50  73  99 130 156 189 236 288
#     4  11  23  37  51  68  96 129 168 215 253 296
#     4   9  18  32  50  74 101 129 161 197 242 288
#
# _framework density 17.548514000000001
#
# number of rings (size 3 to 8) (size 9 to 14) (size 15 to 20)
#    0.750    1.500    1.250    2.625    0.000    3.500 
#    0.000    1.875    0.000    0.000    0.000    0.875 
#    0.000    0.000    0.000    0.000    0.000    0.000 
#
# Total GULP energy -178211.547489 kJ/mol
# GULP energy per Si atom -5569.110859 kJ/mol
# Density = 1.750857 g / cm^3
# Si number density = 17.548514 Si / 1000 Ang^3
#
#
#
# Elastic Constant Matrix: (Units=GPa)
#
#
# Indices 1 2 3 4 5 6 
#
# 1 27.7297 -5.7006 34.7874 0.0000 -5.9716 0.0000
# 2 -5.7006 19.5280 -5.5515 0.0000 0.9177 0.0000
# 3 34.7874 -5.5515 145.4635 0.0000 4.0925 0.0000
# 4 0.0000 0.0000 0.0000 13.4354 0.0000 1.6036
# 5 -5.9716 0.9177 4.0925 0.0000 25.7036 0.0000
# 6 0.0000 0.0000 0.0000 1.6036 0.0000 15.8156
#
#
#
# Elastic Compliance Matrix: (Units=1/GPa)
#
#
# Indices 1 2 3 4 5 6 
#
# 1 0.060031 0.012713 -0.014315 0.000000 0.015772 0.000000
# 2 0.012713 0.054584 -0.000990 0.000000 0.001162 0.000000
# 3 -0.014315 -0.000990 0.010399 0.000000 -0.004946 0.000000
# 4 0.000000 0.000000 0.000000 0.075342 0.000000 -0.007639
# 5 0.015772 0.001162 -0.004946 0.000000 0.043315 0.000000
# 6 0.000000 0.000000 0.000000 -0.007639 0.000000 0.064003
#
#
# Mechanical properties :
#
#
# Convention : Reuss Voigt Hill
#
# Bulk Modulus (GPa) = 8.34508 26.64353 17.49431
# Shear Modulus (GPa) = 14.17230 22.26997 18.22114
#
# Velocity S-wave (km/s) = 2.84493 3.56624 3.22581
# Velocity P-wave (km/s) = 3.94426 5.67214 4.88520
#
# Compressibility (1/GPa) = 0.11983108
#
# Stress axis : x y z
#
# Youngs Moduli (GPa) = 16.65815 18.32048 96.16011
#
# Poissons Ratio (x) = -0.23292 1.37651
# Poissons Ratio (y) = -0.21178 0.09520
# Poissons Ratio (z) = 0.23846 0.01814
#
# Static dielectric constant tensor:
#      x y z
#    x 1.589980 0.000000 -0.000330 
#    y 0.000000 1.665540 0.000000 
#    z -0.000330 0.000000 1.634470 
# 
# From -- ./inp_files/43810.got.cif
#   From: 2010.05.17/outbox.cif.g08.bks.cpg/sg11_22_cif.got.tgz:43810.got - 2010.06.03 12:22:45.
