data_PCOD9158604
_publ_section_title
;
Structure prediction by ZEFSAII (Michael W. Deem and Ramdas Pophale) SiO2 
 PCOD9158604
Probable space group: P 21/M
;
_chemical_formula_sum "Si O2"
_cell_formula_units_Z 28
_cell_length_a 14.800118
_cell_length_b 8.396852
_cell_length_c 20.038598
_cell_angle_alpha 90.000000
_cell_angle_beta 33.120444
_cell_angle_gamma 90.000000
_cell_volume 1360.693673
_symmetry_space_group_name_H-M "P 21/M"
_symmetry_group_IT_number 11
_symmetry_cell_setting 'monoclinic'
loop_
_space_group_symop_operation_xyz
x,y,z
-x,1/2+y,-z
-x,-y,-z
x,1/2-y,z
loop_
_atom_site_type_symbol
_atom_site_label
_atom_site_fract_x
_atom_site_fract_y
_atom_site_fract_z
Si Si1 0.106453 0.439943 0.774630
Si Si2 0.379755 0.562950 0.517501
Si Si3 0.289362 0.944537 0.434078
Si Si4 0.733061 0.058494 0.040921
Si Si5 0.606650 0.060396 0.778264
Si Si6 0.816144 0.058151 0.133176
Si Si7 0.940787 0.939975 0.609331
O O1 0.110798 0.250000 0.762881
O O2 0.196896 0.526392 0.658427
O O3 0.207942 0.481732 0.779644
O O4 0.915660 0.491120 0.903299
O O5 0.500000 0.500000 0.500000
O O6 0.407285 0.750000 0.496157
O O7 0.389103 0.495233 0.436626
O O8 0.297892 0.750000 0.428127
O O9 0.349658 0.999601 0.324098
O O10 0.094614 0.987822 0.560850
O O11 0.732691 0.250000 0.041204
O O12 0.714494 0.006927 0.130401
O O13 0.578832 0.997284 0.094118
O O14 0.609519 0.250000 0.775335
O O15 0.755897 0.003951 0.733165
O O16 0.810725 0.250000 0.142283
O O17 0.000000 0.000000 0.000000
O O18 0.933477 0.750000 0.612950
O O19 0.000000 0.000000 0.500000
#
# Coordination Sequence:
#
# PCOD9158604 Si02
#       7
#     4   4   4   4   4   4   4
#     4  10  21  37  53  72 103 141 181 224 268 312
#     4  11  23  39  56  77 105 141 184 223 261 313
#     4   8  18  35  53  75 105 140 173 212 265 314
#     4   9  19  33  50  75 105 136 172 216 266 315
#     4  10  19  31  52  83 111 137 169 212 268 323
#     4   9  17  30  48  72  99 133 174 215 262 311
#     4   9  16  31  53  77 105 137 171 213 266 318
#
# _framework density 20.577739999999999
#
# number of rings (size 3 to 8) (size 9 to 14) (size 15 to 20)
#    0.000    2.571    0.000    3.857    2.000    3.429 
#    0.000    7.857    0.000    0.857    0.000    0.000 
#    0.000    0.000    0.000    0.000    0.000    0.000 
#
# Total GULP energy -156101.711444 kJ/mol
# GULP energy per Si atom -5575.061123 kJ/mol
# Density = 2.053090 g / cm^3
# Si number density = 20.577740 Si / 1000 Ang^3
#
#
#
# Elastic Constant Matrix: (Units=GPa)
#
#
# Indices 1 2 3 4 5 6 
#
# 1 66.6988 8.1343 17.9531 0.0000 -23.3477 0.0000
# 2 8.1343 21.3838 -1.2893 0.0000 -8.1124 0.0000
# 3 17.9531 -1.2893 55.7109 0.0000 -21.7643 0.0000
# 4 0.0000 0.0000 0.0000 24.9372 0.0000 -7.9015
# 5 -23.3477 -8.1124 -21.7643 0.0000 39.7745 0.0000
# 6 0.0000 0.0000 0.0000 -7.9015 0.0000 21.0085
#
#
#
# Elastic Compliance Matrix: (Units=1/GPa)
#
#
# Indices 1 2 3 4 5 6 
#
# 1 0.019411 -0.004141 -0.002836 0.000000 0.008998 0.000000
# 2 -0.004141 0.053570 0.007495 0.000000 0.012597 0.000000
# 3 -0.002836 0.007495 0.024146 0.000000 0.013076 0.000000
# 4 0.000000 0.000000 0.000000 0.045526 0.000000 0.017123
# 5 0.008998 0.012597 0.013076 0.000000 0.040148 0.000000
# 6 0.000000 0.000000 0.000000 0.017123 0.000000 0.054040
#
#
# Mechanical properties :
#
#
# Convention : Reuss Voigt Hill
#
# Bulk Modulus (GPa) = 10.18712 21.48774 15.83743
# Shear Modulus (GPa) = 18.62021 25.07707 21.84864
#
# Velocity S-wave (km/s) = 3.01137 3.49470 3.26200
# Velocity P-wave (km/s) = 4.12946 5.17193 4.67981
#
# Compressibility (1/GPa) = 0.09816315
#
# Stress axis : x y z
#
# Youngs Moduli (GPa) = 51.51769 18.66700 41.41527
#
# Poissons Ratio (x) = 0.07731 0.11745
# Poissons Ratio (y) = 0.21335 -0.31043
# Poissons Ratio (z) = 0.14610 -0.13992
#
# Static dielectric constant tensor:
#      x y z
#    x 1.780930 0.000000 -0.020110 
#    y 0.000000 1.691840 0.000000 
#    z -0.020110 0.000000 1.750140 
# 
# From -- ./inp_files/65357.got.cif
#   From: 2010.05.17/outbox.cif.g08.bks.cpg/sg11_33_cif.got.tgz:65357.got - 2010.06.03 12:22:45.
