data_PCOD9158481
_publ_section_title
;
Structure prediction by ZEFSAII (Michael W. Deem and Ramdas Pophale) SiO2 
 PCOD9158481
Probable space group: P 21/M
;
_chemical_formula_sum "Si O2"
_cell_formula_units_Z 28
_cell_length_a 22.486639
_cell_length_b 7.390909
_cell_length_c 24.928290
_cell_angle_alpha 90.000000
_cell_angle_beta 162.151753
_cell_angle_gamma 90.000000
_cell_volume 1269.816762
_symmetry_space_group_name_H-M "P 21/M"
_symmetry_group_IT_number 11
_symmetry_cell_setting 'monoclinic'
loop_
_space_group_symop_operation_xyz
x,y,z
-x,1/2+y,-z
-x,-y,-z
x,1/2-y,z
loop_
_atom_site_type_symbol
_atom_site_label
_atom_site_fract_x
_atom_site_fract_y
_atom_site_fract_z
Si Si1 0.162610 0.956090 0.808648
Si Si2 0.042441 0.533478 0.973876
Si Si3 0.526247 0.471496 0.679486
Si Si4 0.275623 0.036155 0.791302
Si Si5 0.594324 0.971501 0.208248
Si Si6 0.261845 0.028382 0.551149
Si Si7 0.342337 0.466318 0.410808
O O1 0.166047 0.750000 0.831494
O O2 0.956821 0.035596 0.649185
O O3 0.157812 0.953769 0.739357
O O4 0.371520 0.033263 0.005836
O O5 0.046450 0.750000 0.970949
O O6 0.863577 0.461576 0.785777
O O7 0.000000 0.500000 0.000000
O O8 0.252135 0.466690 0.135633
O O9 0.527945 0.250000 0.680780
O O10 0.413831 0.526934 0.636307
O O11 0.415623 0.532732 0.530950
O O12 0.239233 0.250000 0.761257
O O13 0.268558 0.970911 0.723817
O O14 0.500000 0.000000 0.000000
O O15 0.591478 0.750000 0.203502
O O16 0.670060 0.027305 0.331142
O O17 0.256041 0.250000 0.546768
O O18 0.500000 0.500000 0.500000
O O19 0.324838 0.250000 0.400755
#
# Coordination Sequence:
#
# PCOD9158481 Si02
#       7
#     4   4   4   4   4   4   4
#     4   9  17  29  47  70  94 123 160 197 239 286
#     4  10  19  31  50  74  98 125 156 195 241 288
#     4   9  18  31  46  70 100 124 159 203 239 284
#     4   9  16  28  47  71  97 124 158 201 243 283
#     4   8  15  27  43  66  94 121 155 196 236 277
#     4   9  17  29  46  68  96 128 158 196 239 281
#     4  10  19  31  50  75  99 125 158 196 243 292
#
# _framework density 22.050425000000001
#
# number of rings (size 3 to 8) (size 9 to 14) (size 15 to 20)
#    0.000    2.857    1.429    1.286    0.000    1.714 
#    0.000    5.714    0.000    5.143    0.000    4.000 
#    0.000    0.000    0.000    0.000    0.000    0.000 
#
# Total GULP energy -156291.933007 kJ/mol
# GULP energy per Si atom -5581.854750 kJ/mol
# Density = 2.200024 g / cm^3
# Si number density = 22.050425 Si / 1000 Ang^3
#
#
#
# Elastic Constant Matrix: (Units=GPa)
#
#
# Indices 1 2 3 4 5 6 
#
# 1 70.6187 -10.4946 29.1728 0.0000 7.2007 0.0000
# 2 -10.4946 79.9639 1.6762 0.0000 -1.2178 0.0000
# 3 29.1728 1.6762 125.8578 0.0000 10.2808 0.0000
# 4 0.0000 0.0000 0.0000 -0.5940 0.0000 0.2502
# 5 7.2007 -1.2178 10.2808 0.0000 41.1753 0.0000
# 6 0.0000 0.0000 0.0000 0.2502 0.0000 16.2784
#
#
#
# Elastic Compliance Matrix: (Units=1/GPa)
#
#
# Indices 1 2 3 4 5 6 
#
# 1 0.016170 0.002170 -0.003625 0.000000 -0.001858 0.000000
# 2 0.002170 0.012807 -0.000688 0.000000 0.000171 0.000000
# 3 -0.003625 -0.000688 0.008927 0.000000 -0.001615 0.000000
# 4 0.000000 0.000000 0.000000 -1.672600 0.000000 0.025708
# 5 -0.001858 0.000171 -0.001615 0.000000 0.025020 0.000000
# 6 0.000000 0.000000 0.000000 0.025708 0.000000 0.061036
#
#
# Mechanical properties :
#
#
# Convention : Reuss Voigt Hill
#
# Bulk Modulus (GPa) = 29.74527 35.23881 32.49204
# Shear Modulus (GPa) = -3.26126 28.44434 12.59154
#
# Velocity S-wave (km/s) = -1.21746 3.59551 2.39222
# Velocity P-wave (km/s) = 3.39745 5.76651 4.73261
#
# Compressibility (1/GPa) = 0.03361879
#
# Stress axis : x y z
#
# Youngs Moduli (GPa) = 61.84252 78.07962 112.02147
#
# Poissons Ratio (x) = -0.16942 0.40610
# Poissons Ratio (y) = -0.13419 0.07702
# Poissons Ratio (z) = 0.22419 0.05368
#
# Static dielectric constant tensor:
#      x y z
#    x 1.762520 0.000000 -0.002430 
#    y 0.000000 1.875620 0.000000 
#    z -0.002430 0.000000 1.801330 
# 
# From -- ./inp_files/66734.got.cif
#   From: 2010.05.17/outbox.cif.g08.bks.cpg/sg11_34_cif.got.tgz:66734.got - 2010.06.03 12:22:45.
