data_PCOD9158068
_publ_section_title
;
Structure prediction by ZEFSAII (Michael W. Deem and Ramdas Pophale) SiO2 
 PCOD9158068
Probable space group: P 21/M
;
_chemical_formula_sum "Si O2"
_cell_formula_units_Z 32
_cell_length_a 29.045226
_cell_length_b 8.594952
_cell_length_c 21.378201
_cell_angle_alpha 90.000000
_cell_angle_beta 159.228396
_cell_angle_gamma 90.000000
_cell_volume 1892.698848
_symmetry_space_group_name_H-M "P 21/M"
_symmetry_group_IT_number 11
_symmetry_cell_setting 'monoclinic'
loop_
_space_group_symop_operation_xyz
x,y,z
-x,1/2+y,-z
-x,-y,-z
x,1/2-y,z
loop_
_atom_site_type_symbol
_atom_site_label
_atom_site_fract_x
_atom_site_fract_y
_atom_site_fract_z
Si Si1 0.208842 0.436229 0.270715
Si Si2 0.386487 0.436389 0.899380
Si Si3 0.634487 0.936021 0.983984
Si Si4 0.020705 0.061870 0.932899
Si Si5 0.158206 0.937505 0.402830
Si Si6 0.924300 0.435240 0.342991
Si Si7 0.871868 0.436836 0.491689
Si Si8 0.386106 0.436949 0.603044
O O1 0.219978 0.250000 0.282498
O O2 0.333740 0.492543 0.468266
O O3 0.089665 0.483546 0.164453
O O4 0.158878 0.487147 0.138446
O O5 0.380247 0.250000 0.886611
O O6 0.408715 0.477185 0.000086
O O7 0.251358 0.507762 0.704798
O O8 0.500000 0.500000 0.000000
O O9 0.642510 0.750000 0.990167
O O10 0.776972 0.005518 0.155125
O O11 0.525362 0.997470 0.798536
O O12 0.011324 0.250000 0.927627
O O13 0.973982 0.025119 0.803518
O O14 0.175024 0.750000 0.423217
O O15 0.148587 0.987253 0.462433
O O16 0.279302 0.008585 0.518691
O O17 0.926920 0.250000 0.349506
O O18 0.000000 0.500000 0.500000
O O19 0.001718 0.493541 0.380575
O O20 0.879398 0.250000 0.499932
O O21 0.390025 0.250000 0.608581
#
# Coordination Sequence:
#
# PCOD9158068 Si02
#       8
#     4   4   4   4   4   4   4   4
#     4   8  14  24  40  65  97 132 167 202 241 288
#     4  11  23  36  52  73 100 132 167 203 247 301
#     4  11  23  38  54  73  98 131 169 207 250 297
#     4   8  13  24  42  64  95 133 169 201 237 287
#     4   9  18  31  48  73 104 138 171 204 246 297
#     4  12  24  40  60  78  96 124 164 210 256 298
#     4  11  22  36  54  75 101 131 167 208 251 297
#     4  10  19  30  47  74 106 137 169 207 252 297
#
# _framework density 16.907074000000001
#
# number of rings (size 3 to 8) (size 9 to 14) (size 15 to 20)
#    0.000    2.000    1.250    3.375    0.000    6.000 
#    0.000    0.000    0.000    0.000    0.000    0.875 
#    0.000    0.000    0.000    0.000    0.000    0.000 
#
# Total GULP energy -178389.589560 kJ/mol
# GULP energy per Si atom -5574.674674 kJ/mol
# Density = 1.686859 g / cm^3
# Si number density = 16.907074 Si / 1000 Ang^3
#
#
#
# Elastic Constant Matrix: (Units=GPa)
#
#
# Indices 1 2 3 4 5 6 
#
# 1 13.5248 9.3850 33.5399 0.0000 -1.6318 0.0000
# 2 9.3850 33.2474 30.9900 0.0000 1.1814 0.0000
# 3 33.5399 30.9900 141.2565 0.0000 -16.4130 0.0000
# 4 0.0000 0.0000 0.0000 25.1946 0.0000 3.6175
# 5 -1.6318 1.1814 -16.4130 0.0000 33.0971 0.0000
# 6 0.0000 0.0000 0.0000 3.6175 0.0000 18.9508
#
#
#
# Elastic Compliance Matrix: (Units=1/GPa)
#
#
# Indices 1 2 3 4 5 6 
#
# 1 0.189146 -0.012353 -0.043577 0.000000 -0.011843 0.000000
# 2 -0.012353 0.039694 -0.006378 0.000000 -0.005189 0.000000
# 3 -0.043577 -0.006378 0.019740 0.000000 0.007868 0.000000
# 4 0.000000 0.000000 0.000000 0.040810 0.000000 -0.007790
# 5 -0.011843 -0.005189 0.007868 0.000000 0.033717 0.000000
# 6 0.000000 0.000000 0.000000 -0.007790 0.000000 0.054255
#
#
# Mechanical properties :
#
#
# Convention : Reuss Voigt Hill
#
# Bulk Modulus (GPa) = 8.06686 37.31760 22.69223
# Shear Modulus (GPa) = 9.20305 23.05610 16.12958
#
# Velocity S-wave (km/s) = 2.33562 3.69683 3.09206
# Velocity P-wave (km/s) = 3.47205 6.35155 5.11846
#
# Compressibility (1/GPa) = 0.12396400
#
# Stress axis : x y z
#
# Youngs Moduli (GPa) = 5.28693 25.19271 50.65930
#
# Poissons Ratio (x) = 0.31120 2.20757
# Poissons Ratio (y) = 0.06531 0.32312
# Poissons Ratio (z) = 0.23039 0.16069
#
# Static dielectric constant tensor:
#      x y z
#    x 1.565130 0.000000 -0.045360 
#    y 0.000000 1.568950 0.000000 
#    z -0.045360 0.000000 1.591050 
# 
# From -- ./inp_files/67304.got.cif
#   From: 2010.05.17/outbox.cif.g08.bks.cpg/sg11_34_cif.got.tgz:67304.got - 2010.06.03 12:22:45.
