data_PCOD9158718
_publ_section_title
;
Structure prediction by ZEFSAII (Michael W. Deem and Ramdas Pophale) SiO2 
 PCOD9158718
Probable space group: P 21/M
;
_chemical_formula_sum "Si O2"
_cell_formula_units_Z 20
_cell_length_a 28.768858
_cell_length_b 8.743587
_cell_length_c 9.887954
_cell_angle_alpha 90.000000
_cell_angle_beta 26.942345
_cell_angle_gamma 90.000000
_cell_volume 1126.955319
_symmetry_space_group_name_H-M "P 21/M"
_symmetry_group_IT_number 11
_symmetry_cell_setting 'monoclinic'
loop_
_space_group_symop_operation_xyz
x,y,z
-x,1/2+y,-z
-x,-y,-z
x,1/2-y,z
loop_
_atom_site_type_symbol
_atom_site_label
_atom_site_fract_x
_atom_site_fract_y
_atom_site_fract_z
Si Si1 0.671178 0.565160 0.326193
Si Si2 0.435941 0.566033 0.927238
Si Si3 0.889090 0.566706 0.255526
Si Si4 0.704232 0.933926 0.933058
Si Si5 0.747820 0.433156 0.397883
O O1 0.675791 0.750000 0.323906
O O2 0.552173 0.516541 0.651841
O O3 0.737821 0.493640 0.272387
O O4 0.704493 0.519812 0.088649
O O5 0.435724 0.750000 0.920945
O O6 0.390322 0.502788 0.905697
O O7 0.355916 0.519126 0.251702
O O8 0.893388 0.750000 0.238455
O O9 0.807198 0.522618 0.584921
O O10 0.841416 0.502284 0.240439
O O11 0.000000 0.500000 0.000000
O O12 0.695109 0.750000 0.952339
O O13 0.753894 0.250000 0.384319
#
# Coordination Sequence:
#
# PCOD9158718 Si02
#       5
#     4   4   4   4   4
#     4  10  19  32  49  74 107 138 165 201 245 289
#     4   9  18  31  49  73 104 139 172 201 236 286
#     4  10  20  37  58  76  95 125 164 209 255 301
#     4   9  19  33  51  75 102 131 167 206 247 294
#     4  10  20  33  50  76 104 133 169 205 241 290
#
# _framework density 17.746932000000001
#
# number of rings (size 3 to 8) (size 9 to 14) (size 15 to 20)
#    0.000    2.400    0.000    2.400    0.000    3.200 
#    0.000    1.000    0.000    0.000    0.000    0.000 
#    0.000    0.000    0.000    0.000    0.000    0.000 
#
# Total GULP energy -111628.350329 kJ/mol
# GULP energy per Si atom -5581.417516 kJ/mol
# Density = 1.770654 g / cm^3
# Si number density = 17.746932 Si / 1000 Ang^3
#
#
#
# Elastic Constant Matrix: (Units=GPa)
#
#
# Indices 1 2 3 4 5 6 
#
# 1 161.6145 31.9044 50.4542 0.0000 -0.0872 0.0000
# 2 31.9044 19.9705 14.1769 0.0000 -3.8849 0.0000
# 3 50.4542 14.1769 35.1271 0.0000 -15.4047 0.0000
# 4 0.0000 0.0000 0.0000 19.0741 0.0000 -2.0369
# 5 -0.0872 -3.8849 -15.4047 0.0000 31.8177 0.0000
# 6 0.0000 0.0000 0.0000 -2.0369 0.0000 34.4887
#
#
#
# Elastic Compliance Matrix: (Units=1/GPa)
#
#
# Indices 1 2 3 4 5 6 
#
# 1 0.015786 -0.010677 -0.024017 0.000000 -0.012889 0.000000
# 2 -0.010677 0.078489 -0.015426 0.000000 0.002085 0.000000
# 3 -0.024017 -0.015426 0.086756 0.000000 0.040054 0.000000
# 4 0.000000 0.000000 0.000000 0.052760 0.000000 0.003116
# 5 -0.012889 0.002085 0.040054 0.000000 0.051041 0.000000
# 6 0.000000 0.000000 0.000000 0.003116 0.000000 0.029179
#
#
# Mechanical properties :
#
#
# Convention : Reuss Voigt Hill
#
# Bulk Modulus (GPa) = 12.37792 45.53145 28.95468
# Shear Modulus (GPa) = 11.33315 25.08786 18.21051
#
# Velocity S-wave (km/s) = 2.52979 3.76393 3.20679
# Velocity P-wave (km/s) = 3.93992 6.67841 5.48289
#
# Compressibility (1/GPa) = 0.08078904
#
# Stress axis : x y z
#
# Youngs Moduli (GPa) = 63.34569 12.74069 11.52652
#
# Poissons Ratio (x) = 0.13604 0.27684
# Poissons Ratio (y) = 0.67637 0.17781
# Poissons Ratio (z) = 1.52140 0.19654
#
# Static dielectric constant tensor:
#      x y z
#    x 1.576340 0.000000 0.016030 
#    y 0.000000 1.640400 0.000000 
#    z 0.016030 0.000000 1.611900 
# 
# From -- ./inp_files/15937.got.cif
#   From: 2010.05.17/outbox.cif.g08.bks.cpg/sg11_8_cif.got.tgz:15937.got - 2010.06.03 12:22:45.
