data_PCOD9158672
_publ_section_title
;
Structure prediction by ZEFSAII (Michael W. Deem and Ramdas Pophale) SiO2 
 PCOD9158672
Probable space group: P 21/M
;
_chemical_formula_sum "Si O2"
_cell_formula_units_Z 28
_cell_length_a 9.818390
_cell_length_b 8.493431
_cell_length_c 18.882883
_cell_angle_alpha 90.000000
_cell_angle_beta 95.642878
_cell_angle_gamma 90.000000
_cell_volume 1567.047201
_symmetry_space_group_name_H-M "P 21/M"
_symmetry_group_IT_number 11
_symmetry_cell_setting 'monoclinic'
loop_
_space_group_symop_operation_xyz
x,y,z
-x,1/2+y,-z
-x,-y,-z
x,1/2-y,z
loop_
_atom_site_type_symbol
_atom_site_label
_atom_site_fract_x
_atom_site_fract_y
_atom_site_fract_z
Si Si1 0.899337 0.438971 0.432947
Si Si2 0.984967 0.433874 0.078033
Si Si3 0.702656 0.565985 0.057479
Si Si4 0.426166 0.438882 0.100305
Si Si5 0.344153 0.438852 0.494753
Si Si6 0.853772 0.558251 0.644800
Si Si7 0.208143 0.057597 0.200555
O O1 0.890945 0.250000 0.434731
O O2 0.749291 0.505693 0.443336
O O3 0.000000 0.500000 0.500000
O O4 0.990123 0.485171 0.368942
O O5 0.013906 0.250000 0.074547
O O6 0.829384 0.466313 0.090968
O O7 0.088164 0.499137 0.142019
O O8 0.000000 0.500000 0.000000
O O9 0.736416 0.750000 0.062508
O O10 0.566669 0.527500 0.093860
O O11 0.668409 0.527463 0.973427
O O12 0.449520 0.250000 0.100797
O O13 0.348325 0.483690 0.167787
O O14 0.500000 0.500000 0.500000
O O15 0.347506 0.250000 0.495065
O O16 0.255680 0.491612 0.420985
O O17 0.850581 0.750000 0.644310
O O18 0.811888 0.502447 0.720465
O O19 0.203461 0.250000 0.202257
#
# Coordination Sequence:
#
# PCOD9158672 Si02
#       7
#     4   4   4   4   4   4   4
#     4   9  16  29  51  77 103 133 168 205 245 294
#     4  11  20  32  51  74  98 127 164 209 254 296
#     4  10  19  32  48  71  97 125 164 209 252 298
#     4   9  17  31  50  71  93 126 164 205 253 296
#     4  10  19  32  53  80 105 134 169 208 250 295
#     4   8  16  31  52  76 100 129 168 210 247 292
#     4   9  17  32  52  74  99 127 168 214 252 293
#
# _framework density 17.868001
#
# number of rings (size 3 to 8) (size 9 to 14) (size 15 to 20)
#    0.000    2.571    1.429    2.571    0.000    0.571 
#    0.000    1.429    0.000   24.000    0.000    0.000 
#    0.000    0.000    0.000    0.000    0.000    0.000 
#
# Total GULP energy -155980.275045 kJ/mol
# GULP energy per Si atom -5570.724109 kJ/mol
# Density = 1.782733 g / cm^3
# Si number density = 17.868001 Si / 1000 Ang^3
#
#
#
# Elastic Constant Matrix: (Units=GPa)
#
#
# Indices 1 2 3 4 5 6 
#
# 1 113.2832 18.8569 53.2478 0.0000 -21.4762 0.0000
# 2 18.8569 22.6564 14.9755 0.0000 -3.7727 0.0000
# 3 53.2478 14.9755 106.7561 0.0000 -28.0699 0.0000
# 4 0.0000 0.0000 0.0000 15.4810 0.0000 -3.8809
# 5 -21.4762 -3.7727 -28.0699 0.0000 28.7811 0.0000
# 6 0.0000 0.0000 0.0000 -3.8809 0.0000 29.8561
#
#
#
# Elastic Compliance Matrix: (Units=1/GPa)
#
#
# Indices 1 2 3 4 5 6 
#
# 1 0.012863 -0.007163 -0.004215 0.000000 0.004549 0.000000
# 2 -0.007163 0.052640 -0.004576 0.000000 -0.002908 0.000000
# 3 -0.004215 -0.004576 0.014964 0.000000 0.010849 0.000000
# 4 0.000000 0.000000 0.000000 0.066771 0.000000 0.008679
# 5 0.004549 -0.002908 0.010849 0.000000 0.048339 0.000000
# 6 0.000000 0.000000 0.000000 0.008679 0.000000 0.034622
#
#
# Mechanical properties :
#
#
# Convention : Reuss Voigt Hill
#
# Bulk Modulus (GPa) = 20.59336 46.31736 33.45536
# Shear Modulus (GPa) = 17.96662 25.19801 21.58231
#
# Velocity S-wave (km/s) = 3.17443 3.75938 3.47922
# Velocity P-wave (km/s) = 4.99863 6.69493 5.90798
#
# Compressibility (1/GPa) = 0.04855933
#
# Stress axis : x y z
#
# Youngs Moduli (GPa) = 77.74015 18.99708 66.82616
#
# Poissons Ratio (x) = 0.13607 0.28169
# Poissons Ratio (y) = 0.55682 0.30580
# Poissons Ratio (z) = 0.32770 0.08693
#
# Static dielectric constant tensor:
#      x y z
#    x 1.637880 0.000000 -0.012720 
#    y 0.000000 1.626730 0.000000 
#    z -0.012720 0.000000 1.636680 
# 
# From -- ./inp_files/63072.got.cif
#   From: 2010.05.17/outbox.cif.g08.bks.cpg/sg11_32_cif.got.tgz:63072.got - 2010.06.03 12:22:45.
