data_PCOD9158757
_publ_section_title
;
Structure prediction by ZEFSAII (Michael W. Deem and Ramdas Pophale) SiO2 
 PCOD9158757
Probable space group: P 21/M
;
_chemical_formula_sum "Si O2"
_cell_formula_units_Z 28
_cell_length_a 24.306892
_cell_length_b 7.738001
_cell_length_c 21.836797
_cell_angle_alpha 90.000000
_cell_angle_beta 17.352857
_cell_angle_gamma 90.000000
_cell_volume 1224.998823
_symmetry_space_group_name_H-M "P 21/M"
_symmetry_group_IT_number 11
_symmetry_cell_setting 'monoclinic'
loop_
_space_group_symop_operation_xyz
x,y,z
-x,1/2+y,-z
-x,-y,-z
x,1/2-y,z
loop_
_atom_site_type_symbol
_atom_site_label
_atom_site_fract_x
_atom_site_fract_y
_atom_site_fract_z
Si Si1 0.361105 0.044349 0.968582
Si Si2 0.418019 0.451560 0.777110
Si Si3 0.406820 0.052525 0.162150
Si Si4 0.987748 0.538715 0.212706
Si Si5 0.012945 0.440112 0.915974
Si Si6 0.394856 0.458373 0.673375
Si Si7 0.933824 0.959783 0.403474
O O1 0.392214 0.250000 0.937671
O O2 0.446784 0.971170 0.813766
O O3 0.141442 0.014378 0.198828
O O4 0.450425 0.964996 0.933691
O O5 0.465275 0.250000 0.731126
O O6 0.493979 0.515283 0.631093
O O7 0.196139 0.470089 0.002125
O O8 0.357543 0.250000 0.204948
O O9 0.217589 0.969302 0.388415
O O10 0.500000 0.000000 0.000000
O O11 0.993605 0.750000 0.203407
O O12 0.888194 0.487909 0.381614
O O13 0.911477 0.474811 0.227717
O O14 0.094847 0.250000 0.832590
O O15 0.797319 0.443345 0.127555
O O16 0.000000 0.500000 0.000000
O O17 0.500000 0.500000 0.500000
O O18 0.364155 0.250000 0.709038
O O19 0.932857 0.750000 0.404338
#
# Coordination Sequence:
#
# PCOD9158757 Si02
#       7
#     4   4   4   4   4   4   4
#     4  10  20  37  62  89 117 150 190 235 288 347
#     4   8  16  31  52  76 105 139 179 225 275 331
#     4  11  24  41  61  87 121 155 190 236 285 341
#     4   8  15  30  53  76 101 135 180 228 273 326
#     4  10  19  32  50  73 105 141 180 226 278 334
#     4  10  19  33  51  73 105 142 183 228 277 331
#     4   9  19  38  62  86 113 148 193 238 284 338
#
# _framework density 22.857165999999999
#
# number of rings (size 3 to 8) (size 9 to 14) (size 15 to 20)
#    0.000    2.571    0.000    1.714    0.000    3.429 
#    2.571    0.000    0.000    0.000    0.000    0.000 
#    0.000    0.000    0.000    0.000    0.000    0.000 
#
# Total GULP energy -155999.994994 kJ/mol
# GULP energy per Si atom -5571.428393 kJ/mol
# Density = 2.280514 g / cm^3
# Si number density = 22.857166 Si / 1000 Ang^3
#
#
#
# Elastic Constant Matrix: (Units=GPa)
#
#
# Indices 1 2 3 4 5 6 
#
# 1 104.8735 -17.1084 6.8353 0.0000 32.0549 0.0000
# 2 -17.1084 49.5853 -9.6087 0.0000 10.8265 0.0000
# 3 6.8353 -9.6087 48.1936 0.0000 15.3304 0.0000
# 4 0.0000 0.0000 0.0000 17.2413 0.0000 1.0267
# 5 32.0549 10.8265 15.3304 0.0000 46.9435 0.0000
# 6 0.0000 0.0000 0.0000 1.0267 0.0000 -5.3949
#
#
#
# Elastic Compliance Matrix: (Units=1/GPa)
#
#
# Indices 1 2 3 4 5 6 
#
# 1 0.014823 0.008809 0.003928 0.000000 -0.013436 0.000000
# 2 0.008809 0.028444 0.009398 0.000000 -0.015645 0.000000
# 3 0.003928 0.009398 0.026346 0.000000 -0.013454 0.000000
# 4 0.000000 0.000000 0.000000 0.057350 0.000000 0.010914
# 5 -0.013436 -0.015645 -0.013454 0.000000 0.038479 0.000000
# 6 0.000000 0.000000 0.000000 0.010914 0.000000 -0.183282
#
#
# Mechanical properties :
#
#
# Convention : Reuss Voigt Hill
#
# Bulk Modulus (GPa) = 8.78083 18.09875 13.43979
# Shear Modulus (GPa) = -207.04431 26.59357 -90.22537
#
# Velocity S-wave (km/s) = -9.52777 3.41466 -6.28961
# Velocity P-wave (km/s) = 10.82534 4.84582 6.84493
#
# Compressibility (1/GPa) = 0.11388450
#
# Stress axis : x y z
#
# Youngs Moduli (GPa) = 67.46137 35.15701 37.95656
#
# Poissons Ratio (x) = -0.30971 -0.14910
# Poissons Ratio (y) = -0.59430 -0.35672
# Poissons Ratio (z) = -0.26500 -0.33041
#
# Static dielectric constant tensor:
#      x y z
#    x 1.910980 0.000000 0.076160 
#    y 0.000000 1.872800 0.000000 
#    z 0.076160 0.000000 1.940620 
# 
# From -- ./inp_files/66673.got.cif
#   From: 2010.05.17/outbox.cif.g08.bks.cpg/sg11_34_cif.got.tgz:66673.got - 2010.06.03 12:22:45.
