data_PCOD9158662
_publ_section_title
;
Structure prediction by ZEFSAII (Michael W. Deem and Ramdas Pophale) SiO2 
 PCOD9158662
Probable space group: P 21/M
;
_chemical_formula_sum "Si O2"
_cell_formula_units_Z 32
_cell_length_a 19.133320
_cell_length_b 13.735888
_cell_length_c 22.402369
_cell_angle_alpha 90.000000
_cell_angle_beta 162.311295
_cell_angle_gamma 90.000000
_cell_volume 1788.930535
_symmetry_space_group_name_H-M "P 21/M"
_symmetry_group_IT_number 11
_symmetry_cell_setting 'monoclinic'
loop_
_space_group_symop_operation_xyz
x,y,z
-x,1/2+y,-z
-x,-y,-z
x,1/2-y,z
loop_
_atom_site_type_symbol
_atom_site_label
_atom_site_fract_x
_atom_site_fract_y
_atom_site_fract_z
Si Si1 0.624249 0.633371 0.503676
Si Si2 0.699842 0.936588 0.297909
Si Si3 0.330495 0.638577 0.085940
Si Si4 0.023671 0.047664 0.116388
Si Si5 0.054961 0.139063 0.333610
Si Si6 0.911558 0.137653 0.903679
Si Si7 0.190518 0.638949 0.658319
Si Si8 0.664734 0.366421 0.094045
O O1 0.676329 0.750000 0.550165
O O2 0.769659 0.577098 0.671791
O O3 0.720294 0.599894 0.517088
O O4 0.356013 0.621568 0.296885
O O5 0.562312 0.901306 0.244399
O O6 0.931543 0.877897 0.471776
O O7 0.755691 0.051513 0.343055
O O8 0.532057 0.915048 0.105156
O O9 0.360310 0.750000 0.130339
O O10 0.209616 0.577607 0.039434
O O11 0.139610 0.639919 0.877227
O O12 0.026113 0.936013 0.098257
O O13 0.045587 0.108176 0.072840
O O14 0.109305 0.250000 0.395333
O O15 0.912572 0.093969 0.272242
O O16 0.946170 0.250000 0.916937
O O17 0.215472 0.750000 0.657203
O O18 0.347644 0.624640 0.845187
O O19 0.658230 0.250000 0.075420
#
# Coordination Sequence:
#
# PCOD9158662 Si02
#       8
#     4   4   4   4   4   4   4   4
#     4   9  16  28  46  68  95 123 151 188 231 270
#     4  10  19  32  48  68  95 122 152 192 232 270
#     4   9  16  29  50  70  88 116 151 187 233 276
#     4  10  19  32  48  68  95 122 152 192 232 270
#     4   7  12  23  41  66  92 116 144 181 222 262
#     4  10  20  31  46  69  94 123 157 188 226 277
#     4  10  20  31  46  69  94 123 157 188 226 277
#     4   9  16  28  46  68  95 123 151 188 231 270
#
# _framework density 17.887782000000001
#
# number of rings (size 3 to 8) (size 9 to 14) (size 15 to 20)
#    0.000    2.750    0.000    4.500    0.000    1.000 
#    0.000    3.125    0.000    0.000    0.000    0.000 
#    0.000    8.000    0.000    0.000    0.000    0.000 
#
# Total GULP energy -178393.771895 kJ/mol
# GULP energy per Si atom -5574.805372 kJ/mol
# Density = 1.784707 g / cm^3
# Si number density = 17.887782 Si / 1000 Ang^3
#
#
#
# Elastic Constant Matrix: (Units=GPa)
#
#
# Indices 1 2 3 4 5 6 
#
# 1 43.4460 34.2298 0.7355 0.0000 9.7635 0.0000
# 2 34.2298 100.6480 12.4150 0.0000 11.2816 0.0000
# 3 0.7355 12.4150 41.2528 0.0000 0.8420 0.0000
# 4 0.0000 0.0000 0.0000 15.6614 0.0000 2.2406
# 5 9.7635 11.2816 0.8420 0.0000 19.6478 0.0000
# 6 0.0000 0.0000 0.0000 2.2406 0.0000 23.6861
#
#
#
# Elastic Compliance Matrix: (Units=1/GPa)
#
#
# Indices 1 2 3 4 5 6 
#
# 1 0.033763 -0.010619 0.002814 0.000000 -0.010801 0.000000
# 2 -0.010619 0.014363 -0.004076 0.000000 -0.002796 0.000000
# 3 0.002814 -0.004076 0.025420 0.000000 -0.000147 0.000000
# 4 0.000000 0.000000 0.000000 0.064727 0.000000 -0.006123
# 5 -0.010801 -0.002796 -0.000147 0.000000 0.057875 0.000000
# 6 0.000000 0.000000 0.000000 -0.006123 0.000000 0.042798
#
#
# Mechanical properties :
#
#
# Convention : Reuss Voigt Hill
#
# Bulk Modulus (GPa) = 20.08649 31.12306 25.60477
# Shear Modulus (GPa) = 17.90165 20.99685 19.44925
#
# Velocity S-wave (km/s) = 3.16693 3.42981 3.30099
# Velocity P-wave (km/s) = 4.96248 5.75514 5.37344
#
# Compressibility (1/GPa) = 0.04978471
#
# Stress axis : x y z
#
# Youngs Moduli (GPa) = 29.61804 69.62193 39.33859
#
# Poissons Ratio (x) = 0.73932 -0.11071
# Poissons Ratio (y) = 0.31452 0.16035
# Poissons Ratio (z) = -0.08335 0.28380
#
# Static dielectric constant tensor:
#      x y z
#    x 1.640410 0.000000 -0.008070 
#    y 0.000000 1.599440 0.000000 
#    z -0.008070 0.000000 1.662590 
# 
# From -- ./inp_files/66290.got.cif
#   From: 2010.05.17/outbox.cif.g08.bks.cpg/sg11_34_cif.got.tgz:66290.got - 2010.06.03 12:22:45.
