data_PCOD9158533
_publ_section_title
;
Structure prediction by ZEFSAII (Michael W. Deem and Ramdas Pophale) SiO2 
 PCOD9158533
Probable space group: P 21/M
;
_chemical_formula_sum "Si O2"
_cell_formula_units_Z 28
_cell_length_a 13.645103
_cell_length_b 8.849618
_cell_length_c 13.914663
_cell_angle_alpha 90.000000
_cell_angle_beta 119.361174
_cell_angle_gamma 90.000000
_cell_volume 1464.416059
_symmetry_space_group_name_H-M "P 21/M"
_symmetry_group_IT_number 11
_symmetry_cell_setting 'monoclinic'
loop_
_space_group_symop_operation_xyz
x,y,z
-x,1/2+y,-z
-x,-y,-z
x,1/2-y,z
loop_
_atom_site_type_symbol
_atom_site_label
_atom_site_fract_x
_atom_site_fract_y
_atom_site_fract_z
Si Si1 0.436621 0.930746 0.258689
Si Si2 0.030467 0.430706 0.280244
Si Si3 0.249777 0.069294 0.280244
Si Si4 0.624556 0.424041 0.477370
Si Si5 0.439341 0.067558 0.878682
Si Si6 0.177932 0.430746 0.741311
Si Si7 0.852814 0.424041 0.477370
O O1 0.431991 0.750000 0.260000
O O2 0.493962 0.977826 0.185910
O O3 0.313574 0.998339 0.220200
O O4 0.518845 0.991156 0.381985
O O5 0.022995 0.250000 0.281210
O O6 0.119557 0.471401 0.239114
O O7 0.086786 0.493217 0.405336
O O8 0.906625 0.501661 0.220200
O O9 0.258215 0.250000 0.281210
O O10 0.318550 0.006783 0.405336
O O11 0.597269 0.250000 0.488843
O O12 0.721524 0.422507 0.443048
O O13 0.441747 0.250000 0.883494
O O14 0.308052 0.022174 0.814090
O O15 0.500000 0.000000 0.000000
O O16 0.171990 0.250000 0.739999
O O17 0.136859 0.491156 0.618015
O O18 0.891574 0.250000 0.488843
#
# Coordination Sequence:
#
# PCOD9158533 Si02
#       7
#     4   4   4   4   4   4   4
#     4  11  21  36  56  79 110 144 182 228 280 331
#     4  10  21  35  52  78 113 151 188 225 267 322
#     4  10  21  35  52  78 113 151 188 225 267 322
#     4  10  19  31  50  78 111 150 190 225 268 325
#     4  10  24  42  62  86 110 140 180 234 289 334
#     4  11  21  36  56  79 110 144 182 228 280 331
#     4  10  19  31  50  78 111 150 190 225 268 325
#
# _framework density 19.120249000000001
#
# number of rings (size 3 to 8) (size 9 to 14) (size 15 to 20)
#    0.000    1.714    1.429    3.429    0.000    5.143 
#    0.000    0.000    0.000    0.857    0.000    0.000 
#    0.000    0.000    0.000    0.000    0.000    0.000 
#
# Total GULP energy -156361.350861 kJ/mol
# GULP energy per Si atom -5584.333959 kJ/mol
# Density = 1.907673 g / cm^3
# Si number density = 19.120249 Si / 1000 Ang^3
#
#
#
# Elastic Constant Matrix: (Units=GPa)
#
#
# Indices 1 2 3 4 5 6 
#
# 1 199.9289 56.8755 39.0808 0.0000 0.0001 0.0000
# 2 56.8755 68.6119 9.7937 0.0000 -0.0002 0.0000
# 3 39.0808 9.7937 29.8499 0.0000 -0.0001 0.0000
# 4 0.0000 0.0000 0.0000 22.9282 0.0000 0.0000
# 5 0.0001 -0.0002 -0.0001 0.0000 10.1399 0.0000
# 6 0.0000 0.0000 0.0000 0.0000 0.0000 36.9072
#
#
#
# Elastic Compliance Matrix: (Units=1/GPa)
#
#
# Indices 1 2 3 4 5 6 
#
# 1 0.008397 -0.005656 -0.009138 0.000000 0.000000 0.000000
# 2 -0.005656 0.019101 0.001139 0.000000 0.000000 0.000000
# 3 -0.009138 0.001139 0.045091 0.000000 0.000001 0.000000
# 4 0.000000 0.000000 0.000000 0.043614 0.000000 0.000000
# 5 0.000000 0.000000 0.000001 0.000000 0.098621 0.000000
# 6 0.000000 0.000000 0.000000 0.000000 0.000000 0.027095
#
#
# Mechanical properties :
#
#
# Convention : Reuss Voigt Hill
#
# Bulk Modulus (GPa) = 22.08592 56.65454 39.37023
# Shear Modulus (GPa) = 17.58558 26.83775 22.21167
#
# Velocity S-wave (km/s) = 3.03600 3.75057 3.41204
# Velocity P-wave (km/s) = 4.88527 6.96065 6.01318
#
# Compressibility (1/GPa) = 0.04527772
#
# Stress axis : x y z
#
# Youngs Moduli (GPa) = 119.08798 52.35314 22.17724
#
# Poissons Ratio (x) = 0.29613 0.20266
# Poissons Ratio (y) = 0.67361 -0.02525
# Poissons Ratio (z) = 1.08823 -0.05961
#
# Static dielectric constant tensor:
#      x y z
#    x 1.761480 0.000000 0.000000 
#    y 0.000000 1.645430 0.000000 
#    z 0.000000 0.000000 1.608980 
# 
# From -- ./inp_files/51446.got.cif
#   From: 2010.05.17/outbox.cif.g08.bks.cpg/sg11_26_cif.got.tgz:51446.got - 2010.06.03 12:22:45.
