data_PCOD9158185
_publ_section_title
;
Structure prediction by ZEFSAII (Michael W. Deem and Ramdas Pophale) SiO2 
 PCOD9158185
Probable space group: P 21/M
;
_chemical_formula_sum "Si O2"
_cell_formula_units_Z 32
_cell_length_a 23.944319
_cell_length_b 8.198727
_cell_length_c 12.327905
_cell_angle_alpha 90.000000
_cell_angle_beta 43.591679
_cell_angle_gamma 90.000000
_cell_volume 1668.712478
_symmetry_space_group_name_H-M "P 21/M"
_symmetry_group_IT_number 11
_symmetry_cell_setting 'monoclinic'
loop_
_space_group_symop_operation_xyz
x,y,z
-x,1/2+y,-z
-x,-y,-z
x,1/2-y,z
loop_
_atom_site_type_symbol
_atom_site_label
_atom_site_fract_x
_atom_site_fract_y
_atom_site_fract_z
Si Si1 0.416207 0.945934 0.481214
Si Si2 0.012960 0.444657 0.859144
Si Si3 0.595802 0.944139 0.254269
Si Si4 0.738096 0.050127 0.435590
Si Si5 0.166926 0.552527 0.907925
Si Si6 0.841819 0.060942 0.483493
Si Si7 0.238694 0.556370 0.025529
Si Si8 0.093202 0.439748 0.380540
O O1 0.415078 0.750000 0.474702
O O2 0.508378 0.004052 0.334068
O O3 0.348287 0.003803 0.491564
O O4 0.395440 0.987194 0.635483
O O5 0.028961 0.250000 0.829624
O O6 0.925469 0.480805 0.931512
O O7 0.082843 0.545524 0.704500
O O8 0.000000 0.500000 0.000000
O O9 0.591488 0.750000 0.269822
O O10 0.672601 0.988780 0.072263
O O11 0.739625 0.250000 0.436568
O O12 0.767000 0.998180 0.514684
O O13 0.802749 0.995655 0.252212
O O14 0.174039 0.750000 0.893994
O O15 0.220165 0.488930 0.931314
O O16 0.827662 0.250000 0.532957
O O17 0.871394 0.968024 0.548484
O O18 0.246835 0.750000 0.007734
O O19 0.160822 0.519686 0.208138
O O20 0.091411 0.250000 0.357805
O O21 0.000000 0.500000 0.500000
#
# Coordination Sequence:
#
# PCOD9158185 Si02
#       8
#     4   4   4   4   4   4   4   4
#     4   9  17  32  53  78 115 158 193 232 288 347
#     4  11  20  32  49  74 108 145 183 229 281 339
#     4  10  19  30  50  84 119 151 191 239 288 342
#     4   9  16  31  54  80 110 147 186 226 276 340
#     4   9  17  30  50  76 106 142 183 224 271 330
#     4  11  22  38  59  82 109 146 193 237 287 346
#     4  11  21  37  61  83 111 152 195 236 285 340
#     4  12  26  45  64  85 114 148 193 241 286 334
#
# _framework density 19.176461
#
# number of rings (size 3 to 8) (size 9 to 14) (size 15 to 20)
#    0.000    1.750    2.500    3.375    0.000    1.500 
#    0.000    4.375    0.000    0.750    0.000    0.000 
#    0.000    0.000    0.000    0.000    0.000    0.000 
#
# Total GULP energy -178421.452370 kJ/mol
# GULP energy per Si atom -5575.670387 kJ/mol
# Density = 1.913281 g / cm^3
# Si number density = 19.176461 Si / 1000 Ang^3
#
#
#
# Elastic Constant Matrix: (Units=GPa)
#
#
# Indices 1 2 3 4 5 6 
#
# 1 132.5530 5.1910 36.6133 0.0000 -20.0399 0.0000
# 2 5.1910 15.7003 -9.8397 0.0000 -7.7557 0.0000
# 3 36.6133 -9.8397 61.0027 0.0000 -17.8410 0.0000
# 4 0.0000 0.0000 0.0000 26.2049 0.0000 -0.0171
# 5 -20.0399 -7.7557 -17.8410 0.0000 32.5450 0.0000
# 6 0.0000 0.0000 0.0000 -0.0171 0.0000 18.5380
#
#
#
# Elastic Compliance Matrix: (Units=1/GPa)
#
#
# Indices 1 2 3 4 5 6 
#
# 1 0.009823 -0.007351 -0.006937 0.000000 0.000494 0.000000
# 2 -0.007351 0.105748 0.032769 0.000000 0.038638 0.000000
# 3 -0.006937 0.032769 0.032008 0.000000 0.021085 0.000000
# 4 0.000000 0.000000 0.000000 0.038161 0.000000 0.000035
# 5 0.000494 0.038638 0.021085 0.000000 0.051797 0.000000
# 6 0.000000 0.000000 0.000000 0.000035 0.000000 0.053943
#
#
# Mechanical properties :
#
#
# Convention : Reuss Voigt Hill
#
# Bulk Modulus (GPa) = 5.41885 30.35390 17.88637
# Shear Modulus (GPa) = 15.82124 27.27700 21.54912
#
# Velocity S-wave (km/s) = 2.87546 3.77559 3.35584
# Velocity P-wave (km/s) = 3.72240 5.90507 4.93590
#
# Compressibility (1/GPa) = 0.18454108
#
# Stress axis : x y z
#
# Youngs Moduli (GPa) = 101.80419 9.45649 31.24190
#
# Poissons Ratio (x) = 0.06952 0.21672
# Poissons Ratio (y) = 0.74839 -1.02378
# Poissons Ratio (z) = 0.70620 -0.30988
#
# Static dielectric constant tensor:
#      x y z
#    x 1.775430 0.000000 -0.070440 
#    y 0.000000 1.977170 0.000000 
#    z -0.070440 0.000000 1.745650 
# 
# From -- ./inp_files/43782.got.cif
#   From: 2010.05.17/outbox.cif.g08.bks.cpg/sg11_22_cif.got.tgz:43782.got - 2010.06.03 12:22:45.
