data_PCOD9158499
_publ_section_title
;
Structure prediction by ZEFSAII (Michael W. Deem and Ramdas Pophale) SiO2 
 PCOD9158499
Probable space group: P 21/M
;
_chemical_formula_sum "Si O2"
_cell_formula_units_Z 32
_cell_length_a 15.328947
_cell_length_b 8.711848
_cell_length_c 23.857596
_cell_angle_alpha 90.000000
_cell_angle_beta 140.202753
_cell_angle_gamma 90.000000
_cell_volume 2039.288420
_symmetry_space_group_name_H-M "P 21/M"
_symmetry_group_IT_number 11
_symmetry_cell_setting 'monoclinic'
loop_
_space_group_symop_operation_xyz
x,y,z
-x,1/2+y,-z
-x,-y,-z
x,1/2-y,z
loop_
_atom_site_type_symbol
_atom_site_label
_atom_site_fract_x
_atom_site_fract_y
_atom_site_fract_z
Si Si1 0.215441 0.432401 0.629731
Si Si2 0.229449 0.566054 0.423678
Si Si3 0.967478 0.565578 0.896880
Si Si4 0.497692 0.066358 0.615427
Si Si5 0.222910 0.434695 0.297534
Si Si6 0.942966 0.065987 0.554238
Si Si7 0.494029 0.566254 0.739215
Si Si8 0.207350 0.434461 0.080412
O O1 0.236485 0.250000 0.640505
O O2 0.148634 0.481816 0.537461
O O3 0.359249 0.516140 0.705555
O O4 0.100000 0.472316 0.618582
O O5 0.239904 0.750000 0.423750
O O6 0.370501 0.501628 0.518346
O O7 0.201892 0.493213 0.349885
O O8 0.113009 0.529853 0.412023
O O9 0.974515 0.750000 0.901467
O O10 0.898940 0.519102 0.804708
O O11 0.865830 0.517484 0.897355
O O12 0.114888 0.500190 0.985160
O O13 0.494014 0.250000 0.611628
O O14 0.637327 0.004504 0.657616
O O15 0.488931 0.009279 0.675183
O O16 0.234073 0.250000 0.302077
O O17 0.927110 0.250000 0.537600
O O18 0.495622 0.750000 0.732575
O O19 0.635094 0.519273 0.838584
O O20 0.202083 0.250000 0.075375
#
# Coordination Sequence:
#
# PCOD9158499 Si02
#       8
#     4   4   4   4   4   4   4   4
#     4  10  19  31  50  75  98 127 167 204 245 297
#     4  11  22  36  52  71  98 135 172 207 247 289
#     4   9  18  33  50  70  96 128 162 202 246 287
#     4  12  23  34  49  72  99 134 175 209 238 286
#     4  11  22  37  52  70 100 135 169 207 247 290
#     4   9  19  34  50  69  99 132 163 206 251 289
#     4  11  20  33  50  73 104 136 162 199 252 297
#     4   9  18  32  50  71  97 128 161 198 245 297
#
# _framework density 15.691748
#
# number of rings (size 3 to 8) (size 9 to 14) (size 15 to 20)
#    0.000    1.750    2.500    3.000    0.000    3.000 
#    0.000    0.000    0.000    0.000    0.000    0.875 
#    0.000    0.000    0.000    0.000    0.000    0.000 
#
# Total GULP energy -178621.227172 kJ/mol
# GULP energy per Si atom -5581.913349 kJ/mol
# Density = 1.565603 g / cm^3
# Si number density = 15.691748 Si / 1000 Ang^3
#
#
#
# Elastic Constant Matrix: (Units=GPa)
#
#
# Indices 1 2 3 4 5 6 
#
# 1 86.2906 36.0740 73.8980 0.0000 8.1070 0.0000
# 2 36.0740 49.6733 39.5949 0.0000 3.4198 0.0000
# 3 73.8980 39.5949 140.1665 0.0000 10.1362 0.0000
# 4 0.0000 0.0000 0.0000 26.9539 0.0000 1.4723
# 5 8.1070 3.4198 10.1362 0.0000 22.6881 0.0000
# 6 0.0000 0.0000 0.0000 1.4723 0.0000 22.8513
#
#
#
# Elastic Compliance Matrix: (Units=1/GPa)
#
#
# Indices 1 2 3 4 5 6 
#
# 1 0.024370 -0.009583 -0.009937 0.000000 -0.002824 0.000000
# 2 -0.009583 0.029760 -0.003387 0.000000 0.000452 0.000000
# 3 -0.009937 -0.003387 0.013472 0.000000 -0.001957 0.000000
# 4 0.000000 0.000000 0.000000 0.037231 0.000000 -0.002399
# 5 -0.002824 0.000452 -0.001957 0.000000 0.045891 0.000000
# 6 0.000000 0.000000 0.000000 -0.002399 0.000000 0.043916
#
#
# Mechanical properties :
#
#
# Convention : Reuss Voigt Hill
#
# Bulk Modulus (GPa) = 45.89803 63.91824 54.90813
# Shear Modulus (GPa) = 20.18434 22.93623 21.56029
#
# Velocity S-wave (km/s) = 3.59040 3.82733 3.71076
# Velocity P-wave (km/s) = 6.81918 7.76874 7.30940
#
# Compressibility (1/GPa) = 0.02178743
#
# Stress axis : x y z
#
# Youngs Moduli (GPa) = 41.03367 33.60256 74.22963
#
# Poissons Ratio (x) = 0.32201 0.73763
# Poissons Ratio (y) = 0.39322 0.25142
# Poissons Ratio (z) = 0.40776 0.11381
#
# Static dielectric constant tensor:
#      x y z
#    x 1.521440 0.000000 0.013080 
#    y 0.000000 1.528080 0.000000 
#    z 0.013080 0.000000 1.506840 
# 
# From -- ./inp_files/51251.got.cif
#   From: 2010.05.17/outbox.cif.g08.bks.cpg/sg11_26_cif.got.tgz:51251.got - 2010.06.03 12:22:45.
