data_PCOD9158556
_publ_section_title
;
Structure prediction by ZEFSAII (Michael W. Deem and Ramdas Pophale) SiO2 
 PCOD9158556
Probable space group: P 21/M
;
_chemical_formula_sum "Si O2"
_cell_formula_units_Z 32
_cell_length_a 15.809244
_cell_length_b 7.583912
_cell_length_c 14.727111
_cell_angle_alpha 90.000000
_cell_angle_beta 41.327241
_cell_angle_gamma 90.000000
_cell_volume 1166.009001
_symmetry_space_group_name_H-M "P 21/M"
_symmetry_group_IT_number 11
_symmetry_cell_setting 'monoclinic'
loop_
_space_group_symop_operation_xyz
x,y,z
-x,1/2+y,-z
-x,-y,-z
x,1/2-y,z
loop_
_atom_site_type_symbol
_atom_site_label
_atom_site_fract_x
_atom_site_fract_y
_atom_site_fract_z
Si Si1 0.451132 0.547058 0.666165
Si Si2 0.889867 0.541654 0.915906
Si Si3 0.042397 0.032858 0.330611
Si Si4 0.729277 0.535769 0.416913
Si Si5 0.327820 0.042381 0.151828
Si Si6 0.411274 0.458026 0.897820
Si Si7 0.168852 0.048151 0.844890
Si Si8 0.224413 0.545032 0.411889
O O1 0.430776 0.750000 0.658230
O O2 0.582370 0.479422 0.516835
O O3 0.471320 0.540473 0.759327
O O4 0.320403 0.448281 0.749329
O O5 0.915256 0.750000 0.902727
O O6 0.966563 0.471729 0.767526
O O7 0.741452 0.528826 0.002909
O O8 0.897398 0.466909 0.012159
O O9 0.040722 0.250000 0.331813
O O10 0.181600 0.976812 0.252829
O O11 0.918416 0.965717 0.484124
O O12 0.731184 0.750000 0.413412
O O13 0.824189 0.468364 0.261549
O O14 0.754073 0.476722 0.498788
O O15 0.328419 0.250000 0.132981
O O16 0.333561 0.021797 0.255769
O O17 0.413738 0.967689 0.999770
O O18 0.447816 0.250000 0.868022
O O19 0.127948 0.250000 0.870811
O O20 0.218575 0.750000 0.396833
#
# Coordination Sequence:
#
# PCOD9158556 Si02
#       8
#     4   4   4   4   4   4   4   4
#     4  10  19  31  51  77 102 126 156 203 253 290
#     4   7  11  24  48  74  96 120 154 195 237 284
#     4   8  15  29  50  76 101 126 159 198 243 291
#     4  10  22  37  49  67  99 137 171 200 239 292
#     4   9  17  33  56  76  98 129 162 199 244 296
#     4   8  15  29  51  76  98 125 160 195 238 294
#     4   9  17  32  55  76  95 127 168 202 237 291
#     4  11  22  33  48  72 101 132 166 206 246 284
#
# _framework density 27.444040999999999
#
# number of rings (size 3 to 8) (size 9 to 14) (size 15 to 20)
#    0.000    3.000    0.000    3.750    0.000    2.000 
#    0.000    1.875    0.000    6.000    0.000    0.000 
#    0.000    0.000    0.000    0.000    0.000    0.000 
#
# Total GULP energy -178904.953485 kJ/mol
# GULP energy per Si atom -5590.779796 kJ/mol
# Density = 2.738158 g / cm^3
# Si number density = 27.444041 Si / 1000 Ang^3
#
#
#
# Elastic Constant Matrix: (Units=GPa)
#
#
# Indices 1 2 3 4 5 6 
#
# 1 80.5270 3.7143 17.4668 0.0000 29.1561 0.0000
# 2 3.7143 83.7804 17.1326 0.0000 0.6063 0.0000
# 3 17.4668 17.1326 244.9014 0.0000 23.9081 0.0000
# 4 0.0000 0.0000 0.0000 19.0552 0.0000 6.1277
# 5 29.1561 0.6063 23.9081 0.0000 60.9333 0.0000
# 6 0.0000 0.0000 0.0000 6.1277 0.0000 20.5860
#
#
#
# Elastic Compliance Matrix: (Units=1/GPa)
#
#
# Indices 1 2 3 4 5 6 
#
# 1 0.015080 -0.000546 -0.000347 0.000000 -0.007074 0.000000
# 2 -0.000546 0.012132 -0.000856 0.000000 0.000477 0.000000
# 3 -0.000347 -0.000856 0.004316 0.000000 -0.001519 0.000000
# 4 0.000000 0.000000 0.000000 0.058034 0.000000 -0.017275
# 5 -0.007074 0.000477 -0.001519 0.000000 0.020388 0.000000
# 6 0.000000 0.000000 0.000000 -0.017275 0.000000 0.053719
#
#
# Mechanical properties :
#
#
# Convention : Reuss Voigt Hill
#
# Bulk Modulus (GPa) = 35.67719 53.98180 44.82949
# Shear Modulus (GPa) = 28.32696 44.84125 36.58410
#
# Velocity S-wave (km/s) = 3.21623 4.04656 3.65505
# Velocity P-wave (km/s) = 5.17884 6.44556 5.84661
#
# Compressibility (1/GPa) = 0.02802911
#
# Stress axis : x y z
#
# Youngs Moduli (GPa) = 66.31338 82.42772 231.68491
#
# Poissons Ratio (x) = 0.04504 0.08032
# Poissons Ratio (y) = 0.03624 0.19839
# Poissons Ratio (z) = 0.02299 0.07058
#
# Static dielectric constant tensor:
#      x y z
#    x 2.320250 0.000000 0.039620 
#    y 0.000000 1.995340 0.000000 
#    z 0.039620 0.000000 2.159270 
# 
# From -- ./inp_files/54235.got.cif
#   From: 2010.05.17/outbox.cif.g08.bks.cpg/sg11_28_cif.got.tgz:54235.got - 2010.06.03 12:22:45.
