data_PCOD9158358
_publ_section_title
;
Structure prediction by ZEFSAII (Michael W. Deem and Ramdas Pophale) SiO2 
 PCOD9158358
Probable space group: P 21/M
;
_chemical_formula_sum "Si O2"
_cell_formula_units_Z 24
_cell_length_a 11.588318
_cell_length_b 8.694040
_cell_length_c 14.451575
_cell_angle_alpha 90.000000
_cell_angle_beta 101.552380
_cell_angle_gamma 90.000000
_cell_volume 1426.490750
_symmetry_space_group_name_H-M "P 21/M"
_symmetry_group_IT_number 11
_symmetry_cell_setting 'monoclinic'
loop_
_space_group_symop_operation_xyz
x,y,z
-x,1/2+y,-z
-x,-y,-z
x,1/2-y,z
loop_
_atom_site_type_symbol
_atom_site_label
_atom_site_fract_x
_atom_site_fract_y
_atom_site_fract_z
Si Si1 0.583901 0.565040 0.642254
Si Si2 0.877114 0.935003 0.018581
Si Si3 0.094348 0.567297 0.587061
Si Si4 0.785409 0.936246 0.814874
Si Si5 0.968093 0.934896 0.223152
Si Si6 0.663217 0.932996 0.447451
O O1 0.567395 0.750000 0.642825
O O2 0.670630 0.517898 0.738738
O O3 0.457271 0.485143 0.621115
O O4 0.645361 0.529248 0.553447
O O5 0.881810 0.750000 0.019055
O O6 0.876953 0.981595 0.126077
O O7 0.784698 0.979926 0.923797
O O8 0.000000 0.000000 0.000000
O O9 0.084969 0.750000 0.585769
O O10 0.066762 0.504148 0.684567
O O11 0.223596 0.515904 0.575456
O O12 0.000000 0.500000 0.500000
O O13 0.794959 0.750000 0.810148
O O14 0.902773 0.006615 0.787545
O O15 0.970404 0.750000 0.229684
O O16 0.678449 0.750000 0.441935
#
# Coordination Sequence:
#
# PCOD9158358 Si02
#       6
#     4   4   4   4   4   4
#     4   9  18  32  51  73  98 129 163 201 243 288
#     4   8  15  27  45  70  99 130 163 203 246 288
#     4  12  24  37  53  73  99 130 164 200 242 293
#     4   9  16  29  50  75 102 132 168 206 246 290
#     4  10  19  31  48  73 104 134 165 202 247 294
#     4  10  20  34  51  73 101 131 163 199 242 290
#
# _framework density 16.824504999999998
#
# number of rings (size 3 to 8) (size 9 to 14) (size 15 to 20)
#    0.000    2.333    0.000    3.500    0.000    3.333 
#    0.000    0.000    0.000    1.000    0.000    0.000 
#    0.000    0.000    0.000    0.000    0.000    0.000 
#
# Total GULP energy -133790.864389 kJ/mol
# GULP energy per Si atom -5574.619350 kJ/mol
# Density = 1.678621 g / cm^3
# Si number density = 16.824505 Si / 1000 Ang^3
#
#
#
# Elastic Constant Matrix: (Units=GPa)
#
#
# Indices 1 2 3 4 5 6 
#
# 1 83.6631 37.9478 80.5605 0.0000 14.7741 0.0000
# 2 37.9478 51.6290 52.3418 0.0000 3.7202 0.0000
# 3 80.5605 52.3418 175.1477 0.0000 26.5422 0.0000
# 4 0.0000 0.0000 0.0000 21.7891 0.0000 -0.9837
# 5 14.7741 3.7202 26.5422 0.0000 31.7829 0.0000
# 6 0.0000 0.0000 0.0000 -0.9837 0.0000 28.1082
#
#
#
# Elastic Compliance Matrix: (Units=1/GPa)
#
#
# Indices 1 2 3 4 5 6 
#
# 1 0.024620 -0.009934 -0.007782 0.000000 -0.003783 0.000000
# 2 -0.009934 0.032298 -0.005965 0.000000 0.005818 0.000000
# 3 -0.007782 -0.005965 0.011927 0.000000 -0.005645 0.000000
# 4 0.000000 0.000000 0.000000 0.045967 0.000000 0.001609
# 5 -0.003783 0.005818 -0.005645 0.000000 0.037255 0.000000
# 6 0.000000 0.000000 0.000000 0.001609 0.000000 0.035633
#
#
# Mechanical properties :
#
#
# Convention : Reuss Voigt Hill
#
# Bulk Modulus (GPa) = 46.54701 72.45999 59.50350
# Shear Modulus (GPa) = 20.64215 25.64203 23.14209
#
# Velocity S-wave (km/s) = 3.50653 3.90819 3.71280
# Velocity P-wave (km/s) = 6.64233 7.97038 7.33647
#
# Compressibility (1/GPa) = 0.02148366
#
# Stress axis : x y z
#
# Youngs Moduli (GPa) = 40.61712 30.96147 83.84383
#
# Poissons Ratio (x) = 0.30756 0.65250
# Poissons Ratio (y) = 0.40348 0.50011
# Poissons Ratio (z) = 0.31610 0.18468
#
# Static dielectric constant tensor:
#      x y z
#    x 1.529120 0.000000 0.028450 
#    y 0.000000 1.556380 0.000000 
#    z 0.028450 0.000000 1.601180 
# 
# From -- ./inp_files/33821.got.cif
#   From: 2010.05.17/outbox.cif.g08.bks.cpg/sg11_17_cif.got.tgz:33821.got - 2010.06.03 12:22:45.
