data_PCOD9158174
_publ_section_title
;
Structure prediction by ZEFSAII (Michael W. Deem and Ramdas Pophale) SiO2 
 PCOD9158174
Probable space group: P 21/M
;
_chemical_formula_sum "Si O2"
_cell_formula_units_Z 32
_cell_length_a 12.570373
_cell_length_b 8.883224
_cell_length_c 29.703464
_cell_angle_alpha 90.000000
_cell_angle_beta 34.961150
_cell_angle_gamma 90.000000
_cell_volume 1900.624474
_symmetry_space_group_name_H-M "P 21/M"
_symmetry_group_IT_number 11
_symmetry_cell_setting 'monoclinic'
loop_
_space_group_symop_operation_xyz
x,y,z
-x,1/2+y,-z
-x,-y,-z
x,1/2-y,z
loop_
_atom_site_type_symbol
_atom_site_label
_atom_site_fract_x
_atom_site_fract_y
_atom_site_fract_z
Si Si1 0.664715 0.930218 0.723866
Si Si2 0.978633 0.571023 0.937549
Si Si3 0.444805 0.930497 0.331812
Si Si4 0.055860 0.931906 0.632047
Si Si5 0.812440 0.568216 0.321926
Si Si6 0.880508 0.929784 0.197145
Si Si7 0.703421 0.929464 0.110079
Si Si8 0.389569 0.933065 0.451769
O O1 0.653974 0.750000 0.727246
O O2 0.860479 0.975783 0.677702
O O3 0.643065 0.990126 0.680568
O O4 0.492681 0.995778 0.811720
O O5 0.008257 0.750000 0.928779
O O6 0.987445 0.512762 0.883703
O O7 0.145934 0.491110 0.906514
O O8 0.792053 0.537641 0.030427
O O9 0.423386 0.750000 0.334831
O O10 0.666168 0.960923 0.257507
O O11 0.365356 0.978412 0.408004
O O12 0.061890 0.750000 0.632061
O O13 0.226308 0.983413 0.541179
O O14 0.085014 0.997540 0.671429
O O15 0.816044 0.750000 0.323600
O O16 0.895829 0.526893 0.244201
O O17 0.595074 0.520650 0.396617
O O18 0.906546 0.750000 0.184606
O O19 0.688492 0.750000 0.120786
O O20 0.390401 0.750000 0.451220
#
# Coordination Sequence:
#
# PCOD9158174 Si02
#       8
#     4   4   4   4   4   4   4   4
#     4  11  22  33  47  71 104 137 171 208 246 294
#     4  10  19  30  50  79 104 127 161 203 247 296
#     4   9  17  31  51  72  97 134 168 198 250 306
#     4  10  21  35  50  71 101 136 170 211 257 292
#     4   9  18  33  54  77  98 128 171 210 247 299
#     4   9  17  30  50  76 104 131 161 203 252 297
#     4  10  20  33  49  72 103 136 165 198 244 297
#     4   8  16  33  54  74  99 129 164 211 259 299
#
# _framework density 16.836570999999999
#
# number of rings (size 3 to 8) (size 9 to 14) (size 15 to 20)
#    0.000    2.500    1.250    3.000    0.000    3.500 
#    0.000    2.500    0.000    0.750    0.000    0.000 
#    0.000    0.000    0.000    0.000    0.000    0.000 
#
# Total GULP energy -178467.008193 kJ/mol
# GULP energy per Si atom -5577.094006 kJ/mol
# Density = 1.679825 g / cm^3
# Si number density = 16.836571 Si / 1000 Ang^3
#
#
#
# Elastic Constant Matrix: (Units=GPa)
#
#
# Indices 1 2 3 4 5 6 
#
# 1 134.8490 37.3835 57.4983 0.0000 19.1724 0.0000
# 2 37.3835 21.1226 17.0923 0.0000 6.5708 0.0000
# 3 57.4983 17.0923 43.6881 0.0000 22.6898 0.0000
# 4 0.0000 0.0000 0.0000 19.2495 0.0000 2.8865
# 5 19.1724 6.5708 22.6898 0.0000 23.0762 0.0000
# 6 0.0000 0.0000 0.0000 2.8865 0.0000 25.8186
#
#
#
# Elastic Compliance Matrix: (Units=1/GPa)
#
#
# Indices 1 2 3 4 5 6 
#
# 1 0.026669 -0.024264 -0.036146 0.000000 0.020292 0.000000
# 2 -0.024264 0.093685 -0.002727 0.000000 -0.003836 0.000000
# 3 -0.036146 -0.002727 0.113476 0.000000 -0.080768 0.000000
# 4 0.000000 0.000000 0.000000 0.052835 0.000000 -0.005907
# 5 0.020292 -0.003836 -0.080768 0.000000 0.106984 0.000000
# 6 0.000000 0.000000 0.000000 -0.005907 0.000000 0.039392
#
#
# Mechanical properties :
#
#
# Convention : Reuss Voigt Hill
#
# Bulk Modulus (GPa) = 9.29733 47.06753 28.18243
# Shear Modulus (GPa) = 8.40101 19.47457 13.93779
#
# Velocity S-wave (km/s) = 2.23620 3.40469 2.88032
# Velocity P-wave (km/s) = 3.49307 6.59334 5.27606
#
# Compressibility (1/GPa) = 0.10755780
#
# Stress axis : x y z
#
# Youngs Moduli (GPa) = 37.49620 10.67403 8.81247
#
# Poissons Ratio (x) = 0.25899 0.31853
# Poissons Ratio (y) = 0.90980 0.02403
# Poissons Ratio (z) = 1.35532 0.02911
#
# Static dielectric constant tensor:
#      x y z
#    x 1.548010 0.000000 0.021860 
#    y 0.000000 1.563250 0.000000 
#    z 0.021860 0.000000 1.576700 
# 
# From -- ./inp_files/73101.got.cif
#   From: 2010.05.17/outbox.cif.g08.bks.cpg/sg11_37_cif.got.tgz:73101.got - 2010.06.03 12:22:45.
