data_PCOD9158238
_publ_section_title
;
Structure prediction by ZEFSAII (Michael W. Deem and Ramdas Pophale) SiO2 
 PCOD9158238
Probable space group: P 21/M
;
_chemical_formula_sum "Si O2"
_cell_formula_units_Z 28
_cell_length_a 28.952766
_cell_length_b 10.454053
_cell_length_c 28.575121
_cell_angle_alpha 90.000000
_cell_angle_beta 169.902047
_cell_angle_gamma 90.000000
_cell_volume 1516.431911
_symmetry_space_group_name_H-M "P 21/M"
_symmetry_group_IT_number 11
_symmetry_cell_setting 'monoclinic'
loop_
_space_group_symop_operation_xyz
x,y,z
-x,1/2+y,-z
-x,-y,-z
x,1/2-y,z
loop_
_atom_site_type_symbol
_atom_site_label
_atom_site_fract_x
_atom_site_fract_y
_atom_site_fract_z
Si Si1 0.116357 0.593867 0.412933
Si Si2 0.428097 0.904891 0.886166
Si Si3 0.445774 0.899603 0.583961
Si Si4 0.378385 0.094617 0.137727
Si Si5 0.933753 0.596586 0.332127
Si Si6 0.962325 0.968667 0.043001
Si Si7 0.295447 0.614569 0.289197
O O1 0.115173 0.750000 0.413045
O O2 0.406885 0.556029 0.686776
O O3 0.021356 0.546688 0.368827
O O4 0.908156 0.554277 0.165487
O O5 0.439723 0.750000 0.908690
O O6 0.142026 0.937608 0.580151
O O7 0.640451 0.930608 0.056887
O O8 0.500000 0.000000 0.000000
O O9 0.362448 0.750000 0.503512
O O10 0.530014 0.945368 0.719481
O O11 0.201264 0.975811 0.318009
O O12 0.705689 0.908530 0.811098
O O13 0.374406 0.250000 0.135372
O O14 0.949975 0.750000 0.344394
O O15 0.088888 0.892005 0.125722
O O16 0.857358 0.094281 0.911846
O O17 0.500000 0.500000 0.500000
O O18 0.436246 0.750000 0.430813
#
# Coordination Sequence:
#
# PCOD9158238 Si02
#       7
#     4   4   4   4   4   4   4
#     4   9  15  26  41  64  95 130 167 206 249 302
#     4  10  19  31  46  68  98 134 171 210 253 302
#     4  11  20  33  51  76 109 143 174 208 261 319
#     4   9  17  26  42  67  99 134 165 202 250 306
#     4   9  17  28  45  66  95 133 171 206 254 307
#     4  11  23  37  54  80 105 143 174 215 256 315
#     4  11  24  41  61  84 110 144 183 222 264 309
#
# _framework density 18.464396000000001
#
# number of rings (size 3 to 8) (size 9 to 14) (size 15 to 20)
#    0.000    2.000    1.429    3.429    0.000    8.571 
#    0.000    0.000    0.000    0.000    0.000    0.000 
#    0.000   22.857    0.000    0.000    0.000    0.000 
#
# Total GULP energy -156079.778372 kJ/mol
# GULP energy per Si atom -5574.277799 kJ/mol
# Density = 1.842237 g / cm^3
# Si number density = 18.464396 Si / 1000 Ang^3
#
#
#
# Elastic Constant Matrix: (Units=GPa)
#
#
# Indices 1 2 3 4 5 6 
#
# 1 53.6657 11.1594 -15.9094 0.0000 -3.4583 0.0000
# 2 11.1594 50.6349 9.5487 0.0000 -0.7775 0.0000
# 3 -15.9094 9.5487 65.5103 0.0000 1.0960 0.0000
# 4 0.0000 0.0000 0.0000 19.6603 0.0000 -3.5993
# 5 -3.4583 -0.7775 1.0960 0.0000 21.9883 0.0000
# 6 0.0000 0.0000 0.0000 -3.5993 0.0000 15.6819
#
#
#
# Elastic Compliance Matrix: (Units=1/GPa)
#
#
# Indices 1 2 3 4 5 6 
#
# 1 0.021872 -0.005931 0.006127 0.000000 0.002925 0.000000
# 2 -0.005931 0.021932 -0.004638 0.000000 0.000074 0.000000
# 3 0.006127 -0.004638 0.017430 0.000000 -0.000069 0.000000
# 4 0.000000 0.000000 0.000000 0.053095 0.000000 0.012186
# 5 0.002925 0.000074 -0.000069 0.000000 0.045945 0.000000
# 6 0.000000 0.000000 0.000000 0.012186 0.000000 0.066565
#
#
# Mechanical properties :
#
#
# Convention : Reuss Voigt Hill
#
# Bulk Modulus (GPa) = 19.10212 19.93424 19.51818
# Shear Modulus (GPa) = 19.74935 22.46692 21.10813
#
# Velocity S-wave (km/s) = 3.27401 3.49201 3.38476
# Velocity P-wave (km/s) = 4.96588 5.20368 5.08617
#
# Compressibility (1/GPa) = 0.05235021
#
# Stress axis : x y z
#
# Youngs Moduli (GPa) = 45.72037 45.59511 57.37221
#
# Poissons Ratio (x) = 0.27042 -0.35153
# Poissons Ratio (y) = 0.27116 0.26611
# Poissons Ratio (z) = -0.28014 0.21149
#
# Static dielectric constant tensor:
#      x y z
#    x 1.663520 0.000000 -0.011610 
#    y 0.000000 1.621900 0.000000 
#    z -0.011610 0.000000 1.655370 
# 
# From -- ./inp_files/72406.got.cif
#   From: 2010.05.17/outbox.cif.g08.bks.cpg/sg11_37_cif.got.tgz:72406.got - 2010.06.03 12:22:45.
