data_PCOD9158954
_publ_section_title
;
Structure prediction by ZEFSAII (Michael W. Deem and Ramdas Pophale) SiO2 
 PCOD9158954
Probable space group: P 21/M
;
_chemical_formula_sum "Si O2"
_cell_formula_units_Z 32
_cell_length_a 13.626832
_cell_length_b 9.533531
_cell_length_c 23.425874
_cell_angle_alpha 90.000000
_cell_angle_beta 33.421280
_cell_angle_gamma 90.000000
_cell_volume 1676.220476
_symmetry_space_group_name_H-M "P 21/M"
_symmetry_group_IT_number 11
_symmetry_cell_setting 'monoclinic'
loop_
_space_group_symop_operation_xyz
x,y,z
-x,1/2+y,-z
-x,-y,-z
x,1/2-y,z
loop_
_atom_site_type_symbol
_atom_site_label
_atom_site_fract_x
_atom_site_fract_y
_atom_site_fract_z
Si Si1 0.211652 0.919287 0.670192
Si Si2 0.450106 0.417462 0.886785
Si Si3 0.811212 0.918931 0.887378
Si Si4 0.564698 0.904787 0.355188
Si Si5 0.234976 0.089488 0.219787
Si Si6 0.487407 0.084937 0.743907
Si Si7 0.159701 0.091504 0.447842
Si Si8 0.832061 0.480664 0.435317
O O1 0.226413 0.750000 0.651705
O O2 0.205561 0.004270 0.613557
O O3 0.020935 0.946771 0.792400
O O4 0.365297 0.977888 0.635929
O O5 0.470674 0.250000 0.884167
O O6 0.639547 0.491461 0.803992
O O7 0.389426 0.441589 0.851202
O O8 0.313944 0.471041 0.001171
O O9 0.795982 0.750000 0.893787
O O10 0.757147 0.964136 0.849736
O O11 0.629075 0.750000 0.341199
O O12 0.618358 0.935132 0.263753
O O13 0.349359 0.901311 0.459357
O O14 0.298275 0.250000 0.191278
O O15 0.027626 0.088710 0.338570
O O16 0.542770 0.250000 0.717430
O O17 0.657609 0.984194 0.658261
O O18 0.151222 0.250000 0.430470
O O19 0.151671 0.090748 0.521049
O O20 0.000000 0.000000 0.500000
#
# Coordination Sequence:
#
# PCOD9158954 Si02
#       8
#     4   4   4   4   4   4   4   4
#     4  10  20  36  58  81 104 137 180 223 267 318
#     4  10  19  34  55  77 104 140 177 215 261 313
#     4   8  17  34  54  76 105 139 174 213 263 319
#     4  10  20  35  53  75 105 139 175 223 275 317
#     4  10  19  32  52  79 108 139 174 212 257 313
#     4   9  20  36  53  74 103 139 179 219 264 317
#     4  11  23  36  53  77 108 144 180 217 259 310
#     4  10  21  35  53  77 107 141 175 210 257 317
#
# _framework density 19.090568000000001
#
# number of rings (size 3 to 8) (size 9 to 14) (size 15 to 20)
#    0.000    2.250    0.000    3.750    0.000    8.000 
#    0.000    3.125    0.000    0.000    0.000    0.000 
#    0.000    0.000    0.000    0.000    0.000    0.000 
#
# Total GULP energy -178215.586625 kJ/mol
# GULP energy per Si atom -5569.237082 kJ/mol
# Density = 1.904712 g / cm^3
# Si number density = 19.090568 Si / 1000 Ang^3
#
#
#
# Elastic Constant Matrix: (Units=GPa)
#
#
# Indices 1 2 3 4 5 6 
#
# 1 76.5645 27.2962 40.1614 0.0000 13.2604 0.0000
# 2 27.2962 47.9953 7.8626 0.0000 5.2516 0.0000
# 3 40.1614 7.8626 69.5208 0.0000 22.4514 0.0000
# 4 0.0000 0.0000 0.0000 10.2370 0.0000 5.0206
# 5 13.2604 5.2516 22.4514 0.0000 25.4437 0.0000
# 6 0.0000 0.0000 0.0000 5.0206 0.0000 11.8046
#
#
#
# Elastic Compliance Matrix: (Units=1/GPa)
#
#
# Indices 1 2 3 4 5 6 
#
# 1 0.023632 -0.011492 -0.012784 0.000000 0.001336 0.000000
# 2 -0.011492 0.027001 0.004826 0.000000 -0.003842 0.000000
# 3 -0.012784 0.004826 0.027123 0.000000 -0.018266 0.000000
# 4 0.000000 0.000000 0.000000 0.123431 0.000000 -0.052497
# 5 0.001336 -0.003842 -0.018266 0.000000 0.055517 0.000000
# 6 0.000000 0.000000 0.000000 -0.052497 0.000000 0.107040
#
#
# Mechanical properties :
#
#
# Convention : Reuss Voigt Hill
#
# Bulk Modulus (GPa) = 25.73623 38.30232 32.01928
# Shear Modulus (GPa) = 12.03088 17.41442 14.72265
#
# Velocity S-wave (km/s) = 2.51310 3.02354 2.78006
# Velocity P-wave (km/s) = 4.68309 5.68297 5.20708
#
# Compressibility (1/GPa) = 0.03885573
#
# Stress axis : x y z
#
# Youngs Moduli (GPa) = 42.31490 37.03553 36.86965
#
# Poissons Ratio (x) = 0.42562 0.47134
# Poissons Ratio (y) = 0.48629 -0.17793
# Poissons Ratio (z) = 0.54095 -0.17873
#
# Static dielectric constant tensor:
#      x y z
#    x 1.683120 0.000000 0.040420 
#    y 0.000000 1.646030 0.000000 
#    z 0.040420 0.000000 1.698050 
# 
# From -- ./inp_files/68979.got.cif
#   From: 2010.05.17/outbox.cif.g08.bks.cpg/sg11_35_cif.got.tgz:68979.got - 2010.06.03 12:22:45.
