data_PCOD9158512
_publ_section_title
;
Structure prediction by ZEFSAII (Michael W. Deem and Ramdas Pophale) SiO2 
 PCOD9158512
Probable space group: P 21/M
;
_chemical_formula_sum "Si O2"
_cell_formula_units_Z 32
_cell_length_a 5.049028
_cell_length_b 12.186558
_cell_length_c 27.070187
_cell_angle_alpha 90.000000
_cell_angle_beta 86.260625
_cell_angle_gamma 90.000000
_cell_volume 1662.089903
_symmetry_space_group_name_H-M "P 21/M"
_symmetry_group_IT_number 11
_symmetry_cell_setting 'monoclinic'
loop_
_space_group_symop_operation_xyz
x,y,z
-x,1/2+y,-z
-x,-y,-z
x,1/2-y,z
loop_
_atom_site_type_symbol
_atom_site_label
_atom_site_fract_x
_atom_site_fract_y
_atom_site_fract_z
Si Si1 0.284700 0.624930 0.529658
Si Si2 0.073725 0.374483 0.722826
Si Si3 0.161686 0.518652 0.807392
Si Si4 0.324118 0.373930 0.236159
Si Si5 0.773755 0.997813 0.565337
Si Si6 0.588399 0.482511 0.678836
Si Si7 0.987961 0.626303 0.905834
Si Si8 0.536179 0.120063 0.027098
O O1 0.226717 0.750000 0.541679
O O2 0.254164 0.599815 0.471731
O O3 0.578093 0.592294 0.543445
O O4 0.072927 0.546210 0.559016
O O5 0.140309 0.250000 0.712482
O O6 0.106384 0.404828 0.780154
O O7 0.284728 0.449043 0.690866
O O8 0.779671 0.401348 0.707501
O O9 0.467267 0.550520 0.795854
O O10 0.972672 0.599409 0.777532
O O11 0.071448 0.537764 0.864177
O O12 0.390987 0.250000 0.224487
O O13 0.360965 0.403246 0.293267
O O14 0.677147 0.019006 0.621550
O O15 0.029647 0.750000 0.884619
O O16 0.687034 0.617240 0.927464
O O17 0.175532 0.616640 0.951287
O O18 0.510285 0.250000 0.006286
O O19 0.500000 0.000000 0.000000
#
# Coordination Sequence:
#
# PCOD9158512 Si02
#       8
#     4   4   4   4   4   4   4   4
#     4  10  21  36  56  77 103 136 165 213 271 309
#     4  10  21  37  55  77 108 142 174 214 259 304
#     4  10  20  34  52  78 108 136 176 218 256 307
#     4  10  19  31  50  76 106 136 165 207 259 305
#     4  10  21  38  54  78 106 129 175 217 250 317
#     4  10  21  36  54  77 103 135 173 211 253 310
#     4  10  19  33  57  82 106 143 184 222 269 322
#     4  10  21  37  56  81 112 145 185 232 280 328
#
# _framework density 19.252869
#
# number of rings (size 3 to 8) (size 9 to 14) (size 15 to 20)
#    0.000    2.000    0.000    3.750    0.000    3.000 
#    0.000    1.250    0.000    0.000    0.000    0.000 
#    0.000    0.000    0.000    0.000    0.000    0.000 
#
# Total GULP energy -178333.609596 kJ/mol
# GULP energy per Si atom -5572.925300 kJ/mol
# Density = 1.920905 g / cm^3
# Si number density = 19.252869 Si / 1000 Ang^3
#
#
#
# Elastic Constant Matrix: (Units=GPa)
#
#
# Indices 1 2 3 4 5 6 
#
# 1 57.1900 -8.7849 -8.9640 0.0000 -5.1021 0.0000
# 2 -8.7849 48.3160 11.4619 0.0000 5.6527 0.0000
# 3 -8.9640 11.4619 52.1656 0.0000 -11.3272 0.0000
# 4 0.0000 0.0000 0.0000 6.9563 0.0000 -2.5375
# 5 -5.1021 5.6527 -11.3272 0.0000 21.5363 0.0000
# 6 0.0000 0.0000 0.0000 -2.5375 0.0000 14.6727
#
#
#
# Elastic Compliance Matrix: (Units=1/GPa)
#
#
# Indices 1 2 3 4 5 6 
#
# 1 0.018974 0.001707 0.004250 0.000000 0.006282 0.000000
# 2 0.001707 0.023781 -0.006999 0.000000 -0.009519 0.000000
# 3 0.004250 -0.006999 0.024899 0.000000 0.015940 0.000000
# 4 0.000000 0.000000 0.000000 0.153434 0.000000 0.026534
# 5 0.006282 -0.009519 0.015940 0.000000 0.058803 0.000000
# 6 0.000000 0.000000 0.000000 0.026534 0.000000 0.072743
#
#
# Mechanical properties :
#
#
# Convention : Reuss Voigt Hill
#
# Bulk Modulus (GPa) = 15.25098 16.12198 15.68648
# Shear Modulus (GPa) = 13.27753 19.56364 16.42058
#
# Velocity S-wave (km/s) = 2.62895 3.19116 2.92360
# Velocity P-wave (km/s) = 4.14171 4.68721 4.42288
#
# Compressibility (1/GPa) = 0.06556955
#
# Stress axis : x y z
#
# Youngs Moduli (GPa) = 52.70289 42.04971 40.16250
#
# Poissons Ratio (x) = -0.07177 -0.17067
# Poissons Ratio (y) = -0.08995 0.28109
# Poissons Ratio (z) = -0.22397 0.29430
#
# Static dielectric constant tensor:
#      x y z
#    x 1.647170 0.000000 0.006520 
#    y 0.000000 1.697980 0.000000 
#    z 0.006520 0.000000 1.672860 
# 
# From -- ./inp_files/67583.got.cif
#   From: 2010.05.17/outbox.cif.g08.bks.cpg/sg11_34_cif.got.tgz:67583.got - 2010.06.03 12:22:45.
