data_PCOD9158006
_publ_section_title
;
Structure prediction by ZEFSAII (Michael W. Deem and Ramdas Pophale) SiO2 
 PCOD9158006
Probable space group: P 21/M
;
_chemical_formula_sum "Si O2"
_cell_formula_units_Z 32
_cell_length_a 12.014107
_cell_length_b 9.057645
_cell_length_c 16.503467
_cell_angle_alpha 90.000000
_cell_angle_beta 78.954643
_cell_angle_gamma 90.000000
_cell_volume 1762.631743
_symmetry_space_group_name_H-M "P 21/M"
_symmetry_group_IT_number 11
_symmetry_cell_setting 'monoclinic'
loop_
_space_group_symop_operation_xyz
x,y,z
-x,1/2+y,-z
-x,-y,-z
x,1/2-y,z
loop_
_atom_site_type_symbol
_atom_site_label
_atom_site_fract_x
_atom_site_fract_y
_atom_site_fract_z
Si Si1 0.547553 0.081612 0.274340
Si Si2 0.223768 0.075383 0.783421
Si Si3 0.604844 0.086946 0.453651
Si Si4 0.698542 0.426676 0.694653
Si Si5 0.020855 0.573669 0.910805
Si Si6 0.932108 0.924431 0.349477
Si Si7 0.831350 0.072278 0.510549
Si Si8 0.869964 0.925250 0.780152
O O1 0.536198 0.250000 0.244707
O O2 0.592705 0.092525 0.359915
O O3 0.650973 0.991167 0.220161
O O4 0.425099 0.002306 0.294719
O O5 0.224507 0.250000 0.799351
O O6 0.174932 0.057936 0.697744
O O7 0.131964 0.994508 0.852634
O O8 0.596167 0.250000 0.490303
O O9 0.721476 0.030291 0.471785
O O10 0.500000 0.000000 0.500000
O O11 0.685876 0.250000 0.696891
O O12 0.784843 0.462367 0.607269
O O13 0.759754 0.487149 0.766390
O O14 0.033733 0.750000 0.916031
O O15 0.915758 0.545322 0.864139
O O16 0.000000 0.500000 0.000000
O O17 0.959633 0.750000 0.347283
O O18 0.921287 0.982997 0.443169
O O19 0.029294 0.017748 0.291875
O O20 0.853446 0.250000 0.503033
O O21 0.853561 0.750000 0.772534
#
# Coordination Sequence:
#
# PCOD9158006 Si02
#       8
#     4   4   4   4   4   4   4   4
#     4  11  21  33  52  77 109 149 190 232 280 328
#     4  10  20  34  55  85 117 145 180 227 276 325
#     4  10  19  30  46  69 101 141 189 241 284 320
#     4  11  23  37  53  75 108 151 196 236 275 324
#     4  10  21  39  66  95 118 140 170 214 269 330
#     4  10  20  33  53  78 105 142 188 238 285 325
#     4  10  20  33  48  71 104 145 192 240 285 325
#     4  10  22  40  59  80 110 145 181 222 272 331
#
# _framework density 18.154671
#
# number of rings (size 3 to 8) (size 9 to 14) (size 15 to 20)
#    0.000    1.750    2.500    2.250    0.000    5.000 
#    0.000    0.000    0.000    0.750    0.000    0.000 
#    0.000    0.000    0.000    0.000    0.000    0.000 
#
# Total GULP energy -178378.979943 kJ/mol
# GULP energy per Si atom -5574.343123 kJ/mol
# Density = 1.811335 g / cm^3
# Si number density = 18.154671 Si / 1000 Ang^3
#
#
#
# Elastic Constant Matrix: (Units=GPa)
#
#
# Indices 1 2 3 4 5 6 
#
# 1 37.6390 36.9589 36.3328 0.0000 13.2873 0.0000
# 2 36.9589 79.8932 60.6573 0.0000 3.9323 0.0000
# 3 36.3328 60.6573 106.1128 0.0000 2.2374 0.0000
# 4 0.0000 0.0000 0.0000 27.4015 0.0000 -3.4859
# 5 13.2873 3.9323 2.2374 0.0000 20.2837 0.0000
# 6 0.0000 0.0000 0.0000 -3.4859 0.0000 29.8570
#
#
#
# Elastic Compliance Matrix: (Units=1/GPa)
#
#
# Indices 1 2 3 4 5 6 
#
# 1 0.078527 -0.025460 -0.011380 0.000000 -0.045250 0.000000
# 2 -0.025460 0.030540 -0.008988 0.000000 0.011749 0.000000
# 3 -0.011380 -0.008988 0.018307 0.000000 0.007178 0.000000
# 4 0.000000 0.000000 0.000000 0.037045 0.000000 0.004325
# 5 -0.045250 0.011749 0.007178 0.000000 0.075873 0.000000
# 6 0.000000 0.000000 0.000000 0.004325 0.000000 0.033998
#
#
# Mechanical properties :
#
#
# Convention : Reuss Voigt Hill
#
# Bulk Modulus (GPa) = 27.99650 54.61588 41.30619
# Shear Modulus (GPa) = 13.23273 21.48817 17.36045
#
# Velocity S-wave (km/s) = 2.70272 3.44411 3.09569
# Velocity P-wave (km/s) = 5.01938 6.77973 5.96485
#
# Compressibility (1/GPa) = 0.03571874
#
# Stress axis : x y z
#
# Youngs Moduli (GPa) = 12.73448 32.74377 54.62432
#
# Poissons Ratio (x) = 0.83365 0.62162
# Poissons Ratio (y) = 0.32422 0.49097
# Poissons Ratio (z) = 0.14492 0.29430
#
# Static dielectric constant tensor:
#      x y z
#    x 1.701290 0.000000 0.013470 
#    y 0.000000 1.596720 0.000000 
#    z 0.013470 0.000000 1.622980 
# 
# From -- ./inp_files/49293.got.cif
#   From: 2010.05.17/outbox.cif.g08.bks.cpg/sg11_25_cif.got.tgz:49293.got - 2010.06.03 12:22:45.
