data_PCOD9158493
_publ_section_title
;
Structure prediction by ZEFSAII (Michael W. Deem and Ramdas Pophale) SiO2 
 PCOD9158493
Probable space group: P 21/M
;
_chemical_formula_sum "Si O2"
_cell_formula_units_Z 32
_cell_length_a 21.750564
_cell_length_b 9.017057
_cell_length_c 12.038936
_cell_angle_alpha 90.000000
_cell_angle_beta 129.446524
_cell_angle_gamma 90.000000
_cell_volume 1823.321776
_symmetry_space_group_name_H-M "P 21/M"
_symmetry_group_IT_number 11
_symmetry_cell_setting 'monoclinic'
loop_
_space_group_symop_operation_xyz
x,y,z
-x,1/2+y,-z
-x,-y,-z
x,1/2-y,z
loop_
_atom_site_type_symbol
_atom_site_label
_atom_site_fract_x
_atom_site_fract_y
_atom_site_fract_z
Si Si1 0.530823 0.423353 0.147979
Si Si2 0.720892 0.076801 0.347578
Si Si3 0.332623 0.421262 0.279915
Si Si4 0.759925 0.071846 0.637873
Si Si5 0.835553 0.920053 0.047635
Si Si6 0.079211 0.574176 0.044982
Si Si7 0.412652 0.927472 0.171361
Si Si8 0.733634 0.927441 0.130771
O O1 0.507141 0.250000 0.122032
O O2 0.625853 0.431621 0.255881
O O3 0.491962 0.506113 0.207840
O O4 0.500000 0.500000 0.000000
O O5 0.740566 0.250000 0.348504
O O6 0.758716 0.029779 0.507699
O O7 0.743010 0.979031 0.267280
O O8 0.356622 0.250000 0.319596
O O9 0.309554 0.495119 0.370115
O O10 0.393735 0.510104 0.272257
O O11 0.249063 0.424498 0.115173
O O12 0.748866 0.250000 0.632259
O O13 0.844585 0.034829 0.790772
O O14 0.863349 0.750000 0.078346
O O15 0.810235 0.963934 0.142605
O O16 0.896681 0.019377 0.050105
O O17 0.070398 0.750000 0.036124
O O18 0.000000 0.500000 0.000000
O O19 0.412973 0.750000 0.171223
O O20 0.341751 0.987991 0.009801
O O21 0.720348 0.750000 0.106728
#
# Coordination Sequence:
#
# PCOD9158493 Si02
#       8
#     4   4   4   4   4   4   4   4
#     4  11  21  33  49  72 101 134 174 221 264 308
#     4  10  21  35  52  73 102 138 174 212 258 309
#     4   9  17  31  51  74  99 130 168 215 262 305
#     4   9  19  36  54  76 104 136 171 206 251 310
#     4   8  16  30  48  74 104 130 162 206 250 295
#     4  10  19  32  55  82 107 133 162 202 248 299
#     4  11  20  31  49  72  99 133 173 220 265 306
#     4  10  19  31  50  75 103 134 172 216 258 301
#
# _framework density 17.550386
#
# number of rings (size 3 to 8) (size 9 to 14) (size 15 to 20)
#    0.000    2.250    1.250    3.375    0.000    5.000 
#    0.000    0.625    0.000    0.750    0.000    0.000 
#    0.000    0.000    0.000    0.000    0.000    0.000 
#
# Total GULP energy -178532.751471 kJ/mol
# GULP energy per Si atom -5579.148483 kJ/mol
# Density = 1.751044 g / cm^3
# Si number density = 17.550386 Si / 1000 Ang^3
#
#
#
# Elastic Constant Matrix: (Units=GPa)
#
#
# Indices 1 2 3 4 5 6 
#
# 1 110.2498 55.7015 29.9343 0.0000 -22.5965 0.0000
# 2 55.7015 87.6954 27.0911 0.0000 -10.6491 0.0000
# 3 29.9343 27.0911 50.9307 0.0000 -21.8684 0.0000
# 4 0.0000 0.0000 0.0000 16.6838 0.0000 -8.3237
# 5 -22.5965 -10.6491 -21.8684 0.0000 21.1113 0.0000
# 6 0.0000 0.0000 0.0000 -8.3237 0.0000 35.2150
#
#
#
# Elastic Compliance Matrix: (Units=1/GPa)
#
#
# Indices 1 2 3 4 5 6 
#
# 1 0.016118 -0.008938 0.001356 0.000000 0.014147 0.000000
# 2 -0.008938 0.018618 -0.008510 0.000000 -0.008992 0.000000
# 3 0.001356 -0.008510 0.039884 0.000000 0.038472 0.000000
# 4 0.000000 0.000000 0.000000 0.067952 0.000000 0.016062
# 5 0.014147 -0.008992 0.038472 0.000000 0.097828 0.000000
# 6 0.000000 0.000000 0.000000 0.016062 0.000000 0.032193
#
#
# Mechanical properties :
#
#
# Convention : Reuss Voigt Hill
#
# Bulk Modulus (GPa) = 23.56641 52.70333 38.13487
# Shear Modulus (GPa) = 15.67782 23.67861 19.67821
#
# Velocity S-wave (km/s) = 2.99206 3.67710 3.35213
# Velocity P-wave (km/s) = 5.03920 6.93708 6.06286
#
# Compressibility (1/GPa) = 0.04243328
#
# Stress axis : x y z
#
# Youngs Moduli (GPa) = 62.04347 53.71221 25.07300
#
# Poissons Ratio (x) = 0.48010 -0.03400
# Poissons Ratio (y) = 0.55457 0.21338
# Poissons Ratio (z) = -0.08413 0.45711
#
# Static dielectric constant tensor:
#      x y z
#    x 1.592400 0.000000 -0.013720 
#    y 0.000000 1.576080 0.000000 
#    z -0.013720 0.000000 1.600450 
# 
# From -- ./inp_files/40691.got.cif
#   From: 2010.05.17/outbox.cif.g08.bks.cpg/sg11_21_cif.got.tgz:40691.got - 2010.06.03 12:22:45.
