data_PCOD9158645
_publ_section_title
;
Structure prediction by ZEFSAII (Michael W. Deem and Ramdas Pophale) SiO2 
 PCOD9158645
Probable space group: P 21/M
;
_chemical_formula_sum "Si O2"
_cell_formula_units_Z 24
_cell_length_a 9.092021
_cell_length_b 18.373283
_cell_length_c 11.258369
_cell_angle_alpha 90.000000
_cell_angle_beta 40.710141
_cell_angle_gamma 90.000000
_cell_volume 1226.662705
_symmetry_space_group_name_H-M "P 21/M"
_symmetry_group_IT_number 11
_symmetry_cell_setting 'monoclinic'
loop_
_space_group_symop_operation_xyz
x,y,z
-x,1/2+y,-z
-x,-y,-z
x,1/2-y,z
loop_
_atom_site_type_symbol
_atom_site_label
_atom_site_fract_x
_atom_site_fract_y
_atom_site_fract_z
Si Si1 0.619607 0.054160 0.518765
Si Si2 0.541245 0.834018 0.200372
Si Si3 0.020136 0.091779 0.108973
Si Si4 0.287531 0.049566 0.316690
Si Si5 0.137592 0.594699 0.304271
Si Si6 0.806146 0.075014 0.989327
O O1 0.470014 0.114953 0.675310
O O2 0.827881 0.091173 0.325551
O O3 0.500000 0.000000 0.500000
O O4 0.696038 0.001544 0.577303
O O5 0.520396 0.750000 0.242603
O O6 0.339431 0.859219 0.237333
O O7 0.778424 0.852477 0.994100
O O8 0.129862 0.010769 0.041851
O O9 0.903112 0.105801 0.052912
O O10 0.081014 0.101648 0.477317
O O11 0.218142 0.990524 0.260086
O O12 0.534640 0.081704 0.146103
O O13 0.092701 0.608550 0.193203
#
# Coordination Sequence:
#
# PCOD9158645 Si02
#       6
#     4   4   4   4   4   4
#     4  11  19  37  64  95 121 152 204 263 309 356
#     4  11  26  43  58  84 125 170 205 247 315 384
#     4  11  21  34  61  92 122 151 196 248 310 365
#     4  10  19  31  56  93 119 145 195 251 304 344
#     4  10  21  34  57  85 122 156 194 242 297 358
#     4  11  19  33  60  94 119 145 190 258 306 350
#
# _framework density 19.565280999999999
#
# number of rings (size 3 to 8) (size 9 to 14) (size 15 to 20)
#    0.000    1.333    6.667    1.500    0.000    0.667 
#    0.000    0.833    0.000    1.000    0.000    0.000 
#    0.000    0.000    0.000    0.000    0.000    0.000 
#
# Total GULP energy -133991.641167 kJ/mol
# GULP energy per Si atom -5582.985049 kJ/mol
# Density = 1.952075 g / cm^3
# Si number density = 19.565281 Si / 1000 Ang^3
#
#
#
# Elastic Constant Matrix: (Units=GPa)
#
#
# Indices 1 2 3 4 5 6 
#
# 1 46.9550 8.6103 7.3809 0.0000 10.8018 0.0000
# 2 8.6103 51.6026 14.4892 0.0000 0.8186 0.0000
# 3 7.3809 14.4892 103.4823 0.0000 -10.6303 0.0000
# 4 0.0000 0.0000 0.0000 8.4005 0.0000 2.1663
# 5 10.8018 0.8186 -10.6303 0.0000 39.4939 0.0000
# 6 0.0000 0.0000 0.0000 2.1663 0.0000 8.9321
#
#
#
# Elastic Compliance Matrix: (Units=1/GPa)
#
#
# Indices 1 2 3 4 5 6 
#
# 1 0.023815 -0.003316 -0.001950 0.000000 -0.006970 0.000000
# 2 -0.003316 0.020690 -0.002686 0.000000 -0.000245 0.000000
# 3 -0.001950 -0.002686 0.010530 0.000000 0.003423 0.000000
# 4 0.000000 0.000000 0.000000 0.126982 0.000000 -0.030797
# 5 -0.006970 -0.000245 0.003423 0.000000 0.028153 0.000000
# 6 0.000000 0.000000 0.000000 -0.030797 0.000000 0.119426
#
#
# Mechanical properties :
#
#
# Convention : Reuss Voigt Hill
#
# Bulk Modulus (GPa) = 25.55433 29.22230 27.38832
# Shear Modulus (GPa) = 13.94533 22.80260 18.37397
#
# Velocity S-wave (km/s) = 2.67265 3.41759 3.06782
# Velocity P-wave (km/s) = 4.75536 5.52643 5.15533
#
# Compressibility (1/GPa) = 0.03913232
#
# Stress axis : x y z
#
# Youngs Moduli (GPa) = 41.99046 48.33241 94.96403
#
# Poissons Ratio (x) = 0.16025 0.18521
# Poissons Ratio (y) = 0.13922 0.25504
# Poissons Ratio (z) = 0.08190 0.12980
#
# Static dielectric constant tensor:
#      x y z
#    x 1.756080 0.000000 -0.007510 
#    y 0.000000 1.658050 0.000000 
#    z -0.007510 0.000000 1.731280 
# 
# From -- ./inp_files/32605.got.cif
#   From: 2010.05.17/outbox.cif.g08.bks.cpg/sg11_17_cif.got.tgz:32605.got - 2010.06.03 12:22:45.
