data_PCOD9158636
_publ_section_title
;
Structure prediction by ZEFSAII (Michael W. Deem and Ramdas Pophale) SiO2 
 PCOD9158636
Probable space group: P 21/M
;
_chemical_formula_sum "Si O2"
_cell_formula_units_Z 22
_cell_length_a 6.578240
_cell_length_b 21.049019
_cell_length_c 7.030270
_cell_angle_alpha 90.000000
_cell_angle_beta 80.053014
_cell_angle_gamma 90.000000
_cell_volume 958.816946
_symmetry_space_group_name_H-M "P 21/M"
_symmetry_group_IT_number 11
_symmetry_cell_setting 'monoclinic'
loop_
_space_group_symop_operation_xyz
x,y,z
-x,1/2+y,-z
-x,-y,-z
x,1/2-y,z
loop_
_atom_site_type_symbol
_atom_site_label
_atom_site_fract_x
_atom_site_fract_y
_atom_site_fract_z
Si Si1 0.257309 0.483654 0.497438
Si Si2 0.746923 0.380179 0.430111
Si Si3 0.800485 0.750000 0.121896
Si Si4 0.568596 0.750000 0.818527
Si Si5 0.662530 0.878542 0.248930
Si Si6 0.413592 0.389951 0.182005
Si Si7 0.884952 0.250000 0.281959
O O1 0.500000 0.500000 0.500000
O O2 0.154512 0.552918 0.518038
O O3 0.213087 0.436023 0.676705
O O4 0.723774 0.556042 0.699271
O O5 0.548144 0.367812 0.597806
O O6 0.642680 0.393429 0.238177
O O7 0.882634 0.316699 0.396018
O O8 0.800289 0.815186 0.232778
O O9 0.579132 0.750000 0.046062
O O10 0.958044 0.750000 0.920287
O O11 0.658473 0.818462 0.748112
O O12 0.341014 0.750000 0.775881
O O13 0.601486 0.893670 0.041667
#
# Coordination Sequence:
#
# PCOD9158636 Si02
#       7
#     4   4   2   2   4   4   2
#     4   8  16  26  44  77 100 128 172 203 251 313
#     4   9  18  30  49  74 100 134 171 203 257 312
#     4  10  19  31  55  80  98 135 181 206 252 311
#     4   8  16  30  50  72  98 132 168 202 250 302
#     4   9  16  29  50  73  99 134 169 208 252 302
#     4   8  14  26  47  72  99 127 164 208 245 291
#     4  10  19  35  53  72 106 137 163 222 262 287
#
# _framework density 22.944942000000001
#
# number of rings (size 3 to 8) (size 9 to 14) (size 15 to 20)
#    0.000    3.636    0.000    0.545    0.000    8.727 
#    0.000    0.909    0.000   69.818    0.000    0.000 
#    0.000   13.091    0.000    0.000    0.000    0.000 
#
# Total GULP energy -122583.169344 kJ/mol
# GULP energy per Si atom -5571.962243 kJ/mol
# Density = 2.289272 g / cm^3
# Si number density = 22.944942 Si / 1000 Ang^3
#
#
#
# Elastic Constant Matrix: (Units=GPa)
#
#
# Indices 1 2 3 4 5 6 
#
# 1 40.7140 6.3388 24.6643 0.0000 3.7693 0.0000
# 2 6.3388 234.5180 66.2588 0.0000 -10.8132 0.0000
# 3 24.6643 66.2588 130.0964 0.0000 7.8775 0.0000
# 4 0.0000 0.0000 0.0000 42.8733 0.0000 3.2961
# 5 3.7693 -10.8132 7.8775 0.0000 34.6669 0.0000
# 6 0.0000 0.0000 0.0000 3.2961 0.0000 -3.4339
#
#
#
# Elastic Compliance Matrix: (Units=1/GPa)
#
#
# Indices 1 2 3 4 5 6 
#
# 1 0.027976 0.000754 -0.005595 0.000000 -0.001535 0.000000
# 2 0.000754 0.005166 -0.002906 0.000000 0.002190 0.000000
# 3 -0.005595 -0.002906 0.010389 0.000000 -0.002659 0.000000
# 4 0.000000 0.000000 0.000000 0.021722 0.000000 0.020850
# 5 -0.001535 0.002190 -0.002659 0.000000 0.030300 0.000000
# 6 0.000000 0.000000 0.000000 0.020850 0.000000 -0.271197
#
#
# Mechanical properties :
#
#
# Convention : Reuss Voigt Hill
#
# Bulk Modulus (GPa) = 35.66949 66.65023 51.15986
# Shear Modulus (GPa) = -33.15523 35.35902 1.10190
#
# Velocity S-wave (km/s) = -3.80543 3.92986 0.69374
# Velocity P-wave (km/s) = 1.93104 7.05002 4.79447
#
# Compressibility (1/GPa) = 0.02803516
#
# Stress axis : x y z
#
# Youngs Moduli (GPa) = 35.74546 193.57971 96.25982
#
# Poissons Ratio (x) = -0.14590 0.53854
# Poissons Ratio (y) = -0.02694 0.27978
# Poissons Ratio (z) = 0.19998 0.56263
#
# Static dielectric constant tensor:
#      x y z
#    x 1.948500 0.000000 0.011330 
#    y 0.000000 1.983340 0.000000 
#    z 0.011330 0.000000 1.818910 
# 
# From -- ./inp_files/13709.got.cif
#   From: 2010.05.17/outbox.cif.g08.bks.cpg/sg11_7_cif.got.tgz:13709.got - 2010.06.03 12:22:45.
