data_PCOD9158354
_publ_section_title
;
Structure prediction by ZEFSAII (Michael W. Deem and Ramdas Pophale) SiO2 
 PCOD9158354
Probable space group: P 21/M
;
_chemical_formula_sum "Si O2"
_cell_formula_units_Z 28
_cell_length_a 27.079360
_cell_length_b 7.371081
_cell_length_c 8.055592
_cell_angle_alpha 90.000000
_cell_angle_beta 38.716903
_cell_angle_gamma 90.000000
_cell_volume 1005.716362
_symmetry_space_group_name_H-M "P 21/M"
_symmetry_group_IT_number 11
_symmetry_cell_setting 'monoclinic'
loop_
_space_group_symop_operation_xyz
x,y,z
-x,1/2+y,-z
-x,-y,-z
x,1/2-y,z
loop_
_atom_site_type_symbol
_atom_site_label
_atom_site_fract_x
_atom_site_fract_y
_atom_site_fract_z
Si Si1 0.377523 0.039245 0.374100
Si Si2 0.809948 0.467888 0.451191
Si Si3 0.233445 0.026698 0.944900
Si Si4 0.478439 0.030144 0.798849
Si Si5 0.911391 0.960811 0.856849
Si Si6 0.337081 0.460876 0.974337
Si Si7 0.948956 0.033766 0.301081
O O1 0.367421 0.250000 0.363136
O O2 0.291931 0.966629 0.643058
O O3 0.432773 0.026994 0.393993
O O4 0.428906 0.961672 0.090049
O O5 0.811650 0.250000 0.445989
O O6 0.854623 0.530625 0.168810
O O7 0.720457 0.529135 0.713968
O O8 0.863326 0.535830 0.468535
O O9 0.231222 0.250000 0.953124
O O10 0.144823 0.962291 0.140234
O O11 0.281235 0.959247 0.979173
O O12 0.478591 0.250000 0.796142
O O13 0.423454 0.964306 0.791904
O O14 0.924116 0.750000 0.789764
O O15 0.995178 0.039779 0.697686
O O16 0.348201 0.250000 0.905710
O O17 0.943674 0.250000 0.335531
O O18 0.000000 0.000000 0.000000
#
# Coordination Sequence:
#
# PCOD9158354 Si02
#       7
#     4   4   4   4   4   4   4
#     4   9  17  31  50  71  94 120 154 197 240 279
#     4  10  19  31  48  73 101 126 158 201 245 284
#     4   9  18  32  51  73  96 126 165 201 231 277
#     4   9  18  32  50  71  94 121 156 196 236 282
#     4   9  16  31  54  74  94 125 163 199 238 284
#     4  10  20  34  50  69  96 131 167 197 231 281
#     4   8  15  27  46  71  96 122 155 197 240 282
#
# _framework density 27.840851000000001
#
# number of rings (size 3 to 8) (size 9 to 14) (size 15 to 20)
#    0.000    2.857    0.000    1.286    0.000    4.000 
#    0.000    5.714    0.000    0.000    0.000    0.000 
#    0.000    0.000    0.000    0.000    0.000    0.000 
#
# Total GULP energy -156645.093177 kJ/mol
# GULP energy per Si atom -5594.467613 kJ/mol
# Density = 2.777748 g / cm^3
# Si number density = 27.840851 Si / 1000 Ang^3
#
#
#
# Elastic Constant Matrix: (Units=GPa)
#
#
# Indices 1 2 3 4 5 6 
#
# 1 188.4510 8.7360 36.3967 0.0000 -33.4631 0.0000
# 2 8.7360 138.6293 6.3649 0.0000 3.9656 0.0000
# 3 36.3967 6.3649 120.8617 0.0000 -35.5348 0.0000
# 4 0.0000 0.0000 0.0000 15.7575 0.0000 -0.9088
# 5 -33.4631 3.9656 -35.5348 0.0000 62.9472 0.0000
# 6 0.0000 0.0000 0.0000 -0.9088 0.0000 11.6406
#
#
#
# Elastic Compliance Matrix: (Units=1/GPa)
#
#
# Indices 1 2 3 4 5 6 
#
# 1 0.005989 -0.000407 -0.001005 0.000000 0.002642 0.000000
# 2 -0.000407 0.007293 -0.000552 0.000000 -0.000987 0.000000
# 3 -0.001005 -0.000552 0.010142 0.000000 0.005226 0.000000
# 4 0.000000 0.000000 0.000000 0.063749 0.000000 0.004977
# 5 0.002642 -0.000987 0.005226 0.000000 0.020303 0.000000
# 6 0.000000 0.000000 0.000000 0.004977 0.000000 0.086295
#
#
# Mechanical properties :
#
#
# Convention : Reuss Voigt Hill
#
# Bulk Modulus (GPa) = 51.29367 61.21525 56.25446
# Shear Modulus (GPa) = 24.48620 44.49867 34.49244
#
# Velocity S-wave (km/s) = 2.96886 4.00224 3.52364
# Velocity P-wave (km/s) = 5.49692 6.58730 6.06666
#
# Compressibility (1/GPa) = 0.01949558
#
# Stress axis : x y z
#
# Youngs Moduli (GPa) = 166.98646 137.12361 98.59840
#
# Poissons Ratio (x) = 0.05578 0.09912
# Poissons Ratio (y) = 0.06793 0.05441
# Poissons Ratio (z) = 0.16787 0.07566
#
# Static dielectric constant tensor:
#      x y z
#    x 2.278130 0.000000 0.084860 
#    y 0.000000 1.992950 0.000000 
#    z 0.084860 0.000000 2.170360 
# 
# From -- ./inp_files/28415.got.cif
#   From: 2010.05.17/outbox.cif.g08.bks.cpg/sg11_15_cif.got.tgz:28415.got - 2010.06.03 12:22:45.
