data_PCOD9158557
_publ_section_title
;
Structure prediction by ZEFSAII (Michael W. Deem and Ramdas Pophale) SiO2 
 PCOD9158557
Probable space group: P 21/M
;
_chemical_formula_sum "Si O2"
_cell_formula_units_Z 24
_cell_length_a 19.020539
_cell_length_b 9.090819
_cell_length_c 9.417224
_cell_angle_alpha 90.000000
_cell_angle_beta 116.763128
_cell_angle_gamma 90.000000
_cell_volume 1453.917550
_symmetry_space_group_name_H-M "P 21/M"
_symmetry_group_IT_number 11
_symmetry_cell_setting 'monoclinic'
loop_
_space_group_symop_operation_xyz
x,y,z
-x,1/2+y,-z
-x,-y,-z
x,1/2-y,z
loop_
_atom_site_type_symbol
_atom_site_label
_atom_site_fract_x
_atom_site_fract_y
_atom_site_fract_z
Si Si1 0.419616 0.421853 0.886419
Si Si2 0.712111 0.076029 0.393405
Si Si3 0.258288 0.420189 0.853562
Si Si4 0.125704 0.425524 0.955708
Si Si5 0.162653 0.074235 0.311387
Si Si6 0.008226 0.425564 0.354097
O O1 0.432248 0.250000 0.868589
O O2 0.372356 0.499958 0.714570
O O3 0.353063 0.432882 0.950604
O O4 0.500000 0.500000 0.000000
O O5 0.704863 0.250000 0.394468
O O6 0.760391 0.026321 0.295327
O O7 0.759491 0.009351 0.567374
O O8 0.242296 0.250000 0.795379
O O9 0.207075 0.450690 0.944293
O O10 0.108942 0.250000 0.934403
O O11 0.058208 0.511775 0.811535
O O12 0.135315 0.467554 0.128388
O O13 0.177202 0.250000 0.325520
O O14 0.092192 0.043119 0.357111
O O15 0.000612 0.250000 0.361435
O O16 0.000000 0.500000 0.500000
#
# Coordination Sequence:
#
# PCOD9158557 Si02
#       6
#     4   4   4   4   4   4
#     4   9  17  31  53  80 107 131 166 210 254 303
#     4  10  19  31  51  77 104 134 171 210 252 299
#     4   8  17  32  51  74 101 130 166 210 255 301
#     4  10  20  36  55  74 100 137 174 213 262 307
#     4  10  21  36  52  72 103 139 174 212 259 307
#     4  11  23  36  52  75 103 136 175 219 258 300
#
# _framework density 16.507126
#
# number of rings (size 3 to 8) (size 9 to 14) (size 15 to 20)
#    1.000    1.333    0.000    3.500    0.000    6.667 
#    0.000    0.000    0.000    1.000    0.000    0.000 
#    0.000    0.000    0.000    0.000    0.000    0.000 
#
# Total GULP energy -133638.425346 kJ/mol
# GULP energy per Si atom -5568.267723 kJ/mol
# Density = 1.646955 g / cm^3
# Si number density = 16.507126 Si / 1000 Ang^3
#
#
#
# Elastic Constant Matrix: (Units=GPa)
#
#
# Indices 1 2 3 4 5 6 
#
# 1 53.8803 46.0703 51.8151 0.0000 24.5499 0.0000
# 2 46.0703 82.2675 68.2880 0.0000 19.4043 0.0000
# 3 51.8151 68.2880 138.4023 0.0000 19.2828 0.0000
# 4 0.0000 0.0000 0.0000 31.6445 0.0000 7.2228
# 5 24.5499 19.4043 19.2828 0.0000 25.8799 0.0000
# 6 0.0000 0.0000 0.0000 7.2228 0.0000 19.4768
#
#
#
# Elastic Compliance Matrix: (Units=1/GPa)
#
#
# Indices 1 2 3 4 5 6 
#
# 1 0.056643 -0.016747 -0.008041 0.000000 -0.035184 0.000000
# 2 -0.016747 0.027496 -0.007407 0.000000 0.000789 0.000000
# 3 -0.008041 -0.007407 0.013450 0.000000 0.003160 0.000000
# 4 0.000000 0.000000 0.000000 0.034523 0.000000 -0.012803
# 5 -0.035184 0.000789 0.003160 0.000000 0.069070 0.000000
# 6 0.000000 0.000000 0.000000 -0.012803 0.000000 0.056091
#
#
# Mechanical properties :
#
#
# Convention : Reuss Voigt Hill
#
# Bulk Modulus (GPa) = 30.12086 67.43299 48.77692
# Shear Modulus (GPa) = 15.02720 22.62536 18.82628
#
# Velocity S-wave (km/s) = 3.02047 3.70623 3.38078
# Velocity P-wave (km/s) = 5.51825 7.69769 6.69722
#
# Compressibility (1/GPa) = 0.03319959
#
# Stress axis : x y z
#
# Youngs Moduli (GPa) = 17.65428 36.36906 74.34952
#
# Poissons Ratio (x) = 0.60908 0.59785
# Poissons Ratio (y) = 0.29566 0.55068
# Poissons Ratio (z) = 0.14196 0.26937
#
# Static dielectric constant tensor:
#      x y z
#    x 1.561300 0.000000 0.001070 
#    y 0.000000 1.555550 0.000000 
#    z 0.001070 0.000000 1.541540 
# 
# From -- ./inp_files/25618.got.cif
#   From: 2010.05.17/outbox.cif.g08.bks.cpg/sg11_13_cif.got.tgz:25618.got - 2010.06.03 12:22:45.
