data_PCOD9158806
_publ_section_title
;
Structure prediction by ZEFSAII (Michael W. Deem and Ramdas Pophale) SiO2 
 PCOD9158806
Probable space group: P 21/M
;
_chemical_formula_sum "Si O2"
_cell_formula_units_Z 32
_cell_length_a 10.136178
_cell_length_b 9.415601
_cell_length_c 21.039654
_cell_angle_alpha 90.000000
_cell_angle_beta 99.726605
_cell_angle_gamma 90.000000
_cell_volume 1979.122310
_symmetry_space_group_name_H-M "P 21/M"
_symmetry_group_IT_number 11
_symmetry_cell_setting 'monoclinic'
loop_
_space_group_symop_operation_xyz
x,y,z
-x,1/2+y,-z
-x,-y,-z
x,1/2-y,z
loop_
_atom_site_type_symbol
_atom_site_label
_atom_site_fract_x
_atom_site_fract_y
_atom_site_fract_z
Si Si1 0.874297 0.081459 0.960658
Si Si2 0.875695 0.414654 0.682856
Si Si3 0.800140 0.587282 0.307395
Si Si4 0.371359 0.919027 0.963290
Si Si5 0.231644 0.079155 0.838795
Si Si6 0.150185 0.413430 0.442587
Si Si7 0.174911 0.913041 0.568650
Si Si8 0.917724 0.421747 0.824168
O O1 0.904686 0.250000 0.961792
O O2 0.746919 0.060495 0.994850
O O3 0.853565 0.035319 0.885730
O O4 0.000000 0.000000 0.000000
O O5 0.832560 0.250000 0.673734
O O6 0.819469 0.507864 0.621016
O O7 0.853387 0.471472 0.752602
O O8 0.038018 0.414103 0.688581
O O9 0.763663 0.750000 0.319639
O O10 0.742185 0.549658 0.233556
O O11 0.768209 0.485481 0.363245
O O12 0.393725 0.750000 0.957766
O O13 0.500000 0.000000 0.000000
O O14 0.322486 0.991269 0.894051
O O15 0.245445 0.250000 0.849555
O O16 0.075561 0.041350 0.838938
O O17 0.192739 0.250000 0.445845
O O18 0.204842 0.497677 0.507882
O O19 0.987553 0.414717 0.436695
O O20 0.216051 0.750000 0.565498
O O21 0.913227 0.250000 0.819181
#
# Coordination Sequence:
#
# PCOD9158806 Si02
#       8
#     4   4   4   4   4   4   4   4
#     4  10  19  32  51  73  93 118 154 194 237 282
#     4   8  13  22  35  51  72 102 136 169 212 266
#     4   8  14  23  36  54  74 101 137 174 218 266
#     4  11  23  35  49  70  95 125 158 193 235 284
#     4   9  16  29  48  65  86 116 146 185 234 280
#     4   9  15  21  29  43  68 101 136 176 214 252
#     4   9  15  21  30  45  67 100 139 177 213 253
#     4   8  14  26  45  65  86 111 142 184 231 275
#
# _framework density 16.168783999999999
#
# number of rings (size 3 to 8) (size 9 to 14) (size 15 to 20)
#    0.000    3.000    1.250    2.625    0.000    4.000 
#    0.000    2.500    0.000    0.000    0.000    0.000 
#    0.000    0.000    0.000    1.125    0.000   12.750 
#
# Total GULP energy -178152.518792 kJ/mol
# GULP energy per Si atom -5567.266212 kJ/mol
# Density = 1.613198 g / cm^3
# Si number density = 16.168784 Si / 1000 Ang^3
#
#
#
# Elastic Constant Matrix: (Units=GPa)
#
#
# Indices 1 2 3 4 5 6 
#
# 1 23.5019 31.9495 33.1700 0.0000 -1.8674 0.0000
# 2 31.9495 102.2222 95.5534 0.0000 -8.7025 0.0000
# 3 33.1700 95.5534 171.9944 0.0000 -22.6433 0.0000
# 4 0.0000 0.0000 0.0000 32.2126 0.0000 -0.7753
# 5 -1.8674 -8.7025 -22.6433 0.0000 12.7532 0.0000
# 6 0.0000 0.0000 0.0000 -0.7753 0.0000 9.7406
#
#
#
# Elastic Compliance Matrix: (Units=1/GPa)
#
#
# Indices 1 2 3 4 5 6 
#
# 1 0.075947 -0.019992 -0.005053 0.000000 -0.011493 0.000000
# 2 -0.019992 0.026272 -0.011439 0.000000 -0.005310 0.000000
# 3 -0.005053 -0.011439 0.015685 0.000000 0.019303 0.000000
# 4 0.000000 0.000000 0.000000 0.031103 0.000000 0.002476
# 5 -0.011493 -0.005310 0.019303 0.000000 0.107377 0.000000
# 6 0.000000 0.000000 0.000000 0.002476 0.000000 0.102860
#
#
# Mechanical properties :
#
#
# Convention : Reuss Voigt Hill
#
# Bulk Modulus (GPa) = 22.25438 68.78493 45.51966
# Shear Modulus (GPa) = 11.18089 20.07764 15.62926
#
# Velocity S-wave (km/s) = 2.63251 3.52768 3.11244
# Velocity P-wave (km/s) = 4.79936 7.69590 6.41329
#
# Compressibility (1/GPa) = 0.04493498
#
# Stress axis : x y z
#
# Youngs Moduli (GPa) = 13.16716 38.06321 63.75499
#
# Poissons Ratio (x) = 0.76097 0.32214
# Poissons Ratio (y) = 0.26324 0.72931
# Poissons Ratio (z) = 0.06653 0.43541
#
# Static dielectric constant tensor:
#      x y z
#    x 1.514290 0.000000 -0.020870 
#    y 0.000000 1.538930 0.000000 
#    z -0.020870 0.000000 1.564010 
# 
# From -- ./inp_files/64252.got.cif
#   From: 2010.05.17/outbox.cif.g08.bks.cpg/sg11_33_cif.got.tgz:64252.got - 2010.06.03 12:22:45.
