data_PCOD9158528
_publ_section_title
;
Structure prediction by ZEFSAII (Michael W. Deem and Ramdas Pophale) SiO2 
 PCOD9158528
Probable space group: P 21/M
;
_chemical_formula_sum "Si O2"
_cell_formula_units_Z 28
_cell_length_a 30.549677
_cell_length_b 8.329444
_cell_length_c 9.580387
_cell_angle_alpha 90.000000
_cell_angle_beta 38.694567
_cell_angle_gamma 90.000000
_cell_volume 1524.062861
_symmetry_space_group_name_H-M "P 21/M"
_symmetry_group_IT_number 11
_symmetry_cell_setting 'monoclinic'
loop_
_space_group_symop_operation_xyz
x,y,z
-x,1/2+y,-z
-x,-y,-z
x,1/2-y,z
loop_
_atom_site_type_symbol
_atom_site_label
_atom_site_fract_x
_atom_site_fract_y
_atom_site_fract_z
Si Si1 0.434352 0.944115 0.574638
Si Si2 0.002268 0.055736 0.835650
Si Si3 0.281560 0.935804 0.963141
Si Si4 0.869105 0.056085 0.988826
Si Si5 0.868737 0.559875 0.673086
Si Si6 0.565469 0.444532 0.747869
Si Si7 0.717010 0.436531 0.380042
O O1 0.431384 0.750000 0.582856
O O2 0.357650 0.000067 0.818867
O O3 0.442809 0.995868 0.392644
O O4 0.500000 0.000000 0.500000
O O5 0.002137 0.250000 0.834320
O O6 0.072026 0.000608 0.580773
O O7 0.933849 0.999860 0.920456
O O8 0.000000 0.000000 0.000000
O O9 0.275233 0.750000 0.021853
O O10 0.284505 0.937466 0.785930
O O11 0.210161 0.022991 0.180688
O O12 0.866245 0.250000 0.004057
O O13 0.878574 0.013981 0.802564
O O14 0.792787 0.992233 0.227894
O O15 0.876553 0.750000 0.668747
O O16 0.568325 0.250000 0.741655
O O17 0.641701 0.505002 0.611227
O O18 0.500000 0.500000 0.000000
O O19 0.717817 0.250000 0.423062
#
# Coordination Sequence:
#
# PCOD9158528 Si02
#       7
#     4   4   4   4   4   4   4
#     4   9  18  32  50  72  99 129 164 203 243 287
#     4  10  22  36  50  71 101 133 162 194 241 295
#     4   8  15  30  50  70  93 127 166 200 237 287
#     4   9  17  33  55  74  92 123 164 201 239 289
#     4  10  19  31  50  78 102 121 155 205 249 285
#     4   9  17  30  47  69  96 125 156 195 238 281
#     4   7  12  26  48  68  88 116 155 198 232 268
#
# _framework density 18.371945
#
# number of rings (size 3 to 8) (size 9 to 14) (size 15 to 20)
#    0.000    3.143    0.000    3.429    0.000    2.857 
#    0.000    7.143    0.000    5.143    0.000    0.000 
#    0.000    0.000    0.000    0.000    0.000    0.000 
#
# Total GULP energy -155904.416891 kJ/mol
# GULP energy per Si atom -5568.014889 kJ/mol
# Density = 1.833013 g / cm^3
# Si number density = 18.371945 Si / 1000 Ang^3
#
#
#
# Elastic Constant Matrix: (Units=GPa)
#
#
# Indices 1 2 3 4 5 6 
#
# 1 124.7460 11.8439 87.8719 0.0000 -36.7965 0.0000
# 2 11.8439 5.1935 13.3248 0.0000 -6.1363 0.0000
# 3 87.8719 13.3248 161.9434 0.0000 -39.7129 0.0000
# 4 0.0000 0.0000 0.0000 26.0405 0.0000 -1.4658
# 5 -36.7965 -6.1363 -39.7129 0.0000 29.7335 0.0000
# 6 0.0000 0.0000 0.0000 -1.4658 0.0000 23.0717
#
#
#
# Elastic Compliance Matrix: (Units=1/GPa)
#
#
# Indices 1 2 3 4 5 6 
#
# 1 0.015664 -0.010311 -0.005084 0.000000 0.010466 0.000000
# 2 -0.010311 0.278117 -0.009432 0.000000 0.032038 0.000000
# 3 -0.005084 -0.009432 0.011435 0.000000 0.007034 0.000000
# 4 0.000000 0.000000 0.000000 0.038540 0.000000 0.002448
# 5 0.010466 0.032038 0.007034 0.000000 0.062591 0.000000
# 6 0.000000 0.000000 0.000000 0.002448 0.000000 0.043499
#
#
# Mechanical properties :
#
#
# Convention : Reuss Voigt Hill
#
# Bulk Modulus (GPa) = 3.91298 57.55158 30.73228
# Shear Modulus (GPa) = 8.55159 27.69195 18.12177
#
# Velocity S-wave (km/s) = 2.15982 3.88660 3.14408
# Velocity P-wave (km/s) = 2.89037 7.17877 5.47215
#
# Compressibility (1/GPa) = 0.25555986
#
# Stress axis : x y z
#
# Youngs Moduli (GPa) = 63.84092 3.59561 87.45191
#
# Poissons Ratio (x) = 0.03708 0.44465
# Poissons Ratio (y) = 0.65828 0.82485
# Poissons Ratio (z) = 0.32460 0.03391
#
# Static dielectric constant tensor:
#      x y z
#    x 1.640810 0.000000 -0.046710 
#    y 0.000000 1.651520 0.000000 
#    z -0.046710 0.000000 1.646770 
# 
# From -- ./inp_files/28990.got.cif
#   From: 2010.05.17/outbox.cif.g08.bks.cpg/sg11_15_cif.got.tgz:28990.got - 2010.06.03 12:22:45.
