data_PCOD9158642
_publ_section_title
;
Structure prediction by ZEFSAII (Michael W. Deem and Ramdas Pophale) SiO2 
 PCOD9158642
Probable space group: P 21/M
;
_chemical_formula_sum "Si O2"
_cell_formula_units_Z 24
_cell_length_a 13.618305
_cell_length_b 15.556435
_cell_length_c 5.518871
_cell_angle_alpha 90.000000
_cell_angle_beta 92.137721
_cell_angle_gamma 90.000000
_cell_volume 1168.371694
_symmetry_space_group_name_H-M "P 21/M"
_symmetry_group_IT_number 11
_symmetry_cell_setting 'monoclinic'
loop_
_space_group_symop_operation_xyz
x,y,z
-x,1/2+y,-z
-x,-y,-z
x,1/2-y,z
loop_
_atom_site_type_symbol
_atom_site_label
_atom_site_fract_x
_atom_site_fract_y
_atom_site_fract_z
Si Si1 0.866005 0.343884 0.761864
Si Si2 0.570331 0.915961 0.968028
Si Si3 0.240839 0.989808 0.937322
Si Si4 0.696463 0.155952 0.386872
Si Si5 0.962323 0.544439 0.247732
Si Si6 0.502137 0.396125 0.538628
O O1 0.851647 0.250000 0.875099
O O2 0.805837 0.342840 0.506368
O O3 0.980467 0.365219 0.745149
O O4 0.815115 0.421998 0.897818
O O5 0.560149 0.872512 0.230754
O O6 0.681615 0.947171 0.932542
O O7 0.534287 0.865072 0.728536
O O8 0.500000 0.000000 0.000000
O O9 0.306810 0.927145 0.779397
O O10 0.155321 0.039007 0.782037
O O11 0.677955 0.250000 0.275793
O O12 0.612956 0.138512 0.579985
O O13 0.000000 0.500000 0.500000
O O14 0.000000 0.500000 0.000000
O O15 0.500000 0.500000 0.500000
#
# Coordination Sequence:
#
# PCOD9158642 Si02
#       6
#     4   4   4   4   4   4
#     4  10  21  36  54  83 118 147 179 237 294 333
#     4  10  19  31  56  75 106 141 183 221 261 316
#     4  11  20  34  57  83 110 144 195 226 279 331
#     4  11  21  32  54  83 114 142 178 232 288 330
#     4  10  21  36  56  80 111 145 189 229 275 341
#     4  10  19  34  50  78 107 144 180 215 267 322
#
# _framework density 20.541409999999999
#
# number of rings (size 3 to 8) (size 9 to 14) (size 15 to 20)
#    0.000    1.667    5.000    2.500    0.000    0.000 
#    0.000    0.000    0.000    2.000    0.000    0.000 
#    0.000    0.000    0.000    0.000    0.000    0.000 
#
# Total GULP energy -133645.846584 kJ/mol
# GULP energy per Si atom -5568.576941 kJ/mol
# Density = 2.049466 g / cm^3
# Si number density = 20.541410 Si / 1000 Ang^3
#
#
#
# Elastic Constant Matrix: (Units=GPa)
#
#
# Indices 1 2 3 4 5 6 
#
# 1 103.9945 28.5091 8.8432 0.0000 18.5731 0.0000
# 2 28.5091 34.2674 6.7731 0.0000 4.0899 0.0000
# 3 8.8432 6.7731 103.4894 0.0000 3.5229 0.0000
# 4 0.0000 0.0000 0.0000 25.1028 0.0000 -20.7068
# 5 18.5731 4.0899 3.5229 0.0000 33.0190 0.0000
# 6 0.0000 0.0000 0.0000 -20.7068 0.0000 40.8620
#
#
#
# Elastic Compliance Matrix: (Units=1/GPa)
#
#
# Indices 1 2 3 4 5 6 
#
# 1 0.013668 -0.010561 -0.000260 0.000000 -0.006352 0.000000
# 2 -0.010561 0.038127 -0.001640 0.000000 0.001393 0.000000
# 3 -0.000260 -0.001640 0.009816 0.000000 -0.000698 0.000000
# 4 0.000000 0.000000 0.000000 0.068448 0.000000 0.034686
# 5 -0.006352 0.001393 -0.000698 0.000000 0.033761 0.000000
# 6 0.000000 0.000000 0.000000 0.034686 0.000000 0.042050
#
#
# Mechanical properties :
#
#
# Convention : Reuss Voigt Hill
#
# Bulk Modulus (GPa) = 27.25798 36.66692 31.96245
# Shear Modulus (GPa) = 20.57423 32.97182 26.77303
#
# Velocity S-wave (km/s) = 3.16824 4.01077 3.61414
# Velocity P-wave (km/s) = 5.16548 6.27195 5.74541
#
# Compressibility (1/GPa) = 0.03668650
#
# Stress axis : x y z
#
# Youngs Moduli (GPa) = 73.16450 26.22822 101.87263
#
# Poissons Ratio (x) = 0.27701 0.02653
# Poissons Ratio (y) = 0.77272 0.16710
# Poissons Ratio (z) = 0.01906 0.04302
#
# Static dielectric constant tensor:
#      x y z
#    x 1.737490 0.000000 -0.000200 
#    y 0.000000 1.784900 0.000000 
#    z -0.000200 0.000000 1.898160 
# 
# From -- ./inp_files/4623.got.cif
#   From: 2010.05.17/outbox.cif.g08.bks.cpg/sg11_3_cif.got.tgz:4623.got - 2010.06.03 12:22:45.
