data_PCOD9158686
_publ_section_title
;
Structure prediction by ZEFSAII (Michael W. Deem and Ramdas Pophale) SiO2 
 PCOD9158686
Probable space group: P 21/M
;
_chemical_formula_sum "Si O2"
_cell_formula_units_Z 32
_cell_length_a 12.642143
_cell_length_b 7.418973
_cell_length_c 22.398900
_cell_angle_alpha 90.000000
_cell_angle_beta 45.443125
_cell_angle_gamma 90.000000
_cell_volume 1496.956454
_symmetry_space_group_name_H-M "P 21/M"
_symmetry_group_IT_number 11
_symmetry_cell_setting 'monoclinic'
loop_
_space_group_symop_operation_xyz
x,y,z
-x,1/2+y,-z
-x,-y,-z
x,1/2-y,z
loop_
_atom_site_type_symbol
_atom_site_label
_atom_site_fract_x
_atom_site_fract_y
_atom_site_fract_z
Si Si1 0.109005 0.964858 0.901917
Si Si2 0.345473 0.455889 0.229444
Si Si3 0.438686 0.971727 0.756761
Si Si4 0.728503 0.031700 0.424149
Si Si5 0.459018 0.540102 0.613531
Si Si6 0.938906 0.529335 0.727167
Si Si7 0.900904 0.970267 0.879605
Si Si8 0.570434 0.536023 0.036913
O O1 0.120244 0.750000 0.891036
O O2 0.276732 0.030016 0.844320
O O3 0.031501 0.031390 0.871788
O O4 0.000000 0.000000 0.000000
O O5 0.307184 0.250000 0.260473
O O6 0.428565 0.536398 0.253561
O O7 0.196360 0.535988 0.260229
O O8 0.467514 0.453704 0.128417
O O9 0.443398 0.750000 0.756705
O O10 0.452243 0.032306 0.682925
O O11 0.724800 0.250000 0.424685
O O12 0.652737 0.965494 0.392424
O O13 0.898824 0.975405 0.359639
O O14 0.621742 0.973752 0.520047
O O15 0.418209 0.750000 0.635514
O O16 0.933720 0.750000 0.729980
O O17 0.918275 0.472916 0.804190
O O18 0.901209 0.750000 0.879250
O O19 0.740640 0.027242 0.968237
O O20 0.570911 0.750000 0.046719
O O21 0.500000 0.500000 0.000000
#
# Coordination Sequence:
#
# PCOD9158686 Si02
#       8
#     4   4   4   4   4   4   4   4
#     4  10  19  32  49  70  97 126 161 199 237 283
#     4  10  19  33  51  71  98 130 167 204 240 288
#     4   9  18  32  52  74  97 132 167 197 239 294
#     4   9  17  30  52  76  96 122 160 204 245 289
#     4   9  17  32  52  74  98 125 159 198 245 295
#     4   9  16  29  49  71  93 122 162 200 236 286
#     4   9  17  29  48  70  92 124 163 199 235 283
#     4  11  20  32  49  71  98 130 168 205 245 287
#
# _framework density 21.376707
#
# number of rings (size 3 to 8) (size 9 to 14) (size 15 to 20)
#    0.000    2.500    1.250    1.875    0.000    3.000 
#    0.000    3.125    0.000    1.500    0.000    0.000 
#    0.000    0.000    0.000    0.000    0.000    0.000 
#
# Total GULP energy -178738.900378 kJ/mol
# GULP energy per Si atom -5585.590637 kJ/mol
# Density = 2.132805 g / cm^3
# Si number density = 21.376707 Si / 1000 Ang^3
#
#
#
# Elastic Constant Matrix: (Units=GPa)
#
#
# Indices 1 2 3 4 5 6 
#
# 1 162.3078 1.5893 68.7346 0.0000 -5.7691 0.0000
# 2 1.5893 70.2490 -10.4126 0.0000 0.4509 0.0000
# 3 68.7346 -10.4126 102.5520 0.0000 1.1566 0.0000
# 4 0.0000 0.0000 0.0000 18.2960 0.0000 -3.2197
# 5 -5.7691 0.4509 1.1566 0.0000 36.2739 0.0000
# 6 0.0000 0.0000 0.0000 -3.2197 0.0000 -0.4680
#
#
#
# Elastic Compliance Matrix: (Units=1/GPa)
#
#
# Indices 1 2 3 4 5 6 
#
# 1 0.008774 -0.001100 -0.006011 0.000000 0.001601 0.000000
# 2 -0.001100 0.014592 0.002223 0.000000 -0.000427 0.000000
# 3 -0.006011 0.002223 0.014022 0.000000 -0.001431 0.000000
# 4 0.000000 0.000000 0.000000 0.024724 0.000000 -0.170094
# 5 0.001601 -0.000427 -0.001431 0.000000 0.027874 0.000000
# 6 0.000000 0.000000 0.000000 -0.170094 0.000000 -0.966552
#
#
# Mechanical properties :
#
#
# Convention : Reuss Voigt Hill
#
# Bulk Modulus (GPa) = 36.21278 50.54794 43.38036
# Shear Modulus (GPa) = -5.83030 29.16687 11.66829
#
# Velocity S-wave (km/s) = -1.65328 3.69782 2.33886
# Velocity P-wave (km/s) = 3.65139 6.47529 5.25652
#
# Compressibility (1/GPa) = 0.02761456
#
# Stress axis : x y z
#
# Youngs Moduli (GPa) = 113.97112 68.52942 71.31884
#
# Poissons Ratio (x) = 0.07536 0.42866
# Poissons Ratio (y) = 0.12533 -0.15858
# Poissons Ratio (z) = 0.68502 -0.15237
#
# Static dielectric constant tensor:
#      x y z
#    x 1.771890 0.000000 -0.005890 
#    y 0.000000 1.836060 0.000000 
#    z -0.005890 0.000000 1.726850 
# 
# From -- ./inp_files/64392.got.cif
#   From: 2010.05.17/outbox.cif.g08.bks.cpg/sg11_33_cif.got.tgz:64392.got - 2010.06.03 12:22:45.
