data_PCOD9158777
_publ_section_title
;
Structure prediction by ZEFSAII (Michael W. Deem and Ramdas Pophale) SiO2 
 PCOD9158777
Probable space group: P 21/M
;
_chemical_formula_sum "Si O2"
_cell_formula_units_Z 32
_cell_length_a 20.916403
_cell_length_b 9.066281
_cell_length_c 12.428568
_cell_angle_alpha 90.000000
_cell_angle_beta 53.025879
_cell_angle_gamma 90.000000
_cell_volume 1882.927650
_symmetry_space_group_name_H-M "P 21/M"
_symmetry_group_IT_number 11
_symmetry_cell_setting 'monoclinic'
loop_
_space_group_symop_operation_xyz
x,y,z
-x,1/2+y,-z
-x,-y,-z
x,1/2-y,z
loop_
_atom_site_type_symbol
_atom_site_label
_atom_site_fract_x
_atom_site_fract_y
_atom_site_fract_z
Si Si1 0.046903 0.425964 0.235550
Si Si2 0.610823 0.423671 0.475183
Si Si3 0.298642 0.573291 0.982313
Si Si4 0.811313 0.925871 0.739844
Si Si5 0.876859 0.573490 0.444293
Si Si6 0.546442 0.424939 0.296712
Si Si7 0.157993 0.926624 0.954237
Si Si8 0.781549 0.574512 0.321072
O O1 0.043653 0.250000 0.223940
O O2 0.109903 0.457864 0.267824
O O3 0.960875 0.490450 0.351184
O O4 0.083413 0.503327 0.092845
O O5 0.622237 0.250000 0.482398
O O6 0.586658 0.442658 0.373999
O O7 0.536065 0.486670 0.617847
O O8 0.692109 0.510374 0.414693
O O9 0.299382 0.750000 0.991984
O O10 0.262520 0.502455 0.125771
O O11 0.387028 0.525938 0.856545
O O12 0.236059 0.538931 0.949113
O O13 0.798914 0.750000 0.754732
O O14 0.829161 0.971692 0.599938
O O15 0.891857 0.750000 0.437257
O O16 0.826035 0.546560 0.388431
O O17 0.530833 0.250000 0.298893
O O18 0.150391 0.750000 0.955329
O O19 0.172399 0.996078 0.823436
O O20 0.779310 0.750000 0.304555
#
# Coordination Sequence:
#
# PCOD9158777 Si02
#       8
#     4   4   4   4   4   4   4   4
#     4  10  20  34  55  81 102 127 169 218 262 307
#     4  10  19  32  50  76 107 138 169 205 252 302
#     4   9  17  31  52  78 106 133 164 206 258 305
#     4   9  19  35  54  77 103 130 169 217 260 302
#     4  10  22  38  53  72 101 139 175 211 258 305
#     4   9  17  31  50  77 108 135 166 203 251 306
#     4  10  19  34  53  75 105 138 168 207 259 307
#     4  11  22  35  52  73 103 141 176 209 250 304
#
# _framework density 16.994812
#
# number of rings (size 3 to 8) (size 9 to 14) (size 15 to 20)
#    0.000    2.250    1.250    1.875    0.000    4.000 
#    0.000    0.000    0.000    0.750    0.000    0.000 
#    0.000    0.000    0.000    0.000    0.000    0.000 
#
# Total GULP energy -178579.738445 kJ/mol
# GULP energy per Si atom -5580.616826 kJ/mol
# Density = 1.695613 g / cm^3
# Si number density = 16.994812 Si / 1000 Ang^3
#
#
#
# Elastic Constant Matrix: (Units=GPa)
#
#
# Indices 1 2 3 4 5 6 
#
# 1 14.0268 18.6753 41.3677 0.0000 14.8390 0.0000
# 2 18.6753 34.9703 50.9872 0.0000 12.7170 0.0000
# 3 41.3677 50.9872 173.0963 0.0000 6.7900 0.0000
# 4 0.0000 0.0000 0.0000 34.6004 0.0000 -5.7191
# 5 14.8390 12.7170 6.7900 0.0000 16.5372 0.0000
# 6 0.0000 0.0000 0.0000 -5.7191 0.0000 20.3232
#
#
#
# Elastic Compliance Matrix: (Units=1/GPa)
#
#
# Indices 1 2 3 4 5 6 
#
# 1 -0.143364 -0.024630 0.036313 0.000000 0.132673 0.000000
# 2 -0.024630 0.073332 -0.014604 0.000000 -0.028294 0.000000
# 3 0.036313 -0.014604 0.002275 0.000000 -0.022287 0.000000
# 4 0.000000 0.000000 0.000000 0.030311 0.000000 0.008530
# 5 0.132673 -0.028294 -0.022287 0.000000 -0.027670 0.000000
# 6 0.000000 0.000000 0.000000 0.008530 0.000000 0.051605
#
#
# Mechanical properties :
#
#
# Convention : Reuss Voigt Hill
#
# Bulk Modulus (GPa) = -13.58674 49.35041 17.88184
# Shear Modulus (GPa) = -155.27426 21.69636 -66.78895
#
# Velocity S-wave (km/s) = -9.56891 3.57690 -6.27574
# Velocity P-wave (km/s) = 11.40602 6.79415 6.47831
#
# Compressibility (1/GPa) = -0.07360116
#
# Stress axis : x y z
#
# Youngs Moduli (GPa) = -6.97524 13.63664 439.56678
#
# Poissons Ratio (x) = 0.33588 -15.96194
# Poissons Ratio (y) = -0.17180 6.41960
# Poissons Ratio (z) = 0.25329 0.19915
#
# Static dielectric constant tensor:
#      x y z
#    x 1.550240 0.000000 0.000960 
#    y 0.000000 1.564990 0.000000 
#    z 0.000960 0.000000 1.568950 
# 
# From -- ./inp_files/38176.got.cif
#   From: 2010.05.17/outbox.cif.g08.bks.cpg/sg11_20_cif.got.tgz:38176.got - 2010.06.03 12:22:45.
