data_PCOD9158041
_publ_section_title
;
Structure prediction by ZEFSAII (Michael W. Deem and Ramdas Pophale) SiO2 
 PCOD9158041
Probable space group: P 21/M
;
_chemical_formula_sum "Si O2"
_cell_formula_units_Z 32
_cell_length_a 12.624406
_cell_length_b 8.620761
_cell_length_c 22.067804
_cell_angle_alpha 90.000000
_cell_angle_beta 132.534588
_cell_angle_gamma 90.000000
_cell_volume 1769.726597
_symmetry_space_group_name_H-M "P 21/M"
_symmetry_group_IT_number 11
_symmetry_cell_setting 'monoclinic'
loop_
_space_group_symop_operation_xyz
x,y,z
-x,1/2+y,-z
-x,-y,-z
x,1/2-y,z
loop_
_atom_site_type_symbol
_atom_site_label
_atom_site_fract_x
_atom_site_fract_y
_atom_site_fract_z
Si Si1 0.115986 0.062853 0.091387
Si Si2 0.845919 0.073197 0.430771
Si Si3 0.444771 0.436606 0.215642
Si Si4 0.011254 0.935357 0.698875
Si Si5 0.265600 0.572918 0.475912
Si Si6 0.714349 0.569709 0.264192
Si Si7 0.125980 0.061180 0.232909
Si Si8 0.453652 0.060457 0.360514
O O1 0.111279 0.250000 0.089108
O O2 0.280167 0.017683 0.139369
O O3 0.090223 0.010795 0.150925
O O4 0.000000 0.000000 0.000000
O O5 0.851721 0.250000 0.408697
O O6 0.774075 0.080626 0.468236
O O7 0.769382 0.964390 0.353331
O O8 0.000000 0.000000 0.500000
O O9 0.454612 0.250000 0.220186
O O10 0.555719 0.496927 0.208314
O O11 0.476529 0.484669 0.298332
O O12 0.018791 0.750000 0.699712
O O13 0.982323 0.988294 0.756604
O O14 0.866606 0.986125 0.606906
O O15 0.159131 0.999887 0.728445
O O16 0.269907 0.750000 0.453877
O O17 0.426780 0.504446 0.545076
O O18 0.703556 0.750000 0.247128
O O19 0.127360 0.250000 0.232857
O O20 0.290071 0.014429 0.312112
O O21 0.461164 0.250000 0.364771
#
# Coordination Sequence:
#
# PCOD9158041 Si02
#       8
#     4   4   4   4   4   4   4   4
#     4   9  18  35  63  91 113 132 159 201 257 317
#     4  11  20  31  47  68  96 135 180 228 271 307
#     4   9  17  33  55  79 105 137 170 207 258 314
#     4  11  22  34  49  69 100 143 187 219 251 305
#     4  10  19  30  47  70  98 134 177 224 268 302
#     4  12  23  33  48  72 104 139 177 224 267 303
#     4   8  17  34  54  76 102 138 174 206 251 314
#     4   8  14  29  51  71  96 131 173 217 261 302
#
# _framework density 18.081887999999999
#
# number of rings (size 3 to 8) (size 9 to 14) (size 15 to 20)
#    0.000    2.250    2.500    3.375    0.000    1.500 
#    0.000    1.250    0.000    3.000    0.000    0.000 
#    0.000    0.000    0.000    0.000    0.000    0.000 
#
# Total GULP energy -178291.219684 kJ/mol
# GULP energy per Si atom -5571.600615 kJ/mol
# Density = 1.804073 g / cm^3
# Si number density = 18.081888 Si / 1000 Ang^3
#
#
#
# Elastic Constant Matrix: (Units=GPa)
#
#
# Indices 1 2 3 4 5 6 
#
# 1 137.6297 28.7084 66.8862 0.0000 2.6690 0.0000
# 2 28.7084 30.2748 20.1681 0.0000 4.7540 0.0000
# 3 66.8862 20.1681 92.9239 0.0000 15.9070 0.0000
# 4 0.0000 0.0000 0.0000 22.4224 0.0000 4.6903
# 5 2.6690 4.7540 15.9070 0.0000 17.9874 0.0000
# 6 0.0000 0.0000 0.0000 4.6903 0.0000 10.2263
#
#
#
# Elastic Compliance Matrix: (Units=1/GPa)
#
#
# Indices 1 2 3 4 5 6 
#
# 1 0.013196 -0.007646 -0.009250 0.000000 0.008243 0.000000
# 2 -0.007646 0.043210 -0.002491 0.000000 -0.008083 0.000000
# 3 -0.009250 -0.002491 0.020755 0.000000 -0.016323 0.000000
# 4 0.000000 0.000000 0.000000 0.049331 0.000000 -0.022626
# 5 0.008243 -0.008083 -0.016323 0.000000 0.070943 0.000000
# 6 0.000000 0.000000 0.000000 -0.022626 0.000000 0.108165
#
#
# Mechanical properties :
#
#
# Convention : Reuss Voigt Hill
#
# Bulk Modulus (GPa) = 26.05093 54.70596 40.37845
# Shear Modulus (GPa) = 13.99894 19.79827 16.89860
#
# Velocity S-wave (km/s) = 2.78546 3.31255 3.06037
# Velocity P-wave (km/s) = 4.97830 6.70454 5.90485
#
# Compressibility (1/GPa) = 0.03838634
#
# Stress axis : x y z
#
# Youngs Moduli (GPa) = 75.77824 23.14292 48.18149
#
# Poissons Ratio (x) = 0.17694 0.44570
# Poissons Ratio (y) = 0.57938 0.12003
# Poissons Ratio (z) = 0.70098 0.05765
#
# Static dielectric constant tensor:
#      x y z
#    x 1.676200 0.000000 0.013640 
#    y 0.000000 1.630390 0.000000 
#    z 0.013640 0.000000 1.613020 
# 
# From -- ./inp_files/64445.got.cif
#   From: 2010.05.17/outbox.cif.g08.bks.cpg/sg11_33_cif.got.tgz:64445.got - 2010.06.03 12:22:45.
