data_PCOD9158284
_publ_section_title
;
Structure prediction by ZEFSAII (Michael W. Deem and Ramdas Pophale) SiO2 
 PCOD9158284
Probable space group: P 21/M
;
_chemical_formula_sum "Si O2"
_cell_formula_units_Z 32
_cell_length_a 12.882878
_cell_length_b 8.602478
_cell_length_c 24.449805
_cell_angle_alpha 90.000000
_cell_angle_beta 133.519620
_cell_angle_gamma 90.000000
_cell_volume 1964.865811
_symmetry_space_group_name_H-M "P 21/M"
_symmetry_group_IT_number 11
_symmetry_cell_setting 'monoclinic'
loop_
_space_group_symop_operation_xyz
x,y,z
-x,1/2+y,-z
-x,-y,-z
x,1/2-y,z
loop_
_atom_site_type_symbol
_atom_site_label
_atom_site_fract_x
_atom_site_fract_y
_atom_site_fract_z
Si Si1 0.838001 0.063125 0.158772
Si Si2 0.049099 0.939078 0.410851
Si Si3 0.443810 0.937024 0.421589
Si Si4 0.326501 0.936729 0.579752
Si Si5 0.391650 0.563371 0.006837
Si Si6 0.396919 0.563753 0.834848
Si Si7 0.117201 0.562772 0.311617
Si Si8 0.726868 0.563376 0.321183
O O1 0.844372 0.250000 0.162782
O O2 0.730088 0.014081 0.168934
O O3 0.762888 0.018967 0.074078
O O4 0.993281 0.996236 0.226961
O O5 0.049102 0.750000 0.410457
O O6 0.177162 0.988740 0.497123
O O7 0.081239 0.990721 0.360503
O O8 0.892086 0.989741 0.372880
O O9 0.449683 0.750000 0.424656
O O10 0.278040 0.985367 0.355034
O O11 0.500000 0.000000 0.500000
O O12 0.544765 0.000821 0.410618
O O13 0.329229 0.750000 0.580426
O O14 0.330554 0.998270 0.642710
O O15 0.399826 0.750000 0.011708
O O16 0.453712 0.494443 0.085181
O O17 0.500000 0.500000 0.000000
O O18 0.396913 0.750000 0.833184
O O19 0.361310 0.495402 0.762996
O O20 0.113750 0.750000 0.310892
O O21 0.725198 0.750000 0.321639
#
# Coordination Sequence:
#
# PCOD9158284 Si02
#       8
#     4   4   4   4   4   4   4   4
#     4   9  18  30  46  73 104 131 167 208 250 299
#     4   9  18  33  51  73 101 134 170 209 255 304
#     4  11  22  37  55  75  99 131 173 217 260 304
#     4  11  22  38  54  72 101 134 174 219 258 300
#     4   9  17  29  45  69 101 135 168 205 247 300
#     4  10  19  31  47  72 103 137 171 205 249 301
#     4  10  19  33  52  74 100 133 171 210 254 304
#     4  11  21  34  52  75 103 137 174 209 253 306
#
# _framework density 16.286100000000001
#
# number of rings (size 3 to 8) (size 9 to 14) (size 15 to 20)
#    0.000    2.000    2.500    3.000    0.000    3.500 
#    0.000    1.875    0.000    0.000    0.000    0.875 
#    0.000    0.000    0.000    0.000    0.000    0.000 
#
# Total GULP energy -178519.026382 kJ/mol
# GULP energy per Si atom -5578.719574 kJ/mol
# Density = 1.624903 g / cm^3
# Si number density = 16.286100 Si / 1000 Ang^3
#
#
#
# Elastic Constant Matrix: (Units=GPa)
#
#
# Indices 1 2 3 4 5 6 
#
# 1 105.7734 32.2902 83.7840 0.0000 -6.7131 0.0000
# 2 32.2902 42.5766 40.0209 0.0000 1.3235 0.0000
# 3 83.7840 40.0209 166.9780 0.0000 12.3107 0.0000
# 4 0.0000 0.0000 0.0000 28.4844 0.0000 -0.0012
# 5 -6.7131 1.3235 12.3107 0.0000 17.3375 0.0000
# 6 0.0000 0.0000 0.0000 -0.0012 0.0000 21.0592
#
#
#
# Elastic Compliance Matrix: (Units=1/GPa)
#
#
# Indices 1 2 3 4 5 6 
#
# 1 0.020008 -0.006664 -0.009551 0.000000 0.015038 0.000000
# 2 -0.006664 0.032686 -0.004343 0.000000 -0.001991 0.000000
# 3 -0.009551 -0.004343 0.012737 0.000000 -0.012411 0.000000
# 4 0.000000 0.000000 0.000000 0.035107 0.000000 0.000002
# 5 0.015038 -0.001991 -0.012411 0.000000 0.072465 0.000000
# 6 0.000000 0.000000 0.000000 0.000002 0.000000 0.047485
#
#
# Mechanical properties :
#
#
# Convention : Reuss Voigt Hill
#
# Bulk Modulus (GPa) = 41.12805 69.72425 55.42615
# Shear Modulus (GPa) = 18.53839 23.99175 21.26507
#
# Velocity S-wave (km/s) = 3.37752 3.84232 3.61739
# Velocity P-wave (km/s) = 6.36541 7.91136 7.18012
#
# Compressibility (1/GPa) = 0.02431431
#
# Stress axis : x y z
#
# Youngs Moduli (GPa) = 49.97908 30.59437 78.51033
#
# Poissons Ratio (x) = 0.20389 0.74985
# Poissons Ratio (y) = 0.33307 0.34100
# Poissons Ratio (z) = 0.47735 0.13288
#
# Static dielectric constant tensor:
#      x y z
#    x 1.516700 0.000000 0.015850 
#    y 0.000000 1.527290 0.000000 
#    z 0.015850 0.000000 1.556130 
# 
# From -- ./inp_files/64411.got.cif
#   From: 2010.05.17/outbox.cif.g08.bks.cpg/sg11_33_cif.got.tgz:64411.got - 2010.06.03 12:22:45.
