data_PCOD9158347
_publ_section_title
;
Structure prediction by ZEFSAII (Michael W. Deem and Ramdas Pophale) SiO2 
 PCOD9158347
Probable space group: P 21/M
;
_chemical_formula_sum "Si O2"
_cell_formula_units_Z 28
_cell_length_a 13.906384
_cell_length_b 7.916883
_cell_length_c 13.674517
_cell_angle_alpha 90.000000
_cell_angle_beta 61.647214
_cell_angle_gamma 90.000000
_cell_volume 1324.899556
_symmetry_space_group_name_H-M "P 21/M"
_symmetry_group_IT_number 11
_symmetry_cell_setting 'monoclinic'
loop_
_space_group_symop_operation_xyz
x,y,z
-x,1/2+y,-z
-x,-y,-z
x,1/2-y,z
loop_
_atom_site_type_symbol
_atom_site_label
_atom_site_fract_x
_atom_site_fract_y
_atom_site_fract_z
Si Si1 0.869766 0.051071 0.345607
Si Si2 0.672941 0.555823 0.971230
Si Si3 0.650419 0.551357 0.376285
Si Si4 0.450760 0.948972 0.157926
Si Si5 0.879112 0.957992 0.772949
Si Si6 0.872279 0.951463 0.560624
Si Si7 0.552318 0.945641 0.627928
O O1 0.872013 0.250000 0.327750
O O2 0.994912 0.987620 0.275454
O O3 0.779868 0.973323 0.317560
O O4 0.832453 0.020395 0.476245
O O5 0.688227 0.750000 0.994221
O O6 0.619094 0.546481 0.888933
O O7 0.793413 0.482070 0.895933
O O8 0.576336 0.486377 0.085745
O O9 0.625900 0.750000 0.382093
O O10 0.577358 0.464227 0.329321
O O11 0.606355 0.484722 0.502630
O O12 0.448387 0.750000 0.133153
O O13 0.415305 0.970453 0.286360
O O14 0.879224 0.750000 0.772192
O O15 0.836611 0.011811 0.685404
O O16 0.858840 0.750000 0.563785
O O17 0.000000 0.000000 0.500000
O O18 0.583102 0.750000 0.620611
#
# Coordination Sequence:
#
# PCOD9158347 Si02
#       7
#     4   4   4   4   4   4   4
#     4  10  19  31  48  72 102 134 167 206 251 302
#     4   9  18  34  53  74 103 138 174 208 249 300
#     4  10  21  36  54  77 102 131 168 208 252 305
#     4  10  20  33  52  78 104 132 169 215 257 296
#     4   8  16  30  48  69  97 135 171 203 244 296
#     4   9  16  27  42  64  95 131 170 203 242 292
#     4  10  21  37  56  75 100 134 167 207 256 305
#
# _framework density 21.133676000000001
#
# number of rings (size 3 to 8) (size 9 to 14) (size 15 to 20)
#    0.000    2.571    0.000    3.000    2.000    2.286 
#    0.000    3.571    0.000    0.857    0.000    0.000 
#    0.000    0.000    0.000    0.000    0.000    0.000 
#
# Total GULP energy -156113.203508 kJ/mol
# GULP energy per Si atom -5575.471554 kJ/mol
# Density = 2.108558 g / cm^3
# Si number density = 21.133676 Si / 1000 Ang^3
#
#
#
# Elastic Constant Matrix: (Units=GPa)
#
#
# Indices 1 2 3 4 5 6 
#
# 1 82.6385 -4.9676 -1.7283 0.0000 -9.3136 0.0000
# 2 -4.9676 34.1491 -4.2715 0.0000 1.7805 0.0000
# 3 -1.7283 -4.2715 40.0781 0.0000 -11.2989 0.0000
# 4 0.0000 0.0000 0.0000 12.9244 0.0000 2.5714
# 5 -9.3136 1.7805 -11.2989 0.0000 32.4230 0.0000
# 6 0.0000 0.0000 0.0000 2.5714 0.0000 20.5284
#
#
#
# Elastic Compliance Matrix: (Units=1/GPa)
#
#
# Indices 1 2 3 4 5 6 
#
# 1 0.012731 0.001874 0.001941 0.000000 0.004231 0.000000
# 2 0.001874 0.029965 0.003285 0.000000 0.000038 0.000000
# 3 0.001941 0.003285 0.028269 0.000000 0.010229 0.000000
# 4 0.000000 0.000000 0.000000 0.079351 0.000000 -0.009940
# 5 0.004231 0.000038 0.010229 0.000000 0.035620 0.000000
# 6 0.000000 0.000000 0.000000 -0.009940 0.000000 0.049958
#
#
# Mechanical properties :
#
#
# Convention : Reuss Voigt Hill
#
# Bulk Modulus (GPa) = 11.74177 14.99235 13.36706
# Shear Modulus (GPa) = 19.99354 24.36403 22.17879
#
# Velocity S-wave (km/s) = 3.07913 3.39905 3.24304
# Velocity P-wave (km/s) = 4.26725 4.74491 4.51241
#
# Compressibility (1/GPa) = 0.08516603
#
# Stress axis : x y z
#
# Youngs Moduli (GPa) = 78.54868 33.37231 35.37476
#
# Poissons Ratio (x) = -0.06255 -0.06868
# Poissons Ratio (y) = -0.14722 -0.11621
# Poissons Ratio (z) = -0.15250 -0.10963
#
# Static dielectric constant tensor:
#      x y z
#    x 1.789950 0.000000 -0.054730 
#    y 0.000000 1.583820 0.000000 
#    z -0.054730 0.000000 1.783620 
# 
# From -- ./inp_files/37925.got.cif
#   From: 2010.05.17/outbox.cif.g08.bks.cpg/sg11_19_cif.got.tgz:37925.got - 2010.06.03 12:22:45.
