data_PCOD9158769
_publ_section_title
;
Structure prediction by ZEFSAII (Michael W. Deem and Ramdas Pophale) SiO2 
 PCOD9158769
Probable space group: P 21/M
;
_chemical_formula_sum "Si O2"
_cell_formula_units_Z 28
_cell_length_a 19.734798
_cell_length_b 8.597739
_cell_length_c 14.737812
_cell_angle_alpha 90.000000
_cell_angle_beta 42.231185
_cell_angle_gamma 90.000000
_cell_volume 1680.734681
_symmetry_space_group_name_H-M "P 21/M"
_symmetry_group_IT_number 11
_symmetry_cell_setting 'monoclinic'
loop_
_space_group_symop_operation_xyz
x,y,z
-x,1/2+y,-z
-x,-y,-z
x,1/2-y,z
loop_
_atom_site_type_symbol
_atom_site_label
_atom_site_fract_x
_atom_site_fract_y
_atom_site_fract_z
Si Si1 0.387175 0.562457 0.010157
Si Si2 0.811654 0.436197 0.899192
Si Si3 0.997490 0.436717 0.400616
Si Si4 0.881818 0.935363 0.015712
Si Si5 0.881407 0.062495 0.211509
Si Si6 0.605697 0.062277 0.786976
Si Si7 0.799786 0.439734 0.484119
O O1 0.390675 0.750000 0.004900
O O2 0.292820 0.511257 0.043313
O O3 0.373113 0.514703 0.129532
O O4 0.495173 0.498896 0.872002
O O5 0.816704 0.250000 0.887491
O O6 0.905787 0.506127 0.750998
O O7 0.822103 0.486891 0.992948
O O8 0.997619 0.250000 0.402498
O O9 0.000000 0.500000 0.500000
O O10 0.895503 0.487626 0.450082
O O11 0.874675 0.750000 0.014826
O O12 0.849596 0.989291 0.147686
O O13 0.000720 0.978207 0.889086
O O14 0.876413 0.250000 0.208922
O O15 0.818811 0.011845 0.361596
O O16 0.603960 0.250000 0.786817
O O17 0.695644 0.008166 0.632681
O O18 0.799534 0.250000 0.484498
#
# Coordination Sequence:
#
# PCOD9158769 Si02
#       7
#     4   4   4   4   4   4   4
#     4   9  19  34  50  72 102 133 169 211 253 295
#     4  11  21  34  52  74 102 138 172 207 253 304
#     4  11  21  34  49  73 107 139 168 204 250 304
#     4  10  19  32  50  75 103 132 167 211 252 301
#     4   9  17  32  51  72 100 135 167 203 253 308
#     4   9  17  32  54  74  95 130 172 209 247 297
#     4   9  17  32  52  73 101 133 166 205 253 303
#
# _framework density 16.659382000000001
#
# number of rings (size 3 to 8) (size 9 to 14) (size 15 to 20)
#    0.000    2.286    1.429    2.143    0.000    4.000 
#    0.000    5.000    0.000    0.857    0.000    0.000 
#    0.000    0.000    0.000    0.000    0.000    0.000 
#
# Total GULP energy -156221.516386 kJ/mol
# GULP energy per Si atom -5579.339871 kJ/mol
# Density = 1.662146 g / cm^3
# Si number density = 16.659382 Si / 1000 Ang^3
#
#
#
# Elastic Constant Matrix: (Units=GPa)
#
#
# Indices 1 2 3 4 5 6 
#
# 1 108.8137 24.1370 86.1817 0.0000 2.4588 0.0000
# 2 24.1370 20.3788 25.0456 0.0000 0.4129 0.0000
# 3 86.1817 25.0456 155.0243 0.0000 2.7017 0.0000
# 4 0.0000 0.0000 0.0000 25.1201 0.0000 1.8569
# 5 2.4588 0.4129 2.7017 0.0000 24.3658 0.0000
# 6 0.0000 0.0000 0.0000 1.8569 0.0000 24.5552
#
#
#
# Elastic Compliance Matrix: (Units=1/GPa)
#
#
# Indices 1 2 3 4 5 6 
#
# 1 0.018356 -0.011480 -0.008337 0.000000 -0.000733 0.000000
# 2 -0.011480 0.068408 -0.004679 0.000000 0.000518 0.000000
# 3 -0.008337 -0.004679 0.011848 0.000000 -0.000393 0.000000
# 4 0.000000 0.000000 0.000000 0.040033 0.000000 -0.003027
# 5 -0.000733 0.000518 -0.000393 0.000000 0.041150 0.000000
# 6 0.000000 0.000000 0.000000 -0.003027 0.000000 0.040954
#
#
# Mechanical properties :
#
#
# Convention : Reuss Voigt Hill
#
# Bulk Modulus (GPa) = 20.15322 61.66059 40.90691
# Shear Modulus (GPa) = 17.46539 24.73173 21.09856
#
# Velocity S-wave (km/s) = 3.24139 3.85717 3.56261
# Velocity P-wave (km/s) = 5.11197 7.54519 6.44446
#
# Compressibility (1/GPa) = 0.04961985
#
# Stress axis : x y z
#
# Youngs Moduli (GPa) = 54.47739 14.61822 84.40120
#
# Poissons Ratio (x) = 0.16782 0.70367
# Poissons Ratio (y) = 0.62541 0.39490
# Poissons Ratio (z) = 0.45419 0.06840
#
# Static dielectric constant tensor:
#      x y z
#    x 1.547450 0.000000 0.006640 
#    y 0.000000 1.571860 0.000000 
#    z 0.006640 0.000000 1.549260 
# 
# From -- ./inp_files/42331.got.cif
#   From: 2010.05.17/outbox.cif.g08.bks.cpg/sg11_22_cif.got.tgz:42331.got - 2010.06.03 12:22:45.
