data_PCOD9158367
_publ_section_title
;
Structure prediction by ZEFSAII (Michael W. Deem and Ramdas Pophale) SiO2 
 PCOD9158367
Probable space group: P 21/M
;
_chemical_formula_sum "Si O2"
_cell_formula_units_Z 32
_cell_length_a 5.310581
_cell_length_b 27.036684
_cell_length_c 11.988753
_cell_angle_alpha 90.000000
_cell_angle_beta 85.020817
_cell_angle_gamma 90.000000
_cell_volume 1714.855288
_symmetry_space_group_name_H-M "P 21/M"
_symmetry_group_IT_number 11
_symmetry_cell_setting 'monoclinic'
loop_
_space_group_symop_operation_xyz
x,y,z
-x,1/2+y,-z
-x,-y,-z
x,1/2-y,z
loop_
_atom_site_type_symbol
_atom_site_label
_atom_site_fract_x
_atom_site_fract_y
_atom_site_fract_z
Si Si1 0.995916 0.525387 0.743681
Si Si2 0.436882 0.100923 0.765669
Si Si3 0.030368 0.382160 0.942460
Si Si4 0.415175 0.693062 0.848850
Si Si5 0.106838 0.366339 0.175802
Si Si6 0.292222 0.968300 0.069775
Si Si7 0.518294 0.484212 0.626989
Si Si8 0.343671 0.806055 0.111783
O O1 0.955126 0.584153 0.754609
O O2 0.922515 0.502624 0.867916
O O3 0.786010 0.503262 0.666523
O O4 0.278371 0.509815 0.698759
O O5 0.154126 0.098555 0.824119
O O6 0.576455 0.060007 0.834012
O O7 0.479260 0.075659 0.644772
O O8 0.537142 0.154298 0.805629
O O9 0.817049 0.420836 0.989208
O O10 0.928808 0.328843 0.909905
O O11 0.196377 0.381182 0.046297
O O12 0.397443 0.750000 0.812858
O O13 0.658044 0.665369 0.788402
O O14 0.151092 0.665154 0.832438
O O15 0.458243 0.694887 0.982238
O O16 0.500000 0.000000 0.000000
O O17 0.500000 0.500000 0.500000
O O18 0.339872 0.750000 0.154239
#
# Coordination Sequence:
#
# PCOD9158367 Si02
#       8
#     4   4   4   4   4   4   4   4
#     4  11  23  37  57  84 112 145 193 230 279 343
#     4  10  19  34  51  77 107 148 189 227 281 341
#     4  10  19  31  48  76 114 153 183 218 269 335
#     4  10  20  34  50  76 116 156 187 222 270 329
#     4  11  21  32  53  80 113 148 188 227 266 337
#     4  10  21  30  49  77 118 155 180 216 268 335
#     4  11  24  42  60  81 112 149 190 248 301 347
#     4   9  19  32  48  75 111 150 189 226 270 329
#
# _framework density 18.660468999999999
#
# number of rings (size 3 to 8) (size 9 to 14) (size 15 to 20)
#    0.000    1.750    2.500    2.250    7.000    2.000 
#    0.000    0.000    0.000    0.000    0.000    5.250 
#    0.000    0.000    0.000    0.000    0.000    0.000 
#
# Total GULP energy -178137.962108 kJ/mol
# GULP energy per Si atom -5566.811316 kJ/mol
# Density = 1.861800 g / cm^3
# Si number density = 18.660469 Si / 1000 Ang^3
#
#
#
# Elastic Constant Matrix: (Units=GPa)
#
#
# Indices 1 2 3 4 5 6 
#
# 1 72.2790 30.4003 4.1977 0.0000 -3.2199 0.0000
# 2 30.4003 142.2912 18.0407 0.0000 -3.5346 0.0000
# 3 4.1977 18.0407 29.7995 0.0000 -0.3245 0.0000
# 4 0.0000 0.0000 0.0000 19.6154 0.0000 3.4131
# 5 -3.2199 -3.5346 -0.3245 0.0000 18.5281 0.0000
# 6 0.0000 0.0000 0.0000 3.4131 0.0000 23.0337
#
#
#
# Elastic Compliance Matrix: (Units=1/GPa)
#
#
# Indices 1 2 3 4 5 6 
#
# 1 0.015279 -0.003188 -0.000200 0.000000 0.002043 0.000000
# 2 -0.003188 0.008312 -0.004573 0.000000 0.000952 0.000000
# 3 -0.000200 -0.004573 0.036351 0.000000 -0.000270 0.000000
# 4 0.000000 0.000000 0.000000 0.052330 0.000000 -0.007754
# 5 0.002043 0.000952 -0.000270 0.000000 0.054504 0.000000
# 6 0.000000 0.000000 0.000000 -0.007754 0.000000 0.044564
#
#
# Mechanical properties :
#
#
# Convention : Reuss Voigt Hill
#
# Bulk Modulus (GPa) = 22.71659 38.84966 30.78313
# Shear Modulus (GPa) = 20.66668 25.01751 22.84210
#
# Velocity S-wave (km/s) = 3.33154 3.66549 3.50250
# Velocity P-wave (km/s) = 5.19605 6.22726 5.73488
#
# Compressibility (1/GPa) = 0.04402069
#
# Stress axis : x y z
#
# Youngs Moduli (GPa) = 65.44988 120.30196 27.50932
#
# Poissons Ratio (x) = 0.38355 0.00550
# Poissons Ratio (y) = 0.20867 0.12580
# Poissons Ratio (z) = 0.01308 0.55013
#
# Static dielectric constant tensor:
#      x y z
#    x 1.874800 0.000000 0.076390 
#    y 0.000000 1.707080 0.000000 
#    z 0.076390 0.000000 1.725180 
# 
# From -- ./inp_files/30313.got.cif
#   From: 2010.05.17/outbox.cif.g08.bks.cpg/sg11_16_cif.got.tgz:30313.got - 2010.06.03 12:22:45.
