data_PCOD9158384
_publ_section_title
;
Structure prediction by ZEFSAII (Michael W. Deem and Ramdas Pophale) SiO2 
 PCOD9158384
Probable space group: P 21/M
;
_chemical_formula_sum "Si O2"
_cell_formula_units_Z 32
_cell_length_a 25.520986
_cell_length_b 7.570702
_cell_length_c 26.694729
_cell_angle_alpha 90.000000
_cell_angle_beta 162.946388
_cell_angle_gamma 90.000000
_cell_volume 1512.590681
_symmetry_space_group_name_H-M "P 21/M"
_symmetry_group_IT_number 11
_symmetry_cell_setting 'monoclinic'
loop_
_space_group_symop_operation_xyz
x,y,z
-x,1/2+y,-z
-x,-y,-z
x,1/2-y,z
loop_
_atom_site_type_symbol
_atom_site_label
_atom_site_fract_x
_atom_site_fract_y
_atom_site_fract_z
Si Si1 0.000686 0.962041 0.941498
Si Si2 0.602994 0.445603 0.044372
Si Si3 0.497653 0.465651 0.749999
Si Si4 0.275348 0.967183 0.947136
Si Si5 0.617691 0.962041 0.558503
Si Si6 0.617968 0.466707 0.750000
Si Si7 0.118922 0.467183 0.447135
Si Si8 0.014251 0.445603 0.455628
O O1 0.000070 0.750000 0.935540
O O2 0.817625 0.030883 0.750000
O O3 0.183079 0.026091 0.082985
O O4 0.000000 0.000000 0.000000
O O5 0.533790 0.250000 0.971389
O O6 0.609814 0.533632 0.995993
O O7 0.810985 0.441817 0.250000
O O8 0.500000 0.500000 0.000000
O O9 0.497825 0.250000 0.749998
O O10 0.557769 0.523317 0.749999
O O11 0.297175 0.520846 0.581425
O O12 0.634324 0.520846 0.918574
O O13 0.276566 0.750000 0.946512
O O14 0.068556 0.019434 0.750001
O O15 0.628992 0.750000 0.564462
O O16 0.517111 0.026090 0.417016
O O17 0.500000 0.000000 0.500000
O O18 0.618366 0.250000 0.750000
O O19 0.116459 0.250000 0.446512
O O20 0.117827 0.533632 0.504006
O O21 0.091013 0.250000 0.528612
O O22 0.000000 0.500000 0.500000
#
# Coordination Sequence:
#
# PCOD9158384 Si02
#       8
#     4   4   4   4   4   4   4   4
#     4  10  19  31  49  72 100 132 160 194 239 281
#     4   9  18  30  44  67  95 120 153 195 236 283
#     4   9  16  26  44  65  89 127 158 185 236 284
#     4   8  15  27  41  61  90 120 153 192 232 281
#     4  10  19  31  49  72 100 132 160 194 239 281
#     4   9  18  30  43  69 101 123 160 203 232 280
#     4   8  15  27  41  61  90 120 153 192 232 281
#     4   9  18  30  44  67  95 120 153 195 236 283
#
# _framework density 21.155757000000001
#
# number of rings (size 3 to 8) (size 9 to 14) (size 15 to 20)
#    0.000    3.000    1.250    1.500    1.750    1.500 
#    0.000    5.000    0.000    0.000    0.000    3.500 
#    0.000    4.000    0.000    0.000    0.000    0.000 
#
# Total GULP energy -178374.329287 kJ/mol
# GULP energy per Si atom -5574.197790 kJ/mol
# Density = 2.110761 g / cm^3
# Si number density = 21.155757 Si / 1000 Ang^3
#
#
#
# Elastic Constant Matrix: (Units=GPa)
#
#
# Indices 1 2 3 4 5 6 
#
# 1 249.2764 7.7696 130.0902 0.0000 -3.3928 0.0000
# 2 7.7696 40.6877 8.1993 0.0000 0.0402 0.0000
# 3 130.0902 8.1993 171.5484 0.0000 -3.8955 0.0000
# 4 0.0000 0.0000 0.0000 3.6255 0.0000 -1.0632
# 5 -3.3928 0.0402 -3.8955 0.0000 41.4544 0.0000
# 6 0.0000 0.0000 0.0000 -1.0632 0.0000 14.9649
#
#
#
# Elastic Compliance Matrix: (Units=1/GPa)
#
#
# Indices 1 2 3 4 5 6 
#
# 1 0.006642 -0.000256 -0.005023 0.000000 0.000072 0.000000
# 2 -0.000256 0.024827 -0.000995 0.000000 -0.000139 0.000000
# 3 -0.005023 -0.000995 0.009697 0.000000 0.000501 0.000000
# 4 0.000000 0.000000 0.000000 0.281691 0.000000 0.020014
# 5 0.000072 -0.000139 0.000501 0.000000 0.024176 0.000000
# 6 0.000000 0.000000 0.000000 0.020014 0.000000 0.068245
#
#
# Mechanical properties :
#
#
# Convention : Reuss Voigt Hill
#
# Bulk Modulus (GPa) = 34.94413 83.73673 59.34043
# Shear Modulus (GPa) = 11.43206 33.03919 22.23563
#
# Velocity S-wave (km/s) = 2.32712 3.95614 3.24550
# Velocity P-wave (km/s) = 4.87587 7.78043 6.49265
#
# Compressibility (1/GPa) = 0.02861711
#
# Stress axis : x y z
#
# Youngs Moduli (GPa) = 150.56058 40.27853 103.12278
#
# Poissons Ratio (x) = 0.01032 0.51797
# Poissons Ratio (y) = 0.03857 0.10266
# Poissons Ratio (z) = 0.75624 0.04010
#
# Static dielectric constant tensor:
#      x y z
#    x 1.754480 0.000000 -0.001350 
#    y 0.000000 1.862110 0.000000 
#    z -0.001350 0.000000 1.740120 
# 
# From -- ./inp_files/66562.got.cif
#   From: 2010.05.17/outbox.cif.g08.bks.cpg/sg11_34_cif.got.tgz:66562.got - 2010.06.03 12:22:45.
