data_PCOD9158015
_publ_section_title
;
Structure prediction by ZEFSAII (Michael W. Deem and Ramdas Pophale) SiO2 
 PCOD9158015
Probable space group: P 21/M
;
_chemical_formula_sum "Si O2"
_cell_formula_units_Z 32
_cell_length_a 24.634694
_cell_length_b 8.689797
_cell_length_c 18.271648
_cell_angle_alpha 90.000000
_cell_angle_beta 149.386796
_cell_angle_gamma 90.000000
_cell_volume 1991.850920
_symmetry_space_group_name_H-M "P 21/M"
_symmetry_group_IT_number 11
_symmetry_cell_setting 'monoclinic'
loop_
_space_group_symop_operation_xyz
x,y,z
-x,1/2+y,-z
-x,-y,-z
x,1/2-y,z
loop_
_atom_site_type_symbol
_atom_site_label
_atom_site_fract_x
_atom_site_fract_y
_atom_site_fract_z
Si Si1 0.237550 0.935784 0.812077
Si Si2 0.093197 0.564120 0.778648
Si Si3 0.823731 0.434958 0.662235
Si Si4 0.307563 0.435323 0.620818
Si Si5 0.139695 0.064419 0.551409
Si Si6 0.476834 0.563772 0.053803
Si Si7 0.115553 0.934525 0.111639
Si Si8 0.932622 0.934026 0.092911
O O1 0.235370 0.750000 0.807494
O O2 0.182626 0.983883 0.824092
O O3 0.170782 0.996404 0.665628
O O4 0.360051 0.986090 0.944876
O O5 0.094305 0.750000 0.786102
O O6 0.105023 0.493740 0.872529
O O7 0.977622 0.519147 0.611960
O O8 0.820945 0.250000 0.654454
O O9 0.737320 0.502850 0.507351
O O10 0.812113 0.477626 0.734464
O O11 0.943034 0.483791 0.774475
O O12 0.305066 0.250000 0.615688
O O13 0.226741 0.484587 0.591868
O O14 0.426409 0.484264 0.781040
O O15 0.142690 0.250000 0.559736
O O16 0.477625 0.750000 0.051066
O O17 0.500000 0.500000 0.000000
O O18 0.110747 0.750000 0.102442
O O19 0.134872 0.000941 0.053637
O O20 0.000000 0.000000 0.000000
O O21 0.930859 0.750000 0.088052
#
# Coordination Sequence:
#
# PCOD9158015 Si02
#       8
#     4   4   4   4   4   4   4   4
#     4  10  21  34  49  67  90 124 163 199 236 280
#     4  10  20  33  47  67  95 127 159 193 235 282
#     4   9  18  30  45  69  97 123 155 189 227 276
#     4  10  19  30  47  69  93 123 156 194 237 277
#     4  10  19  31  47  68  94 123 157 194 237 282
#     4  10  20  34  49  67  90 120 159 199 239 280
#     4   9  17  29  45  68  98 129 158 190 229 279
#     4  10  19  30  46  70  97 128 159 189 231 282
#
# _framework density 16.065460000000002
#
# number of rings (size 3 to 8) (size 9 to 14) (size 15 to 20)
#    0.000    2.250    2.500    1.875    0.000    4.500 
#    0.000    0.000    0.000    0.000    0.000    0.875 
#    0.000    0.000    0.000    0.000    0.000    0.000 
#
# Total GULP energy -178428.122932 kJ/mol
# GULP energy per Si atom -5575.878842 kJ/mol
# Density = 1.602889 g / cm^3
# Si number density = 16.065460 Si / 1000 Ang^3
#
#
#
# Elastic Constant Matrix: (Units=GPa)
#
#
# Indices 1 2 3 4 5 6 
#
# 1 138.3576 30.9306 83.0037 0.0000 -22.4596 0.0000
# 2 30.9306 14.3000 25.4838 0.0000 -7.1902 0.0000
# 3 83.0037 25.4838 93.7003 0.0000 -28.7873 0.0000
# 4 0.0000 0.0000 0.0000 22.0753 0.0000 -11.3580
# 5 -22.4596 -7.1902 -28.7873 0.0000 32.6858 0.0000
# 6 0.0000 0.0000 0.0000 -11.3580 0.0000 21.4232
#
#
#
# Elastic Compliance Matrix: (Units=1/GPa)
#
#
# Indices 1 2 3 4 5 6 
#
# 1 0.018139 -0.020415 -0.011059 0.000000 -0.001767 0.000000
# 2 -0.020415 0.158994 -0.025666 0.000000 -0.001658 0.000000
# 3 -0.011059 -0.025666 0.032053 0.000000 0.014985 0.000000
# 4 0.000000 0.000000 0.000000 0.062291 0.000000 0.033025
# 5 -0.001767 -0.001658 0.014985 0.000000 0.042213 0.000000
# 6 0.000000 0.000000 0.000000 0.033025 0.000000 0.064187
#
#
# Mechanical properties :
#
#
# Convention : Reuss Voigt Hill
#
# Bulk Modulus (GPa) = 10.53680 58.35490 34.44585
# Shear Modulus (GPa) = 9.54572 22.36617 15.95594
#
# Velocity S-wave (km/s) = 2.44022 3.73525 3.15490
# Velocity P-wave (km/s) = 3.80952 7.41653 5.89565
#
# Compressibility (1/GPa) = 0.09490547
#
# Stress axis : x y z
#
# Youngs Moduli (GPa) = 55.12865 6.28954 31.19823
#
# Poissons Ratio (x) = 0.12840 0.34502
# Poissons Ratio (y) = 1.12547 0.80074
# Poissons Ratio (z) = 0.60967 0.16143
#
# Static dielectric constant tensor:
#      x y z
#    x 1.593560 0.000000 -0.000610 
#    y 0.000000 1.544940 0.000000 
#    z -0.000610 0.000000 1.533490 
# 
# From -- ./inp_files/43809.got.cif
#   From: 2010.05.17/outbox.cif.g08.bks.cpg/sg11_22_cif.got.tgz:43809.got - 2010.06.03 12:22:45.
