data_PCOD9158183
_publ_section_title
;
Structure prediction by ZEFSAII (Michael W. Deem and Ramdas Pophale) SiO2 
 PCOD9158183
Probable space group: P 21/M
;
_chemical_formula_sum "Si O2"
_cell_formula_units_Z 32
_cell_length_a 29.000265
_cell_length_b 8.948168
_cell_length_c 22.518035
_cell_angle_alpha 90.000000
_cell_angle_beta 161.372657
_cell_angle_gamma 90.000000
_cell_volume 1866.453746
_symmetry_space_group_name_H-M "P 21/M"
_symmetry_group_IT_number 11
_symmetry_cell_setting 'monoclinic'
loop_
_space_group_symop_operation_xyz
x,y,z
-x,1/2+y,-z
-x,-y,-z
x,1/2-y,z
loop_
_atom_site_type_symbol
_atom_site_label
_atom_site_fract_x
_atom_site_fract_y
_atom_site_fract_z
Si Si1 0.657993 0.429815 0.196764
Si Si2 0.445170 0.930154 0.621443
Si Si3 0.158224 0.929351 0.694766
Si Si4 0.390218 0.428859 0.061040
Si Si5 0.700027 0.428744 0.380550
Si Si6 0.585525 0.069866 0.549938
Si Si7 0.830731 0.571664 0.651845
Si Si8 0.080359 0.570442 0.042065
O O1 0.643543 0.250000 0.178447
O O2 0.755890 0.473564 0.260522
O O3 0.721888 0.471575 0.338984
O O4 0.500000 0.500000 0.000000
O O5 0.427884 0.750000 0.602899
O O6 0.566456 0.969300 0.818413
O O7 0.472238 0.972438 0.586246
O O8 0.295764 0.001660 0.461781
O O9 0.148515 0.750000 0.684826
O O10 0.000000 0.000000 0.500000
O O11 0.254868 0.988240 0.867380
O O12 0.366981 0.250000 0.029754
O O13 0.534909 0.463070 0.199140
O O14 0.716682 0.250000 0.407138
O O15 0.803808 0.509245 0.553470
O O16 0.579183 0.250000 0.546411
O O17 0.753540 0.023397 0.758041
O O18 0.500000 0.000000 0.500000
O O19 0.815456 0.750000 0.633569
O O20 0.984981 0.531828 0.868136
O O21 0.078630 0.750000 0.046613
O O22 0.000000 0.500000 0.000000
#
# Coordination Sequence:
#
# PCOD9158183 Si02
#       8
#     4   4   4   4   4   4   4   4
#     4  10  20  35  56  81 107 138 178 222 270 320
#     4   9  18  34  55  77 106 144 179 218 270 324
#     4  11  23  37  55  80 111 146 182 222 270 321
#     4   9  17  32  55  79 105 138 178 222 268 321
#     4   9  18  33  53  78 109 143 175 217 272 325
#     4  10  21  37  55  78 110 146 183 225 271 321
#     4  10  19  30  50  82 111 137 175 225 272 316
#     4  10  20  34  54  79 108 139 176 223 271 319
#
# _framework density 17.144814
#
# number of rings (size 3 to 8) (size 9 to 14) (size 15 to 20)
#    0.000    2.250    2.500    1.500    0.000    4.500 
#    0.000    1.250    0.000    4.500    0.000    0.000 
#    0.000    0.000    0.000    0.000    0.000    0.000 
#
# Total GULP energy -178492.272958 kJ/mol
# GULP energy per Si atom -5577.883530 kJ/mol
# Density = 1.710579 g / cm^3
# Si number density = 17.144814 Si / 1000 Ang^3
#
#
#
# Elastic Constant Matrix: (Units=GPa)
#
#
# Indices 1 2 3 4 5 6 
#
# 1 143.9155 36.4692 87.0071 0.0000 -16.7910 0.0000
# 2 36.4692 20.2579 44.9565 0.0000 -6.3027 0.0000
# 3 87.0071 44.9565 144.7133 0.0000 -16.5494 0.0000
# 4 0.0000 0.0000 0.0000 27.0801 0.0000 -3.4540
# 5 -16.7910 -6.3027 -16.5494 0.0000 30.6978 0.0000
# 6 0.0000 0.0000 0.0000 -3.4540 0.0000 26.9339
#
#
#
# Elastic Compliance Matrix: (Units=1/GPa)
#
#
# Indices 1 2 3 4 5 6 
#
# 1 0.013066 -0.019174 -0.001633 0.000000 0.002330 0.000000
# 2 -0.019174 0.188266 -0.046611 0.000000 0.003037 0.000000
# 3 -0.001633 -0.046611 0.022567 0.000000 0.001703 0.000000
# 4 0.000000 0.000000 0.000000 0.037541 0.000000 0.004814
# 5 0.002330 0.003037 0.001703 0.000000 0.035392 0.000000
# 6 0.000000 0.000000 0.000000 0.004814 0.000000 0.037745
#
#
# Mechanical properties :
#
#
# Convention : Reuss Voigt Hill
#
# Bulk Modulus (GPa) = 11.22794 71.75026 41.48910
# Shear Modulus (GPa) = 10.01798 26.30598 18.16198
#
# Velocity S-wave (km/s) = 2.41988 3.92131 3.25826
# Velocity P-wave (km/s) = 3.79090 7.90207 6.19732
#
# Compressibility (1/GPa) = 0.08906356
#
# Stress axis : x y z
#
# Youngs Moduli (GPa) = 76.53182 5.31162 44.31247
#
# Poissons Ratio (x) = 0.10184 0.07236
# Poissons Ratio (y) = 1.46741 2.06546
# Poissons Ratio (z) = 0.12498 0.24758
#
# Static dielectric constant tensor:
#      x y z
#    x 1.577860 0.000000 -0.029450 
#    y 0.000000 1.571030 0.000000 
#    z -0.029450 0.000000 1.570980 
# 
# From -- ./inp_files/67303.got.cif
#   From: 2010.05.17/outbox.cif.g08.bks.cpg/sg11_34_cif.got.tgz:67303.got - 2010.06.03 12:22:45.
