data_PCOD9158868
_publ_section_title
;
Structure prediction by ZEFSAII (Michael W. Deem and Ramdas Pophale) SiO2 
 PCOD9158868
Probable space group: P 21/M
;
_chemical_formula_sum "Si O2"
_cell_formula_units_Z 28
_cell_length_a 19.810623
_cell_length_b 8.777821
_cell_length_c 14.595900
_cell_angle_alpha 90.000000
_cell_angle_beta 41.251762
_cell_angle_gamma 90.000000
_cell_volume 1673.571285
_symmetry_space_group_name_H-M "P 21/M"
_symmetry_group_IT_number 11
_symmetry_cell_setting 'monoclinic'
loop_
_space_group_symop_operation_xyz
x,y,z
-x,1/2+y,-z
-x,-y,-z
x,1/2-y,z
loop_
_atom_site_type_symbol
_atom_site_label
_atom_site_fract_x
_atom_site_fract_y
_atom_site_fract_z
Si Si1 0.393234 0.567673 0.007686
Si Si2 0.092996 0.932481 0.020680
Si Si3 0.296960 0.933211 0.915114
Si Si4 0.125674 0.930777 0.773623
Si Si5 0.681589 0.569583 0.525549
Si Si6 0.619039 0.069082 0.773157
Si Si7 0.489783 0.068188 0.611892
O O1 0.414784 0.750000 0.983774
O O2 0.319247 0.532412 0.998689
O O3 0.500278 0.480780 0.885215
O O4 0.352069 0.532121 0.151197
O O5 0.076493 0.750000 0.044248
O O6 0.184929 0.977288 0.993998
O O7 0.127619 0.964402 0.880671
O O8 0.986092 0.016548 0.145801
O O9 0.306291 0.750000 0.893393
O O10 0.385197 0.011039 0.765145
O O11 0.138596 0.750000 0.748629
O O12 0.215935 0.017043 0.629919
O O13 0.668670 0.750000 0.532653
O O14 0.680918 0.517098 0.631741
O O15 0.584737 0.490339 0.575587
O O16 0.627877 0.250000 0.750397
O O17 0.491464 0.250000 0.605962
O O18 0.500000 0.000000 0.500000
#
# Coordination Sequence:
#
# PCOD9158868 Si02
#       7
#     4   4   4   4   4   4   4
#     4   9  18  32  52  77 107 141 177 217 265 318
#     4   9  19  35  55  78 105 138 176 217 263 314
#     4  10  19  34  55  79 108 141 176 217 264 318
#     4  10  20  35  55  78 105 139 180 222 263 314
#     4  12  23  36  54  77 107 142 179 222 270 319
#     4  10  19  32  51  77 107 140 178 220 264 319
#     4  12  24  36  51  76 109 144 177 214 263 319
#
# _framework density 16.730689000000002
#
# number of rings (size 3 to 8) (size 9 to 14) (size 15 to 20)
#    0.000    1.714    1.429    4.286    0.000    2.857 
#    0.000    0.000    0.000    0.857    0.000    0.000 
#    0.000    0.000    0.000    0.000    0.000    0.000 
#
# Total GULP energy -156375.310700 kJ/mol
# GULP energy per Si atom -5584.832525 kJ/mol
# Density = 1.669261 g / cm^3
# Si number density = 16.730689 Si / 1000 Ang^3
#
#
#
# Elastic Constant Matrix: (Units=GPa)
#
#
# Indices 1 2 3 4 5 6 
#
# 1 118.6240 34.4828 23.7655 0.0000 -2.1110 0.0000
# 2 34.4828 56.5164 16.8852 0.0000 0.8227 0.0000
# 3 23.7655 16.8852 26.8273 0.0000 -1.2893 0.0000
# 4 0.0000 0.0000 0.0000 26.5455 0.0000 1.8046
# 5 -2.1110 0.8227 -1.2893 0.0000 21.5093 0.0000
# 6 0.0000 0.0000 0.0000 1.8046 0.0000 21.3561
#
#
#
# Elastic Compliance Matrix: (Units=1/GPa)
#
#
# Indices 1 2 3 4 5 6 
#
# 1 0.011219 -0.004805 -0.006873 0.000000 0.000873 0.000000
# 2 -0.004805 0.023909 -0.010890 0.000000 -0.002039 0.000000
# 3 -0.006873 -0.010890 0.050350 0.000000 0.002760 0.000000
# 4 0.000000 0.000000 0.000000 0.037889 0.000000 -0.003202
# 5 0.000873 -0.002039 0.002760 0.000000 0.046821 0.000000
# 6 0.000000 0.000000 0.000000 -0.003202 0.000000 0.047096
#
#
# Mechanical properties :
#
#
# Convention : Reuss Voigt Hill
#
# Bulk Modulus (GPa) = 24.78691 39.13720 31.96205
# Shear Modulus (GPa) = 18.12477 22.33779 20.23128
#
# Velocity S-wave (km/s) = 3.29496 3.65792 3.48117
# Velocity P-wave (km/s) = 5.41508 6.42524 5.94167
#
# Compressibility (1/GPa) = 0.04034388
#
# Stress axis : x y z
#
# Youngs Moduli (GPa) = 89.13402 41.82585 19.86079
#
# Poissons Ratio (x) = 0.20096 0.13650
# Poissons Ratio (y) = 0.42825 0.21628
# Poissons Ratio (z) = 0.61259 0.45548
#
# Static dielectric constant tensor:
#      x y z
#    x 1.568340 0.000000 0.018890 
#    y 0.000000 1.561550 0.000000 
#    z 0.018890 0.000000 1.533600 
# 
# From -- ./inp_files/53184.got.cif
#   From: 2010.05.17/outbox.cif.g08.bks.cpg/sg11_27_cif.got.tgz:53184.got - 2010.06.03 12:22:45.
