data_PCOD9158866
_publ_section_title
;
Structure prediction by ZEFSAII (Michael W. Deem and Ramdas Pophale) SiO2 
 PCOD9158866
Probable space group: P 21/M
;
_chemical_formula_sum "Si O2"
_cell_formula_units_Z 32
_cell_length_a 24.395829
_cell_length_b 7.477029
_cell_length_c 25.706394
_cell_angle_alpha 90.000000
_cell_angle_beta 161.625795
_cell_angle_gamma 90.000000
_cell_volume 1478.094050
_symmetry_space_group_name_H-M "P 21/M"
_symmetry_group_IT_number 11
_symmetry_cell_setting 'monoclinic'
loop_
_space_group_symop_operation_xyz
x,y,z
-x,1/2+y,-z
-x,-y,-z
x,1/2-y,z
loop_
_atom_site_type_symbol
_atom_site_label
_atom_site_fract_x
_atom_site_fract_y
_atom_site_fract_z
Si Si1 0.105318 0.968720 0.430025
Si Si2 0.496208 0.536015 0.935539
Si Si3 0.380034 0.536708 0.250000
Si Si4 0.376067 0.035658 0.437672
Si Si5 0.000722 0.035658 0.062327
Si Si6 0.508593 0.464723 0.250000
Si Si7 0.874871 0.463985 0.435539
Si Si8 0.745267 0.968720 0.069974
O O1 0.107164 0.750000 0.430902
O O2 0.295866 0.029991 0.584632
O O3 0.069240 0.025770 0.457086
O O4 0.945014 0.026552 0.250000
O O5 0.494405 0.750000 0.928552
O O6 0.316346 0.465691 0.750000
O O7 0.500000 0.500000 0.000000
O O8 0.655068 0.474231 0.042914
O O9 0.370254 0.750000 0.250000
O O10 0.520150 0.466851 0.418256
O O11 0.444628 0.505827 0.250000
O O12 0.183638 0.466851 0.081744
O O13 0.360407 0.250000 0.429017
O O14 0.180691 0.966953 0.250000
O O15 0.500000 0.000000 0.500000
O O16 0.002374 0.250000 0.070983
O O17 0.000000 0.000000 0.000000
O O18 0.514857 0.250000 0.250000
O O19 0.373398 0.529991 0.084632
O O20 0.862700 0.250000 0.428552
O O21 0.000000 0.500000 0.500000
O O22 0.745361 0.750000 0.069098
#
# Coordination Sequence:
#
# PCOD9158866 Si02
#       8
#     4   4   4   4   4   4   4   4
#     4   9  17  32  54  76 102 136 174 222 273 312
#     4  10  19  32  51  77 107 137 173 220 271 326
#     4  10  22  38  54  80 116 148 175 218 277 320
#     4  10  20  35  57  83 112 146 182 220 266 319
#     4  10  20  35  57  83 112 146 182 220 266 319
#     4  10  20  36  56  78 102 138 189 226 253 314
#     4  10  19  32  51  77 107 137 173 220 271 326
#     4   9  17  32  54  76 102 136 174 222 273 312
#
# _framework density 21.649501999999998
#
# number of rings (size 3 to 8) (size 9 to 14) (size 15 to 20)
#    0.000    2.250    2.500    0.750    0.000    3.500 
#    0.000    1.250    0.000    1.500    0.000    0.000 
#    0.000    0.000    0.000    0.000    0.000    0.000 
#
# Total GULP energy -178704.146484 kJ/mol
# GULP energy per Si atom -5584.504578 kJ/mol
# Density = 2.160023 g / cm^3
# Si number density = 21.649502 Si / 1000 Ang^3
#
#
#
# Elastic Constant Matrix: (Units=GPa)
#
#
# Indices 1 2 3 4 5 6 
#
# 1 164.0970 -8.1041 113.4425 0.0000 1.3951 0.0000
# 2 -8.1041 60.8892 11.0950 0.0000 1.7313 0.0000
# 3 113.4425 11.0950 253.2517 0.0000 6.6442 0.0000
# 4 0.0000 0.0000 0.0000 2.7998 0.0000 -2.1029
# 5 1.3951 1.7313 6.6442 0.0000 33.5367 0.0000
# 6 0.0000 0.0000 0.0000 -2.1029 0.0000 26.1199
#
#
#
# Elastic Compliance Matrix: (Units=1/GPa)
#
#
# Indices 1 2 3 4 5 6 
#
# 1 0.009058 0.001952 -0.004152 0.000000 0.000345 0.000000
# 2 0.001952 0.016993 -0.001602 0.000000 -0.000641 0.000000
# 3 -0.004152 -0.001602 0.005903 0.000000 -0.000914 0.000000
# 4 0.000000 0.000000 0.000000 0.380162 0.000000 0.030607
# 5 0.000345 -0.000641 -0.000914 0.000000 0.030018 0.000000
# 6 0.000000 0.000000 0.000000 0.030607 0.000000 0.040749
#
#
# Mechanical properties :
#
#
# Convention : Reuss Voigt Hill
#
# Bulk Modulus (GPa) = 41.06775 79.01164 60.03970
# Shear Modulus (GPa) = 10.02802 36.61157 23.31979
#
# Velocity S-wave (km/s) = 2.15454 4.11677 3.28556
# Velocity P-wave (km/s) = 5.01995 7.69234 6.49508
#
# Compressibility (1/GPa) = 0.02435001
#
# Stress axis : x y z
#
# Youngs Moduli (GPa) = 110.40297 58.84679 169.41563
#
# Poissons Ratio (x) = -0.11489 0.70340
# Poissons Ratio (y) = -0.21554 0.27143
# Poissons Ratio (z) = 0.45839 0.09428
#
# Static dielectric constant tensor:
#      x y z
#    x 1.729960 0.000000 0.004800 
#    y 0.000000 1.829530 0.000000 
#    z 0.004800 0.000000 1.783230 
# 
# From -- ./inp_files/66576.got.cif
#   From: 2010.05.17/outbox.cif.g08.bks.cpg/sg11_34_cif.got.tgz:66576.got - 2010.06.03 12:22:45.
