data_PCOD9158620
_publ_section_title
;
Structure prediction by ZEFSAII (Michael W. Deem and Ramdas Pophale) SiO2 
 PCOD9158620
Probable space group: P 21/M
;
_chemical_formula_sum "Si O2"
_cell_formula_units_Z 32
_cell_length_a 9.831720
_cell_length_b 18.869551
_cell_length_c 10.537276
_cell_angle_alpha 90.000000
_cell_angle_beta 136.153972
_cell_angle_gamma 90.000000
_cell_volume 1354.187767
_symmetry_space_group_name_H-M "P 21/M"
_symmetry_group_IT_number 11
_symmetry_cell_setting 'monoclinic'
loop_
_space_group_symop_operation_xyz
x,y,z
-x,1/2+y,-z
-x,-y,-z
x,1/2-y,z
loop_
_atom_site_type_symbol
_atom_site_label
_atom_site_fract_x
_atom_site_fract_y
_atom_site_fract_z
Si Si1 0.061846 0.057569 0.322983
Si Si2 0.811667 0.171781 0.996267
Si Si3 0.739432 0.404407 0.540765
Si Si4 0.497165 0.392188 0.627056
Si Si5 0.169936 0.175339 0.076452
Si Si6 0.136905 0.328520 0.756029
Si Si7 0.724757 0.523556 0.152218
Si Si8 0.626699 0.543410 0.807740
O O1 0.262269 0.101911 0.480578
O O2 0.921411 0.111229 0.149402
O O3 0.156361 0.979538 0.350324
O O4 0.895759 0.029265 0.311644
O O5 0.822404 0.250000 0.063439
O O6 0.941534 0.174606 0.954957
O O7 0.594509 0.154018 0.803677
O O8 0.599961 0.375910 0.560604
O O9 0.588864 0.421965 0.324511
O O10 0.908664 0.350805 0.613221
O O11 0.581913 0.470968 0.709482
O O12 0.249541 0.250000 0.183169
O O13 0.251827 0.102311 0.185243
O O14 0.205656 0.175392 0.950198
O O15 0.163837 0.250000 0.718630
O O16 0.244616 0.397747 0.772395
O O17 0.749698 0.529031 0.016094
O O18 0.500000 0.500000 0.000000
#
# Coordination Sequence:
#
# PCOD9158620 Si02
#       8
#     4   4   4   4   4   4   4   4
#     4  10  21  37  53  80 113 147 193 239 277 337
#     4  11  21  33  53  79 115 161 190 222 280 345
#     4  10  19  31  53  87 118 151 179 217 286 353
#     4  11  20  33  54  85 121 150 186 219 281 354
#     4   9  17  29  47  77 111 149 184 217 271 343
#     4   9  18  33  53  80 115 144 182 237 289 341
#     4  10  21  39  62  82 105 147 207 253 298 329
#     4  10  19  33  54  81 112 149 189 237 284 338
#
# _framework density 23.630400000000002
#
# number of rings (size 3 to 8) (size 9 to 14) (size 15 to 20)
#    0.000    2.000    2.500    3.000    0.000    2.000 
#    0.000    6.250    0.000    0.000    0.000    0.000 
#    0.000    0.000    0.000    0.000    0.000    0.000 
#
# Total GULP energy -178142.094375 kJ/mol
# GULP energy per Si atom -5566.940449 kJ/mol
# Density = 2.357662 g / cm^3
# Si number density = 23.630400 Si / 1000 Ang^3
#
#
#
# Elastic Constant Matrix: (Units=GPa)
#
#
# Indices 1 2 3 4 5 6 
#
# 1 37.5086 13.1251 20.0452 0.0000 17.4915 0.0000
# 2 13.1251 124.4524 36.1808 0.0000 22.9370 0.0000
# 3 20.0452 36.1808 131.7333 0.0000 21.3192 0.0000
# 4 0.0000 0.0000 0.0000 25.2947 0.0000 5.4496
# 5 17.4915 22.9370 21.3192 0.0000 35.4587 0.0000
# 6 0.0000 0.0000 0.0000 5.4496 0.0000 5.5705
#
#
#
# Elastic Compliance Matrix: (Units=1/GPa)
#
#
# Indices 1 2 3 4 5 6 
#
# 1 0.035566 -0.000006 -0.002849 0.000000 -0.015828 0.000000
# 2 -0.000006 0.009488 -0.001786 0.000000 -0.005061 0.000000
# 3 -0.002849 -0.001786 0.008974 0.000000 -0.002835 0.000000
# 4 0.000000 0.000000 0.000000 0.050092 0.000000 -0.049005
# 5 -0.015828 -0.005061 -0.002835 0.000000 0.040988 0.000000
# 6 0.000000 0.000000 0.000000 -0.049005 0.000000 0.227460
#
#
# Mechanical properties :
#
#
# Convention : Reuss Voigt Hill
#
# Bulk Modulus (GPa) = 22.34786 48.04405 35.19596
# Shear Modulus (GPa) = 12.60198 28.22099 20.41149
#
# Velocity S-wave (km/s) = 2.31182 3.45957 2.94220
# Velocity P-wave (km/s) = 4.07478 6.02775 5.14478
#
# Compressibility (1/GPa) = 0.04474701
#
# Stress axis : x y z
#
# Youngs Moduli (GPa) = 28.11669 105.39955 111.43436
#
# Poissons Ratio (x) = 0.00058 0.31746
# Poissons Ratio (y) = 0.00016 0.19902
# Poissons Ratio (z) = 0.08010 0.18824
#
# Static dielectric constant tensor:
#      x y z
#    x 2.020220 0.000000 -0.020610 
#    y 0.000000 1.962530 0.000000 
#    z -0.020610 0.000000 1.929210 
# 
# From -- ./inp_files/50715.got.cif
#   From: 2010.05.17/outbox.cif.g08.bks.cpg/sg11_26_cif.got.tgz:50715.got - 2010.06.03 12:22:45.
