data_PCOD9158158
_publ_section_title
;
Structure prediction by ZEFSAII (Michael W. Deem and Ramdas Pophale) SiO2 
 PCOD9158158
Probable space group: P 21/M
;
_chemical_formula_sum "Si O2"
_cell_formula_units_Z 28
_cell_length_a 18.011960
_cell_length_b 7.564562
_cell_length_c 17.520445
_cell_angle_alpha 90.000000
_cell_angle_beta 35.258698
_cell_angle_gamma 90.000000
_cell_volume 1378.060381
_symmetry_space_group_name_H-M "P 21/M"
_symmetry_group_IT_number 11
_symmetry_cell_setting 'monoclinic'
loop_
_space_group_symop_operation_xyz
x,y,z
-x,1/2+y,-z
-x,-y,-z
x,1/2-y,z
loop_
_atom_site_type_symbol
_atom_site_label
_atom_site_fract_x
_atom_site_fract_y
_atom_site_fract_z
Si Si1 0.412268 0.458859 0.688379
Si Si2 0.306455 0.044292 0.363029
Si Si3 0.145684 0.960390 0.352458
Si Si4 0.833894 0.032984 0.839371
Si Si5 0.689098 0.536666 0.386245
Si Si6 0.591072 0.045549 0.137171
Si Si7 0.886171 0.966433 0.343807
O O1 0.390238 0.250000 0.713565
O O2 0.562064 0.487802 0.541231
O O3 0.333594 0.527742 0.680967
O O4 0.381346 0.540438 0.795795
O O5 0.322165 0.250000 0.372111
O O6 0.449156 0.964519 0.245049
O O7 0.204882 0.972303 0.509896
O O8 0.242590 0.035243 0.333823
O O9 0.162237 0.750000 0.339092
O O10 0.167693 0.022826 0.247658
O O11 0.000000 0.000000 0.500000
O O12 0.835273 0.250000 0.838959
O O13 0.968169 0.975916 0.764769
O O14 0.709180 0.969951 0.989993
O O15 0.691057 0.750000 0.381426
O O16 0.815280 0.477991 0.325638
O O17 0.581724 0.250000 0.120056
O O18 0.888117 0.750000 0.343171
#
# Coordination Sequence:
#
# PCOD9158158 Si02
#       7
#     4   4   4   4   4   4   4
#     4  10  19  30  49  79 110 134 168 219 265 302
#     4  10  19  33  55  78 101 135 176 213 254 309
#     4  11  21  35  55  81 108 134 173 219 262 304
#     4   9  19  34  54  76 100 135 176 213 251 312
#     4   9  17  31  53  78 103 138 176 211 256 311
#     4  10  20  36  55  74 102 141 178 208 254 316
#     4   9  15  30  54  77  99 131 176 213 246 303
#
# _framework density 20.318411999999999
#
# number of rings (size 3 to 8) (size 9 to 14) (size 15 to 20)
#    0.000    2.286    2.857    0.857    0.000    1.714 
#    0.000    2.143    0.000    0.000    0.000    0.000 
#    0.000    0.000    0.000    0.000    0.000    0.000 
#
# Total GULP energy -156286.559690 kJ/mol
# GULP energy per Si atom -5581.662846 kJ/mol
# Density = 2.027217 g / cm^3
# Si number density = 20.318412 Si / 1000 Ang^3
#
#
#
# Elastic Constant Matrix: (Units=GPa)
#
#
# Indices 1 2 3 4 5 6 
#
# 1 135.9986 -9.2564 72.6697 0.0000 -8.3266 0.0000
# 2 -9.2564 46.7405 -3.8124 0.0000 -7.7658 0.0000
# 3 72.6697 -3.8124 148.7166 0.0000 -11.0733 0.0000
# 4 0.0000 0.0000 0.0000 6.6096 0.0000 8.0165
# 5 -8.3266 -7.7658 -11.0733 0.0000 28.6162 0.0000
# 6 0.0000 0.0000 0.0000 8.0165 0.0000 16.4612
#
#
#
# Elastic Compliance Matrix: (Units=1/GPa)
#
#
# Indices 1 2 3 4 5 6 
#
# 1 0.010137 0.001885 -0.004785 0.000000 0.001609 0.000000
# 2 0.001885 0.022918 0.000176 0.000000 0.006836 0.000000
# 3 -0.004785 0.000176 0.009233 0.000000 0.002228 0.000000
# 4 0.000000 0.000000 0.000000 0.369605 0.000000 -0.179995
# 5 0.001609 0.006836 0.002228 0.000000 0.038131 0.000000
# 6 0.000000 0.000000 0.000000 -0.179995 0.000000 0.148406
#
#
# Mechanical properties :
#
#
# Convention : Reuss Voigt Hill
#
# Bulk Modulus (GPa) = 27.14619 50.07304 38.60962
# Shear Modulus (GPa) = 8.11481 28.46104 18.28792
#
# Velocity S-wave (km/s) = 2.00062 3.74672 3.00337
# Velocity P-wave (km/s) = 4.32736 6.58900 5.57409
#
# Compressibility (1/GPa) = 0.03683758
#
# Stress axis : x y z
#
# Youngs Moduli (GPa) = 98.65142 43.63389 108.30915
#
# Poissons Ratio (x) = -0.08223 0.51827
# Poissons Ratio (y) = -0.18591 -0.01902
# Poissons Ratio (z) = 0.47206 -0.00766
#
# Static dielectric constant tensor:
#      x y z
#    x 1.715290 0.000000 -0.001750 
#    y 0.000000 1.724600 0.000000 
#    z -0.001750 0.000000 1.690620 
# 
# From -- ./inp_files/53221.got.cif
#   From: 2010.05.17/outbox.cif.g08.bks.cpg/sg11_27_cif.got.tgz:53221.got - 2010.06.03 12:22:45.
