data_PCOD9158510
_publ_section_title
;
Structure prediction by ZEFSAII (Michael W. Deem and Ramdas Pophale) SiO2 
 PCOD9158510
Probable space group: P 21/M
;
_chemical_formula_sum "Si O2"
_cell_formula_units_Z 32
_cell_length_a 13.500013
_cell_length_b 7.876360
_cell_length_c 14.437290
_cell_angle_alpha 90.000000
_cell_angle_beta 94.065398
_cell_angle_gamma 90.000000
_cell_volume 1531.268212
_symmetry_space_group_name_H-M "P 21/M"
_symmetry_group_IT_number 11
_symmetry_cell_setting 'monoclinic'
loop_
_space_group_symop_operation_xyz
x,y,z
-x,1/2+y,-z
-x,-y,-z
x,1/2-y,z
loop_
_atom_site_type_symbol
_atom_site_label
_atom_site_fract_x
_atom_site_fract_y
_atom_site_fract_z
Si Si1 0.189089 0.957924 0.372742
Si Si2 0.648162 0.456039 0.243609
Si Si3 0.732384 0.044339 0.813098
Si Si4 0.102316 0.561331 0.049490
Si Si5 0.164577 0.048776 0.868104
Si Si6 0.224859 0.953918 0.581307
Si Si7 0.965839 0.954554 0.308149
Si Si8 0.471670 0.451412 0.103616
O O1 0.187221 0.750000 0.374388
O O2 0.261779 0.008565 0.293708
O O3 0.221156 0.018598 0.476235
O O4 0.075704 0.012707 0.342892
O O5 0.645018 0.250000 0.245955
O O6 0.738216 0.513680 0.184569
O O7 0.684115 0.514930 0.347826
O O8 0.549121 0.519512 0.186250
O O9 0.736535 0.250000 0.815376
O O10 0.833402 0.974851 0.867058
O O11 0.637857 0.996361 0.867832
O O12 0.081958 0.750000 0.081814
O O13 0.170995 0.552977 0.963215
O O14 0.000000 0.500000 0.000000
O O15 0.156470 0.250000 0.887557
O O16 0.072516 0.993111 0.796544
O O17 0.232395 0.750000 0.577633
O O18 0.120526 0.992888 0.625923
O O19 0.966983 0.750000 0.307000
O O20 0.479737 0.250000 0.105985
O O21 0.500000 0.500000 0.000000
#
# Coordination Sequence:
#
# PCOD9158510 Si02
#       8
#     4   4   4   4   4   4   4   4
#     4   9  17  32  53  74 102 141 178 211 254 309
#     4   9  19  35  53  76 105 132 165 214 266 310
#     4  10  22  39  56  77 106 139 176 217 261 310
#     4  11  22  35  52  74 104 140 173 208 253 305
#     4  10  19  31  50  76 105 136 172 214 258 307
#     4   9  17  31  53  78 103 137 178 214 253 305
#     4   9  17  30  49  76 109 141 173 212 256 301
#     4  11  23  39  59  81 105 134 170 216 267 317
#
# _framework density 20.89771
#
# number of rings (size 3 to 8) (size 9 to 14) (size 15 to 20)
#    0.000    2.250    0.000    3.000    0.000    7.500 
#    0.000    1.875    0.000    0.000    0.000    0.000 
#    0.000    0.000    0.000    0.000    0.000    0.000 
#
# Total GULP energy -178498.046547 kJ/mol
# GULP energy per Si atom -5578.063955 kJ/mol
# Density = 2.085015 g / cm^3
# Si number density = 20.897710 Si / 1000 Ang^3
#
#
#
# Elastic Constant Matrix: (Units=GPa)
#
#
# Indices 1 2 3 4 5 6 
#
# 1 113.5187 5.2770 59.8517 0.0000 15.3646 0.0000
# 2 5.2770 18.3717 5.6729 0.0000 5.7955 0.0000
# 3 59.8517 5.6729 152.6335 0.0000 3.1746 0.0000
# 4 0.0000 0.0000 0.0000 14.7870 0.0000 -3.2105
# 5 15.3646 5.7955 3.1746 0.0000 28.6501 0.0000
# 6 0.0000 0.0000 0.0000 -3.2105 0.0000 22.9449
#
#
#
# Elastic Compliance Matrix: (Units=1/GPa)
#
#
# Indices 1 2 3 4 5 6 
#
# 1 0.012038 -0.000175 -0.004591 0.000000 -0.005912 0.000000
# 2 -0.000175 0.058711 -0.001873 0.000000 -0.011575 0.000000
# 3 -0.004591 -0.001873 0.008382 0.000000 0.001912 0.000000
# 4 0.000000 0.000000 0.000000 0.069746 0.000000 0.009759
# 5 -0.005912 -0.011575 0.001912 0.000000 0.040204 0.000000
# 6 0.000000 0.000000 0.000000 0.009759 0.000000 0.044948
#
#
# Mechanical properties :
#
#
# Convention : Reuss Voigt Hill
#
# Bulk Modulus (GPa) = 15.18523 47.34746 31.26635
# Shear Modulus (GPa) = 18.56957 27.52455 23.04706
#
# Velocity S-wave (km/s) = 2.98416 3.63314 3.32452
# Velocity P-wave (km/s) = 4.37674 6.34866 5.45259
#
# Compressibility (1/GPa) = 0.06585345
#
# Stress axis : x y z
#
# Youngs Moduli (GPa) = 83.07078 17.03245 119.30758
#
# Poissons Ratio (x) = 0.00298 0.54773
# Poissons Ratio (y) = 0.01456 0.22342
# Poissons Ratio (z) = 0.38137 0.03190
#
# Static dielectric constant tensor:
#      x y z
#    x 1.778990 0.000000 0.021660 
#    y 0.000000 1.794760 0.000000 
#    z 0.021660 0.000000 1.789880 
# 
# From -- ./inp_files/49303.got.cif
#   From: 2010.05.17/outbox.cif.g08.bks.cpg/sg11_25_cif.got.tgz:49303.got - 2010.06.03 12:22:45.
