data_PCOD9158990
_publ_section_title
;
Structure prediction by ZEFSAII (Michael W. Deem and Ramdas Pophale) SiO2 
 PCOD9158990
Probable space group: P 21/M
;
_chemical_formula_sum "Si O2"
_cell_formula_units_Z 32
_cell_length_a 25.041105
_cell_length_b 8.889266
_cell_length_c 20.654876
_cell_angle_alpha 90.000000
_cell_angle_beta 23.802226
_cell_angle_gamma 90.000000
_cell_volume 1855.549425
_symmetry_space_group_name_H-M "P 21/M"
_symmetry_group_IT_number 11
_symmetry_cell_setting 'monoclinic'
loop_
_space_group_symop_operation_xyz
x,y,z
-x,1/2+y,-z
-x,-y,-z
x,1/2-y,z
loop_
_atom_site_type_symbol
_atom_site_label
_atom_site_fract_x
_atom_site_fract_y
_atom_site_fract_z
Si Si1 0.264189 0.931865 0.561559
Si Si2 0.046630 0.929779 0.264975
Si Si3 0.814165 0.430533 0.024886
Si Si4 0.496351 0.931701 0.075053
Si Si5 0.296730 0.431041 0.047106
Si Si6 0.232075 0.569023 0.445550
Si Si7 0.983196 0.930907 0.089317
Si Si8 0.564516 0.930531 0.242901
O O1 0.253355 0.750000 0.578988
O O2 0.247666 0.971001 0.504024
O O3 0.412193 0.976386 0.418969
O O4 0.150372 0.009253 0.729233
O O5 0.043200 0.750000 0.272000
O O6 0.154636 0.993837 0.194875
O O7 0.100793 0.974284 0.133227
O O8 0.901071 0.996269 0.433977
O O9 0.803349 0.250000 0.036468
O O10 0.669382 0.499659 0.176051
O O11 0.895176 0.476089 0.998483
O O12 0.497318 0.750000 0.070290
O O13 0.362591 0.975969 0.261311
O O14 0.621585 0.976990 0.980260
O O15 0.500000 0.000000 0.000000
O O16 0.282155 0.250000 0.063638
O O17 0.383910 0.469951 0.886644
O O18 0.221340 0.750000 0.454266
O O19 0.980474 0.750000 0.089167
O O20 0.000000 0.000000 0.000000
O O21 0.569908 0.750000 0.241752
#
# Coordination Sequence:
#
# PCOD9158990 Si02
#       8
#     4   4   4   4   4   4   4   4
#     4  10  19  34  57  84 109 138 180 226 269 318
#     4  10  19  32  52  82 112 137 175 227 274 317
#     4   9  19  34  51  77 112 141 171 219 272 316
#     4  10  21  37  56  80 112 146 183 224 271 327
#     4   9  17  33  54  78 108 143 179 220 270 323
#     4  10  19  34  56  81 109 142 181 223 268 322
#     4  11  23  39  56  79 112 147 182 221 269 324
#     4   9  17  31  55  83 107 135 178 223 265 319
#
# _framework density 17.245567000000001
#
# number of rings (size 3 to 8) (size 9 to 14) (size 15 to 20)
#    0.000    2.250    2.500    0.750    0.000    3.000 
#    0.000    1.250    0.000    0.000    0.000    0.000 
#    0.000    0.000    0.000    0.000    0.000    0.000 
#
# Total GULP energy -178544.928213 kJ/mol
# GULP energy per Si atom -5579.529007 kJ/mol
# Density = 1.720632 g / cm^3
# Si number density = 17.245567 Si / 1000 Ang^3
#
#
#
# Elastic Constant Matrix: (Units=GPa)
#
#
# Indices 1 2 3 4 5 6 
#
# 1 154.8541 40.2754 84.4376 0.0000 -22.4187 0.0000
# 2 40.2754 20.1425 35.9520 0.0000 -6.0995 0.0000
# 3 84.4376 35.9520 113.8129 0.0000 -18.9298 0.0000
# 4 0.0000 0.0000 0.0000 22.7761 0.0000 0.0905
# 5 -22.4187 -6.0995 -18.9298 0.0000 35.0451 0.0000
# 6 0.0000 0.0000 0.0000 0.0905 0.0000 28.5233
#
#
#
# Elastic Compliance Matrix: (Units=1/GPa)
#
#
# Indices 1 2 3 4 5 6 
#
# 1 0.014483 -0.022373 -0.003059 0.000000 0.003719 0.000000
# 2 -0.022373 0.148386 -0.031159 0.000000 -0.005317 0.000000
# 3 -0.003059 -0.031159 0.021613 0.000000 0.004294 0.000000
# 4 0.000000 0.000000 0.000000 0.043906 0.000000 -0.000139
# 5 0.003719 -0.005317 0.004294 0.000000 0.032308 0.000000
# 6 0.000000 0.000000 0.000000 -0.000139 0.000000 0.035060
#
#
# Mechanical properties :
#
#
# Convention : Reuss Voigt Hill
#
# Bulk Modulus (GPa) = 14.02524 67.79329 40.90926
# Shear Modulus (GPa) = 11.55522 25.81186 18.68354
#
# Velocity S-wave (km/s) = 2.59132 3.87295 3.29505
# Velocity P-wave (km/s) = 4.13565 7.70685 6.18462
#
# Compressibility (1/GPa) = 0.07130004
#
# Stress axis : x y z
#
# Youngs Moduli (GPa) = 69.04686 6.73916 46.26851
#
# Poissons Ratio (x) = 0.15077 0.14154
# Poissons Ratio (y) = 1.54476 1.44170
# Poissons Ratio (z) = 0.21122 0.20999
#
# Static dielectric constant tensor:
#      x y z
#    x 1.575780 0.000000 -0.009320 
#    y 0.000000 1.577900 0.000000 
#    z -0.009320 0.000000 1.565640 
# 
# From -- ./inp_files/67119.got.cif
#   From: 2010.05.17/outbox.cif.g08.bks.cpg/sg11_34_cif.got.tgz:67119.got - 2010.06.03 12:22:45.
