data_PCOD9158468
_publ_section_title
;
Structure prediction by ZEFSAII (Michael W. Deem and Ramdas Pophale) SiO2 
 PCOD9158468
Probable space group: P 21/M
;
_chemical_formula_sum "Si O2"
_cell_formula_units_Z 24
_cell_length_a 26.946058
_cell_length_b 8.061051
_cell_length_c 11.709373
_cell_angle_alpha 90.000000
_cell_angle_beta 29.886998
_cell_angle_gamma 90.000000
_cell_volume 1267.370507
_symmetry_space_group_name_H-M "P 21/M"
_symmetry_group_IT_number 11
_symmetry_cell_setting 'monoclinic'
loop_
_space_group_symop_operation_xyz
x,y,z
-x,1/2+y,-z
-x,-y,-z
x,1/2-y,z
loop_
_atom_site_type_symbol
_atom_site_label
_atom_site_fract_x
_atom_site_fract_y
_atom_site_fract_z
Si Si1 0.110797 0.560488 0.260912
Si Si2 0.382850 0.948451 0.865825
Si Si3 0.996155 0.548795 0.876113
Si Si4 0.807711 0.441343 0.645861
Si Si5 0.799115 0.937979 0.141026
Si Si6 0.604221 0.053660 0.421883
O O1 0.116102 0.750000 0.206733
O O2 0.159626 0.560190 0.287104
O O3 0.000000 0.500000 0.500000
O O4 0.159598 0.444335 0.070273
O O5 0.366246 0.750000 0.895828
O O6 0.370615 0.009262 0.758052
O O7 0.497300 0.980945 0.668040
O O8 0.302958 0.016452 0.117474
O O9 0.995335 0.750000 0.863655
O O10 0.097794 0.486570 0.611473
O O11 0.891365 0.488961 0.030068
O O12 0.000000 0.500000 0.000000
O O13 0.797925 0.250000 0.624097
O O14 0.783279 0.750000 0.211713
O O15 0.691483 0.020072 0.338553
O O16 0.592683 0.250000 0.433596
#
# Coordination Sequence:
#
# PCOD9158468 Si02
#       6
#     4   4   4   4   4   4
#     4  11  19  31  49  77 110 140 172 210 262 321
#     4   9  17  31  50  74 108 146 174 204 255 315
#     4  10  22  39  56  76 103 137 178 224 270 315
#     4   9  17  33  53  74 106 141 171 210 261 314
#     4  11  21  34  53  77 108 143 177 216 263 319
#     4  10  19  31  49  77 111 143 175 212 255 311
#
# _framework density 18.936845000000002
#
# number of rings (size 3 to 8) (size 9 to 14) (size 15 to 20)
#    0.000    2.000    3.333    1.500    0.000    2.000 
#    0.000    0.833    0.000    1.000    0.000    0.000 
#    0.000    0.000    0.000    0.000    0.000    0.000 
#
# Total GULP energy -133639.920934 kJ/mol
# GULP energy per Si atom -5568.330039 kJ/mol
# Density = 1.889374 g / cm^3
# Si number density = 18.936845 Si / 1000 Ang^3
#
#
#
# Elastic Constant Matrix: (Units=GPa)
#
#
# Indices 1 2 3 4 5 6 
#
# 1 80.6066 2.0006 68.6228 0.0000 -11.8295 0.0000
# 2 2.0006 18.7452 5.9246 0.0000 -1.8811 0.0000
# 3 68.6228 5.9246 131.7468 0.0000 -35.4627 0.0000
# 4 0.0000 0.0000 0.0000 13.8976 0.0000 2.1935
# 5 -11.8295 -1.8811 -35.4627 0.0000 26.8441 0.0000
# 6 0.0000 0.0000 0.0000 2.1935 0.0000 16.3010
#
#
#
# Elastic Compliance Matrix: (Units=1/GPa)
#
#
# Indices 1 2 3 4 5 6 
#
# 1 0.023662 0.001249 -0.014821 0.000000 -0.009065 0.000000
# 2 0.001249 0.054196 -0.002975 0.000000 0.000418 0.000000
# 3 -0.014821 -0.002975 0.021151 0.000000 0.021202 0.000000
# 4 0.000000 0.000000 0.000000 0.073516 0.000000 -0.009893
# 5 -0.009065 0.000418 0.021202 0.000000 0.061296 0.000000
# 6 0.000000 0.000000 0.000000 -0.009893 0.000000 0.062677
#
#
# Mechanical properties :
#
#
# Convention : Reuss Voigt Hill
#
# Bulk Modulus (GPa) = 15.17116 42.68829 28.92973
# Shear Modulus (GPa) = 14.22214 21.71190 17.96702
#
# Velocity S-wave (km/s) = 2.74347 3.38974 3.08358
# Velocity P-wave (km/s) = 4.25021 6.15726 5.29037
#
# Compressibility (1/GPa) = 0.06591454
#
# Stress axis : x y z
#
# Youngs Moduli (GPa) = 42.26145 18.45159 47.27926
#
# Poissons Ratio (x) = -0.02305 0.70073
# Poissons Ratio (y) = -0.05279 0.14068
# Poissons Ratio (z) = 0.62636 0.05490
#
# Static dielectric constant tensor:
#      x y z
#    x 1.642730 0.000000 -0.047640 
#    y 0.000000 1.680440 0.000000 
#    z -0.047640 0.000000 1.714500 
# 
# From -- ./inp_files/40803.got.cif
#   From: 2010.05.17/outbox.cif.g08.bks.cpg/sg11_21_cif.got.tgz:40803.got - 2010.06.03 12:22:45.
