data_PCOD9158763
_publ_section_title
;
Structure prediction by ZEFSAII (Michael W. Deem and Ramdas Pophale) SiO2 
 PCOD9158763
Probable space group: P 21/M
;
_chemical_formula_sum "Si O2"
_cell_formula_units_Z 24
_cell_length_a 11.532440
_cell_length_b 8.608049
_cell_length_c 24.633444
_cell_angle_alpha 90.000000
_cell_angle_beta 144.837428
_cell_angle_gamma 90.000000
_cell_volume 1408.305713
_symmetry_space_group_name_H-M "P 21/M"
_symmetry_group_IT_number 11
_symmetry_cell_setting 'monoclinic'
loop_
_space_group_symop_operation_xyz
x,y,z
-x,1/2+y,-z
-x,-y,-z
x,1/2-y,z
loop_
_atom_site_type_symbol
_atom_site_label
_atom_site_fract_x
_atom_site_fract_y
_atom_site_fract_z
Si Si1 0.669881 0.936818 0.023758
Si Si2 0.820320 0.437911 0.361035
Si Si3 0.739432 0.063987 0.453271
Si Si4 0.367050 0.938582 0.821845
Si Si5 0.029647 0.936229 0.781073
Si Si6 0.413208 0.934753 0.410446
O O1 0.677151 0.750000 0.029216
O O2 0.579003 0.984455 0.930486
O O3 0.876007 0.004962 0.126052
O O4 0.500000 0.000000 0.000000
O O5 0.837914 0.250000 0.366072
O O6 0.736102 0.479655 0.388177
O O7 0.683785 0.490037 0.258317
O O8 0.043707 0.507813 0.441943
O O9 0.726592 0.250000 0.452645
O O10 0.562389 0.988273 0.419834
O O11 0.366363 0.750000 0.821294
O O12 0.185165 0.985788 0.792731
O O13 0.024768 0.750000 0.779496
O O14 0.809861 0.001148 0.685478
O O15 0.407494 0.750000 0.411176
O O16 0.500000 0.000000 0.500000
#
# Coordination Sequence:
#
# PCOD9158763 Si02
#       6
#     4   4   4   4   4   4
#     4   9  16  28  46  70 100 132 167 206 250 295
#     4   9  17  32  53  74  99 132 169 209 249 291
#     4  10  20  33  50  74 102 132 167 206 250 297
#     4   8  15  28  49  74  98 127 162 202 246 290
#     4  10  19  32  50  74 104 133 163 202 251 302
#     4  12  24  37  53  73 100 132 166 203 246 299
#
# _framework density 17.041754999999998
#
# number of rings (size 3 to 8) (size 9 to 14) (size 15 to 20)
#    0.000    2.333    0.000    5.000    0.000    2.000 
#    0.000    4.167    0.000    1.000    0.000    0.000 
#    0.000    0.000    0.000    0.000    0.000    0.000 
#
# Total GULP energy -133820.101943 kJ/mol
# GULP energy per Si atom -5575.837581 kJ/mol
# Density = 1.700297 g / cm^3
# Si number density = 17.041755 Si / 1000 Ang^3
#
#
#
# Elastic Constant Matrix: (Units=GPa)
#
#
# Indices 1 2 3 4 5 6 
#
# 1 61.4974 26.3088 67.0000 0.0000 -6.9379 0.0000
# 2 26.3088 62.4901 44.7619 0.0000 0.3107 0.0000
# 3 67.0000 44.7619 183.7463 0.0000 -21.3664 0.0000
# 4 0.0000 0.0000 0.0000 31.2161 0.0000 2.0356
# 5 -6.9379 0.3107 -21.3664 0.0000 29.3685 0.0000
# 6 0.0000 0.0000 0.0000 2.0356 0.0000 21.4194
#
#
#
# Elastic Compliance Matrix: (Units=1/GPa)
#
#
# Indices 1 2 3 4 5 6 
#
# 1 0.028464 -0.005536 -0.009004 0.000000 0.000233 0.000000
# 2 -0.005536 0.020897 -0.003550 0.000000 -0.004112 0.000000
# 3 -0.009004 -0.003550 0.010211 0.000000 0.005339 0.000000
# 4 0.000000 0.000000 0.000000 0.032235 0.000000 -0.003063
# 5 0.000233 -0.004112 0.005339 0.000000 0.038033 0.000000
# 6 0.000000 0.000000 0.000000 -0.003063 0.000000 0.046978
#
#
# Mechanical properties :
#
#
# Convention : Reuss Voigt Hill
#
# Bulk Modulus (GPa) = 42.74732 64.87503 53.81117
# Shear Modulus (GPa) = 22.64557 27.71165 25.17861
#
# Velocity S-wave (km/s) = 3.64926 4.03687 3.84795
# Velocity P-wave (km/s) = 6.54939 7.73818 7.16847
#
# Compressibility (1/GPa) = 0.02339328
#
# Stress axis : x y z
#
# Youngs Moduli (GPa) = 35.13167 47.85484 97.93360
#
# Poissons Ratio (x) = 0.26491 0.88175
# Poissons Ratio (y) = 0.19447 0.34768
# Poissons Ratio (z) = 0.31631 0.16989
#
# Static dielectric constant tensor:
#      x y z
#    x 1.564960 0.000000 -0.031880 
#    y 0.000000 1.576170 0.000000 
#    z -0.031880 0.000000 1.591480 
# 
# From -- ./inp_files/58779.got.cif
#   From: 2010.05.17/outbox.cif.g08.bks.cpg/sg11_30_cif.got.tgz:58779.got - 2010.06.03 12:22:45.
