data_PCOD9158178
_publ_section_title
;
Structure prediction by ZEFSAII (Michael W. Deem and Ramdas Pophale) SiO2 
 PCOD9158178
Probable space group: P 21/M
;
_chemical_formula_sum "Si O2"
_cell_formula_units_Z 32
_cell_length_a 26.936219
_cell_length_b 7.607426
_cell_length_c 20.852286
_cell_angle_alpha 90.000000
_cell_angle_beta 21.219982
_cell_angle_gamma 90.000000
_cell_volume 1546.593789
_symmetry_space_group_name_H-M "P 21/M"
_symmetry_group_IT_number 11
_symmetry_cell_setting 'monoclinic'
loop_
_space_group_symop_operation_xyz
x,y,z
-x,1/2+y,-z
-x,-y,-z
x,1/2-y,z
loop_
_atom_site_type_symbol
_atom_site_label
_atom_site_fract_x
_atom_site_fract_y
_atom_site_fract_z
Si Si1 0.343783 0.540666 0.706800
Si Si2 0.578964 0.041186 0.992967
Si Si3 0.409651 0.037791 0.876179
Si Si4 0.282859 0.535019 0.527103
Si Si5 0.284528 0.953136 0.297777
Si Si6 0.910000 0.033812 0.357741
Si Si7 0.780333 0.543398 0.008289
Si Si8 0.838715 0.038967 0.191521
O O1 0.500000 0.500000 0.500000
O O2 0.329020 0.750000 0.727315
O O3 0.304321 0.472173 0.824244
O O4 0.239136 0.472200 0.778171
O O5 0.562799 0.250000 0.002339
O O6 0.627182 0.009077 0.006775
O O7 0.428224 0.960602 0.163567
O O8 0.678098 0.971755 0.817114
O O9 0.412890 0.250000 0.868340
O O10 0.563964 0.976417 0.674729
O O11 0.304707 0.969733 0.949123
O O12 0.283445 0.750000 0.526851
O O13 0.176387 0.479365 0.600488
O O14 0.234190 0.475338 0.655684
O O15 0.246559 0.750000 0.332998
O O16 0.168265 0.028245 0.483943
O O17 0.907097 0.250000 0.360970
O O18 0.066442 0.972349 0.167228
O O19 0.798259 0.750000 0.973298
O O20 0.824349 0.250000 0.208267
O O21 0.000000 0.000000 0.000000
#
# Coordination Sequence:
#
# PCOD9158178 Si02
#       8
#     4   4   4   4   4   4   4   4
#     4  11  23  39  58  81 113 149 186 229 277 330
#     4  10  19  30  50  80 109 137 176 225 268 313
#     4  10  19  34  54  76 104 138 177 222 266 318
#     4   9  16  29  52  74  96 131 174 214 254 310
#     4   9  17  32  53  77 107 142 178 216 266 322
#     4   9  16  30  54  79 102 136 180 220 262 318
#     4  10  21  36  57  81 105 139 185 227 268 324
#     4  10  21  36  55  81 109 139 178 225 276 327
#
# _framework density 20.690631
#
# number of rings (size 3 to 8) (size 9 to 14) (size 15 to 20)
#    0.000    2.250    1.250    2.250    0.000    5.000 
#    0.000    1.875    0.000    0.000    0.000    0.000 
#    0.000    0.000    0.000    0.000    0.000    0.000 
#
# Total GULP energy -178700.827565 kJ/mol
# GULP energy per Si atom -5584.400861 kJ/mol
# Density = 2.064354 g / cm^3
# Si number density = 20.690631 Si / 1000 Ang^3
#
#
#
# Elastic Constant Matrix: (Units=GPa)
#
#
# Indices 1 2 3 4 5 6 
#
# 1 165.9504 -5.2927 52.5487 0.0000 1.3184 0.0000
# 2 -5.2927 42.3200 -10.2922 0.0000 -4.6029 0.0000
# 3 52.5487 -10.2922 60.5256 0.0000 1.4442 0.0000
# 4 0.0000 0.0000 0.0000 7.8411 0.0000 3.8459
# 5 1.3184 -4.6029 1.4442 0.0000 37.6700 0.0000
# 6 0.0000 0.0000 0.0000 3.8459 0.0000 10.2500
#
#
#
# Elastic Compliance Matrix: (Units=1/GPa)
#
#
# Indices 1 2 3 4 5 6 
#
# 1 0.008334 -0.000759 -0.007362 0.000000 -0.000102 0.000000
# 2 -0.000759 0.025028 0.004846 0.000000 0.002899 0.000000
# 3 -0.007362 0.004846 0.023739 0.000000 -0.000060 0.000000
# 4 0.000000 0.000000 0.000000 0.156298 0.000000 -0.058645
# 5 -0.000102 0.002899 -0.000060 0.000000 0.026906 0.000000
# 6 0.000000 0.000000 0.000000 -0.058645 0.000000 0.119566
#
#
# Mechanical properties :
#
#
# Convention : Reuss Voigt Hill
#
# Bulk Modulus (GPa) = 19.78212 38.08040 28.93126
# Shear Modulus (GPa) = 13.04556 26.60769 19.82663
#
# Velocity S-wave (km/s) = 2.51371 3.58994 3.09891
# Velocity P-wave (km/s) = 4.24342 5.96894 5.17855
#
# Compressibility (1/GPa) = 0.05055071
#
# Stress axis : x y z
#
# Youngs Moduli (GPa) = 119.99459 39.95464 42.12438
#
# Poissons Ratio (x) = 0.03034 0.31012
# Poissons Ratio (y) = 0.09111 -0.20414
# Poissons Ratio (z) = 0.88341 -0.19362
#
# Static dielectric constant tensor:
#      x y z
#    x 1.722730 0.000000 0.008190 
#    y 0.000000 1.775820 0.000000 
#    z 0.008190 0.000000 1.711140 
# 
# From -- ./inp_files/66942.got.cif
#   From: 2010.05.17/outbox.cif.g08.bks.cpg/sg11_34_cif.got.tgz:66942.got - 2010.06.03 12:22:45.
