data_PCOD9158070
_publ_section_title
;
Structure prediction by ZEFSAII (Michael W. Deem and Ramdas Pophale) SiO2 
 PCOD9158070
Probable space group: P 21/M
;
_chemical_formula_sum "Si O2"
_cell_formula_units_Z 32
_cell_length_a 24.849571
_cell_length_b 7.480856
_cell_length_c 17.957603
_cell_angle_alpha 90.000000
_cell_angle_beta 152.374983
_cell_angle_gamma 90.000000
_cell_volume 1547.888479
_symmetry_space_group_name_H-M "P 21/M"
_symmetry_group_IT_number 11
_symmetry_cell_setting 'monoclinic'
loop_
_space_group_symop_operation_xyz
x,y,z
-x,1/2+y,-z
-x,-y,-z
x,1/2-y,z
loop_
_atom_site_type_symbol
_atom_site_label
_atom_site_fract_x
_atom_site_fract_y
_atom_site_fract_z
Si Si1 0.600403 0.043745 0.934729
Si Si2 0.853602 0.966331 0.663971
Si Si3 0.188682 0.957856 0.900250
Si Si4 0.137395 0.463526 0.162230
Si Si5 0.872941 0.959981 0.012579
Si Si6 0.638960 0.530996 0.303196
Si Si7 0.298850 0.467226 0.780904
Si Si8 0.035047 0.463402 0.458028
O O1 0.583261 0.250000 0.890612
O O2 0.696461 0.963232 0.997186
O O3 0.653577 0.038044 0.083006
O O4 0.471768 0.966194 0.786093
O O5 0.853394 0.750000 0.664089
O O6 0.816472 0.028676 0.701544
O O7 0.760205 0.024867 0.488793
O O8 0.986959 0.017576 0.812274
O O9 0.187996 0.750000 0.875573
O O10 0.068258 0.035536 0.720405
O O11 0.183943 0.963695 0.983129
O O12 0.155607 0.250000 0.182828
O O13 0.169597 0.533502 0.119760
O O14 0.000000 0.500000 0.000000
O O15 0.849102 0.750000 0.984223
O O16 0.637697 0.750000 0.301908
O O17 0.632515 0.477497 0.208950
O O18 0.300699 0.250000 0.788163
O O19 0.165678 0.528011 0.606376
O O20 0.041718 0.250000 0.453708
O O21 0.000000 0.500000 0.500000
#
# Coordination Sequence:
#
# PCOD9158070 Si02
#       8
#     4   4   4   4   4   4   4   4
#     4  10  20  34  50  67  90 124 166 202 231 272
#     4   9  16  31  53  73  98 127 153 187 237 286
#     4  10  20  33  48  67  94 129 164 194 231 281
#     4   8  15  27  46  72  98 124 150 183 231 285
#     4  10  19  30  47  75 103 123 153 193 234 283
#     4   9  18  32  51  72  92 120 160 201 233 274
#     4  10  19  31  48  69  94 122 155 195 243 287
#     4  10  19  31  47  67  92 122 155 192 235 282
#
# _framework density 20.673325999999999
#
# number of rings (size 3 to 8) (size 9 to 14) (size 15 to 20)
#    0.000    2.500    1.250    1.500    0.000    3.500 
#    0.000    2.500    0.000    0.750    0.000    0.000 
#    0.000    0.000    0.000    0.000    0.000    0.625 
#
# Total GULP energy -178486.644775 kJ/mol
# GULP energy per Si atom -5577.707649 kJ/mol
# Density = 2.062627 g / cm^3
# Si number density = 20.673326 Si / 1000 Ang^3
#
#
#
# Elastic Constant Matrix: (Units=GPa)
#
#
# Indices 1 2 3 4 5 6 
#
# 1 109.2880 -15.2300 28.7337 0.0000 -10.0005 0.0000
# 2 -15.2300 56.2932 -6.6286 0.0000 4.2019 0.0000
# 3 28.7337 -6.6286 32.1443 0.0000 2.8628 0.0000
# 4 0.0000 0.0000 0.0000 6.3855 0.0000 -5.5148
# 5 -10.0005 4.2019 2.8628 0.0000 33.0461 0.0000
# 6 0.0000 0.0000 0.0000 -5.5148 0.0000 11.0050
#
#
#
# Elastic Compliance Matrix: (Units=1/GPa)
#
#
# Indices 1 2 3 4 5 6 
#
# 1 0.012859 0.001771 -0.011545 0.000000 0.004667 0.000000
# 2 0.001771 0.018685 0.002453 0.000000 -0.002052 0.000000
# 3 -0.011545 0.002453 0.042603 0.000000 -0.007496 0.000000
# 4 0.000000 0.000000 0.000000 0.276095 0.000000 0.138356
# 5 0.004667 -0.002052 -0.007496 0.000000 0.032583 0.000000
# 6 0.000000 0.000000 0.000000 0.138356 0.000000 0.160201
#
#
# Mechanical properties :
#
#
# Convention : Reuss Voigt Hill
#
# Bulk Modulus (GPa) = 16.80520 23.49730 20.15125
# Shear Modulus (GPa) = 8.65794 22.81069 15.73431
#
# Velocity S-wave (km/s) = 2.04867 3.32533 2.76178
# Velocity P-wave (km/s) = 3.70711 5.11219 4.46526
#
# Compressibility (1/GPa) = 0.05950539
#
# Stress axis : x y z
#
# Youngs Moduli (GPa) = 77.76381 53.51790 23.47227
#
# Poissons Ratio (x) = -0.09480 0.27100
# Poissons Ratio (y) = -0.13774 -0.05757
# Poissons Ratio (z) = 0.89781 -0.13126
#
# Static dielectric constant tensor:
#      x y z
#    x 1.746610 0.000000 -0.002330 
#    y 0.000000 1.779350 0.000000 
#    z -0.002330 0.000000 1.729020 
# 
# From -- ./inp_files/43784.got.cif
#   From: 2010.05.17/outbox.cif.g08.bks.cpg/sg11_22_cif.got.tgz:43784.got - 2010.06.03 12:22:45.
