data_PCOD9158365
_publ_section_title
;
Structure prediction by ZEFSAII (Michael W. Deem and Ramdas Pophale) SiO2 
 PCOD9158365
Probable space group: P 21/M
;
_chemical_formula_sum "Si O2"
_cell_formula_units_Z 32
_cell_length_a 18.196257
_cell_length_b 8.684240
_cell_length_c 24.581127
_cell_angle_alpha 90.000000
_cell_angle_beta 30.565082
_cell_angle_gamma 90.000000
_cell_volume 1975.244847
_symmetry_space_group_name_H-M "P 21/M"
_symmetry_group_IT_number 11
_symmetry_cell_setting 'monoclinic'
loop_
_space_group_symop_operation_xyz
x,y,z
-x,1/2+y,-z
-x,-y,-z
x,1/2-y,z
loop_
_atom_site_type_symbol
_atom_site_label
_atom_site_fract_x
_atom_site_fract_y
_atom_site_fract_z
Si Si1 0.822110 0.564135 0.258209
Si Si2 0.938081 0.065049 0.982912
Si Si3 0.120189 0.934741 0.382026
Si Si4 0.778153 0.065791 0.403486
Si Si5 0.900750 0.935029 0.434499
Si Si6 0.452357 0.437212 0.636764
Si Si7 0.377771 0.064998 0.808115
Si Si8 0.661922 0.565560 0.678370
O O1 0.819016 0.750000 0.263066
O O2 0.833416 0.497789 0.311119
O O3 0.672339 0.511965 0.325194
O O4 0.953319 0.520177 0.134823
O O5 0.935858 0.250000 0.987469
O O6 0.777439 0.001552 0.077185
O O7 0.000000 0.000000 0.000000
O O8 0.124419 0.750000 0.383339
O O9 0.053333 0.975517 0.365870
O O10 0.268501 0.004084 0.309995
O O11 0.000000 0.000000 0.500000
O O12 0.776621 0.250000 0.403121
O O13 0.612405 0.010558 0.518510
O O14 0.870224 0.010444 0.396322
O O15 0.895307 0.750000 0.432713
O O16 0.772550 0.979335 0.558687
O O17 0.452643 0.250000 0.636150
O O18 0.412921 0.483804 0.723382
O O19 0.373559 0.250000 0.812070
O O20 0.507084 0.003993 0.763046
O O21 0.656317 0.750000 0.683268
#
# Coordination Sequence:
#
# PCOD9158365 Si02
#       8
#     4   4   4   4   4   4   4   4
#     4  10  21  38  53  68  99 137 173 214 260 304
#     4  11  22  37  56  76  99 132 174 219 263 307
#     4   9  17  29  46  70 101 137 172 207 251 305
#     4  11  21  32  50  76 103 133 174 214 252 304
#     4   9  18  31  47  70 102 138 171 203 249 305
#     4   9  18  33  50  72 100 133 168 207 256 302
#     4  11  20  34  54  76 104 136 172 215 261 306
#     4  10  19  31  48  75 105 135 173 210 253 309
#
# _framework density 16.200523
#
# number of rings (size 3 to 8) (size 9 to 14) (size 15 to 20)
#    0.000    2.000    2.500    3.000    0.000    3.500 
#    0.000    0.625    0.000    0.000    0.000    0.875 
#    0.000    0.000    0.000    0.000    0.000    0.000 
#
# Total GULP energy -178531.015513 kJ/mol
# GULP energy per Si atom -5579.094235 kJ/mol
# Density = 1.616365 g / cm^3
# Si number density = 16.200523 Si / 1000 Ang^3
#
#
#
# Elastic Constant Matrix: (Units=GPa)
#
#
# Indices 1 2 3 4 5 6 
#
# 1 165.7267 46.1319 82.0014 0.0000 -11.1888 0.0000
# 2 46.1319 39.3751 32.9136 0.0000 -0.7467 0.0000
# 3 82.0014 32.9136 85.5541 0.0000 5.3774 0.0000
# 4 0.0000 0.0000 0.0000 21.4411 0.0000 -3.2575
# 5 -11.1888 -0.7467 5.3774 0.0000 23.3060 0.0000
# 6 0.0000 0.0000 0.0000 -3.2575 0.0000 27.5395
#
#
#
# Elastic Compliance Matrix: (Units=1/GPa)
#
#
# Indices 1 2 3 4 5 6 
#
# 1 0.014389 -0.006866 -0.011741 0.000000 0.009397 0.000000
# 2 -0.006866 0.041201 -0.009280 0.000000 0.000165 0.000000
# 3 -0.011741 -0.009280 0.027280 0.000000 -0.012228 0.000000
# 4 0.000000 0.000000 0.000000 0.047493 0.000000 0.005618
# 5 0.009397 0.000165 -0.012228 0.000000 0.050245 0.000000
# 6 0.000000 0.000000 0.000000 0.005618 0.000000 0.036976
#
#
# Mechanical properties :
#
#
# Convention : Reuss Voigt Hill
#
# Bulk Modulus (GPa) = 36.90427 68.08333 52.49380
# Shear Modulus (GPa) = 17.70598 23.09793 20.40196
#
# Velocity S-wave (km/s) = 3.30953 3.78001 3.55257
# Velocity P-wave (km/s) = 6.11826 7.82099 7.02143
#
# Compressibility (1/GPa) = 0.02709714
#
# Stress axis : x y z
#
# Youngs Moduli (GPa) = 69.49815 24.27108 36.65629
#
# Poissons Ratio (x) = 0.16664 0.43037
# Poissons Ratio (y) = 0.47716 0.34018
# Poissons Ratio (z) = 0.81595 0.22524
#
# Static dielectric constant tensor:
#      x y z
#    x 1.546180 0.000000 -0.010330 
#    y 0.000000 1.543490 0.000000 
#    z -0.010330 0.000000 1.517230 
# 
# From -- ./inp_files/42804.got.cif
#   From: 2010.05.17/outbox.cif.g08.bks.cpg/sg11_22_cif.got.tgz:42804.got - 2010.06.03 12:22:45.
