data_PCOD9158144
_publ_section_title
;
Structure prediction by ZEFSAII (Michael W. Deem and Ramdas Pophale) SiO2 
 PCOD9158144
Probable space group: P 21/M
;
_chemical_formula_sum "Si O2"
_cell_formula_units_Z 32
_cell_length_a 12.586034
_cell_length_b 8.633004
_cell_length_c 29.963286
_cell_angle_alpha 90.000000
_cell_angle_beta 146.678156
_cell_angle_gamma 90.000000
_cell_volume 1788.474019
_symmetry_space_group_name_H-M "P 21/M"
_symmetry_group_IT_number 11
_symmetry_cell_setting 'monoclinic'
loop_
_space_group_symop_operation_xyz
x,y,z
-x,1/2+y,-z
-x,-y,-z
x,1/2-y,z
loop_
_atom_site_type_symbol
_atom_site_label
_atom_site_fract_x
_atom_site_fract_y
_atom_site_fract_z
Si Si1 0.560576 0.435588 0.371633
Si Si2 0.809491 0.936637 0.702758
Si Si3 0.361011 0.064485 0.693305
Si Si4 0.929950 0.564338 0.550741
Si Si5 0.605424 0.936900 0.194828
Si Si6 0.036299 0.436529 0.336718
Si Si7 0.429533 0.936364 0.043047
Si Si8 0.809272 0.565717 0.118077
O O1 0.570863 0.250000 0.376516
O O2 0.386356 0.490440 0.342289
O O3 0.531227 0.490348 0.310667
O O4 0.761604 0.503898 0.460080
O O5 0.803604 0.750000 0.699982
O O6 0.841648 0.990962 0.663063
O O7 0.995944 0.988090 0.796290
O O8 0.368368 0.250000 0.692694
O O9 0.436401 0.016324 0.768876
O O10 0.137513 0.009941 0.612923
O O11 0.946511 0.750000 0.553000
O O12 0.884587 0.522084 0.586531
O O13 0.614978 0.750000 0.197174
O O14 0.457517 0.985154 0.104175
O O15 0.818745 0.998705 0.257817
O O16 0.025021 0.250000 0.331078
O O17 0.408384 0.750000 0.033518
O O18 0.630872 0.976501 0.088421
O O19 0.259244 0.012431 0.954855
O O20 0.831302 0.750000 0.127251
#
# Coordination Sequence:
#
# PCOD9158144 Si02
#       8
#     4   4   4   4   4   4   4   4
#     4  11  23  37  52  72 100 137 176 210 252 303
#     4  10  21  36  52  71 103 141 171 205 251 303
#     4  10  20  35  56  78 101 130 169 216 258 296
#     4  10  20  35  55  78 102 128 165 215 261 301
#     4   9  17  31  52  78 104 131 164 206 255 300
#     4   9  18  32  51  75 102 132 166 205 253 303
#     4   9  17  30  49  76 108 135 162 199 249 302
#     4  10  19  30  49  77 106 136 168 203 243 297
#
# _framework density 17.892347999999998
#
# number of rings (size 3 to 8) (size 9 to 14) (size 15 to 20)
#    0.000    2.250    1.250    1.875    0.000    3.500 
#    0.000    0.000    0.000    0.750    0.000    0.000 
#    0.000    0.000    0.000    0.000    0.000    0.000 
#
# Total GULP energy -178531.892240 kJ/mol
# GULP energy per Si atom -5579.121633 kJ/mol
# Density = 1.785162 g / cm^3
# Si number density = 17.892348 Si / 1000 Ang^3
#
#
#
# Elastic Constant Matrix: (Units=GPa)
#
#
# Indices 1 2 3 4 5 6 
#
# 1 98.0407 9.8249 13.6901 0.0000 -24.0514 0.0000
# 2 9.8249 11.0833 1.6144 0.0000 -4.4723 0.0000
# 3 13.6901 1.6144 30.2069 0.0000 -21.8954 0.0000
# 4 0.0000 0.0000 0.0000 21.8974 0.0000 -1.9194
# 5 -24.0514 -4.4723 -21.8954 0.0000 25.9669 0.0000
# 6 0.0000 0.0000 0.0000 -1.9194 0.0000 21.0181
#
#
#
# Elastic Compliance Matrix: (Units=1/GPa)
#
#
# Indices 1 2 3 4 5 6 
#
# 1 0.014276 -0.006438 0.006828 0.000000 0.017871 0.000000
# 2 -0.006438 0.103741 0.015437 0.000000 0.024921 0.000000
# 3 0.006828 0.015437 0.091811 0.000000 0.086399 0.000000
# 4 0.000000 0.000000 0.000000 0.046036 0.000000 0.004204
# 5 0.017871 0.024921 0.086399 0.000000 0.132207 0.000000
# 6 0.000000 0.000000 0.000000 0.004204 0.000000 0.047962
#
#
# Mechanical properties :
#
#
# Convention : Reuss Voigt Hill
#
# Bulk Modulus (GPa) = 4.14108 21.06553 12.60330
# Shear Modulus (GPa) = 10.31200 21.38992 15.85096
#
# Velocity S-wave (km/s) = 2.40330 3.46132 2.97965
# Velocity P-wave (km/s) = 3.16554 5.27004 4.34707
#
# Compressibility (1/GPa) = 0.24148272
#
# Stress axis : x y z
#
# Youngs Moduli (GPa) = 70.04884 9.63940 10.89193
#
# Poissons Ratio (x) = 0.06206 -0.07437
# Poissons Ratio (y) = 0.45098 -0.16814
# Poissons Ratio (z) = -0.47830 -0.14881
#
# Static dielectric constant tensor:
#      x y z
#    x 1.643410 0.000000 -0.034650 
#    y 0.000000 1.602750 0.000000 
#    z -0.034650 0.000000 1.583590 
# 
# From -- ./inp_files/42869.got.cif
#   From: 2010.05.17/outbox.cif.g08.bks.cpg/sg11_22_cif.got.tgz:42869.got - 2010.06.03 12:22:45.
