data_PCOD9158612
_publ_section_title
;
Structure prediction by ZEFSAII (Michael W. Deem and Ramdas Pophale) SiO2 
 PCOD9158612
Probable space group: P 21/M
;
_chemical_formula_sum "Si O2"
_cell_formula_units_Z 28
_cell_length_a 17.149320
_cell_length_b 8.875547
_cell_length_c 15.480954
_cell_angle_alpha 90.000000
_cell_angle_beta 134.471839
_cell_angle_gamma 90.000000
_cell_volume 1681.479073
_symmetry_space_group_name_H-M "P 21/M"
_symmetry_group_IT_number 11
_symmetry_cell_setting 'monoclinic'
loop_
_space_group_symop_operation_xyz
x,y,z
-x,1/2+y,-z
-x,-y,-z
x,1/2-y,z
loop_
_atom_site_type_symbol
_atom_site_label
_atom_site_fract_x
_atom_site_fract_y
_atom_site_fract_z
Si Si1 0.636200 0.069405 0.740450
Si Si2 0.652558 0.569278 0.059975
Si Si3 0.973887 0.430040 0.886198
Si Si4 0.207299 0.069492 0.993629
Si Si5 0.592855 0.070376 0.188991
Si Si6 0.743584 0.569059 0.656735
Si Si7 0.393659 0.430954 0.616530
O O1 0.641160 0.250000 0.736098
O O2 0.515126 0.026170 0.678224
O O3 0.667444 0.994280 0.674099
O O4 0.723164 0.013677 0.878860
O O5 0.653621 0.750000 0.071827
O O6 0.745119 0.527044 0.062898
O O7 0.658243 0.493030 0.157648
O O8 0.534573 0.527733 0.927184
O O9 0.960841 0.250000 0.884609
O O10 0.863482 0.501583 0.764247
O O11 0.079667 0.460376 0.908962
O O12 0.000000 0.500000 0.000000
O O13 0.224504 0.250000 0.017758
O O14 0.599182 0.250000 0.195477
O O15 0.627853 0.004124 0.307682
O O16 0.747493 0.750000 0.666353
O O17 0.691965 0.527524 0.524425
O O18 0.392460 0.250000 0.625033
#
# Coordination Sequence:
#
# PCOD9158612 Si02
#       7
#     4   4   4   4   4   4   4
#     4  11  21  33  53  80 108 140 180 221 265 317
#     4   9  18  33  52  77 108 141 172 211 268 323
#     4  11  22  36  56  80 106 140 183 226 267 309
#     4  10  20  35  55  78 108 142 175 217 269 318
#     4  10  19  31  53  81 108 139 173 216 265 320
#     4  11  23  38  54  74 108 148 184 220 266 319
#     4  10  22  37  53  77 109 146 180 219 268 321
#
# _framework density 16.652006
#
# number of rings (size 3 to 8) (size 9 to 14) (size 15 to 20)
#    0.000    1.714    2.857    2.143    0.000    3.429 
#    0.000    0.000    0.000    0.857    0.000    0.000 
#    0.000    0.000    0.000    0.000    0.000    0.000 
#
# Total GULP energy -156360.747674 kJ/mol
# GULP energy per Si atom -5584.312417 kJ/mol
# Density = 1.661411 g / cm^3
# Si number density = 16.652006 Si / 1000 Ang^3
#
#
#
# Elastic Constant Matrix: (Units=GPa)
#
#
# Indices 1 2 3 4 5 6 
#
# 1 117.4244 40.1948 58.0409 0.0000 -31.9569 0.0000
# 2 40.1948 37.7580 41.3260 0.0000 -11.9717 0.0000
# 3 58.0409 41.3260 116.3960 0.0000 -24.7962 0.0000
# 4 0.0000 0.0000 0.0000 26.8665 0.0000 -2.3961
# 5 -31.9569 -11.9717 -24.7962 0.0000 27.3832 0.0000
# 6 0.0000 0.0000 0.0000 -2.3961 0.0000 22.4272
#
#
#
# Elastic Compliance Matrix: (Units=1/GPa)
#
#
# Indices 1 2 3 4 5 6 
#
# 1 0.017043 -0.012636 -0.001179 0.000000 0.013298 0.000000
# 2 -0.012636 0.053555 -0.013465 0.000000 -0.003525 0.000000
# 3 -0.001179 -0.013465 0.015380 0.000000 0.006664 0.000000
# 4 0.000000 0.000000 0.000000 0.037579 0.000000 0.004015
# 5 0.013298 -0.003525 0.006664 0.000000 0.056530 0.000000
# 6 0.000000 0.000000 0.000000 0.004015 0.000000 0.045018
#
#
# Mechanical properties :
#
#
# Convention : Reuss Voigt Hill
#
# Bulk Modulus (GPa) = 31.82902 61.18907 46.50905
# Shear Modulus (GPa) = 17.23314 24.13652 20.68483
#
# Velocity S-wave (km/s) = 3.22047 3.81132 3.52828
# Velocity P-wave (km/s) = 5.74320 7.49625 6.67750
#
# Compressibility (1/GPa) = 0.03141787
#
# Stress axis : x y z
#
# Youngs Moduli (GPa) = 58.67342 18.67226 65.02137
#
# Poissons Ratio (x) = 0.23595 0.07669
# Poissons Ratio (y) = 0.74142 0.87548
# Poissons Ratio (z) = 0.06920 0.25141
#
# Static dielectric constant tensor:
#      x y z
#    x 1.556190 0.000000 0.003570 
#    y 0.000000 1.555940 0.000000 
#    z 0.003570 0.000000 1.532030 
# 
# From -- ./inp_files/37691.got.cif
#   From: 2010.05.17/outbox.cif.g08.bks.cpg/sg11_19_cif.got.tgz:37691.got - 2010.06.03 12:22:45.
