data_PCOD9158982
_publ_section_title
;
Structure prediction by ZEFSAII (Michael W. Deem and Ramdas Pophale) SiO2 
 PCOD9158982
Probable space group: P 21/M
;
_chemical_formula_sum "Si O2"
_cell_formula_units_Z 32
_cell_length_a 22.498094
_cell_length_b 8.951557
_cell_length_c 29.003984
_cell_angle_alpha 90.000000
_cell_angle_beta 161.352091
_cell_angle_gamma 90.000000
_cell_volume 1867.733111
_symmetry_space_group_name_H-M "P 21/M"
_symmetry_group_IT_number 11
_symmetry_cell_setting 'monoclinic'
loop_
_space_group_symop_operation_xyz
x,y,z
-x,1/2+y,-z
-x,-y,-z
x,1/2-y,z
loop_
_atom_site_type_symbol
_atom_site_label
_atom_site_fract_x
_atom_site_fract_y
_atom_site_fract_z
Si Si1 0.807331 0.069676 0.342485
Si Si2 0.135533 0.570721 0.956746
Si Si3 0.695822 0.070673 0.157693
Si Si4 0.414315 0.428964 0.092659
Si Si5 0.948981 0.569699 0.913673
Si Si6 0.538017 0.571678 0.577644
Si Si7 0.140409 0.571058 0.817178
Si Si8 0.180625 0.072069 0.351444
O O1 0.821474 0.250000 0.353547
O O2 0.761480 0.022142 0.256323
O O3 0.629001 0.027644 0.242685
O O4 0.000000 0.000000 0.500000
O O5 0.160269 0.750000 0.973529
O O6 0.085484 0.525079 0.971924
O O7 0.956160 0.538297 0.792377
O O8 0.311875 0.494743 0.062221
O O9 0.674288 0.250000 0.143337
O O10 0.835966 0.034397 0.218981
O O11 0.500000 0.000000 0.000000
O O12 0.402949 0.250000 0.084913
O O13 0.296686 0.489769 0.962552
O O14 0.955588 0.750000 0.921608
O O15 0.739771 0.527213 0.744978
O O16 0.000000 0.500000 0.000000
O O17 0.500000 0.500000 0.500000
O O18 0.536378 0.750000 0.571828
O O19 0.370624 0.516426 0.486718
O O20 0.167235 0.750000 0.842833
O O21 0.941838 0.535496 0.693695
O O22 0.217472 0.250000 0.377407
#
# Coordination Sequence:
#
# PCOD9158982 Si02
#       8
#     4   4   4   4   4   4   4   4
#     4  10  22  37  53  78 112 145 182 225 269 321
#     4   9  18  35  55  77 108 143 178 219 266 324
#     4  10  19  34  55  80 107 138 177 224 271 320
#     4  10  19  32  52  81 110 136 177 229 268 314
#     4  10  22  39  56  79 111 144 182 225 269 321
#     4  11  21  35  55  80 109 140 176 222 270 318
#     4   9  18  32  53  78 108 143 176 218 274 325
#     4   9  17  32  52  79 110 138 176 223 266 319
#
# _framework density 17.133068999999999
#
# number of rings (size 3 to 8) (size 9 to 14) (size 15 to 20)
#    0.000    2.250    2.500    1.500    0.000    5.000 
#    0.000    1.250    0.000    4.500    0.000    0.000 
#    0.000    0.000    0.000    0.000    0.000    0.000 
#
# Total GULP energy -178497.635586 kJ/mol
# GULP energy per Si atom -5578.051112 kJ/mol
# Density = 1.709407 g / cm^3
# Si number density = 17.133069 Si / 1000 Ang^3
#
#
#
# Elastic Constant Matrix: (Units=GPa)
#
#
# Indices 1 2 3 4 5 6 
#
# 1 167.0178 43.1825 87.8060 0.0000 12.8912 0.0000
# 2 43.1825 24.8297 41.5944 0.0000 7.6138 0.0000
# 3 87.8060 41.5944 127.2610 0.0000 11.9996 0.0000
# 4 0.0000 0.0000 0.0000 30.5829 0.0000 3.3241
# 5 12.8912 7.6138 11.9996 0.0000 28.9838 0.0000
# 6 0.0000 0.0000 0.0000 3.3241 0.0000 27.1891
#
#
#
# Elastic Compliance Matrix: (Units=1/GPa)
#
#
# Indices 1 2 3 4 5 6 
#
# 1 0.011394 -0.014710 -0.003060 0.000000 0.000063 0.000000
# 2 -0.014710 0.112053 -0.025303 0.000000 -0.012417 0.000000
# 3 -0.003060 -0.025303 0.018195 0.000000 0.000475 0.000000
# 4 0.000000 0.000000 0.000000 0.033138 0.000000 -0.004052
# 5 0.000063 -0.012417 0.000475 0.000000 0.037539 0.000000
# 6 0.000000 0.000000 0.000000 -0.004052 0.000000 0.037275
#
#
# Mechanical properties :
#
#
# Convention : Reuss Voigt Hill
#
# Bulk Modulus (GPa) = 18.01963 73.80825 45.91394
# Shear Modulus (GPa) = 14.11474 27.11950 20.61712
#
# Velocity S-wave (km/s) = 2.87336 3.98285 3.47270
# Velocity P-wave (km/s) = 4.64204 8.02021 6.55257
#
# Compressibility (1/GPa) = 0.05549504
#
# Stress axis : x y z
#
# Youngs Moduli (GPa) = 87.76171 8.92435 54.96150
#
# Poissons Ratio (x) = 0.13128 0.16817
# Poissons Ratio (y) = 1.29099 1.39072
# Poissons Ratio (z) = 0.26854 0.22582
#
# Static dielectric constant tensor:
#      x y z
#    x 1.605370 0.000000 0.019850 
#    y 0.000000 1.574310 0.000000 
#    z 0.019850 0.000000 1.548240 
# 
# From -- ./inp_files/72187.got.cif
#   From: 2010.05.17/outbox.cif.g08.bks.cpg/sg11_37_cif.got.tgz:72187.got - 2010.06.03 12:22:45.
