data_PCOD9158551
_publ_section_title
;
Structure prediction by ZEFSAII (Michael W. Deem and Ramdas Pophale) SiO2 
 PCOD9158551
Probable space group: P 21/M
;
_chemical_formula_sum "Si O2"
_cell_formula_units_Z 28
_cell_length_a 11.473008
_cell_length_b 7.545010
_cell_length_c 17.088325
_cell_angle_alpha 90.000000
_cell_angle_beta 119.668838
_cell_angle_gamma 90.000000
_cell_volume 1285.306892
_symmetry_space_group_name_H-M "P 21/M"
_symmetry_group_IT_number 11
_symmetry_cell_setting 'monoclinic'
loop_
_space_group_symop_operation_xyz
x,y,z
-x,1/2+y,-z
-x,-y,-z
x,1/2-y,z
loop_
_atom_site_type_symbol
_atom_site_label
_atom_site_fract_x
_atom_site_fract_y
_atom_site_fract_z
Si Si1 0.377929 0.041617 0.677144
Si Si2 0.868893 0.537671 0.507575
Si Si3 0.681406 0.535802 0.748148
Si Si4 0.167568 0.539502 0.869316
Si Si5 0.424766 0.546641 0.868517
Si Si6 0.101609 0.467618 0.304749
Si Si7 0.720135 0.963682 0.935851
O O1 0.354163 0.250000 0.682607
O O2 0.262464 0.971422 0.581842
O O3 0.526525 0.019189 0.691593
O O4 0.378340 0.954280 0.762701
O O5 0.854347 0.750000 0.508589
O O6 0.885185 0.471741 0.601546
O O7 0.000000 0.500000 0.500000
O O8 0.683205 0.750000 0.749062
O O9 0.774652 0.475783 0.708451
O O10 0.735967 0.476420 0.851546
O O11 0.170424 0.750000 0.855083
O O12 0.306090 0.463684 0.879902
O O13 0.036400 0.472055 0.781648
O O14 0.170860 0.513522 0.963507
O O15 0.441166 0.750000 0.900182
O O16 0.574095 0.467230 0.916607
O O17 0.100564 0.250000 0.304543
O O18 0.713208 0.750000 0.931184
#
# Coordination Sequence:
#
# PCOD9158551 Si02
#       7
#     4   4   4   4   4   4   4
#     4  10  20  33  53  81 107 131 166 216 262 295
#     4  10  21  37  57  81 108 136 167 207 255 305
#     4   9  19  37  56  73  99 139 178 207 248 308
#     4  10  19  31  51  76 100 134 177 214 252 301
#     4   9  18  33  52  75 104 139 174 205 250 315
#     4   9  19  36  55  74 101 138 177 211 246 303
#     4   9  18  31  48  72 102 135 172 214 257 302
#
# _framework density 21.784679000000001
#
# number of rings (size 3 to 8) (size 9 to 14) (size 15 to 20)
#    0.000    2.571    0.000    2.571    0.000    6.286 
#    0.000    2.143    0.000    0.000    0.000    0.000 
#    0.000    0.000    0.000    0.000    0.000    0.000 
#
# Total GULP energy -156369.688690 kJ/mol
# GULP energy per Si atom -5584.631739 kJ/mol
# Density = 2.173510 g / cm^3
# Si number density = 21.784679 Si / 1000 Ang^3
#
#
#
# Elastic Constant Matrix: (Units=GPa)
#
#
# Indices 1 2 3 4 5 6 
#
# 1 88.8503 -6.9145 74.7544 0.0000 -27.8559 0.0000
# 2 -6.9145 54.1080 -8.5076 0.0000 -0.5320 0.0000
# 3 74.7544 -8.5076 192.9127 0.0000 4.2823 0.0000
# 4 0.0000 0.0000 0.0000 9.8002 0.0000 4.6092
# 5 -27.8559 -0.5320 4.2823 0.0000 20.9655 0.0000
# 6 0.0000 0.0000 0.0000 4.6092 0.0000 10.6830
#
#
#
# Elastic Compliance Matrix: (Units=1/GPa)
#
#
# Indices 1 2 3 4 5 6 
#
# 1 0.056091 0.004284 -0.023309 0.000000 0.079395 0.000000
# 2 0.004284 0.018940 -0.000966 0.000000 0.006369 0.000000
# 3 -0.023309 -0.000966 0.014929 0.000000 -0.034043 0.000000
# 4 0.000000 0.000000 0.000000 0.128016 0.000000 -0.055233
# 5 0.079395 0.006369 -0.034043 0.000000 0.160301 0.000000
# 6 0.000000 0.000000 0.000000 -0.055233 0.000000 0.117437
#
#
# Mechanical properties :
#
#
# Convention : Reuss Voigt Hill
#
# Bulk Modulus (GPa) = 20.00927 50.50396 35.25661
# Shear Modulus (GPa) = 9.05215 26.72565 17.88890
#
# Velocity S-wave (km/s) = 2.04066 3.50638 2.86871
# Velocity P-wave (km/s) = 3.84153 6.29496 5.21459
#
# Compressibility (1/GPa) = 0.04997685
#
# Stress axis : x y z
#
# Youngs Moduli (GPa) = 17.82827 52.79920 66.98355
#
# Poissons Ratio (x) = -0.22617 1.56131
# Poissons Ratio (y) = -0.07637 0.06471
# Poissons Ratio (z) = 0.41556 0.05101
#
# Static dielectric constant tensor:
#      x y z
#    x 1.774230 0.000000 0.003920 
#    y 0.000000 1.830650 0.000000 
#    z 0.003920 0.000000 1.780510 
# 
# From -- ./inp_files/37385.got.cif
#   From: 2010.05.17/outbox.cif.g08.bks.cpg/sg11_19_cif.got.tgz:37385.got - 2010.06.03 12:22:45.
