data_PCOD9158726
_publ_section_title
;
Structure prediction by ZEFSAII (Michael W. Deem and Ramdas Pophale) SiO2 
 PCOD9158726
Probable space group: P 21/M
;
_chemical_formula_sum "Si O2"
_cell_formula_units_Z 32
_cell_length_a 15.452736
_cell_length_b 8.825149
_cell_length_c 15.578212
_cell_angle_alpha 90.000000
_cell_angle_beta 78.728933
_cell_angle_gamma 90.000000
_cell_volume 2083.469690
_symmetry_space_group_name_H-M "P 21/M"
_symmetry_group_IT_number 11
_symmetry_cell_setting 'monoclinic'
loop_
_space_group_symop_operation_xyz
x,y,z
-x,1/2+y,-z
-x,-y,-z
x,1/2-y,z
loop_
_atom_site_type_symbol
_atom_site_label
_atom_site_fract_x
_atom_site_fract_y
_atom_site_fract_z
Si Si1 0.937207 0.567190 0.891095
Si Si2 0.250444 0.431512 0.741517
Si Si3 0.800026 0.067433 0.577413
Si Si4 0.394795 0.932325 0.433506
Si Si5 0.918771 0.932392 0.702626
Si Si6 0.121442 0.932889 0.622508
Si Si7 0.877241 0.932580 0.086004
Si Si8 0.419696 0.930770 0.629063
O O1 0.943892 0.750000 0.888609
O O2 0.903700 0.519039 0.804178
O O3 0.034737 0.502031 0.889007
O O4 0.879232 0.523193 0.985299
O O5 0.254451 0.250000 0.736526
O O6 0.184759 0.491871 0.680314
O O7 0.206564 0.476947 0.840763
O O8 0.346388 0.499012 0.704819
O O9 0.801917 0.250000 0.581120
O O10 0.697731 0.020222 0.590003
O O11 0.848036 0.023615 0.479007
O O12 0.851319 0.001595 0.648208
O O13 0.402230 0.750000 0.426394
O O14 0.393673 0.970945 0.535398
O O15 0.481868 0.006787 0.377246
O O16 0.912712 0.750000 0.699657
O O17 0.019618 0.973466 0.658689
O O18 0.130161 0.750000 0.628804
O O19 0.884551 0.750000 0.088473
O O20 0.418712 0.750000 0.636003
#
# Coordination Sequence:
#
# PCOD9158726 Si02
#       8
#     4   4   4   4   4   4   4   4
#     4   9  17  31  48  66  92 124 156 196 238 275
#     4  11  20  29  46  72  98 125 157 193 232 281
#     4  10  20  33  48  65  94 129 160 196 231 272
#     4   9  18  33  49  68  92 121 156 194 235 276
#     4  10  20  31  47  68  93 127 165 198 230 273
#     4  10  19  33  46  64  95 130 165 195 228 268
#     4   9  18  30  46  69  94 121 156 194 236 281
#     4  10  19  32  50  69  94 123 154 191 235 285
#
# _framework density 15.358995
#
# number of rings (size 3 to 8) (size 9 to 14) (size 15 to 20)
#    0.000    2.250    2.500    1.125    0.000    3.000 
#    0.000    0.000    0.000    0.000    0.000    0.875 
#    0.000    0.000    0.000    0.000    0.000    0.000 
#
# Total GULP energy -178458.550057 kJ/mol
# GULP energy per Si atom -5576.829689 kJ/mol
# Density = 1.532404 g / cm^3
# Si number density = 15.358995 Si / 1000 Ang^3
#
#
#
# Elastic Constant Matrix: (Units=GPa)
#
#
# Indices 1 2 3 4 5 6 
#
# 1 110.4582 30.4367 82.6708 0.0000 -11.5679 0.0000
# 2 30.4367 13.6169 32.5460 0.0000 -5.7601 0.0000
# 3 82.6708 32.5460 136.6907 0.0000 -14.2269 0.0000
# 4 0.0000 0.0000 0.0000 15.0570 0.0000 2.9843
# 5 -11.5679 -5.7601 -14.2269 0.0000 25.2298 0.0000
# 6 0.0000 0.0000 0.0000 2.9843 0.0000 25.2340
#
#
#
# Elastic Compliance Matrix: (Units=1/GPa)
#
#
# Indices 1 2 3 4 5 6 
#
# 1 0.024588 -0.045663 -0.004154 0.000000 -0.001494 0.000000
# 2 -0.045663 0.262401 -0.032725 0.000000 0.020518 0.000000
# 3 -0.004154 -0.032725 0.017682 0.000000 0.000595 0.000000
# 4 0.000000 0.000000 0.000000 0.068009 0.000000 -0.008043
# 5 -0.001494 0.020518 0.000595 0.000000 0.043970 0.000000
# 6 0.000000 0.000000 0.000000 -0.008043 0.000000 0.040580
#
#
# Mechanical properties :
#
#
# Convention : Reuss Voigt Hill
#
# Bulk Modulus (GPa) = 7.16400 61.34141 34.25270
# Shear Modulus (GPa) = 7.47558 20.77830 14.12694
#
# Velocity S-wave (km/s) = 2.20857 3.68209 3.03608
# Velocity P-wave (km/s) = 3.34338 7.62248 5.88559
#
# Compressibility (1/GPa) = 0.13958687
#
# Stress axis : x y z
#
# Youngs Moduli (GPa) = 40.66958 3.81096 56.55492
#
# Poissons Ratio (x) = 0.17402 0.23494
# Poissons Ratio (y) = 1.85711 1.85075
# Poissons Ratio (z) = 0.16895 0.12471
#
# Static dielectric constant tensor:
#      x y z
#    x 1.484880 0.000000 -0.017190 
#    y 0.000000 1.509640 0.000000 
#    z -0.017190 0.000000 1.520780 
# 
# From -- ./inp_files/51216.got.cif
#   From: 2010.05.17/outbox.cif.g08.bks.cpg/sg11_26_cif.got.tgz:51216.got - 2010.06.03 12:22:45.
