data_PCOD9158949
_publ_section_title
;
Structure prediction by ZEFSAII (Michael W. Deem and Ramdas Pophale) SiO2 
 PCOD9158949
Probable space group: P 21/M
;
_chemical_formula_sum "Si O2"
_cell_formula_units_Z 28
_cell_length_a 15.921401
_cell_length_b 8.559848
_cell_length_c 20.257253
_cell_angle_alpha 90.000000
_cell_angle_beta 36.040990
_cell_angle_gamma 90.000000
_cell_volume 1624.328595
_symmetry_space_group_name_H-M "P 21/M"
_symmetry_group_IT_number 11
_symmetry_cell_setting 'monoclinic'
loop_
_space_group_symop_operation_xyz
x,y,z
-x,1/2+y,-z
-x,-y,-z
x,1/2-y,z
loop_
_atom_site_type_symbol
_atom_site_label
_atom_site_fract_x
_atom_site_fract_y
_atom_site_fract_z
Si Si1 0.359676 0.438203 0.624290
Si Si2 0.863530 0.437142 0.626977
Si Si3 0.098841 0.937244 0.996687
Si Si4 0.700369 0.439879 0.606283
Si Si5 0.388120 0.439249 0.758421
Si Si6 0.012283 0.936754 0.653250
Si Si7 0.051685 0.061166 0.771871
O O1 0.500000 0.500000 0.500000
O O2 0.361860 0.250000 0.621783
O O3 0.359335 0.486346 0.701018
O O4 0.215198 0.490362 0.680234
O O5 0.868220 0.250000 0.627033
O O6 0.733362 0.483108 0.661492
O O7 0.000000 0.500000 0.500000
O O8 0.886430 0.504039 0.685195
O O9 0.093180 0.750000 0.997901
O O10 0.259445 0.995133 0.883520
O O11 0.036895 0.987335 0.107087
O O12 0.000000 0.000000 0.000000
O O13 0.700658 0.250000 0.603071
O O14 0.546029 0.492582 0.679578
O O15 0.834738 0.491457 0.475453
O O16 0.384565 0.250000 0.763707
O O17 0.013525 0.750000 0.650916
O O18 0.998893 0.995803 0.736044
O O19 0.049318 0.250000 0.770517
#
# Coordination Sequence:
#
# PCOD9158949 Si02
#       7
#     4   4   4   4   4   4   4
#     4  10  20  33  49  73 105 138 166 203 256 308
#     4   9  16  29  49  76 108 142 173 207 253 308
#     4  11  22  38  56  74  98 133 178 219 259 306
#     4   8  16  30  51  77 107 138 167 202 255 309
#     4  10  19  35  54  74 103 136 171 214 255 302
#     4  10  19  32  52  79 105 137 175 212 258 311
#     4  10  21  36  51  71 102 136 169 212 261 305
#
# _framework density 17.23789
#
# number of rings (size 3 to 8) (size 9 to 14) (size 15 to 20)
#    0.000    2.286    1.429    3.000    0.000    3.429 
#    0.000    4.286    0.000    0.857    0.000    0.000 
#    0.000    0.000    0.000    0.000    0.000    0.000 
#
# Total GULP energy -156139.519211 kJ/mol
# GULP energy per Si atom -5576.411400 kJ/mol
# Density = 1.719866 g / cm^3
# Si number density = 17.237890 Si / 1000 Ang^3
#
#
#
# Elastic Constant Matrix: (Units=GPa)
#
#
# Indices 1 2 3 4 5 6 
#
# 1 101.0464 20.0608 22.0979 0.0000 35.5035 0.0000
# 2 20.0608 22.0395 15.7054 0.0000 9.3910 0.0000
# 3 22.0979 15.7054 79.9528 0.0000 25.1413 0.0000
# 4 0.0000 0.0000 0.0000 26.6318 0.0000 1.3453
# 5 35.5035 9.3910 25.1413 0.0000 25.6887 0.0000
# 6 0.0000 0.0000 0.0000 1.3453 0.0000 21.7225
#
#
#
# Elastic Compliance Matrix: (Units=1/GPa)
#
#
# Indices 1 2 3 4 5 6 
#
# 1 0.022237 -0.010683 0.006339 0.000000 -0.033032 0.000000
# 2 -0.010683 0.061187 -0.009643 0.000000 0.001835 0.000000
# 3 0.006339 -0.009643 0.020652 0.000000 -0.025448 0.000000
# 4 0.000000 0.000000 0.000000 0.037667 0.000000 -0.002333
# 5 -0.033032 0.001835 -0.025448 0.000000 0.108815 0.000000
# 6 0.000000 0.000000 0.000000 -0.002333 0.000000 0.046180
#
#
# Mechanical properties :
#
#
# Convention : Reuss Voigt Hill
#
# Bulk Modulus (GPa) = 13.14032 35.41858 24.27945
# Shear Modulus (GPa) = 14.28247 24.48689 19.38468
#
# Velocity S-wave (km/s) = 2.88158 3.77308 3.35705
# Velocity P-wave (km/s) = 4.32560 6.29071 5.39832
#
# Compressibility (1/GPa) = 0.07610164
#
# Stress axis : x y z
#
# Youngs Moduli (GPa) = 44.96987 16.34324 48.42235
#
# Poissons Ratio (x) = 0.17460 -0.30697
# Poissons Ratio (y) = 0.48042 0.46696
# Poissons Ratio (z) = -0.28509 0.15761
#
# Static dielectric constant tensor:
#      x y z
#    x 1.599190 0.000000 0.004710 
#    y 0.000000 1.585340 0.000000 
#    z 0.004710 0.000000 1.561770 
# 
# From -- ./inp_files/42367.got.cif
#   From: 2010.05.17/outbox.cif.g08.bks.cpg/sg11_22_cif.got.tgz:42367.got - 2010.06.03 12:22:45.
