data_PCOD9158820
_publ_section_title
;
Structure prediction by ZEFSAII (Michael W. Deem and Ramdas Pophale) SiO2 
 PCOD9158820
Probable space group: P 21/M
;
_chemical_formula_sum "Si O2"
_cell_formula_units_Z 32
_cell_length_a 28.743016
_cell_length_b 12.235465
_cell_length_c 9.808961
_cell_angle_alpha 90.000000
_cell_angle_beta 149.361555
_cell_angle_gamma 90.000000
_cell_volume 1758.009869
_symmetry_space_group_name_H-M "P 21/M"
_symmetry_group_IT_number 11
_symmetry_cell_setting 'monoclinic'
loop_
_space_group_symop_operation_xyz
x,y,z
-x,1/2+y,-z
-x,-y,-z
x,1/2-y,z
loop_
_atom_site_type_symbol
_atom_site_label
_atom_site_fract_x
_atom_site_fract_y
_atom_site_fract_z
Si Si1 0.511028 0.128966 0.706875
Si Si2 0.233712 0.118269 0.397689
Si Si3 0.593070 0.975230 0.317079
Si Si4 0.616558 0.540067 0.834265
Si Si5 0.807082 0.623801 0.395896
Si Si6 0.689554 0.120125 0.785326
Si Si7 0.074494 0.377592 0.792904
Si Si8 0.115138 0.973816 0.640188
O O1 0.551704 0.250000 0.819360
O O2 0.439175 0.110278 0.647365
O O3 0.580063 0.026259 0.873384
O O4 0.458109 0.113156 0.430366
O O5 0.242066 0.250000 0.415327
O O6 0.329326 0.069620 0.588054
O O7 0.200201 0.090392 0.464779
O O8 0.154362 0.082810 0.094116
O O9 0.641167 0.072227 0.526867
O O10 0.500000 0.000000 0.000000
O O11 0.643651 0.445520 0.794681
O O12 0.703218 0.613609 0.082233
O O13 0.838673 0.750000 0.463693
O O14 0.860853 0.538217 0.437551
O O15 0.677710 0.250000 0.763599
O O16 0.796509 0.088845 0.075826
O O17 0.087618 0.250000 0.805997
O O18 0.087149 0.436884 0.681697
O O19 0.974059 0.399340 0.599225
#
# Coordination Sequence:
#
# PCOD9158820 Si02
#       8
#     4   4   4   4   4   4   4   4
#     4  10  19  32  51  74 102 138 186 234 277 323
#     4  10  21  37  56  82 114 149 186 230 281 332
#     4  11  22  36  53  77 110 149 193 232 275 330
#     4   9  19  33  50  78 106 140 181 235 279 325
#     4  10  20  35  56  81 113 149 184 224 274 332
#     4  10  20  35  55  79 110 146 186 233 285 334
#     4  10  20  36  60  86 114 144 182 231 283 333
#     4  10  20  36  59  88 110 144 186 233 275 334
#
# _framework density 18.202401999999999
#
# number of rings (size 3 to 8) (size 9 to 14) (size 15 to 20)
#    0.000    2.000    1.250    2.625    0.000    1.500 
#    0.000    3.125    0.000    1.500    0.000    0.000 
#    0.000    0.000    0.000    0.000    0.000    0.000 
#
# Total GULP energy -178354.150484 kJ/mol
# GULP energy per Si atom -5573.567203 kJ/mol
# Density = 1.816097 g / cm^3
# Si number density = 18.202402 Si / 1000 Ang^3
#
#
#
# Elastic Constant Matrix: (Units=GPa)
#
#
# Indices 1 2 3 4 5 6 
#
# 1 81.3426 18.5892 31.1767 0.0000 -7.4211 0.0000
# 2 18.5892 62.5767 12.2682 0.0000 -10.0176 0.0000
# 3 31.1767 12.2682 80.1665 0.0000 8.5141 0.0000
# 4 0.0000 0.0000 0.0000 17.0363 0.0000 1.4252
# 5 -7.4211 -10.0176 8.5141 0.0000 29.6143 0.0000
# 6 0.0000 0.0000 0.0000 1.4252 0.0000 18.2581
#
#
#
# Elastic Compliance Matrix: (Units=1/GPa)
#
#
# Indices 1 2 3 4 5 6 
#
# 1 0.015730 -0.002681 -0.006219 0.000000 0.004823 0.000000
# 2 -0.002681 0.018239 -0.002406 0.000000 0.006190 0.000000
# 3 -0.006219 -0.002406 0.016001 0.000000 -0.006973 0.000000
# 4 0.000000 0.000000 0.000000 0.059084 0.000000 -0.004612
# 5 0.004823 0.006190 -0.006973 0.000000 0.039075 0.000000
# 6 0.000000 0.000000 0.000000 -0.004612 0.000000 0.055130
#
#
# Mechanical properties :
#
#
# Convention : Reuss Voigt Hill
#
# Bulk Modulus (GPa) = 36.55250 38.68378 37.61814
# Shear Modulus (GPa) = 21.27731 23.78519 22.53125
#
# Velocity S-wave (km/s) = 3.42267 3.61876 3.52208
# Velocity P-wave (km/s) = 5.97865 6.22565 6.10340
#
# Compressibility (1/GPa) = 0.02735791
#
# Stress axis : x y z
#
# Youngs Moduli (GPa) = 63.57196 54.82609 62.49442
#
# Poissons Ratio (x) = 0.14702 0.38867
# Poissons Ratio (y) = 0.17047 0.15035
# Poissons Ratio (z) = 0.39537 0.13190
#
# Static dielectric constant tensor:
#      x y z
#    x 1.637050 0.000000 0.004670 
#    y 0.000000 1.608280 0.000000 
#    z 0.004670 0.000000 1.641970 
# 
# From -- ./inp_files/29274.got.cif
#   From: 2010.05.17/outbox.cif.g08.bks.cpg/sg11_15_cif.got.tgz:29274.got - 2010.06.03 12:22:45.
