data_PCOD9158300
_publ_section_title
;
Structure prediction by ZEFSAII (Michael W. Deem and Ramdas Pophale) SiO2 
 PCOD9158300
Probable space group: P 21/M
;
_chemical_formula_sum "Si O2"
_cell_formula_units_Z 32
_cell_length_a 23.030879
_cell_length_b 12.922869
_cell_length_c 16.103818
_cell_angle_alpha 90.000000
_cell_angle_beta 156.496069
_cell_angle_gamma 90.000000
_cell_volume 1911.465711
_symmetry_space_group_name_H-M "P 21/M"
_symmetry_group_IT_number 11
_symmetry_cell_setting 'monoclinic'
loop_
_space_group_symop_operation_xyz
x,y,z
-x,1/2+y,-z
-x,-y,-z
x,1/2-y,z
loop_
_atom_site_type_symbol
_atom_site_label
_atom_site_fract_x
_atom_site_fract_y
_atom_site_fract_z
Si Si1 0.233002 0.006514 0.841635
Si Si2 0.346431 0.627940 0.143921
Si Si3 0.636117 0.504959 0.516854
Si Si4 0.924667 0.962624 0.816525
Si Si5 0.475558 0.872397 0.782070
Si Si6 0.209458 0.632575 0.141839
Si Si7 0.050153 0.872978 0.472716
Si Si8 0.839724 0.128713 0.569177
O O1 0.110287 0.085436 0.714632
O O2 0.160854 0.937656 0.675151
O O3 0.377382 0.067368 0.001917
O O4 0.279182 0.932092 0.977826
O O5 0.355072 0.750000 0.138538
O O6 0.505299 0.579949 0.368697
O O7 0.252134 0.611986 0.103044
O O8 0.761738 0.565671 0.630693
O O9 0.574760 0.418181 0.373000
O O10 0.708356 0.447092 0.689644
O O11 0.908995 0.055639 0.729984
O O12 0.036352 0.880203 0.926442
O O13 0.000000 0.000000 0.000000
O O14 0.502359 0.750000 0.812183
O O15 0.335158 0.889319 0.657173
O O16 0.252943 0.750000 0.220009
O O17 0.060705 0.750000 0.502206
O O18 0.091336 0.890864 0.430389
O O19 0.861764 0.250000 0.619076
#
# Coordination Sequence:
#
# PCOD9158300 Si02
#       8
#     4   4   4   4   4   4   4   4
#     4  10  20  33  51  72  97 127 159 201 243 289
#     4  10  20  33  49  69  96 127 159 196 241 288
#     4   9  18  32  49  70  96 126 160 197 237 283
#     4   9  18  31  49  73  98 125 157 195 238 283
#     4   9  17  31  51  73  96 124 159 197 238 284
#     4  10  19  31  48  69  95 128 162 197 236 283
#     4  10  20  34  52  73  97 126 161 200 243 288
#     4   9  18  33  52  73  98 127 161 201 240 282
#
# _framework density 16.74108
#
# number of rings (size 3 to 8) (size 9 to 14) (size 15 to 20)
#    0.000    2.500    0.000    2.250    0.000    4.000 
#    0.000    1.875    0.000   11.250    0.000    0.000 
#    0.000    0.000    0.000    0.000    0.000    0.000 
#
# Total GULP energy -178324.197536 kJ/mol
# GULP energy per Si atom -5572.631173 kJ/mol
# Density = 1.670298 g / cm^3
# Si number density = 16.741080 Si / 1000 Ang^3
#
#
#
# Elastic Constant Matrix: (Units=GPa)
#
#
# Indices 1 2 3 4 5 6 
#
# 1 76.9226 37.0379 29.4293 0.0000 9.8427 0.0000
# 2 37.0379 60.8287 33.7381 0.0000 3.1726 0.0000
# 3 29.4293 33.7381 80.4843 0.0000 2.1280 0.0000
# 4 0.0000 0.0000 0.0000 24.9115 0.0000 3.0797
# 5 9.8427 3.1726 2.1280 0.0000 21.0911 0.0000
# 6 0.0000 0.0000 0.0000 3.0797 0.0000 18.0352
#
#
#
# Elastic Compliance Matrix: (Units=1/GPa)
#
#
# Indices 1 2 3 4 5 6 
#
# 1 0.019944 -0.010186 -0.002824 0.000000 -0.007490 0.000000
# 2 -0.010186 0.026736 -0.007522 0.000000 0.001491 0.000000
# 3 -0.002824 -0.007522 0.016590 0.000000 0.000776 0.000000
# 4 0.000000 0.000000 0.000000 0.041008 0.000000 -0.007002
# 5 -0.007490 0.001491 0.000776 0.000000 0.050606 0.000000
# 6 0.000000 0.000000 0.000000 -0.007002 0.000000 0.056643
#
#
# Mechanical properties :
#
#
# Convention : Reuss Voigt Hill
#
# Bulk Modulus (GPa) = 45.03650 46.51624 45.77637
# Shear Modulus (GPa) = 19.23115 20.67625 19.95370
#
# Velocity S-wave (km/s) = 3.39298 3.51816 3.45614
# Velocity P-wave (km/s) = 6.50461 6.65952 6.58252
#
# Compressibility (1/GPa) = 0.02220421
#
# Stress axis : x y z
#
# Youngs Moduli (GPa) = 50.14100 37.40217 60.27605
#
# Poissons Ratio (x) = 0.38099 0.17025
# Poissons Ratio (y) = 0.51075 0.45342
# Poissons Ratio (z) = 0.14162 0.28135
#
# Static dielectric constant tensor:
#      x y z
#    x 1.549140 0.000000 0.021140 
#    y 0.000000 1.537580 0.000000 
#    z 0.021140 0.000000 1.564390 
# 
# From -- ./inp_files/29259.got.cif
#   From: 2010.05.17/outbox.cif.g08.bks.cpg/sg11_15_cif.got.tgz:29259.got - 2010.06.03 12:22:45.
