data_PCOD9158800
_publ_section_title
;
Structure prediction by ZEFSAII (Michael W. Deem and Ramdas Pophale) SiO2 
 PCOD9158800
Probable space group: P 21/M
;
_chemical_formula_sum "Si O2"
_cell_formula_units_Z 32
_cell_length_a 15.442949
_cell_length_b 8.711563
_cell_length_c 15.437874
_cell_angle_alpha 90.000000
_cell_angle_beta 78.197907
_cell_angle_gamma 90.000000
_cell_volume 2032.985852
_symmetry_space_group_name_H-M "P 21/M"
_symmetry_group_IT_number 11
_symmetry_cell_setting 'monoclinic'
loop_
_space_group_symop_operation_xyz
x,y,z
-x,1/2+y,-z
-x,-y,-z
x,1/2-y,z
loop_
_atom_site_type_symbol
_atom_site_label
_atom_site_fract_x
_atom_site_fract_y
_atom_site_fract_z
Si Si1 0.930489 0.433557 0.394199
Si Si2 0.243195 0.567719 0.243514
Si Si3 0.396803 0.065382 0.930557
Si Si4 0.585017 0.932494 0.869008
Si Si5 0.202693 0.436600 0.921924
Si Si6 0.076860 0.065362 0.792062
Si Si7 0.884929 0.565127 0.878276
Si Si8 0.129348 0.066564 0.415717
O O1 0.922327 0.250000 0.395456
O O2 0.904324 0.502063 0.307349
O O3 0.877139 0.503301 0.485693
O O4 0.034226 0.470921 0.390862
O O5 0.235009 0.750000 0.239863
O O6 0.343193 0.515958 0.204709
O O7 0.182583 0.491457 0.181343
O O8 0.205053 0.508544 0.342292
O O9 0.405077 0.250000 0.920510
O O10 0.304675 0.013883 0.907195
O O11 0.484705 0.987306 0.875883
O O12 0.393021 0.031702 0.034450
O O13 0.592548 0.750000 0.856500
O O14 0.203946 0.250000 0.922235
O O15 0.149276 0.485112 0.848047
O O16 0.151730 0.482433 0.020090
O O17 0.074384 0.250000 0.790399
O O18 0.981193 0.003445 0.840699
O O19 0.889409 0.750000 0.873802
O O20 0.138502 0.250000 0.414300
#
# Coordination Sequence:
#
# PCOD9158800 Si02
#       8
#     4   4   4   4   4   4   4   4
#     4  10  20  34  51  72 100 132 166 207 253 296
#     4  12  22  32  50  76 103 134 169 204 249 306
#     4   9  17  33  51  70  98 132 169 210 253 295
#     4  10  19  32  51  73 100 130 165 209 256 301
#     4   9  19  34  51  70  99 138 176 212 249 291
#     4  11  21  33  50  73 100 136 177 211 247 294
#     4  11  20  34  49  68 101 139 175 212 249 287
#     4  10  20  34  53  73  99 130 164 207 254 300
#
# _framework density 15.740394999999999
#
# number of rings (size 3 to 8) (size 9 to 14) (size 15 to 20)
#    0.000    1.750    2.500    3.375    0.000    1.500 
#    0.000    3.125    0.000    0.000    0.000    0.875 
#    0.000    0.000    0.000    0.000    0.000    0.000 
#
# Total GULP energy -178676.097005 kJ/mol
# GULP energy per Si atom -5583.628031 kJ/mol
# Density = 1.570457 g / cm^3
# Si number density = 15.740395 Si / 1000 Ang^3
#
#
#
# Elastic Constant Matrix: (Units=GPa)
#
#
# Indices 1 2 3 4 5 6 
#
# 1 93.6332 26.5550 70.3495 0.0000 -3.9900 0.0000
# 2 26.5550 48.8989 40.5390 0.0000 -6.4726 0.0000
# 3 70.3495 40.5390 123.0342 0.0000 -5.6229 0.0000
# 4 0.0000 0.0000 0.0000 24.4740 0.0000 -3.1221
# 5 -3.9900 -6.4726 -5.6229 0.0000 22.7504 0.0000
# 6 0.0000 0.0000 0.0000 -3.1221 0.0000 19.0734
#
#
#
# Elastic Compliance Matrix: (Units=1/GPa)
#
#
# Indices 1 2 3 4 5 6 
#
# 1 0.018839 -0.001751 -0.010181 0.000000 0.000289 0.000000
# 2 -0.001751 0.029071 -0.008307 0.000000 0.005910 0.000000
# 3 -0.010181 -0.008307 0.016685 0.000000 -0.000025 0.000000
# 4 0.000000 0.000000 0.000000 0.041731 0.000000 0.006831
# 5 0.000289 0.005910 -0.000025 0.000000 0.045681 0.000000
# 6 0.000000 0.000000 0.000000 0.006831 0.000000 0.053547
#
#
# Mechanical properties :
#
#
# Convention : Reuss Voigt Hill
#
# Bulk Modulus (GPa) = 41.46808 60.05038 50.75923
# Shear Modulus (GPa) = 19.67944 21.80108 20.74026
#
# Velocity S-wave (km/s) = 3.53972 3.72565 3.63388
# Velocity P-wave (km/s) = 6.56570 7.53264 7.06573
#
# Compressibility (1/GPa) = 0.02411494
#
# Stress axis : x y z
#
# Youngs Moduli (GPa) = 53.08243 34.39892 59.93268
#
# Poissons Ratio (x) = 0.06025 0.61020
# Poissons Ratio (y) = 0.09297 0.49786
# Poissons Ratio (z) = 0.54045 0.28575
#
# Static dielectric constant tensor:
#      x y z
#    x 1.512150 0.000000 -0.001620 
#    y 0.000000 1.526180 0.000000 
#    z -0.001620 0.000000 1.510010 
# 
# From -- ./inp_files/51217.got.cif
#   From: 2010.05.17/outbox.cif.g08.bks.cpg/sg11_26_cif.got.tgz:51217.got - 2010.06.03 12:22:45.
