data_PCOD9158720
_publ_section_title
;
Structure prediction by ZEFSAII (Michael W. Deem and Ramdas Pophale) SiO2 
 PCOD9158720
Probable space group: P 21/M
;
_chemical_formula_sum "Si O2"
_cell_formula_units_Z 32
_cell_length_a 21.006455
_cell_length_b 9.501566
_cell_length_c 11.597352
_cell_angle_alpha 90.000000
_cell_angle_beta 47.098328
_cell_angle_gamma 90.000000
_cell_volume 1695.618248
_symmetry_space_group_name_H-M "P 21/M"
_symmetry_group_IT_number 11
_symmetry_cell_setting 'monoclinic'
loop_
_space_group_symop_operation_xyz
x,y,z
-x,1/2+y,-z
-x,-y,-z
x,1/2-y,z
loop_
_atom_site_type_symbol
_atom_site_label
_atom_site_fract_x
_atom_site_fract_y
_atom_site_fract_z
Si Si1 0.729475 0.417484 0.862826
Si Si2 0.948308 0.415449 0.899868
Si Si3 0.428474 0.089424 0.021485
Si Si4 0.505754 0.090309 0.668648
Si Si5 0.868358 0.584717 0.211363
Si Si6 0.074145 0.918473 0.340682
Si Si7 0.651740 0.085321 0.209036
Si Si8 0.703191 0.083030 0.400513
O O1 0.715984 0.250000 0.859429
O O2 0.830734 0.450464 0.725321
O O3 0.663400 0.508843 0.868766
O O4 0.704736 0.446169 0.027484
O O5 0.924667 0.250000 0.946972
O O6 0.927683 0.452937 0.793576
O O7 0.051245 0.429277 0.799235
O O8 0.900802 0.510566 0.053356
O O9 0.421180 0.250000 0.072798
O O10 0.463810 0.094270 0.847029
O O11 0.500000 0.000000 0.000000
O O12 0.510032 0.250000 0.617461
O O13 0.605135 0.040229 0.555453
O O14 0.437989 0.999284 0.680048
O O15 0.852451 0.750000 0.212440
O O16 0.781039 0.505857 0.357732
O O17 0.060937 0.750000 0.365079
O O18 0.000000 0.000000 0.500000
O O19 0.630817 0.250000 0.230715
O O20 0.704696 0.060432 0.260221
O O21 0.713580 0.250000 0.411158
#
# Coordination Sequence:
#
# PCOD9158720 Si02
#       8
#     4   4   4   4   4   4   4   4
#     4   9  18  34  55  79 104 136 178 218 264 322
#     4   9  19  38  58  76 107 144 178 223 276 324
#     4  10  20  36  56  77 103 138 179 224 266 313
#     4   9  19  33  49  73 105 137 171 214 262 311
#     4  10  20  33  54  82 107 139 183 224 263 320
#     4  10  21  38  59  82 112 146 182 231 283 331
#     4   9  17  30  52  76 101 137 175 210 257 314
#     4  10  19  32  49  74 109 144 171 205 263 321
#
# _framework density 18.872171999999999
#
# number of rings (size 3 to 8) (size 9 to 14) (size 15 to 20)
#    0.000    2.500    0.000    1.875    0.000    5.000 
#    2.250    2.500    0.000    0.000    0.000    0.000 
#    0.000    0.000    0.000    0.000    0.000    0.000 
#
# Total GULP energy -178546.148527 kJ/mol
# GULP energy per Si atom -5579.567141 kJ/mol
# Density = 1.882922 g / cm^3
# Si number density = 18.872172 Si / 1000 Ang^3
#
#
#
# Elastic Constant Matrix: (Units=GPa)
#
#
# Indices 1 2 3 4 5 6 
#
# 1 102.7305 60.8295 28.9547 0.0000 -29.9620 0.0000
# 2 60.8295 66.9487 26.4430 0.0000 -23.2885 0.0000
# 3 28.9547 26.4430 42.5970 0.0000 -29.9256 0.0000
# 4 0.0000 0.0000 0.0000 27.2423 0.0000 -9.4744
# 5 -29.9620 -23.2885 -29.9256 0.0000 35.0933 0.0000
# 6 0.0000 0.0000 0.0000 -9.4744 0.0000 29.9992
#
#
#
# Elastic Compliance Matrix: (Units=1/GPa)
#
#
# Indices 1 2 3 4 5 6 
#
# 1 0.022531 -0.018240 0.002540 0.000000 0.009298 0.000000
# 2 -0.018240 0.035194 -0.009931 0.000000 -0.000687 0.000000
# 3 0.002540 -0.009931 0.061876 0.000000 0.048343 0.000000
# 4 0.000000 0.000000 0.000000 0.041237 0.000000 0.013024
# 5 0.009298 -0.000687 0.048343 0.000000 0.077202 0.000000
# 6 0.000000 0.000000 0.000000 0.013024 0.000000 0.037447
#
#
# Mechanical properties :
#
#
# Convention : Reuss Voigt Hill
#
# Bulk Modulus (GPa) = 14.63323 49.41453 32.02388
# Shear Modulus (GPa) = 14.30499 24.87023 19.58761
#
# Velocity S-wave (km/s) = 2.75616 3.63413 3.22516
# Velocity P-wave (km/s) = 4.23075 6.62192 5.55648
#
# Compressibility (1/GPa) = 0.06833762
#
# Stress axis : x y z
#
# Youngs Moduli (GPa) = 44.38413 28.41430 16.16127
#
# Poissons Ratio (x) = 0.51829 -0.04105
# Poissons Ratio (y) = 0.80958 0.16050
# Poissons Ratio (z) = -0.11274 0.28219
#
# Static dielectric constant tensor:
#      x y z
#    x 1.660010 0.000000 0.000690 
#    y 0.000000 1.644530 0.000000 
#    z 0.000690 0.000000 1.665770 
# 
# From -- ./inp_files/42759.got.cif
#   From: 2010.05.17/outbox.cif.g08.bks.cpg/sg11_22_cif.got.tgz:42759.got - 2010.06.03 12:22:45.
