data_PCOD9158688
_publ_section_title
;
Structure prediction by ZEFSAII (Michael W. Deem and Ramdas Pophale) SiO2 
 PCOD9158688
Probable space group: P 21/M
;
_chemical_formula_sum "Si O2"
_cell_formula_units_Z 28
_cell_length_a 19.782504
_cell_length_b 8.790074
_cell_length_c 14.795941
_cell_angle_alpha 90.000000
_cell_angle_beta 138.411322
_cell_angle_gamma 90.000000
_cell_volume 1707.809873
_symmetry_space_group_name_H-M "P 21/M"
_symmetry_group_IT_number 11
_symmetry_cell_setting 'monoclinic'
loop_
_space_group_symop_operation_xyz
x,y,z
-x,1/2+y,-z
-x,-y,-z
x,1/2-y,z
loop_
_atom_site_type_symbol
_atom_site_label
_atom_site_fract_x
_atom_site_fract_y
_atom_site_fract_z
Si Si1 0.619495 0.568193 0.715596
Si Si2 0.883695 0.933425 0.482129
Si Si3 0.304432 0.566231 0.024801
Si Si4 0.499997 0.933294 0.100346
Si Si5 0.304436 0.066231 0.584069
Si Si6 0.116301 0.566575 0.714738
Si Si7 0.619494 0.068193 0.523392
O O1 0.625814 0.750000 0.719010
O O2 0.680051 0.503797 0.861269
O O3 0.500000 0.525181 0.608521
O O4 0.652595 0.500000 0.652595
O O5 0.880608 0.750000 0.473075
O O6 0.799917 0.980632 0.471319
O O7 0.999998 0.978584 0.620699
O O8 0.858650 1.000000 0.358648
O O9 0.306009 0.750000 0.033789
O O10 0.399695 0.521074 0.056381
O O11 0.200077 0.519369 0.871484
O O12 0.499998 0.750000 0.093837
O O13 0.600299 0.978926 0.256987
O O14 0.500000 0.000000 0.000000
O O15 0.306012 0.250000 0.578234
O O16 0.319950 0.996203 0.501169
O O17 0.119388 0.750000 0.711857
O O18 0.625813 0.250000 0.532615
#
# Coordination Sequence:
#
# PCOD9158688 Si02
#       7
#     4   4   4   4   4   4   4
#     4  10  20  33  51  74  99 128 161 199 242 293
#     4   9  18  32  50  72  98 131 169 206 243 283
#     4  10  19  32  49  70  99 131 162 200 243 289
#     4  10  20  30  43  66  97 130 159 192 238 286
#     4  10  19  32  49  70  99 131 162 200 243 289
#     4   9  18  32  50  72  98 131 169 206 243 283
#     4  10  20  33  51  74  99 128 161 199 242 293
#
# _framework density 16.395268000000002
#
# number of rings (size 3 to 8) (size 9 to 14) (size 15 to 20)
#    0.000    2.286    1.429    1.714    0.000    3.429 
#    0.000    0.000    0.000    0.857    0.000    0.000 
#    0.000    0.000    0.000    0.000    0.000    0.000 
#
# Total GULP energy -156230.898719 kJ/mol
# GULP energy per Si atom -5579.674954 kJ/mol
# Density = 1.635795 g / cm^3
# Si number density = 16.395268 Si / 1000 Ang^3
#
#
#
# Elastic Constant Matrix: (Units=GPa)
#
#
# Indices 1 2 3 4 5 6 
#
# 1 155.7898 36.9134 97.3932 0.0000 -18.4332 0.0000
# 2 36.9134 14.0512 34.4417 0.0000 -4.4387 0.0000
# 3 97.3932 34.4417 134.9365 0.0000 -19.0103 0.0000
# 4 0.0000 0.0000 0.0000 18.8949 0.0000 -12.8945
# 5 -18.4332 -4.4387 -19.0103 0.0000 23.0321 0.0000
# 6 0.0000 0.0000 0.0000 -12.8945 0.0000 26.0827
#
#
#
# Elastic Compliance Matrix: (Units=1/GPa)
#
#
# Indices 1 2 3 4 5 6 
#
# 1 0.017764 -0.041098 -0.001635 0.000000 0.004948 0.000000
# 2 -0.041098 0.285496 -0.045365 0.000000 -0.015315 0.000000
# 3 -0.001635 -0.045365 0.021222 0.000000 0.007465 0.000000
# 4 0.000000 0.000000 0.000000 0.079871 0.000000 0.039486
# 5 0.004948 -0.015315 0.007465 0.000000 0.050587 0.000000
# 6 0.000000 0.000000 0.000000 0.039486 0.000000 0.057860
#
#
# Mechanical properties :
#
#
# Convention : Reuss Voigt Hill
#
# Bulk Modulus (GPa) = 6.74374 71.36381 39.05378
# Shear Modulus (GPa) = 6.77117 22.67054 14.72086
#
# Velocity S-wave (km/s) = 2.03443 3.72257 2.99970
# Velocity P-wave (km/s) = 3.10495 7.88024 5.98911
#
# Compressibility (1/GPa) = 0.14828568
#
# Stress axis : x y z
#
# Youngs Moduli (GPa) = 56.29342 3.50268 47.12185
#
# Poissons Ratio (x) = 0.14395 0.07702
# Poissons Ratio (y) = 2.31355 2.13770
# Poissons Ratio (z) = 0.09201 0.15890
#
# Static dielectric constant tensor:
#      x y z
#    x 1.530060 0.000000 0.019420 
#    y 0.000000 1.548280 0.000000 
#    z 0.019420 0.000000 1.540890 
# 
# From -- ./inp_files/44605.got.cif
#   From: 2010.05.17/outbox.cif.g08.bks.cpg/sg11_23_cif.got.tgz:44605.got - 2010.06.03 12:22:45.
