data_PCOD9158495
_publ_section_title
;
Structure prediction by ZEFSAII (Michael W. Deem and Ramdas Pophale) SiO2 
 PCOD9158495
Probable space group: P 21/M
;
_chemical_formula_sum "Si O2"
_cell_formula_units_Z 32
_cell_length_a 12.903394
_cell_length_b 8.760002
_cell_length_c 12.209529
_cell_angle_alpha 90.000000
_cell_angle_beta 89.498818
_cell_angle_gamma 90.000000
_cell_volume 1380.036139
_symmetry_space_group_name_H-M "P 21/M"
_symmetry_group_IT_number 11
_symmetry_cell_setting 'monoclinic'
loop_
_space_group_symop_operation_xyz
x,y,z
-x,1/2+y,-z
-x,-y,-z
x,1/2-y,z
loop_
_atom_site_type_symbol
_atom_site_label
_atom_site_fract_x
_atom_site_fract_y
_atom_site_fract_z
Si Si1 0.659842 0.569986 0.485677
Si Si2 0.594551 0.567592 0.885142
Si Si3 0.466984 0.571552 0.321370
Si Si4 0.094976 0.925091 0.059342
Si Si5 0.698270 0.423774 0.090688
Si Si6 0.200504 0.072773 0.251606
Si Si7 0.972697 0.068090 0.617289
Si Si8 0.190895 0.065735 0.700621
O O1 0.670859 0.750000 0.508535
O O2 0.566207 0.553581 0.399229
O O3 0.624886 0.491750 0.598797
O O4 0.758195 0.515520 0.415339
O O5 0.591900 0.750000 0.896765
O O6 0.511959 0.510527 0.795472
O O7 0.694593 0.520585 0.809420
O O8 0.615438 0.496355 0.004771
O O9 0.450057 0.750000 0.299220
O O10 0.075283 0.750000 0.097380
O O11 0.119806 0.040470 0.155829
O O12 0.195381 0.920261 0.981080
O O13 0.000000 0.000000 0.000000
O O14 0.666201 0.250000 0.113951
O O15 0.738252 0.505073 0.200700
O O16 0.211534 0.250000 0.277136
O O17 0.141766 0.987384 0.348641
O O18 0.973391 0.250000 0.613403
O O19 0.069261 0.022314 0.697053
O O20 0.000000 0.000000 0.500000
O O21 0.196759 0.250000 0.705105
#
# Coordination Sequence:
#
# PCOD9158495 Si02
#       8
#     4   4   4   4   4   4   4   4
#     4   9  20  39  61  86 117 153 190 232 288 350
#     4  10  21  37  60  85 116 155 193 237 289 347
#     4  10  20  36  61  91 118 144 187 243 291 340
#     4  10  19  31  50  75 104 140 183 233 282 329
#     4  10  21  36  55  83 115 147 190 241 287 336
#     4  10  21  36  53  76 107 146 189 232 279 331
#     4  11  24  39  56  81 115 154 196 239 283 340
#     4  10  22  40  60  81 114 157 194 230 283 348
#
# _framework density 23.187798999999998
#
# number of rings (size 3 to 8) (size 9 to 14) (size 15 to 20)
#    0.000    2.000    0.000    3.000    1.750    7.000 
#    0.000    0.625    0.000    0.000    0.000    0.000 
#    0.000    0.000    0.000    0.000    0.000    0.000 
#
# Total GULP energy -178710.994497 kJ/mol
# GULP energy per Si atom -5584.718578 kJ/mol
# Density = 2.313502 g / cm^3
# Si number density = 23.187799 Si / 1000 Ang^3
#
#
#
# Elastic Constant Matrix: (Units=GPa)
#
#
# Indices 1 2 3 4 5 6 
#
# 1 64.4212 5.3705 20.6504 0.0000 -1.6036 0.0000
# 2 5.3705 27.8971 42.5541 0.0000 2.7660 0.0000
# 3 20.6504 42.5541 162.5709 0.0000 18.3226 0.0000
# 4 0.0000 0.0000 0.0000 39.5450 0.0000 0.1182
# 5 -1.6036 2.7660 18.3226 0.0000 46.7176 0.0000
# 6 0.0000 0.0000 0.0000 0.1182 0.0000 18.2993
#
#
#
# Elastic Compliance Matrix: (Units=1/GPa)
#
#
# Indices 1 2 3 4 5 6 
#
# 1 0.016274 0.000209 -0.002284 0.000000 0.001442 0.000000
# 2 0.000209 0.060005 -0.016043 0.000000 0.002746 0.000000
# 3 -0.002284 -0.016043 0.011030 0.000000 -0.003455 0.000000
# 4 0.000000 0.000000 0.000000 0.025288 0.000000 -0.000163
# 5 0.001442 0.002746 -0.003455 0.000000 0.022647 0.000000
# 6 0.000000 0.000000 0.000000 -0.000163 0.000000 0.054648
#
#
# Mechanical properties :
#
#
# Convention : Reuss Voigt Hill
#
# Bulk Modulus (GPa) = 19.58027 43.55993 31.57010
# Shear Modulus (GPa) = 20.56316 33.33332 26.94824
#
# Velocity S-wave (km/s) = 2.98117 3.79560 3.41276
# Velocity P-wave (km/s) = 4.50692 6.16727 5.40128
#
# Compressibility (1/GPa) = 0.05107181
#
# Stress axis : x y z
#
# Youngs Moduli (GPa) = 61.44928 16.66515 90.66175
#
# Poissons Ratio (x) = -0.00348 0.20710
# Poissons Ratio (y) = -0.01282 1.45448
# Poissons Ratio (z) = 0.14037 0.26736
#
# Static dielectric constant tensor:
#      x y z
#    x 1.964470 0.000000 -0.024300 
#    y 0.000000 1.792630 0.000000 
#    z -0.024300 0.000000 1.822260 
# 
# From -- ./inp_files/38276.got.cif
#   From: 2010.05.17/outbox.cif.g08.bks.cpg/sg11_20_cif.got.tgz:38276.got - 2010.06.03 12:22:45.
