data_PCOD9158434
_publ_section_title
;
Structure prediction by ZEFSAII (Michael W. Deem and Ramdas Pophale) SiO2 
 PCOD9158434
Probable space group: P 21/M
;
_chemical_formula_sum "Si O2"
_cell_formula_units_Z 32
_cell_length_a 15.583587
_cell_length_b 8.742253
_cell_length_c 23.324394
_cell_angle_alpha 90.000000
_cell_angle_beta 148.849344
_cell_angle_gamma 90.000000
_cell_volume 1643.748581
_symmetry_space_group_name_H-M "P 21/M"
_symmetry_group_IT_number 11
_symmetry_cell_setting 'monoclinic'
loop_
_space_group_symop_operation_xyz
x,y,z
-x,1/2+y,-z
-x,-y,-z
x,1/2-y,z
loop_
_atom_site_type_symbol
_atom_site_label
_atom_site_fract_x
_atom_site_fract_y
_atom_site_fract_z
Si Si1 0.086755 0.434110 0.278065
Si Si2 0.443618 0.065793 0.642959
Si Si3 0.928800 0.566536 0.597107
Si Si4 0.138430 0.431678 0.621613
Si Si5 0.939347 0.577185 0.908185
Si Si6 0.217003 0.922792 0.971170
Si Si7 0.494443 0.931582 0.792760
Si Si8 0.325535 0.929309 0.323163
O O1 0.087960 0.250000 0.271933
O O2 0.087445 0.471355 0.345212
O O3 0.247202 0.493150 0.334703
O O4 0.911582 0.487333 0.149850
O O5 0.463758 0.250000 0.657052
O O6 0.248398 0.030363 0.533153
O O7 0.512441 0.016705 0.619556
O O8 0.529540 0.995586 0.748408
O O9 0.954706 0.750000 0.606946
O O10 0.073910 0.478909 0.647559
O O11 0.145783 0.250000 0.618858
O O12 0.316399 0.502207 0.709201
O O13 0.000000 0.500000 0.500000
O O14 0.871181 0.750000 0.876943
O O15 0.812029 0.466281 0.803606
O O16 0.096388 0.589947 0.956672
O O17 0.000000 0.500000 0.000000
O O18 0.269343 0.750000 0.984162
O O19 0.372186 0.016640 0.083346
O O20 0.489381 0.750000 0.786522
O O21 0.343361 0.750000 0.345078
#
# Coordination Sequence:
#
# PCOD9158434 Si02
#       8
#     4   4   4   4   4   4   4   4
#     4   9  20  39  61  84 115 158 202 243 289 340
#     4  10  21  36  56  84 120 157 193 241 298 346
#     4  10  21  40  64  87 115 154 197 241 293 349
#     4  12  24  41  64  91 120 150 187 233 291 350
#     4  10  19  31  49  74 107 149 194 242 294 344
#     4   9  19  36  55  78 112 152 192 238 291 341
#     4  12  24  37  59  90 119 150 192 240 294 352
#     4  10  20  33  51  79 115 157 199 239 287 342
#
# _framework density 19.467699
#
# number of rings (size 3 to 8) (size 9 to 14) (size 15 to 20)
#    0.000    1.750    1.250    4.500    0.000    7.500 
#    0.000    0.625    0.000    0.000    0.000    0.000 
#    0.000    0.000    0.000    0.000    0.000    0.000 
#
# Total GULP energy -178569.786373 kJ/mol
# GULP energy per Si atom -5580.305824 kJ/mol
# Density = 1.942339 g / cm^3
# Si number density = 19.467699 Si / 1000 Ang^3
#
#
#
# Elastic Constant Matrix: (Units=GPa)
#
#
# Indices 1 2 3 4 5 6 
#
# 1 97.2716 24.2045 21.2176 0.0000 2.6292 0.0000
# 2 24.2045 51.1055 21.8585 0.0000 2.9787 0.0000
# 3 21.2176 21.8585 47.9716 0.0000 14.7193 0.0000
# 4 0.0000 0.0000 0.0000 21.2271 0.0000 3.2406
# 5 2.6292 2.9787 14.7193 0.0000 23.1117 0.0000
# 6 0.0000 0.0000 0.0000 3.2406 0.0000 28.3885
#
#
#
# Elastic Compliance Matrix: (Units=1/GPa)
#
#
# Indices 1 2 3 4 5 6 
#
# 1 0.012137 -0.004134 -0.004008 0.000000 0.001704 0.000000
# 2 -0.004134 0.026161 -0.011437 0.000000 0.004382 0.000000
# 3 -0.004008 -0.011437 0.033853 0.000000 -0.019630 0.000000
# 4 0.000000 0.000000 0.000000 0.047945 0.000000 -0.005473
# 5 0.001704 0.004382 -0.019630 0.000000 0.055011 0.000000
# 6 0.000000 0.000000 0.000000 -0.005473 0.000000 0.035850
#
#
# Mechanical properties :
#
#
# Convention : Reuss Voigt Hill
#
# Bulk Modulus (GPa) = 30.30785 36.76778 33.53782
# Shear Modulus (GPa) = 19.14881 23.15001 21.14941
#
# Velocity S-wave (km/s) = 3.13967 3.45215 3.29961
# Velocity P-wave (km/s) = 5.36148 5.90062 5.63750
#
# Compressibility (1/GPa) = 0.03299475
#
# Stress axis : x y z
#
# Youngs Moduli (GPa) = 82.39143 38.22421 29.53969
#
# Poissons Ratio (x) = 0.15800 0.11839
# Poissons Ratio (y) = 0.34057 0.33785
# Poissons Ratio (z) = 0.33020 0.43717
#
# Static dielectric constant tensor:
#      x y z
#    x 1.689400 0.000000 0.023390 
#    y 0.000000 1.679200 0.000000 
#    z 0.023390 0.000000 1.648340 
# 
# From -- ./inp_files/69140.got.cif
#   From: 2010.05.17/outbox.cif.g08.bks.cpg/sg11_35_cif.got.tgz:69140.got - 2010.06.03 12:22:45.
