data_PCOD9158478
_publ_section_title
;
Structure prediction by ZEFSAII (Michael W. Deem and Ramdas Pophale) SiO2 
 PCOD9158478
Probable space group: P 21/M
;
_chemical_formula_sum "Si O2"
_cell_formula_units_Z 32
_cell_length_a 5.266026
_cell_length_b 12.960266
_cell_length_c 29.258286
_cell_angle_alpha 90.000000
_cell_angle_beta 105.662822
_cell_angle_gamma 90.000000
_cell_volume 1922.702790
_symmetry_space_group_name_H-M "P 21/M"
_symmetry_group_IT_number 11
_symmetry_cell_setting 'monoclinic'
loop_
_space_group_symop_operation_xyz
x,y,z
-x,1/2+y,-z
-x,-y,-z
x,1/2-y,z
loop_
_atom_site_type_symbol
_atom_site_label
_atom_site_fract_x
_atom_site_fract_y
_atom_site_fract_z
Si Si1 0.730554 0.043957 0.820370
Si Si2 0.700111 0.631806 0.133407
Si Si3 0.419083 0.537685 0.946055
Si Si4 0.419485 0.870174 0.279656
Si Si5 0.845239 0.990483 0.563493
Si Si6 0.702918 0.125883 0.468612
Si Si7 0.984204 0.130643 0.656137
Si Si8 0.849479 0.629438 0.899653
O O1 0.504161 0.103249 0.836985
O O2 0.645444 0.049287 0.763629
O O3 0.006793 0.103249 0.836985
O O4 0.776333 0.937843 0.850889
O O5 0.681145 0.750000 0.120763
O O6 0.629819 0.563517 0.086546
O O7 0.143911 0.599541 0.930269
O O8 0.646897 0.599541 0.930269
O O9 0.500000 0.500000 0.000000
O O10 0.392656 0.750000 0.261770
O O11 0.717566 0.882626 0.311653
O O12 0.217398 0.882626 0.311653
O O13 0.585479 0.920110 0.556489
O O14 0.083989 0.920110 0.556489
O O15 0.782095 0.076060 0.521397
O O16 0.919245 0.051349 0.612830
O O17 0.704703 0.250000 0.469802
O O18 0.958112 0.250000 0.638742
O O19 0.833321 0.750000 0.888881
#
# Coordination Sequence:
#
# PCOD9158478 Si02
#       8
#     4   4   4   4   4   4   4   4
#     4  10  20  34  52  76 103 129 170 213 246 303
#     4  10  19  31  50  74 102 133 161 202 254 298
#     4  10  21  36  52  78 106 131 170 208 248 302
#     4  10  19  31  51  76 104 137 165 205 265 314
#     4  10  20  34  53  77 106 138 173 215 258 304
#     4  10  20  34  54  77 102 139 180 215 253 299
#     4  10  20  33  51  78 108 135 166 207 261 317
#     4  10  21  37  57  76 101 140 176 211 250 291
#
# _framework density 16.643236999999999
#
# number of rings (size 3 to 8) (size 9 to 14) (size 15 to 20)
#    0.000    2.000    0.000    4.125    0.000    2.000 
#    0.000    3.750    0.000    4.500    0.000    0.000 
#    0.000    0.000    0.000    0.000    0.000    0.000 
#
# Total GULP energy -178562.193970 kJ/mol
# GULP energy per Si atom -5580.068562 kJ/mol
# Density = 1.660536 g / cm^3
# Si number density = 16.643237 Si / 1000 Ang^3
#
#
#
# Elastic Constant Matrix: (Units=GPa)
#
#
# Indices 1 2 3 4 5 6 
#
# 1 165.6416 57.4952 50.2895 0.0000 -1.3743 0.0000
# 2 57.4952 102.8864 38.7460 0.0000 -0.2720 0.0000
# 3 50.2895 38.7460 94.8305 0.0000 0.3482 0.0000
# 4 0.0000 0.0000 0.0000 7.2920 0.0000 0.0689
# 5 -1.3743 -0.2720 0.3482 0.0000 10.2698 0.0000
# 6 0.0000 0.0000 0.0000 0.0689 0.0000 2.5369
#
#
#
# Elastic Compliance Matrix: (Units=1/GPa)
#
#
# Indices 1 2 3 4 5 6 
#
# 1 0.008123 -0.003442 -0.002905 0.000000 0.001094 0.000000
# 2 -0.003442 0.012948 -0.003465 0.000000 0.000000 0.000000
# 3 -0.002905 -0.003465 0.013505 0.000000 -0.000938 0.000000
# 4 0.000000 0.000000 0.000000 0.137172 0.000000 -0.003727
# 5 0.001094 0.000000 -0.000938 0.000000 0.097551 0.000000
# 6 0.000000 0.000000 0.000000 -0.003727 0.000000 0.394282
#
#
# Mechanical properties :
#
#
# Convention : Reuss Voigt Hill
#
# Bulk Modulus (GPa) = 66.88469 72.93554 69.91012
# Shear Modulus (GPa) = 7.26544 18.47493 12.87019
#
# Velocity S-wave (km/s) = 2.09162 3.33537 2.78384
# Velocity P-wave (km/s) = 6.79027 7.66492 7.24081
#
# Compressibility (1/GPa) = 0.01495110
#
# Stress axis : x y z
#
# Youngs Moduli (GPa) = 123.10506 77.23242 74.04706
#
# Poissons Ratio (x) = 0.26586 0.21513
# Poissons Ratio (y) = 0.42378 0.25656
# Poissons Ratio (z) = 0.35766 0.26759
#
# Static dielectric constant tensor:
#      x y z
#    x 1.582160 0.000000 -0.000550 
#    y 0.000000 1.539350 0.000000 
#    z -0.000550 0.000000 1.544220 
# 
# From -- ./inp_files/67642.got.cif
#   From: 2010.05.17/outbox.cif.g08.bks.cpg/sg11_34_cif.got.tgz:67642.got - 2010.06.03 12:22:45.
