data_PCOD9158793
_publ_section_title
;
Structure prediction by ZEFSAII (Michael W. Deem and Ramdas Pophale) SiO2 
 PCOD9158793
Probable space group: P 21/M
;
_chemical_formula_sum "Si O2"
_cell_formula_units_Z 32
_cell_length_a 15.932240
_cell_length_b 8.819724
_cell_length_c 14.517240
_cell_angle_alpha 90.000000
_cell_angle_beta 91.917814
_cell_angle_gamma 90.000000
_cell_volume 2038.790293
_symmetry_space_group_name_H-M "P 21/M"
_symmetry_group_IT_number 11
_symmetry_cell_setting 'monoclinic'
loop_
_space_group_symop_operation_xyz
x,y,z
-x,1/2+y,-z
-x,-y,-z
x,1/2-y,z
loop_
_atom_site_type_symbol
_atom_site_label
_atom_site_fract_x
_atom_site_fract_y
_atom_site_fract_z
Si Si1 0.987867 0.931163 0.898288
Si Si2 0.671187 0.567756 0.876122
Si Si3 0.097551 0.929913 0.609310
Si Si4 0.087043 0.568894 0.401043
Si Si5 0.170116 0.569291 0.213079
Si Si6 0.512978 0.068703 0.102139
Si Si7 0.144852 0.431184 0.795346
Si Si8 0.684905 0.932017 0.092668
O O1 0.987275 0.750000 0.902643
O O2 0.901244 0.990090 0.851291
O O3 0.064625 0.988992 0.838326
O O4 0.000000 0.000000 0.000000
O O5 0.680818 0.750000 0.870560
O O6 0.739501 0.488362 0.815458
O O7 0.574055 0.529748 0.849798
O O8 0.687256 0.524947 0.984294
O O9 0.104565 0.750000 0.624133
O O10 0.121271 0.965315 0.504366
O O11 0.148021 0.017511 0.689563
O O12 0.000190 0.980256 0.614810
O O13 0.068172 0.750000 0.398049
O O14 0.148185 0.534733 0.318668
O O15 0.163843 0.750000 0.200331
O O16 0.517244 0.250000 0.096187
O O17 0.602482 0.004250 0.136084
O O18 0.500000 0.000000 0.000000
O O19 0.133706 0.250000 0.801087
O O20 0.229066 0.473445 0.853542
O O21 0.675948 0.750000 0.095061
#
# Coordination Sequence:
#
# PCOD9158793 Si02
#       8
#     4   4   4   4   4   4   4   4
#     4  12  24  36  49  67  95 133 169 201 236 283
#     4   9  18  32  48  70  99 130 162 198 239 288
#     4  10  19  32  51  72  93 126 165 204 249 293
#     4   9  19  34  50  69  96 125 162 208 250 289
#     4  11  21  33  50  72  97 129 164 202 243 287
#     4   9  17  30  49  70  95 125 159 200 242 281
#     4  11  21  34  50  72 101 131 162 202 245 290
#     4   9  19  33  49  69  97 130 162 198 241 285
#
# _framework density 15.695581000000001
#
# number of rings (size 3 to 8) (size 9 to 14) (size 15 to 20)
#    0.000    2.000    1.250    4.125    0.000    5.500 
#    0.000    0.000    0.000    0.000    0.000    0.875 
#    0.000    0.000    0.000    0.000    0.000    0.000 
#
# Total GULP energy -178513.737144 kJ/mol
# GULP energy per Si atom -5578.554286 kJ/mol
# Density = 1.565986 g / cm^3
# Si number density = 15.695581 Si / 1000 Ang^3
#
#
#
# Elastic Constant Matrix: (Units=GPa)
#
#
# Indices 1 2 3 4 5 6 
#
# 1 84.8112 32.3593 27.8987 0.0000 -25.4485 0.0000
# 2 32.3593 47.9241 27.9315 0.0000 -12.1366 0.0000
# 3 27.8987 27.9315 77.7304 0.0000 -18.4957 0.0000
# 4 0.0000 0.0000 0.0000 23.3774 0.0000 -0.7475
# 5 -25.4485 -12.1366 -18.4957 0.0000 14.8749 0.0000
# 6 0.0000 0.0000 0.0000 -0.7475 0.0000 28.1935
#
#
#
# Elastic Compliance Matrix: (Units=1/GPa)
#
#
# Indices 1 2 3 4 5 6 
#
# 1 0.027343 -0.009743 0.004156 0.000000 0.043999 0.000000
# 2 -0.009743 0.032035 -0.008182 0.000000 -0.000704 0.000000
# 3 0.004156 -0.008182 0.020475 0.000000 0.025894 0.000000
# 4 0.000000 0.000000 0.000000 0.042813 0.000000 0.001135
# 5 0.043999 -0.000704 0.025894 0.000000 0.174125 0.000000
# 6 0.000000 0.000000 0.000000 0.001135 0.000000 0.035499
#
#
# Mechanical properties :
#
#
# Convention : Reuss Voigt Hill
#
# Bulk Modulus (GPa) = 19.11447 42.98273 31.04860
# Shear Modulus (GPa) = 13.25323 21.44089 17.34706
#
# Velocity S-wave (km/s) = 2.90900 3.70002 3.32809
# Velocity P-wave (km/s) = 4.84641 6.76004 5.88158
#
# Compressibility (1/GPa) = 0.05231639
#
# Stress axis : x y z
#
# Youngs Moduli (GPa) = 36.57199 31.21561 48.84076
#
# Poissons Ratio (x) = 0.30412 -0.20300
# Poissons Ratio (y) = 0.35631 0.39963
# Poissons Ratio (z) = -0.15201 0.25541
#
# Static dielectric constant tensor:
#      x y z
#    x 1.521890 0.000000 -0.003090 
#    y 0.000000 1.526050 0.000000 
#    z -0.003090 0.000000 1.524800 
# 
# From -- ./inp_files/51314.got.cif
#   From: 2010.05.17/outbox.cif.g08.bks.cpg/sg11_26_cif.got.tgz:51314.got - 2010.06.03 12:22:45.
