data_PCOD9158581
_publ_section_title
;
Structure prediction by ZEFSAII (Michael W. Deem and Ramdas Pophale) SiO2 
 PCOD9158581
Probable space group: P 21/M
;
_chemical_formula_sum "Si O2"
_cell_formula_units_Z 28
_cell_length_a 5.308524
_cell_length_b 15.671982
_cell_length_c 19.552750
_cell_angle_alpha 90.000000
_cell_angle_beta 123.888770
_cell_angle_gamma 90.000000
_cell_volume 1350.352848
_symmetry_space_group_name_H-M "P 21/M"
_symmetry_group_IT_number 11
_symmetry_cell_setting 'monoclinic'
loop_
_space_group_symop_operation_xyz
x,y,z
-x,1/2+y,-z
-x,-y,-z
x,1/2-y,z
loop_
_atom_site_type_symbol
_atom_site_label
_atom_site_fract_x
_atom_site_fract_y
_atom_site_fract_z
Si Si1 0.004955 0.842504 0.606439
Si Si2 0.487637 0.485799 0.296185
Si Si3 0.298313 0.963240 0.130381
Si Si4 0.944972 0.658299 0.751480
Si Si5 0.323791 0.045952 0.535450
Si Si6 0.378085 0.411090 0.952801
Si Si7 0.374970 0.156329 0.096243
O O1 0.145451 0.750000 0.617261
O O2 0.254588 0.915429 0.651608
O O3 0.851843 0.842572 0.657816
O O4 0.772835 0.863922 0.511104
O O5 0.521761 0.532697 0.229528
O O6 0.189488 0.428031 0.239718
O O7 0.491535 0.541489 0.365832
O O8 0.450491 0.906937 0.093450
O O9 0.984070 0.921502 0.106938
O O10 0.238302 0.062221 0.094633
O O11 0.843954 0.750000 0.765688
O O12 0.306216 0.656248 0.814997
O O13 0.500000 0.000000 0.500000
O O14 0.000000 0.000000 0.500000
O O15 0.500000 0.500000 0.000000
O O16 0.440731 0.347336 0.024847
O O17 0.226897 0.250000 0.087482
#
# Coordination Sequence:
#
# PCOD9158581 Si02
#       7
#     4   4   4   4   4   4   4
#     4  10  20  35  53  80 116 146 176 225 283 335
#     4  11  20  33  57  81 114 146 191 231 276 329
#     4  11  22  36  57  80 112 148 187 229 277 331
#     4  10  19  31  51  81 116 146 176 225 285 335
#     4  10  21  36  55  81 110 147 189 224 267 333
#     4  10  21  38  54  78 112 151 187 224 275 330
#     4  10  20  36  57  84 115 146 186 231 281 338
#
# _framework density 20.735323000000001
#
# number of rings (size 3 to 8) (size 9 to 14) (size 15 to 20)
#    0.000    1.714    2.857    3.857    0.000    0.571 
#    0.000    7.857    0.000    1.714    0.000    0.000 
#    0.000    0.000    0.000    0.000    0.000    0.000 
#
# Total GULP energy -156012.400805 kJ/mol
# GULP energy per Si atom -5571.871457 kJ/mol
# Density = 2.068813 g / cm^3
# Si number density = 20.735323 Si / 1000 Ang^3
#
#
#
# Elastic Constant Matrix: (Units=GPa)
#
#
# Indices 1 2 3 4 5 6 
#
# 1 77.6213 3.1885 15.5707 0.0000 -11.1280 0.0000
# 2 3.1885 31.8535 26.6283 0.0000 -10.0198 0.0000
# 3 15.5707 26.6283 114.3385 0.0000 -28.2614 0.0000
# 4 0.0000 0.0000 0.0000 3.1658 0.0000 -2.8637
# 5 -11.1280 -10.0198 -28.2614 0.0000 30.5248 0.0000
# 6 0.0000 0.0000 0.0000 -2.8637 0.0000 -1.6363
#
#
#
# Elastic Compliance Matrix: (Units=1/GPa)
#
#
# Indices 1 2 3 4 5 6 
#
# 1 0.013669 0.000816 -0.000977 0.000000 0.004346 0.000000
# 2 0.000816 0.039810 -0.007883 0.000000 0.006067 0.000000
# 3 -0.000977 -0.007883 0.012951 0.000000 0.009047 0.000000
# 4 0.000000 0.000000 0.000000 0.122285 0.000000 -0.214015
# 5 0.004346 0.006067 0.009047 0.000000 0.044712 0.000000
# 6 0.000000 0.000000 0.000000 -0.214015 0.000000 -0.236595
#
#
# Mechanical properties :
#
#
# Convention : Reuss Voigt Hill
#
# Bulk Modulus (GPa) = 19.86444 34.95425 27.40934
# Shear Modulus (GPa) = 168.34572 18.30592 93.32582
#
# Velocity S-wave (km/s) = 9.02021 2.97448 6.71609
# Velocity P-wave (km/s) = 10.86675 5.35637 8.56671
#
# Compressibility (1/GPa) = 0.05034122
#
# Stress axis : x y z
#
# Youngs Moduli (GPa) = 73.16023 25.11914 77.21383
#
# Poissons Ratio (x) = -0.02049 0.07545
# Poissons Ratio (y) = -0.05968 0.60867
# Poissons Ratio (z) = 0.07149 0.19801
#
# Static dielectric constant tensor:
#      x y z
#    x 1.822690 0.000000 -0.021590 
#    y 0.000000 1.827450 0.000000 
#    z -0.021590 0.000000 1.804300 
# 
# From -- ./inp_files/57119.got.cif
#   From: 2010.05.17/outbox.cif.g08.bks.cpg/sg11_29_cif.got.tgz:57119.got - 2010.06.03 12:22:45.
