data_PCOD9158970
_publ_section_title
;
Structure prediction by ZEFSAII (Michael W. Deem and Ramdas Pophale) SiO2 
 PCOD9158970
Probable space group: P 21/M
;
_chemical_formula_sum "Si O2"
_cell_formula_units_Z 32
_cell_length_a 11.889060
_cell_length_b 20.239410
_cell_length_c 10.227640
_cell_angle_alpha 90.000000
_cell_angle_beta 135.978129
_cell_angle_gamma 90.000000
_cell_volume 1710.266060
_symmetry_space_group_name_H-M "P 21/M"
_symmetry_group_IT_number 11
_symmetry_cell_setting 'monoclinic'
loop_
_space_group_symop_operation_xyz
x,y,z
-x,1/2+y,-z
-x,-y,-z
x,1/2-y,z
loop_
_atom_site_type_symbol
_atom_site_label
_atom_site_fract_x
_atom_site_fract_y
_atom_site_fract_z
Si Si1 0.910019 0.508604 0.561209
Si Si2 0.862885 0.880083 0.700879
Si Si3 0.624030 0.394082 0.625833
Si Si4 0.144807 0.091431 0.862990
Si Si5 0.613220 0.555044 0.165160
Si Si6 0.351929 0.043183 0.271714
Si Si7 0.961686 0.174206 0.898820
Si Si8 0.437967 0.325318 0.695867
O O1 0.962198 0.573999 0.684424
O O2 0.722373 0.517872 0.366633
O O3 0.000000 0.500000 0.500000
O O4 0.977411 0.446679 0.695682
O O5 0.752187 0.931775 0.690830
O O6 0.743833 0.835823 0.513469
O O7 0.961058 0.842183 0.894544
O O8 0.613885 0.466150 0.684484
O O9 0.507905 0.408581 0.404864
O O10 0.804512 0.371314 0.750888
O O11 0.548606 0.341571 0.662991
O O12 0.259042 0.087926 0.831016
O O13 0.091913 0.157754 0.893823
O O14 0.246105 0.052345 0.055901
O O15 0.531844 0.617326 0.171094
O O16 0.500000 0.500000 0.000000
O O17 0.914376 0.250000 0.853336
O O18 0.460076 0.250000 0.759432
#
# Coordination Sequence:
#
# PCOD9158970 Si02
#       8
#     4   4   4   4   4   4   4   4
#     4   9  18  33  54  80 105 134 177 232 282 323
#     4   9  18  33  53  77 105 139 178 218 268 328
#     4  10  19  32  52  80 108 133 173 221 271 325
#     4  10  20  35  54  78 107 138 178 226 275 327
#     4  10  21  36  57  81 107 142 187 236 281 329
#     4   9  18  32  54  80 103 134 173 224 277 322
#     4  11  22  34  52  79 113 148 178 217 271 336
#     4  10  20  35  54  75 105 143 181 221 269 331
#
# _framework density 18.710539000000001
#
# number of rings (size 3 to 8) (size 9 to 14) (size 15 to 20)
#    0.000    2.250    0.000    3.000    0.000    6.500 
#    0.000    0.625    0.000    2.250    0.000    0.000 
#    0.000    0.000    0.000    0.000    0.000    0.000 
#
# Total GULP energy -178224.488263 kJ/mol
# GULP energy per Si atom -5569.515258 kJ/mol
# Density = 1.866795 g / cm^3
# Si number density = 18.710539 Si / 1000 Ang^3
#
#
#
# Elastic Constant Matrix: (Units=GPa)
#
#
# Indices 1 2 3 4 5 6 
#
# 1 63.2843 22.1815 11.1411 0.0000 -6.3577 0.0000
# 2 22.1815 81.6719 28.1608 0.0000 -1.6020 0.0000
# 3 11.1411 28.1608 89.1501 0.0000 -3.4404 0.0000
# 4 0.0000 0.0000 0.0000 20.5111 0.0000 -1.6453
# 5 -6.3577 -1.6020 -3.4404 0.0000 21.5573 0.0000
# 6 0.0000 0.0000 0.0000 -1.6453 0.0000 16.8878
#
#
#
# Elastic Compliance Matrix: (Units=1/GPa)
#
#
# Indices 1 2 3 4 5 6 
#
# 1 0.018006 -0.004583 -0.000615 0.000000 0.004872 0.000000
# 2 -0.004583 0.014909 -0.004172 0.000000 -0.000909 0.000000
# 3 -0.000615 -0.004172 0.012671 0.000000 0.001531 0.000000
# 4 0.000000 0.000000 0.000000 0.049138 0.000000 0.004787
# 5 0.004872 -0.000909 0.001531 0.000000 0.048002 0.000000
# 6 0.000000 0.000000 0.000000 0.004787 0.000000 0.059681
#
#
# Mechanical properties :
#
#
# Convention : Reuss Voigt Hill
#
# Bulk Modulus (GPa) = 37.24780 39.67478 38.46129
# Shear Modulus (GPa) = 21.73027 23.29942 22.51484
#
# Velocity S-wave (km/s) = 3.41162 3.53265 3.47266
# Velocity P-wave (km/s) = 5.95562 6.15549 6.05638
#
# Compressibility (1/GPa) = 0.02684722
#
# Stress axis : x y z
#
# Youngs Moduli (GPa) = 55.53830 67.07161 78.92177
#
# Poissons Ratio (x) = 0.30737 0.04850
# Poissons Ratio (y) = 0.25452 0.32926
# Poissons Ratio (z) = 0.03413 0.27982
#
# Static dielectric constant tensor:
#      x y z
#    x 1.706230 0.000000 0.009810 
#    y 0.000000 1.631050 0.000000 
#    z 0.009810 0.000000 1.680890 
# 
# From -- ./inp_files/19419.got.cif
#   From: 2010.05.17/outbox.cif.g08.bks.cpg/sg11_10_cif.got.tgz:19419.got - 2010.06.03 12:22:45.
