data_PCOD9158922
_publ_section_title
;
Structure prediction by ZEFSAII (Michael W. Deem and Ramdas Pophale) SiO2 
 PCOD9158922
Probable space group: P 21/M
;
_chemical_formula_sum "Si O2"
_cell_formula_units_Z 32
_cell_length_a 23.149138
_cell_length_b 8.665529
_cell_length_c 14.565678
_cell_angle_alpha 90.000000
_cell_angle_beta 143.013265
_cell_angle_gamma 90.000000
_cell_volume 1757.883830
_symmetry_space_group_name_H-M "P 21/M"
_symmetry_group_IT_number 11
_symmetry_cell_setting 'monoclinic'
loop_
_space_group_symop_operation_xyz
x,y,z
-x,1/2+y,-z
-x,-y,-z
x,1/2-y,z
loop_
_atom_site_type_symbol
_atom_site_label
_atom_site_fract_x
_atom_site_fract_y
_atom_site_fract_z
Si Si1 0.088619 0.564127 0.948658
Si Si2 0.329113 0.565038 0.943316
Si Si3 0.869110 0.563444 0.658968
Si Si4 0.607002 0.934971 0.628576
Si Si5 0.470739 0.435449 0.863645
Si Si6 0.753204 0.934252 0.976275
Si Si7 0.729974 0.936066 0.329266
Si Si8 0.766579 0.434868 0.704970
O O1 0.088492 0.750000 0.944475
O O2 0.978662 0.511113 0.811758
O O3 0.147748 0.500476 0.937573
O O4 0.150085 0.518298 0.116264
O O5 0.325255 0.750000 0.942751
O O6 0.288041 0.511067 0.792600
O O7 0.442048 0.514308 0.090959
O O8 0.272519 0.494856 0.956248
O O9 0.866629 0.750000 0.662238
O O10 0.826324 0.521009 0.505173
O O11 0.801051 0.496772 0.651337
O O12 0.603667 0.750000 0.620265
O O13 0.669969 0.981664 0.797918
O O14 0.500000 0.000000 0.500000
O O15 0.667337 0.996927 0.618127
O O16 0.473876 0.250000 0.868766
O O17 0.359286 0.479223 0.716250
O O18 0.500000 0.500000 0.000000
O O19 0.757424 0.750000 0.981836
O O20 0.727733 0.750000 0.314353
O O21 0.759979 0.250000 0.695719
#
# Coordination Sequence:
#
# PCOD9158922 Si02
#       8
#     4   4   4   4   4   4   4   4
#     4   9  19  36  55  76 103 135 174 219 265 314
#     4  10  19  32  52  76 103 138 177 214 255 308
#     4  10  20  34  54  79 106 137 173 218 270 316
#     4  10  21  37  56  80 111 142 174 215 260 308
#     4   8  15  28  46  68  94 126 161 197 241 292
#     4  10  21  36  55  78 103 136 177 217 259 310
#     4   9  18  33  51  74 105 136 170 214 261 308
#     4  10  20  34  54  79 107 140 176 214 259 314
#
# _framework density 18.203704999999999
#
# number of rings (size 3 to 8) (size 9 to 14) (size 15 to 20)
#    0.000    2.500    0.000    1.875    0.000    4.500 
#    0.000    1.875    0.000    0.000    0.000    0.000 
#    0.000    0.000    0.000    0.000    0.000    0.000 
#
# Total GULP energy -178412.471423 kJ/mol
# GULP energy per Si atom -5575.389732 kJ/mol
# Density = 1.816227 g / cm^3
# Si number density = 18.203705 Si / 1000 Ang^3
#
#
#
# Elastic Constant Matrix: (Units=GPa)
#
#
# Indices 1 2 3 4 5 6 
#
# 1 125.4057 21.3939 46.7896 0.0000 6.0244 0.0000
# 2 21.3939 14.4867 20.5576 0.0000 4.5939 0.0000
# 3 46.7896 20.5576 79.0628 0.0000 20.0638 0.0000
# 4 0.0000 0.0000 0.0000 19.0264 0.0000 0.9821
# 5 6.0244 4.5939 20.0638 0.0000 23.7474 0.0000
# 6 0.0000 0.0000 0.0000 0.9821 0.0000 28.4348
#
#
#
# Elastic Compliance Matrix: (Units=1/GPa)
#
#
# Indices 1 2 3 4 5 6 
#
# 1 0.011503 -0.011392 -0.004664 0.000000 0.003226 0.000000
# 2 -0.011392 0.120924 -0.024819 0.000000 0.000467 0.000000
# 3 -0.004664 -0.024819 0.025895 0.000000 -0.015894 0.000000
# 4 0.000000 0.000000 0.000000 0.052652 0.000000 -0.001818
# 5 0.003226 0.000467 -0.015894 0.000000 0.054630 0.000000
# 6 0.000000 0.000000 0.000000 -0.001818 0.000000 0.035231
#
#
# Mechanical properties :
#
#
# Convention : Reuss Voigt Hill
#
# Bulk Modulus (GPa) = 13.05955 44.04862 28.55409
# Shear Modulus (GPa) = 12.25165 22.92265 17.58715
#
# Velocity S-wave (km/s) = 2.59710 3.55241 3.11164
# Velocity P-wave (km/s) = 4.02280 6.40908 5.35067
#
# Compressibility (1/GPa) = 0.07657232
#
# Stress axis : x y z
#
# Youngs Moduli (GPa) = 86.93599 8.26967 38.61727
#
# Poissons Ratio (x) = 0.09421 0.18011
# Poissons Ratio (y) = 0.99035 0.95844
# Poissons Ratio (z) = 0.40547 0.20524
#
# Static dielectric constant tensor:
#      x y z
#    x 1.604170 0.000000 0.018370 
#    y 0.000000 1.607570 0.000000 
#    z 0.018370 0.000000 1.643650 
# 
# From -- ./inp_files/54323.got.cif
#   From: 2010.05.17/outbox.cif.g08.bks.cpg/sg11_28_cif.got.tgz:54323.got - 2010.06.03 12:22:45.
