data_PCOD9158181
_publ_section_title
;
Structure prediction by ZEFSAII (Michael W. Deem and Ramdas Pophale) SiO2 
 PCOD9158181
Probable space group: P 21/M
;
_chemical_formula_sum "Si O2"
_cell_formula_units_Z 28
_cell_length_a 12.954056
_cell_length_b 8.583815
_cell_length_c 15.471344
_cell_angle_alpha 90.000000
_cell_angle_beta 74.740358
_cell_angle_gamma 90.000000
_cell_volume 1659.685572
_symmetry_space_group_name_H-M "P 21/M"
_symmetry_group_IT_number 11
_symmetry_cell_setting 'monoclinic'
loop_
_space_group_symop_operation_xyz
x,y,z
-x,1/2+y,-z
-x,-y,-z
x,1/2-y,z
loop_
_atom_site_type_symbol
_atom_site_label
_atom_site_fract_x
_atom_site_fract_y
_atom_site_fract_z
Si Si1 0.366242 0.060477 0.891056
Si Si2 0.014965 0.937054 0.093720
Si Si3 0.206524 0.437858 0.772800
Si Si4 0.346357 0.563848 0.595750
Si Si5 0.606999 0.438502 0.792461
Si Si6 0.754864 0.936728 0.908390
Si Si7 0.574767 0.438129 0.605258
O O1 0.366158 0.250000 0.890077
O O2 0.290082 0.009969 0.828936
O O3 0.488501 0.011174 0.850193
O O4 0.315267 0.010310 0.993032
O O5 0.015900 0.750000 0.090232
O O6 0.912047 0.986517 0.172698
O O7 0.126275 0.997464 0.106967
O O8 0.000000 0.000000 0.000000
O O9 0.209462 0.250000 0.770596
O O10 0.248249 0.499096 0.672347
O O11 0.345196 0.750000 0.599116
O O12 0.455974 0.503527 0.615474
O O13 0.354794 0.515073 0.493297
O O14 0.611374 0.250000 0.795982
O O15 0.696055 0.507445 0.835245
O O16 0.617061 0.485105 0.689801
O O17 0.759609 0.750000 0.909614
O O18 0.566106 0.250000 0.607096
#
# Coordination Sequence:
#
# PCOD9158181 Si02
#       7
#     4   4   4   4   4   4   4
#     4   9  17  32  52  74 104 142 173 203 255 315
#     4  11  22  37  57  78 103 139 181 219 261 310
#     4  10  19  35  55  75 105 142 173 210 264 318
#     4  10  19  30  50  82 108 133 174 220 263 309
#     4  10  19  34  54  74 103 145 180 206 253 318
#     4  11  22  36  52  76 109 140 177 221 260 305
#     4   9  18  33  52  74 108 144 172 211 264 318
#
# _framework density 16.870664999999999
#
# number of rings (size 3 to 8) (size 9 to 14) (size 15 to 20)
#    0.000    2.000    2.857    1.714    0.000    2.286 
#    0.000    0.714    0.000    0.857    0.000    0.000 
#    0.000    0.000    0.000    0.000    0.000    0.000 
#
# Total GULP energy -156264.341004 kJ/mol
# GULP energy per Si atom -5580.869322 kJ/mol
# Density = 1.683227 g / cm^3
# Si number density = 16.870665 Si / 1000 Ang^3
#
#
#
# Elastic Constant Matrix: (Units=GPa)
#
#
# Indices 1 2 3 4 5 6 
#
# 1 143.3628 30.4267 92.9106 0.0000 0.1721 0.0000
# 2 30.4267 20.9939 35.4316 0.0000 -1.0666 0.0000
# 3 92.9106 35.4316 167.7755 0.0000 -10.8879 0.0000
# 4 0.0000 0.0000 0.0000 24.6275 0.0000 -1.2138
# 5 0.1721 -1.0666 -10.8879 0.0000 23.0396 0.0000
# 6 0.0000 0.0000 0.0000 -1.2138 0.0000 24.0909
#
#
#
# Elastic Compliance Matrix: (Units=1/GPa)
#
#
# Indices 1 2 3 4 5 6 
#
# 1 0.012188 -0.009486 -0.004932 0.000000 -0.002861 0.000000
# 2 -0.009486 0.081770 -0.012137 0.000000 -0.001879 0.000000
# 3 -0.004932 -0.012137 0.011576 0.000000 0.004945 0.000000
# 4 0.000000 0.000000 0.000000 0.040706 0.000000 0.002051
# 5 -0.002861 -0.001879 0.004945 0.000000 0.045675 0.000000
# 6 0.000000 0.000000 0.000000 0.002051 0.000000 0.041613
#
#
# Mechanical properties :
#
#
# Convention : Reuss Voigt Hill
#
# Bulk Modulus (GPa) = 19.07552 72.18555 45.63053
# Shear Modulus (GPa) = 16.44121 25.90914 21.17517
#
# Velocity S-wave (km/s) = 3.12516 3.92312 3.54665
# Velocity P-wave (km/s) = 4.93494 7.96251 6.62402
#
# Compressibility (1/GPa) = 0.05242322
#
# Stress axis : x y z
#
# Youngs Moduli (GPa) = 82.04517 12.22938 86.38789
#
# Poissons Ratio (x) = 0.11601 0.42606
# Poissons Ratio (y) = 0.77831 1.04851
# Poissons Ratio (z) = 0.40464 0.14843
#
# Static dielectric constant tensor:
#      x y z
#    x 1.534940 0.000000 -0.007490 
#    y 0.000000 1.578520 0.000000 
#    z -0.007490 0.000000 1.583540 
# 
# From -- ./inp_files/37460.got.cif
#   From: 2010.05.17/outbox.cif.g08.bks.cpg/sg11_19_cif.got.tgz:37460.got - 2010.06.03 12:22:45.
