data_PCOD9158535
_publ_section_title
;
Structure prediction by ZEFSAII (Michael W. Deem and Ramdas Pophale) SiO2 
 PCOD9158535
Probable space group: P 21/M
;
_chemical_formula_sum "Si O2"
_cell_formula_units_Z 28
_cell_length_a 13.216936
_cell_length_b 14.471710
_cell_length_c 8.679650
_cell_angle_alpha 90.000000
_cell_angle_beta 127.319906
_cell_angle_gamma 90.000000
_cell_volume 1320.272484
_symmetry_space_group_name_H-M "P 21/M"
_symmetry_group_IT_number 11
_symmetry_cell_setting 'monoclinic'
loop_
_space_group_symop_operation_xyz
x,y,z
-x,1/2+y,-z
-x,-y,-z
x,1/2-y,z
loop_
_atom_site_type_symbol
_atom_site_label
_atom_site_fract_x
_atom_site_fract_y
_atom_site_fract_z
Si Si1 0.659265 0.527801 0.739450
Si Si2 0.688598 0.347215 0.272214
Si Si3 0.770077 0.644219 0.392111
Si Si4 0.513922 0.075113 0.878977
Si Si5 0.580614 0.356135 0.502827
Si Si6 0.913045 0.477243 0.565598
Si Si7 0.136207 0.140435 0.879831
O O1 0.582301 0.475975 0.803833
O O2 0.676580 0.439331 0.642143
O O3 0.559100 0.604526 0.585569
O O4 0.776662 0.581784 0.922382
O O5 0.759867 0.250000 0.348078
O O6 0.593851 0.351166 0.330144
O O7 0.788975 0.427175 0.385107
O O8 0.610711 0.352976 0.043984
O O9 0.791939 0.750000 0.453478
O O10 0.623367 0.617231 0.280308
O O11 0.859799 0.575553 0.572682
O O12 0.803162 0.634344 0.238534
O O13 0.500000 0.000000 0.000000
O O14 0.601486 0.250000 0.578720
O O15 0.000000 0.500000 0.500000
O O16 0.998267 0.409269 0.746614
O O17 0.129976 0.250000 0.910435
#
# Coordination Sequence:
#
# PCOD9158535 Si02
#       7
#     4   4   4   4   4   4   4
#     4  11  21  36  57  83 115 148 185 239 284 332
#     4  11  21  36  58  83 113 152 191 230 281 344
#     4  10  19  31  50  78 115 149 178 224 285 341
#     4  12  18  33  57  88 113 141 184 234 288 331
#     4  10  22  38  56  80 113 152 189 229 286 347
#     4  10  19  34  53  80 111 142 187 235 276 325
#     4  10  19  33  54  79 106 144 189 228 273 333
#
# _framework density 21.207743000000001
#
# number of rings (size 3 to 8) (size 9 to 14) (size 15 to 20)
#    0.000    1.429    4.286    2.143    0.000    4.000 
#    0.000    1.429    0.000    0.857    0.000    0.000 
#    0.000    0.000    0.000    0.000    0.000    0.000 
#
# Total GULP energy -156207.633779 kJ/mol
# GULP energy per Si atom -5578.844064 kJ/mol
# Density = 2.115947 g / cm^3
# Si number density = 21.207743 Si / 1000 Ang^3
#
#
#
# Elastic Constant Matrix: (Units=GPa)
#
#
# Indices 1 2 3 4 5 6 
#
# 1 38.2218 28.6966 24.8038 0.0000 15.7561 0.0000
# 2 28.6966 194.5835 61.7389 0.0000 27.3251 0.0000
# 3 24.8038 61.7389 84.7141 0.0000 25.6596 0.0000
# 4 0.0000 0.0000 0.0000 29.5065 0.0000 2.7951
# 5 15.7561 27.3251 25.6596 0.0000 36.1624 0.0000
# 6 0.0000 0.0000 0.0000 2.7951 0.0000 22.5939
#
#
#
# Elastic Compliance Matrix: (Units=1/GPa)
#
#
# Indices 1 2 3 4 5 6 
#
# 1 0.035565 -0.001964 -0.006035 0.000000 -0.009730 0.000000
# 2 -0.001964 0.006913 -0.003999 0.000000 -0.001530 0.000000
# 3 -0.006035 -0.003999 0.018819 0.000000 -0.007702 0.000000
# 4 0.000000 0.000000 0.000000 0.034293 0.000000 -0.004242
# 5 -0.009730 -0.001530 -0.007702 0.000000 0.038513 0.000000
# 6 0.000000 0.000000 0.000000 -0.004242 0.000000 0.044785
#
#
# Mechanical properties :
#
#
# Convention : Reuss Voigt Hill
#
# Bulk Modulus (GPa) = 26.80971 60.88868 43.84919
# Shear Modulus (GPa) = 23.22168 31.13792 27.17980
#
# Velocity S-wave (km/s) = 3.31261 3.83591 3.58382
# Velocity P-wave (km/s) = 5.22495 6.95643 6.15191
#
# Compressibility (1/GPa) = 0.03729991
#
# Stress axis : x y z
#
# Youngs Moduli (GPa) = 28.11788 144.66296 53.13784
#
# Poissons Ratio (x) = 0.28410 0.32067
# Poissons Ratio (y) = 0.05522 0.21252
# Poissons Ratio (z) = 0.16968 0.57858
#
# Static dielectric constant tensor:
#      x y z
#    x 1.748510 0.000000 -0.014320 
#    y 0.000000 1.917300 0.000000 
#    z -0.014320 0.000000 1.786650 
# 
# From -- ./inp_files/22258.got.cif
#   From: 2010.05.17/outbox.cif.g08.bks.cpg/sg11_12_cif.got.tgz:22258.got - 2010.06.03 12:22:45.
