data_PCOD9158889
_publ_section_title
;
Structure prediction by ZEFSAII (Michael W. Deem and Ramdas Pophale) SiO2 
 PCOD9158889
Probable space group: P 21/M
;
_chemical_formula_sum "Si O2"
_cell_formula_units_Z 32
_cell_length_a 5.000869
_cell_length_b 19.354776
_cell_length_c 15.563732
_cell_angle_alpha 90.000000
_cell_angle_beta 110.069012
_cell_angle_gamma 90.000000
_cell_volume 1414.954379
_symmetry_space_group_name_H-M "P 21/M"
_symmetry_group_IT_number 11
_symmetry_cell_setting 'monoclinic'
loop_
_space_group_symop_operation_xyz
x,y,z
-x,1/2+y,-z
-x,-y,-z
x,1/2-y,z
loop_
_atom_site_type_symbol
_atom_site_label
_atom_site_fract_x
_atom_site_fract_y
_atom_site_fract_z
Si Si1 0.336809 0.166469 0.541609
Si Si2 0.798439 0.380240 0.999524
Si Si3 0.008991 0.924416 0.816047
Si Si4 0.194993 0.172630 0.906135
Si Si5 0.973002 0.981799 0.641453
Si Si6 0.760917 0.391577 0.730794
Si Si7 0.562490 0.488572 0.861076
Si Si8 0.751266 0.422391 0.476768
O O1 0.308191 0.250000 0.529221
O O2 0.537879 0.149253 0.646397
O O3 0.501586 0.127847 0.481524
O O4 0.034717 0.126441 0.515947
O O5 0.531901 0.336213 0.935715
O O6 0.694174 0.456725 0.961401
O O7 0.077594 0.370382 0.973297
O O8 0.850127 0.367907 0.106003
O O9 0.926235 0.921391 0.706937
O O10 0.248056 0.984584 0.841523
O O11 0.743061 0.949053 0.842337
O O12 0.124815 0.250000 0.920237
O O13 0.009366 0.152202 0.803073
O O14 0.251125 0.955072 0.619730
O O15 0.920163 0.051177 0.690785
O O16 0.786799 0.009612 0.540737
O O17 0.595789 0.431138 0.789460
#
# Coordination Sequence:
#
# PCOD9158889 Si02
#       8
#     4   4   4   4   4   4   4   4
#     4  11  22  38  59  83 113 150 193 229 270 339
#     4  11  21  35  54  78 108 147 185 220 269 321
#     4  11  20  33  55  81 110 143 179 221 270 333
#     4  11  23  39  56  78 113 152 192 234 278 332
#     4   9  20  37  59  87 118 144 183 236 295 349
#     4   9  20  36  58  87 114 146 182 229 289 346
#     4  10  19  32  51  82 116 139 169 216 276 335
#     4  10  22  38  59  85 116 151 182 233 297 340
#
# _framework density 22.615570000000002
#
# number of rings (size 3 to 8) (size 9 to 14) (size 15 to 20)
#    0.000    1.750    0.000    5.625    0.000    9.500 
#    0.000    6.250    0.000    4.500    0.000    0.000 
#    0.000    0.000    0.000    0.000    0.000    0.000 
#
# Total GULP energy -178360.187008 kJ/mol
# GULP energy per Si atom -5573.755844 kJ/mol
# Density = 2.256410 g / cm^3
# Si number density = 22.615570 Si / 1000 Ang^3
#
#
#
# Elastic Constant Matrix: (Units=GPa)
#
#
# Indices 1 2 3 4 5 6 
#
# 1 73.5308 15.6028 44.8751 0.0000 8.6868 0.0000
# 2 15.6028 71.6518 26.5152 0.0000 4.1618 0.0000
# 3 44.8751 26.5152 106.6451 0.0000 -11.7658 0.0000
# 4 0.0000 0.0000 0.0000 15.3137 0.0000 1.4193
# 5 8.6868 4.1618 -11.7658 0.0000 30.5043 0.0000
# 6 0.0000 0.0000 0.0000 1.4193 0.0000 23.9908
#
#
#
# Elastic Compliance Matrix: (Units=1/GPa)
#
#
# Indices 1 2 3 4 5 6 
#
# 1 0.020721 -0.000372 -0.009684 0.000000 -0.009586 0.000000
# 2 -0.000372 0.015795 -0.004174 0.000000 -0.003659 0.000000
# 3 -0.009684 -0.004174 0.015517 0.000000 0.009313 0.000000
# 4 0.000000 0.000000 0.000000 0.065661 0.000000 -0.003885
# 5 -0.009586 -0.003659 0.009313 0.000000 0.039603 0.000000
# 6 0.000000 0.000000 0.000000 -0.003885 0.000000 0.041912
#
#
# Mechanical properties :
#
#
# Convention : Reuss Voigt Hill
#
# Bulk Modulus (GPa) = 42.42262 47.31266 44.86764
# Shear Modulus (GPa) = 21.22891 24.95075 23.08983
#
# Velocity S-wave (km/s) = 3.06712 3.32513 3.19873
# Velocity P-wave (km/s) = 5.59838 5.97560 5.79006
#
# Compressibility (1/GPa) = 0.02357233
#
# Stress axis : x y z
#
# Youngs Moduli (GPa) = 48.25947 63.31281 64.44431
#
# Poissons Ratio (x) = 0.02353 0.62411
# Poissons Ratio (y) = 0.01794 0.26901
# Poissons Ratio (z) = 0.46737 0.26429
#
# Static dielectric constant tensor:
#      x y z
#    x 1.905430 0.000000 0.029900 
#    y 0.000000 1.843740 0.000000 
#    z 0.029900 0.000000 1.982220 
# 
# From -- ./inp_files/46224.got.cif
#   From: 2010.05.17/outbox.cif.g08.bks.cpg/sg11_24_cif.got.tgz:46224.got - 2010.06.03 12:22:45.
