data_PCOD9158791
_publ_section_title
;
Structure prediction by ZEFSAII (Michael W. Deem and Ramdas Pophale) SiO2 
 PCOD9158791
Probable space group: P 21/M
;
_chemical_formula_sum "Si O2"
_cell_formula_units_Z 32
_cell_length_a 24.104913
_cell_length_b 9.542867
_cell_length_c 15.107783
_cell_angle_alpha 90.000000
_cell_angle_beta 25.151867
_cell_angle_gamma 90.000000
_cell_volume 1477.044358
_symmetry_space_group_name_H-M "P 21/M"
_symmetry_group_IT_number 11
_symmetry_cell_setting 'monoclinic'
loop_
_space_group_symop_operation_xyz
x,y,z
-x,1/2+y,-z
-x,-y,-z
x,1/2-y,z
loop_
_atom_site_type_symbol
_atom_site_label
_atom_site_fract_x
_atom_site_fract_y
_atom_site_fract_z
Si Si1 0.970739 0.584507 0.131840
Si Si2 0.490990 0.586986 0.300787
Si Si3 0.198658 0.084045 0.147344
Si Si4 0.403602 0.091141 0.580246
Si Si5 0.113687 0.089517 0.076111
Si Si6 0.508759 0.595058 0.861383
Si Si7 0.227111 0.408495 0.441636
Si Si8 0.803503 0.091802 0.674926
O O1 0.996710 0.750000 0.081460
O O2 0.824724 0.569891 0.383483
O O3 0.000000 0.500000 0.000000
O O4 0.051349 0.518294 0.097032
O O5 0.465154 0.750000 0.353228
O O6 0.402862 0.488982 0.488747
O O7 0.469301 0.537419 0.232652
O O8 0.645806 0.560790 0.094912
O O9 0.184463 0.250000 0.185921
O O10 0.162405 0.994540 0.286042
O O11 0.120648 0.050691 0.170128
O O12 0.451919 0.250000 0.500165
O O13 0.264324 0.096188 0.827582
O O14 0.500000 0.000000 0.500000
O O15 0.061856 0.250000 0.141377
O O16 0.536361 0.750000 0.779677
O O17 0.615765 0.584648 0.783837
O O18 0.354904 0.597813 0.100943
O O19 0.189818 0.250000 0.469873
O O20 0.164294 0.514586 0.463020
O O21 0.853556 0.250000 0.607963
#
# Coordination Sequence:
#
# PCOD9158791 Si02
#       8
#     4   4   4   4   4   4   4   4
#     4  11  26  46  66  89 117 156 207 256 301 352
#     4  10  19  32  50  82 120 156 196 235 290 358
#     4   9  18  36  58  83 120 159 190 230 294 362
#     4  11  21  34  54  83 119 155 196 243 299 361
#     4  10  22  41  62  84 117 159 201 249 303 355
#     4   9  19  35  56  86 122 159 195 238 298 357
#     4  10  22  41  62  83 117 162 202 245 303 360
#     4  10  20  34  59  95 126 152 193 244 295 358
#
# _framework density 21.664888000000001
#
# number of rings (size 3 to 8) (size 9 to 14) (size 15 to 20)
#    0.000    2.000    1.250    1.875    1.750    4.000 
#    0.000    0.625    0.000    0.000    0.000    0.000 
#    0.000    0.000    0.000    0.000    0.000    0.000 
#
# Total GULP energy -178668.024208 kJ/mol
# GULP energy per Si atom -5583.375756 kJ/mol
# Density = 2.161558 g / cm^3
# Si number density = 21.664888 Si / 1000 Ang^3
#
#
#
# Elastic Constant Matrix: (Units=GPa)
#
#
# Indices 1 2 3 4 5 6 
#
# 1 110.5072 74.2420 29.7785 0.0000 17.6916 0.0000
# 2 74.2420 132.4092 40.7566 0.0000 22.2213 0.0000
# 3 29.7785 40.7566 61.6343 0.0000 12.3046 0.0000
# 4 0.0000 0.0000 0.0000 24.5705 0.0000 6.3812
# 5 17.6916 22.2213 12.3046 0.0000 41.7668 0.0000
# 6 0.0000 0.0000 0.0000 6.3812 0.0000 38.4389
#
#
#
# Elastic Compliance Matrix: (Units=1/GPa)
#
#
# Indices 1 2 3 4 5 6 
#
# 1 0.014843 -0.007442 -0.001897 0.000000 -0.001769 0.000000
# 2 -0.007442 0.013690 -0.004922 0.000000 -0.002681 0.000000
# 3 -0.001897 -0.004922 0.020945 0.000000 -0.002748 0.000000
# 4 0.000000 0.000000 0.000000 0.042533 0.000000 -0.007061
# 5 -0.001769 -0.002681 -0.002748 0.000000 0.026928 0.000000
# 6 0.000000 0.000000 0.000000 -0.007061 0.000000 0.027187
#
#
# Mechanical properties :
#
#
# Convention : Reuss Voigt Hill
#
# Bulk Modulus (GPa) = 47.71918 66.01166 56.86542
# Shear Modulus (GPa) = 27.52794 31.60682 29.56738
#
# Velocity S-wave (km/s) = 3.56845 3.82369 3.69827
# Velocity P-wave (km/s) = 6.24918 7.07317 6.67391
#
# Compressibility (1/GPa) = 0.02095593
#
# Stress axis : x y z
#
# Youngs Moduli (GPa) = 67.37070 73.04648 47.74464
#
# Poissons Ratio (x) = 0.54359 0.09059
# Poissons Ratio (y) = 0.50135 0.23500
# Poissons Ratio (z) = 0.12783 0.35953
#
# Static dielectric constant tensor:
#      x y z
#    x 1.786230 0.000000 -0.001430 
#    y 0.000000 1.758660 0.000000 
#    z -0.001430 0.000000 1.858340 
# 
# From -- ./inp_files/55541.got.cif
#   From: 2010.05.17/outbox.cif.g08.bks.cpg/sg11_28_cif.got.tgz:55541.got - 2010.06.03 12:22:45.
