data_PCOD9158353
_publ_section_title
;
Structure prediction by ZEFSAII (Michael W. Deem and Ramdas Pophale) SiO2 
 PCOD9158353
Probable space group: P 21/M
;
_chemical_formula_sum "Si O2"
_cell_formula_units_Z 32
_cell_length_a 17.239846
_cell_length_b 8.475594
_cell_length_c 17.358224
_cell_angle_alpha 90.000000
_cell_angle_beta 128.888623
_cell_angle_gamma 90.000000
_cell_volume 1974.211562
_symmetry_space_group_name_H-M "P 21/M"
_symmetry_group_IT_number 11
_symmetry_cell_setting 'monoclinic'
loop_
_space_group_symop_operation_xyz
x,y,z
-x,1/2+y,-z
-x,-y,-z
x,1/2-y,z
loop_
_atom_site_type_symbol
_atom_site_label
_atom_site_fract_x
_atom_site_fract_y
_atom_site_fract_z
Si Si1 0.521018 0.441767 0.600185
Si Si2 0.180230 0.435734 0.313025
Si Si3 0.909702 0.562599 0.997472
Si Si4 0.033997 0.438459 0.795591
Si Si5 0.851712 0.558858 0.448398
Si Si6 0.317537 0.059023 0.542812
Si Si7 0.935564 0.438485 0.345064
Si Si8 0.261902 0.934829 0.210459
O O1 0.500000 0.500000 0.500000
O O2 0.522249 0.250000 0.597874
O O3 0.430558 0.493517 0.599512
O O4 0.627532 0.495893 0.699867
O O5 0.190562 0.250000 0.301474
O O6 0.259089 0.478619 0.427704
O O7 0.199193 0.536231 0.249023
O O8 0.070934 0.471677 0.275412
O O9 0.917470 0.750000 0.999780
O O10 0.803428 0.512923 0.896741
O O11 0.921244 0.512906 0.093799
O O12 0.000000 0.500000 0.000000
O O13 0.018534 0.250000 0.787136
O O14 0.090846 0.484908 0.753180
O O15 0.851147 0.750000 0.444975
O O16 0.752275 0.503767 0.430727
O O17 0.865792 0.492183 0.371809
O O18 0.951717 0.513153 0.558384
O O19 0.319571 0.250000 0.549780
O O20 0.934413 0.250000 0.337335
O O21 0.269662 0.750000 0.198868
#
# Coordination Sequence:
#
# PCOD9158353 Si02
#       8
#     4   4   4   4   4   4   4   4
#     4  10  20  33  50  73 100 133 172 211 247 293
#     4  11  19  30  50  71  98 136 172 205 245 291
#     4  11  23  36  52  72  98 132 171 210 251 297
#     4  11  22  34  49  72  99 130 169 209 248 295
#     4   9  17  31  48  69  98 132 165 199 241 294
#     4   9  17  31  49  71  98 133 172 203 243 293
#     4  10  19  31  48  73 100 130 163 198 246 300
#     4  11  22  34  48  72 103 134 171 211 252 295
#
# _framework density 16.209002000000002
#
# number of rings (size 3 to 8) (size 9 to 14) (size 15 to 20)
#    0.000    1.750    3.750    1.875    0.000    2.500 
#    0.000    0.625    0.000    0.000    0.000    0.875 
#    0.000    0.000    0.000    0.000    0.000    0.000 
#
# Total GULP energy -178480.999327 kJ/mol
# GULP energy per Si atom -5577.531229 kJ/mol
# Density = 1.617211 g / cm^3
# Si number density = 16.209002 Si / 1000 Ang^3
#
#
#
# Elastic Constant Matrix: (Units=GPa)
#
#
# Indices 1 2 3 4 5 6 
#
# 1 83.7910 5.6355 38.9602 0.0000 -14.9628 0.0000
# 2 5.6355 20.3769 18.2767 0.0000 -3.9729 0.0000
# 3 38.9602 18.2767 95.0159 0.0000 -10.6120 0.0000
# 4 0.0000 0.0000 0.0000 20.8430 0.0000 -2.2720
# 5 -14.9628 -3.9729 -10.6120 0.0000 26.6022 0.0000
# 6 0.0000 0.0000 0.0000 -2.2720 0.0000 17.6843
#
#
#
# Elastic Compliance Matrix: (Units=1/GPa)
#
#
# Indices 1 2 3 4 5 6 
#
# 1 0.015883 0.002533 -0.006238 0.000000 0.006824 0.000000
# 2 0.002533 0.060232 -0.011995 0.000000 0.005635 0.000000
# 3 -0.006238 -0.011995 0.015488 0.000000 0.000878 0.000000
# 4 0.000000 0.000000 0.000000 0.048659 0.000000 0.006252
# 5 0.006824 0.005635 0.000878 0.000000 0.042621 0.000000
# 6 0.000000 0.000000 0.000000 0.006252 0.000000 0.057350
#
#
# Mechanical properties :
#
#
# Convention : Reuss Voigt Hill
#
# Bulk Modulus (GPa) = 16.61063 36.10317 26.35690
# Shear Modulus (GPa) = 17.14085 22.11333 19.62709
#
# Velocity S-wave (km/s) = 3.25543 3.69760 3.48354
# Velocity P-wave (km/s) = 4.93969 6.36801 5.69877
#
# Compressibility (1/GPa) = 0.06020240
#
# Stress axis : x y z
#
# Youngs Moduli (GPa) = 62.96066 16.60244 64.56767
#
# Poissons Ratio (x) = -0.04205 0.40275
# Poissons Ratio (y) = -0.15945 0.77449
# Poissons Ratio (z) = 0.39273 0.19915
#
# Static dielectric constant tensor:
#      x y z
#    x 1.553750 0.000000 0.001600 
#    y 0.000000 1.566030 0.000000 
#    z 0.001600 0.000000 1.543440 
# 
# From -- ./inp_files/60700.got.cif
#   From: 2010.05.17/outbox.cif.g08.bks.cpg/sg11_31_cif.got.tgz:60700.got - 2010.06.03 12:22:45.
