data_PCOD9158157
_publ_section_title
;
Structure prediction by ZEFSAII (Michael W. Deem and Ramdas Pophale) SiO2 
 PCOD9158157
Probable space group: P 21/M
;
_chemical_formula_sum "Si O2"
_cell_formula_units_Z 28
_cell_length_a 15.578975
_cell_length_b 7.957963
_cell_length_c 17.431086
_cell_angle_alpha 90.000000
_cell_angle_beta 135.043388
_cell_angle_gamma 90.000000
_cell_volume 1526.937001
_symmetry_space_group_name_H-M "P 21/M"
_symmetry_group_IT_number 11
_symmetry_cell_setting 'monoclinic'
loop_
_space_group_symop_operation_xyz
x,y,z
-x,1/2+y,-z
-x,-y,-z
x,1/2-y,z
loop_
_atom_site_type_symbol
_atom_site_label
_atom_site_fract_x
_atom_site_fract_y
_atom_site_fract_z
Si Si1 0.237497 0.044703 0.630805
Si Si2 0.618388 0.048571 0.025806
Si Si3 0.435409 0.552852 0.337749
Si Si4 0.121416 0.053367 0.397722
Si Si5 0.519817 0.044155 0.801402
Si Si6 0.141776 0.052086 0.733338
Si Si7 0.329103 0.947665 0.426403
O O1 0.235490 0.250000 0.630786
O O2 0.172603 0.988065 0.511809
O O3 0.378665 0.993573 0.720593
O O4 0.170715 0.986497 0.665815
O O5 0.628951 0.250000 0.032830
O O6 0.738254 0.975226 0.140393
O O7 0.594307 0.991697 0.923315
O O8 0.500000 0.000000 0.000000
O O9 0.406663 0.750000 0.312759
O O10 0.429916 0.482080 0.248517
O O11 0.573599 0.533673 0.455470
O O12 0.353402 0.485188 0.355773
O O13 0.150501 0.250000 0.412614
O O14 0.195768 0.970718 0.375791
O O15 0.977692 0.029453 0.306720
O O16 0.519487 0.250000 0.799976
O O17 0.117547 0.250000 0.712080
O O18 0.359738 0.750000 0.445572
#
# Coordination Sequence:
#
# PCOD9158157 Si02
#       7
#     4   4   4   4   4   4   4
#     4   9  17  31  52  76 104 139 172 206 252 304
#     4  11  21  35  55  77 103 137 178 216 255 300
#     4   9  17  32  53  75 103 138 172 208 255 307
#     4  11  21  35  54  75 104 142 177 208 253 313
#     4   9  16  31  54  77 102 136 173 210 252 302
#     4  11  22  37  53  74 106 139 176 218 257 301
#     4  10  19  30  49  79 108 134 167 211 260 306
#
# _framework density 18.337364000000001
#
# number of rings (size 3 to 8) (size 9 to 14) (size 15 to 20)
#    0.000    2.000    2.857    2.143    0.000    0.571 
#    0.000    5.000    0.000    0.857    0.000    0.000 
#    0.000    0.000    0.000    0.000    0.000    0.000 
#
# Total GULP energy -156271.036598 kJ/mol
# GULP energy per Si atom -5581.108450 kJ/mol
# Density = 1.829563 g / cm^3
# Si number density = 18.337364 Si / 1000 Ang^3
#
#
#
# Elastic Constant Matrix: (Units=GPa)
#
#
# Indices 1 2 3 4 5 6 
#
# 1 145.2107 -2.2895 49.2508 0.0000 -12.0789 0.0000
# 2 -2.2895 19.7174 -8.2007 0.0000 -3.7568 0.0000
# 3 49.2508 -8.2007 58.5105 0.0000 -1.8774 0.0000
# 4 0.0000 0.0000 0.0000 18.8085 0.0000 4.8776
# 5 -12.0789 -3.7568 -1.8774 0.0000 32.5922 0.0000
# 6 0.0000 0.0000 0.0000 4.8776 0.0000 15.6877
#
#
#
# Elastic Compliance Matrix: (Units=1/GPa)
#
#
# Indices 1 2 3 4 5 6 
#
# 1 0.010024 -0.001839 -0.008599 0.000000 0.003008 0.000000
# 2 -0.001839 0.055674 0.009553 0.000000 0.006286 0.000000
# 3 -0.008599 0.009553 0.025649 0.000000 -0.000608 0.000000
# 4 0.000000 0.000000 0.000000 0.057830 0.000000 -0.017981
# 5 0.003008 0.006286 -0.000608 0.000000 0.032486 0.000000
# 6 0.000000 0.000000 0.000000 -0.017981 0.000000 0.069335
#
#
# Mechanical properties :
#
#
# Convention : Reuss Voigt Hill
#
# Bulk Modulus (GPa) = 11.16369 33.43998 22.30183
# Shear Modulus (GPa) = 17.69107 25.72953 21.71030
#
# Velocity S-wave (km/s) = 3.10942 3.74989 3.44457
# Velocity P-wave (km/s) = 4.35804 6.08477 5.29230
#
# Compressibility (1/GPa) = 0.08957614
#
# Stress axis : x y z
#
# Youngs Moduli (GPa) = 99.75755 17.96168 38.98830
#
# Poissons Ratio (x) = 0.03304 0.33527
# Poissons Ratio (y) = 0.18350 -0.37246
# Poissons Ratio (z) = 0.85784 -0.17159
#
# Static dielectric constant tensor:
#      x y z
#    x 1.652490 0.000000 -0.014840 
#    y 0.000000 1.667380 0.000000 
#    z -0.014840 0.000000 1.638750 
# 
# From -- ./inp_files/37478.got.cif
#   From: 2010.05.17/outbox.cif.g08.bks.cpg/sg11_19_cif.got.tgz:37478.got - 2010.06.03 12:22:45.
