data_PCOD9158111
_publ_section_title
;
Structure prediction by ZEFSAII (Michael W. Deem and Ramdas Pophale) SiO2 
 PCOD9158111
Probable space group: P 21/M
;
_chemical_formula_sum "Si O2"
_cell_formula_units_Z 28
_cell_length_a 12.351767
_cell_length_b 10.562773
_cell_length_c 9.581668
_cell_angle_alpha 90.000000
_cell_angle_beta 84.848150
_cell_angle_gamma 90.000000
_cell_volume 1245.059611
_symmetry_space_group_name_H-M "P 21/M"
_symmetry_group_IT_number 11
_symmetry_cell_setting 'monoclinic'
loop_
_space_group_symop_operation_xyz
x,y,z
-x,1/2+y,-z
-x,-y,-z
x,1/2-y,z
loop_
_atom_site_type_symbol
_atom_site_label
_atom_site_fract_x
_atom_site_fract_y
_atom_site_fract_z
Si Si1 0.061647 0.607157 0.080356
Si Si2 0.642271 0.900029 0.866193
Si Si3 0.803402 0.895055 0.625358
Si Si4 0.083039 0.401655 0.658793
Si Si5 0.580969 0.615603 0.473528
Si Si6 0.415876 0.476253 0.820207
Si Si7 0.788275 0.112094 0.179597
O O1 0.017348 0.750000 0.057185
O O2 0.033472 0.587184 0.247128
O O3 0.176455 0.608027 0.987425
O O4 0.000000 0.500000 0.000000
O O5 0.629978 0.750000 0.836224
O O6 0.754036 0.943623 0.777871
O O7 0.540203 0.980620 0.821052
O O8 0.631140 0.917302 0.032713
O O9 0.835546 0.750000 0.652650
O O10 0.893927 0.940076 0.504340
O O11 0.693309 0.899490 0.543269
O O12 0.111584 0.250000 0.662421
O O13 0.157294 0.496226 0.743001
O O14 0.500000 0.500000 0.500000
O O15 0.532101 0.750000 0.522791
O O16 0.601275 0.615466 0.306636
O O17 0.340143 0.596411 0.797479
O O18 0.823853 0.250000 0.230403
#
# Coordination Sequence:
#
# PCOD9158111 Si02
#       7
#     4   4   4   4   4   4   4
#     4   8  15  27  44  71 102 130 159 198 246 297
#     4  10  21  35  49  68  96 132 171 207 243 293
#     4   9  17  31  50  72  98 127 164 204 244 288
#     4   9  16  29  51  75 102 132 163 202 248 295
#     4  11  21  34  52  75 101 130 168 210 248 293
#     4  11  21  33  50  70 100 136 167 203 249 297
#     4  10  19  30  48  75 104 131 165 205 251 298
#
# _framework density 22.488885
#
# number of rings (size 3 to 8) (size 9 to 14) (size 15 to 20)
#    0.000    2.286    2.857    0.857    0.000    1.143 
#    0.000    0.000    0.000    0.857    0.000    0.000 
#    0.000    0.000    0.000    0.000    0.000    0.714 
#
# Total GULP energy -155892.451001 kJ/mol
# GULP energy per Si atom -5567.587536 kJ/mol
# Density = 2.243770 g / cm^3
# Si number density = 22.488885 Si / 1000 Ang^3
#
#
#
# Elastic Constant Matrix: (Units=GPa)
#
#
# Indices 1 2 3 4 5 6 
#
# 1 41.9063 29.2453 13.6370 0.0000 -32.0474 0.0000
# 2 29.2453 104.9429 44.6390 0.0000 -8.8551 0.0000
# 3 13.6370 44.6390 161.9560 0.0000 -29.3043 0.0000
# 4 0.0000 0.0000 0.0000 28.7267 0.0000 -12.5842
# 5 -32.0474 -8.8551 -29.3043 0.0000 42.7848 0.0000
# 6 0.0000 0.0000 0.0000 -12.5842 0.0000 14.5813
#
#
#
# Elastic Compliance Matrix: (Units=1/GPa)
#
#
# Indices 1 2 3 4 5 6 
#
# 1 0.093149 -0.025014 0.012258 0.000000 0.072991 0.000000
# 2 -0.025014 0.017513 -0.006227 0.000000 -0.019376 0.000000
# 3 0.012258 -0.006227 0.009459 0.000000 0.014372 0.000000
# 4 0.000000 0.000000 0.000000 0.055972 0.000000 0.048306
# 5 0.072991 -0.019376 0.014372 0.000000 0.083879 0.000000
# 6 0.000000 0.000000 0.000000 0.048306 0.000000 0.110271
#
#
# Mechanical properties :
#
#
# Convention : Reuss Voigt Hill
#
# Bulk Modulus (GPa) = 12.17193 53.76087 32.96640
# Shear Modulus (GPa) = 11.47859 31.97081 21.72470
#
# Velocity S-wave (km/s) = 2.26168 3.77454 3.11146
# Velocity P-wave (km/s) = 3.49920 6.55390 5.25348
#
# Compressibility (1/GPa) = 0.08215624
#
# Stress axis : x y z
#
# Youngs Moduli (GPa) = 10.73550 57.09890 105.71884
#
# Poissons Ratio (x) = 1.42825 -1.29590
# Poissons Ratio (y) = 0.26853 0.65830
# Poissons Ratio (z) = -0.13160 0.35555
#
# Static dielectric constant tensor:
#      x y z
#    x 1.818350 0.000000 -0.032000 
#    y 0.000000 1.847870 0.000000 
#    z -0.032000 0.000000 1.912240 
# 
# From -- ./inp_files/21137.got.cif
#   From: 2010.05.17/outbox.cif.g08.bks.cpg/sg11_11_cif.got.tgz:21137.got - 2010.06.03 12:22:45.
