data_PCOD9158518
_publ_section_title
;
Structure prediction by ZEFSAII (Michael W. Deem and Ramdas Pophale) SiO2 
 PCOD9158518
Probable space group: P 21/M
;
_chemical_formula_sum "Si O2"
_cell_formula_units_Z 28
_cell_length_a 15.014374
_cell_length_b 9.434567
_cell_length_c 12.757342
_cell_angle_alpha 90.000000
_cell_angle_beta 53.952135
_cell_angle_gamma 90.000000
_cell_volume 1461.111021
_symmetry_space_group_name_H-M "P 21/M"
_symmetry_group_IT_number 11
_symmetry_cell_setting 'monoclinic'
loop_
_space_group_symop_operation_xyz
x,y,z
-x,1/2+y,-z
-x,-y,-z
x,1/2-y,z
loop_
_atom_site_type_symbol
_atom_site_label
_atom_site_fract_x
_atom_site_fract_y
_atom_site_fract_z
Si Si1 0.838651 0.579940 0.752744
Si Si2 0.215878 0.413420 0.740863
Si Si3 0.408536 0.416714 1.000000
Si Si4 0.624950 0.584943 0.572638
Si Si5 0.956741 0.086580 0.259137
Si Si6 0.408605 0.079940 0.752744
Si Si7 0.197587 0.584943 0.427362
O O1 0.853728 0.750000 0.724645
O O2 0.713808 0.553390 0.873763
O O3 0.856256 0.493193 0.634095
O O4 0.923621 0.537351 0.785192
O O5 0.185595 0.250000 0.779061
O O6 0.299482 0.419709 0.583534
O O7 0.108403 0.500000 0.783195
O O8 0.291187 0.462648 0.785193
O O9 0.428618 0.250000 0.999999
O O10 0.500000 0.500000 0.000000
O O11 0.412429 0.446611 0.873763
O O12 0.609868 0.750000 0.611818
O O13 0.509649 0.506807 0.634095
O O14 0.692729 0.500000 0.614541
O O15 0.964656 0.250000 0.220939
O O16 0.883016 0.080291 0.416466
O O17 0.421628 0.250000 0.724645
O O18 0.221687 0.750000 0.388182
#
# Coordination Sequence:
#
# PCOD9158518 Si02
#       7
#     4   4   4   4   4   4   4
#     4  10  20  35  53  74 101 135 171 209 251 296
#     4   9  19  34  52  75 104 134 166 205 252 301
#     4  10  22  38  55  74 100 132 167 206 249 296
#     4  10  19  31  50  77 105 134 166 205 252 303
#     4   9  19  34  52  75 104 134 166 205 252 301
#     4  10  20  35  53  74 101 135 171 209 251 296
#     4  10  19  31  50  77 105 134 166 205 252 303
#
# _framework density 19.163499999999999
#
# number of rings (size 3 to 8) (size 9 to 14) (size 15 to 20)
#    0.000    2.286    0.000    2.571    0.000    5.714 
#    0.000    0.714    0.000    0.000    0.000    0.000 
#    0.000    0.000    0.000    0.000    0.000    0.000 
#
# Total GULP energy -156325.180988 kJ/mol
# GULP energy per Si atom -5583.042178 kJ/mol
# Density = 1.911988 g / cm^3
# Si number density = 19.163500 Si / 1000 Ang^3
#
#
#
# Elastic Constant Matrix: (Units=GPa)
#
#
# Indices 1 2 3 4 5 6 
#
# 1 199.5630 71.6507 21.4191 0.0000 11.8607 0.0000
# 2 71.6507 59.3423 17.7979 0.0000 3.9236 0.0000
# 3 21.4191 17.7979 13.2124 0.0000 1.7171 0.0000
# 4 0.0000 0.0000 0.0000 9.9770 0.0000 2.0612
# 5 11.8607 3.9236 1.7171 0.0000 8.4171 0.0000
# 6 0.0000 0.0000 0.0000 2.0612 0.0000 38.2670
#
#
#
# Elastic Compliance Matrix: (Units=1/GPa)
#
#
# Indices 1 2 3 4 5 6 
#
# 1 0.009364 -0.010957 0.000648 0.000000 -0.008219 0.000000
# 2 -0.010957 0.041351 -0.038460 0.000000 0.004010 0.000000
# 3 0.000648 -0.038460 0.127617 0.000000 -0.009018 0.000000
# 4 0.000000 0.000000 0.000000 0.101359 0.000000 -0.005459
# 5 -0.008219 0.004010 -0.009018 0.000000 0.130359 0.000000
# 6 0.000000 0.000000 0.000000 -0.005459 0.000000 0.026426
#
#
# Mechanical properties :
#
#
# Convention : Reuss Voigt Hill
#
# Bulk Modulus (GPa) = 12.37747 54.87258 33.62503
# Shear Modulus (GPa) = 8.91353 22.08220 15.49786
#
# Velocity S-wave (km/s) = 2.15903 3.39824 2.84688
# Velocity P-wave (km/s) = 3.56204 6.64029 5.32830
#
# Compressibility (1/GPa) = 0.08079196
#
# Stress axis : x y z
#
# Youngs Moduli (GPa) = 106.79339 24.18336 7.83597
#
# Poissons Ratio (x) = 0.26497 -0.00507
# Poissons Ratio (y) = 1.17012 0.30137
# Poissons Ratio (z) = -0.06916 0.93010
#
# Static dielectric constant tensor:
#      x y z
#    x 1.665730 0.000000 -0.002160 
#    y 0.000000 1.646810 0.000000 
#    z -0.002160 0.000000 1.695420 
# 
# From -- ./inp_files/37848.got.cif
#   From: 2010.05.17/outbox.cif.g08.bks.cpg/sg11_19_cif.got.tgz:37848.got - 2010.06.03 12:22:45.
