data_PCOD9158532
_publ_section_title
;
Structure prediction by ZEFSAII (Michael W. Deem and Ramdas Pophale) SiO2 
 PCOD9158532
Probable space group: P 21/M
;
_chemical_formula_sum "Si O2"
_cell_formula_units_Z 32
_cell_length_a 12.525553
_cell_length_b 8.872680
_cell_length_c 29.597505
_cell_angle_alpha 90.000000
_cell_angle_beta 145.859522
_cell_angle_gamma 90.000000
_cell_volume 1846.047855
_symmetry_space_group_name_H-M "P 21/M"
_symmetry_group_IT_number 11
_symmetry_cell_setting 'monoclinic'
loop_
_space_group_symop_operation_xyz
x,y,z
-x,1/2+y,-z
-x,-y,-z
x,1/2-y,z
loop_
_atom_site_type_symbol
_atom_site_label
_atom_site_fract_x
_atom_site_fract_y
_atom_site_fract_z
Si Si1 0.562856 0.430938 0.372909
Si Si2 0.824666 0.931316 0.713601
Si Si3 0.338920 0.069203 0.684366
Si Si4 0.921818 0.570175 0.549250
Si Si5 0.602754 0.929306 0.192949
Si Si6 0.016347 0.429653 0.326496
Si Si7 0.462795 0.070431 0.057928
Si Si8 0.798377 0.569968 0.115123
O O1 0.576093 0.250000 0.376180
O O2 0.379444 0.475089 0.338229
O O3 0.548771 0.496492 0.317607
O O4 0.752716 0.498474 0.461592
O O5 0.839505 0.750000 0.721993
O O6 0.858159 0.972267 0.672777
O O7 0.996671 0.003475 0.801918
O O8 0.331113 0.250000 0.677290
O O9 0.422806 0.031829 0.763229
O O10 0.124622 0.003247 0.608227
O O11 0.931105 0.750000 0.545045
O O12 0.892008 0.542014 0.592449
O O13 0.593423 0.750000 0.184927
O O14 0.462437 0.005730 0.108132
O O15 0.815482 0.985112 0.255204
O O16 0.977138 0.250000 0.310145
O O17 0.486339 0.250000 0.067477
O O18 0.644363 0.999924 0.095657
O O19 0.281699 0.034936 0.962971
O O20 0.799384 0.750000 0.121085
#
# Coordination Sequence:
#
# PCOD9158532 Si02
#       8
#     4   4   4   4   4   4   4   4
#     4  11  23  37  53  75 103 139 180 216 260 314
#     4  10  21  36  53  74 106 143 175 213 258 309
#     4  10  21  37  56  78 104 133 173 224 267 304
#     4  10  20  35  56  79 103 133 172 219 267 312
#     4  10  19  31  52  81 106 132 171 217 261 306
#     4   9  18  33  52  75 104 138 171 207 261 315
#     4  10  19  31  50  78 111 140 168 207 256 306
#     4  10  20  32  50  78 108 140 175 209 248 302
#
# _framework density 17.334329
#
# number of rings (size 3 to 8) (size 9 to 14) (size 15 to 20)
#    0.000    2.000    1.250    2.625    0.000    5.000 
#    0.000    0.000    0.000    0.750    0.000    0.000 
#    0.000    0.000    0.000    0.000    0.000    0.000 
#
# Total GULP energy -178622.792069 kJ/mol
# GULP energy per Si atom -5581.962252 kJ/mol
# Density = 1.729488 g / cm^3
# Si number density = 17.334329 Si / 1000 Ang^3
#
#
#
# Elastic Constant Matrix: (Units=GPa)
#
#
# Indices 1 2 3 4 5 6 
#
# 1 96.3083 28.5404 14.5090 0.0000 -17.8245 0.0000
# 2 28.5404 36.1693 12.6711 0.0000 -11.1339 0.0000
# 3 14.5090 12.6711 31.4411 0.0000 -19.8887 0.0000
# 4 0.0000 0.0000 0.0000 29.1796 0.0000 -5.1384
# 5 -17.8245 -11.1339 -19.8887 0.0000 23.1513 0.0000
# 6 0.0000 0.0000 0.0000 -5.1384 0.0000 23.2966
#
#
#
# Elastic Compliance Matrix: (Units=1/GPa)
#
#
# Indices 1 2 3 4 5 6 
#
# 1 0.014476 -0.009673 0.002903 0.000000 0.008987 0.000000
# 2 -0.009673 0.039639 -0.009119 0.000000 0.003782 0.000000
# 3 0.002903 -0.009119 0.071797 0.000000 0.059529 0.000000
# 4 0.000000 0.000000 0.000000 0.035655 0.000000 0.007864
# 5 0.008987 0.003782 0.059529 0.000000 0.103072 0.000000
# 6 0.000000 0.000000 0.000000 0.007864 0.000000 0.044659
#
#
# Mechanical properties :
#
#
# Convention : Reuss Voigt Hill
#
# Bulk Modulus (GPa) = 10.62307 30.59553 20.60930
# Shear Modulus (GPa) = 13.42448 22.33871 17.88160
#
# Velocity S-wave (km/s) = 2.78590 3.59374 3.21529
# Velocity P-wave (km/s) = 4.06079 5.90834 5.06944
#
# Compressibility (1/GPa) = 0.09413475
#
# Stress axis : x y z
#
# Youngs Moduli (GPa) = 69.08054 25.22746 13.92825
#
# Poissons Ratio (x) = 0.24403 -0.04044
# Poissons Ratio (y) = 0.66823 0.12701
# Poissons Ratio (z) = -0.20057 0.23004
#
# Static dielectric constant tensor:
#      x y z
#    x 1.597510 0.000000 -0.036150 
#    y 0.000000 1.577600 0.000000 
#    z -0.036150 0.000000 1.573470 
# 
# From -- ./inp_files/40613.got.cif
#   From: 2010.05.17/outbox.cif.g08.bks.cpg/sg11_21_cif.got.tgz:40613.got - 2010.06.03 12:22:45.
