data_PCOD9158756
_publ_section_title
;
Structure prediction by ZEFSAII (Michael W. Deem and Ramdas Pophale) SiO2 
 PCOD9158756
Probable space group: P 21/M
;
_chemical_formula_sum "Si O2"
_cell_formula_units_Z 32
_cell_length_a 11.720284
_cell_length_b 8.628194
_cell_length_c 18.471485
_cell_angle_alpha 90.000000
_cell_angle_beta 94.796491
_cell_angle_gamma 90.000000
_cell_volume 1861.385267
_symmetry_space_group_name_H-M "P 21/M"
_symmetry_group_IT_number 11
_symmetry_cell_setting 'monoclinic'
loop_
_space_group_symop_operation_xyz
x,y,z
-x,1/2+y,-z
-x,-y,-z
x,1/2-y,z
loop_
_atom_site_type_symbol
_atom_site_label
_atom_site_fract_x
_atom_site_fract_y
_atom_site_fract_z
Si Si1 0.222594 0.935063 0.347678
Si Si2 0.373823 0.065468 0.480018
Si Si3 0.395175 0.937308 0.910762
Si Si4 0.009831 0.436113 0.582141
Si Si5 0.320073 0.434959 0.211654
Si Si6 0.584360 0.062649 0.247119
Si Si7 0.348719 0.933298 0.062200
Si Si8 0.253501 0.563379 0.614644
O O1 0.232700 0.750000 0.352618
O O2 0.102003 0.980490 0.377640
O O3 0.322587 0.010765 0.401098
O O4 0.238079 0.990004 0.266526
O O5 0.376070 0.250000 0.482720
O O6 0.500000 0.000000 0.500000
O O7 0.293602 0.999476 0.539199
O O8 0.415579 0.750000 0.914719
O O9 0.356882 0.974636 0.827138
O O10 0.516729 0.022887 0.925202
O O11 0.319606 0.976197 0.977272
O O12 0.015757 0.250000 0.579332
O O13 0.126083 0.503121 0.621821
O O14 0.000000 0.500000 0.500000
O O15 0.317523 0.250000 0.217978
O O16 0.451517 0.488174 0.236183
O O17 0.293415 0.481668 0.127582
O O18 0.580704 0.250000 0.251873
O O19 0.656805 0.008082 0.319475
O O20 0.333324 0.750000 0.070230
O O21 0.253797 0.750000 0.612564
#
# Coordination Sequence:
#
# PCOD9158756 Si02
#       8
#     4   4   4   4   4   4   4   4
#     4  11  23  38  55  75  99 129 171 216 259 306
#     4  12  24  37  54  75 104 137 171 207 253 308
#     4   8  14  26  43  65  97 136 173 205 245 297
#     4  11  23  39  58  76  98 129 169 217 264 311
#     4  10  19  32  50  73 105 139 169 205 254 310
#     4   8  16  30  48  72 102 135 167 203 247 300
#     4   9  15  24  42  68  99 134 170 207 246 295
#     4  11  21  35  55  77 102 132 172 216 259 305
#
# _framework density 17.191497999999999
#
# number of rings (size 3 to 8) (size 9 to 14) (size 15 to 20)
#    0.000    2.000    1.250    4.500    0.000    3.000 
#    0.000    5.625    0.000    0.000    0.000    0.875 
#    0.000    0.000    0.000    0.000    0.000    0.000 
#
# Total GULP energy -178454.540575 kJ/mol
# GULP energy per Si atom -5576.704393 kJ/mol
# Density = 1.715237 g / cm^3
# Si number density = 17.191498 Si / 1000 Ang^3
#
#
#
# Elastic Constant Matrix: (Units=GPa)
#
#
# Indices 1 2 3 4 5 6 
#
# 1 55.1131 21.7269 13.5876 0.0000 -22.3276 0.0000
# 2 21.7269 52.8666 16.7548 0.0000 -12.2689 0.0000
# 3 13.5876 16.7548 88.8790 0.0000 -27.9612 0.0000
# 4 0.0000 0.0000 0.0000 24.2929 0.0000 -3.0728
# 5 -22.3276 -12.2689 -27.9612 0.0000 20.7932 0.0000
# 6 0.0000 0.0000 0.0000 -3.0728 0.0000 22.2332
#
#
#
# Elastic Compliance Matrix: (Units=1/GPa)
#
#
# Indices 1 2 3 4 5 6 
#
# 1 0.041263 -0.007809 0.013265 0.000000 0.057538 0.000000
# 2 -0.007809 0.023395 -0.002620 0.000000 0.001895 0.000000
# 3 0.013265 -0.002620 0.023766 0.000000 0.044658 0.000000
# 4 0.000000 0.000000 0.000000 0.041897 0.000000 0.005790
# 5 0.057538 0.001895 0.044658 0.000000 0.171048 0.000000
# 6 0.000000 0.000000 0.000000 0.005790 0.000000 0.045778
#
#
# Mechanical properties :
#
#
# Convention : Reuss Voigt Hill
#
# Bulk Modulus (GPa) = 10.62739 33.44417 22.03578
# Shear Modulus (GPa) = 13.41059 23.11647 18.26353
#
# Velocity S-wave (km/s) = 2.79600 3.67092 3.26292
# Velocity P-wave (km/s) = 4.07661 6.12076 5.20011
#
# Compressibility (1/GPa) = 0.09409649
#
# Stress axis : x y z
#
# Youngs Moduli (GPa) = 24.23502 42.74391 42.07616
#
# Poissons Ratio (x) = 0.33379 -0.55816
# Poissons Ratio (y) = 0.18925 0.11025
# Poissons Ratio (z) = -0.32149 0.11199
#
# Static dielectric constant tensor:
#      x y z
#    x 1.563860 0.000000 -0.016050 
#    y 0.000000 1.577480 0.000000 
#    z -0.016050 0.000000 1.618270 
# 
# From -- ./inp_files/58727.got.cif
#   From: 2010.05.17/outbox.cif.g08.bks.cpg/sg11_30_cif.got.tgz:58727.got - 2010.06.03 12:22:45.
