data_PCOD9158293
_publ_section_title
;
Structure prediction by ZEFSAII (Michael W. Deem and Ramdas Pophale) SiO2 
 PCOD9158293
Probable space group: P 21/M
;
_chemical_formula_sum "Si O2"
_cell_formula_units_Z 32
_cell_length_a 21.058694
_cell_length_b 8.831150
_cell_length_c 15.058156
_cell_angle_alpha 90.000000
_cell_angle_beta 137.474322
_cell_angle_gamma 90.000000
_cell_volume 1892.849766
_symmetry_space_group_name_H-M "P 21/M"
_symmetry_group_IT_number 11
_symmetry_cell_setting 'monoclinic'
loop_
_space_group_symop_operation_xyz
x,y,z
-x,1/2+y,-z
-x,-y,-z
x,1/2-y,z
loop_
_atom_site_type_symbol
_atom_site_label
_atom_site_fract_x
_atom_site_fract_y
_atom_site_fract_z
Si Si1 0.016386 0.928560 0.114517
Si Si2 0.487613 0.929427 0.083569
Si Si3 0.384147 0.931035 0.629920
Si Si4 0.332000 0.930063 0.057461
Si Si5 0.544754 0.927806 0.662874
Si Si6 0.694413 0.076839 0.703285
Si Si7 0.212029 0.428407 0.366788
Si Si8 0.841775 0.077203 0.019226
O O1 0.028285 0.750000 0.115778
O O2 0.109612 0.998294 0.253836
O O3 0.926299 0.968214 0.081533
O O4 0.000000 0.000000 0.000000
O O5 0.502924 0.750000 0.095424
O O6 0.382951 0.954349 0.016361
O O7 0.560039 0.999427 0.229588
O O8 0.500000 0.000000 0.000000
O O9 0.382666 0.750000 0.636199
O O10 0.444400 0.968229 0.602444
O O11 0.280751 0.997453 0.510168
O O12 0.347532 0.750000 0.096856
O O13 0.386891 0.036621 0.182884
O O14 0.221808 0.957104 0.959914
O O15 0.547122 0.750000 0.643153
O O16 0.593058 0.026066 0.635578
O O17 0.690937 0.250000 0.666150
O O18 0.737946 0.967398 0.675283
O O19 0.766782 0.073911 0.860766
O O20 0.205354 0.250000 0.372632
O O21 0.877470 0.250000 0.061716
#
# Coordination Sequence:
#
# PCOD9158293 Si02
#       8
#     4   4   4   4   4   4   4   4
#     4  12  23  35  51  72  99 135 178 225 267 308
#     4  10  19  34  57  85 112 140 170 205 251 308
#     4  10  21  37  53  73 103 136 169 212 259 309
#     4   8  16  30  49  73 104 136 168 206 253 303
#     4   9  17  29  47  69  96 130 170 210 251 300
#     4  10  19  31  48  68  96 133 173 216 258 301
#     4  12  24  36  51  70  96 133 177 222 263 308
#     4   9  17  31  50  71  98 133 174 221 262 299
#
# _framework density 16.905726000000001
#
# number of rings (size 3 to 8) (size 9 to 14) (size 15 to 20)
#    0.000    2.000    1.250    4.500    0.000    4.500 
#    0.000    0.000    0.000    0.000    0.000    0.875 
#    0.000    0.000    0.000    0.000    0.000    0.000 
#
# Total GULP energy -178576.647477 kJ/mol
# GULP energy per Si atom -5580.520234 kJ/mol
# Density = 1.686725 g / cm^3
# Si number density = 16.905726 Si / 1000 Ang^3
#
#
#
# Elastic Constant Matrix: (Units=GPa)
#
#
# Indices 1 2 3 4 5 6 
#
# 1 95.8025 44.2633 51.7108 0.0000 5.0850 0.0000
# 2 44.2633 93.7908 41.0853 0.0000 9.9538 0.0000
# 3 51.7108 41.0853 76.0311 0.0000 13.7474 0.0000
# 4 0.0000 0.0000 0.0000 25.4267 0.0000 1.7386
# 5 5.0850 9.9538 13.7474 0.0000 30.7272 0.0000
# 6 0.0000 0.0000 0.0000 1.7386 0.0000 27.1812
#
#
#
# Elastic Compliance Matrix: (Units=1/GPa)
#
#
# Indices 1 2 3 4 5 6 
#
# 1 0.017832 -0.004173 -0.010427 0.000000 0.003066 0.000000
# 2 -0.004173 0.014989 -0.004905 0.000000 -0.001970 0.000000
# 3 -0.010427 -0.004905 0.024258 0.000000 -0.007538 0.000000
# 4 0.000000 0.000000 0.000000 0.039502 0.000000 -0.002527
# 5 0.003066 -0.001970 -0.007538 0.000000 0.036048 0.000000
# 6 0.000000 0.000000 0.000000 -0.002527 0.000000 0.036952
#
#
# Mechanical properties :
#
#
# Convention : Reuss Voigt Hill
#
# Bulk Modulus (GPa) = 55.34676 59.97146 57.65911
# Shear Modulus (GPa) = 23.29758 25.23801 24.26780
#
# Velocity S-wave (km/s) = 3.71629 3.86796 3.79288
# Velocity P-wave (km/s) = 7.15709 7.44978 7.30490
#
# Compressibility (1/GPa) = 0.01806790
#
# Stress axis : x y z
#
# Youngs Moduli (GPa) = 56.07982 66.71377 41.22340
#
# Poissons Ratio (x) = 0.27841 0.42984
# Poissons Ratio (y) = 0.23403 0.20221
# Poissons Ratio (z) = 0.58475 0.32725
#
# Static dielectric constant tensor:
#      x y z
#    x 1.592310 0.000000 0.013920 
#    y 0.000000 1.568930 0.000000 
#    z 0.013920 0.000000 1.580260 
# 
# From -- ./inp_files/54318.got.cif
#   From: 2010.05.17/outbox.cif.g08.bks.cpg/sg11_28_cif.got.tgz:54318.got - 2010.06.03 12:22:45.
