data_PCOD9158254
_publ_section_title
;
Structure prediction by ZEFSAII (Michael W. Deem and Ramdas Pophale) SiO2 
 PCOD9158254
Probable space group: P 21/M
;
_chemical_formula_sum "Si O2"
_cell_formula_units_Z 28
_cell_length_a 13.632266
_cell_length_b 8.922688
_cell_length_c 27.845132
_cell_angle_alpha 90.000000
_cell_angle_beta 31.206320
_cell_angle_gamma 90.000000
_cell_volume 1754.868322
_symmetry_space_group_name_H-M "P 21/M"
_symmetry_group_IT_number 11
_symmetry_cell_setting 'monoclinic'
loop_
_space_group_symop_operation_xyz
x,y,z
-x,1/2+y,-z
-x,-y,-z
x,1/2-y,z
loop_
_atom_site_type_symbol
_atom_site_label
_atom_site_fract_x
_atom_site_fract_y
_atom_site_fract_z
Si Si1 0.411180 0.428135 0.111213
Si Si2 0.180191 0.572227 0.726947
Si Si3 0.788332 0.072114 0.897646
Si Si4 0.823725 0.076191 0.711081
Si Si5 0.041970 0.571095 0.533951
Si Si6 0.792786 0.576580 0.386657
Si Si7 0.599506 0.930559 0.564764
O O1 0.381698 0.250000 0.126436
O O2 0.285136 0.492821 0.120201
O O3 0.346212 0.504941 0.187495
O O4 0.627861 0.456959 0.004801
O O5 0.153544 0.750000 0.741711
O O6 0.200054 0.525878 0.662800
O O7 0.381623 0.533072 0.666534
O O8 0.995041 0.488621 0.823608
O O9 0.796042 0.250000 0.885505
O O10 0.788896 0.250000 0.714061
O O11 0.005702 0.070902 0.670431
O O12 0.887702 0.987007 0.637176
O O13 0.040398 0.750000 0.532377
O O14 0.244805 0.512511 0.468439
O O15 0.000000 0.500000 0.500000
O O16 0.758476 0.750000 0.386759
O O17 0.644334 0.532001 0.490154
O O18 0.627212 0.750000 0.557246
#
# Coordination Sequence:
#
# PCOD9158254 Si02
#       7
#     4   4   4   4   4   4   4
#     4  10  19  31  47  68  94 131 176 211 245 289
#     4  11  20  29  45  68  97 133 171 205 241 288
#     4  10  20  31  44  65  98 136 172 211 247 284
#     4  10  19  32  51  74 101 131 163 205 251 294
#     4  11  22  37  57  78 100 127 160 202 249 298
#     4   9  17  29  44  64  95 131 165 201 242 284
#     4   9  20  35  48  68  97 129 165 205 244 291
#
# _framework density 15.955613
#
# number of rings (size 3 to 8) (size 9 to 14) (size 15 to 20)
#    0.000    2.000    1.429    4.286    0.000    5.143 
#    0.000    0.000    0.000    0.000    0.000    1.000 
#    0.000    0.000    0.000    0.000    0.000    0.000 
#
# Total GULP energy -156254.045653 kJ/mol
# GULP energy per Si atom -5580.501630 kJ/mol
# Density = 1.591930 g / cm^3
# Si number density = 15.955613 Si / 1000 Ang^3
#
#
#
# Elastic Constant Matrix: (Units=GPa)
#
#
# Indices 1 2 3 4 5 6 
#
# 1 58.8076 42.1842 47.3237 0.0000 6.6829 0.0000
# 2 42.1842 90.7235 65.7600 0.0000 0.4408 0.0000
# 3 47.3237 65.7600 129.9270 0.0000 -8.1514 0.0000
# 4 0.0000 0.0000 0.0000 28.4939 0.0000 1.1130
# 5 6.6829 0.4408 -8.1514 0.0000 18.1872 0.0000
# 6 0.0000 0.0000 0.0000 1.1130 0.0000 21.3478
#
#
#
# Elastic Compliance Matrix: (Units=1/GPa)
#
#
# Indices 1 2 3 4 5 6 
#
# 1 0.031350 -0.008770 -0.007912 0.000000 -0.014853 0.000000
# 2 -0.008770 0.020228 -0.007071 0.000000 -0.000437 0.000000
# 3 -0.007912 -0.007071 0.014766 0.000000 0.009696 0.000000
# 4 0.000000 0.000000 0.000000 0.035167 0.000000 -0.001833
# 5 -0.014853 -0.000437 0.009696 0.000000 0.064798 0.000000
# 6 0.000000 0.000000 0.000000 -0.001833 0.000000 0.046939
#
#
# Mechanical properties :
#
#
# Convention : Reuss Voigt Hill
#
# Bulk Modulus (GPa) = 53.08460 65.55486 59.31973
# Shear Modulus (GPa) = 18.72428 21.88513 20.30471
#
# Velocity S-wave (km/s) = 3.42939 3.70756 3.57119
# Velocity P-wave (km/s) = 7.00167 7.71382 7.36635
#
# Compressibility (1/GPa) = 0.01883786
#
# Stress axis : x y z
#
# Youngs Moduli (GPa) = 31.89742 49.43683 67.72517
#
# Poissons Ratio (x) = 0.43357 0.53583
# Poissons Ratio (y) = 0.27975 0.47888
# Poissons Ratio (z) = 0.25237 0.34956
#
# Static dielectric constant tensor:
#      x y z
#    x 1.503090 0.000000 -0.017280 
#    y 0.000000 1.530870 0.000000 
#    z -0.017280 0.000000 1.563900 
# 
# From -- ./inp_files/51030.got.cif
#   From: 2010.05.17/outbox.cif.g08.bks.cpg/sg11_26_cif.got.tgz:51030.got - 2010.06.03 12:22:45.
