data_PCOD9158370
_publ_section_title
;
Structure prediction by ZEFSAII (Michael W. Deem and Ramdas Pophale) SiO2 
 PCOD9158370
Probable space group: P 21/M
;
_chemical_formula_sum "Si O2"
_cell_formula_units_Z 28
_cell_length_a 21.483488
_cell_length_b 9.514505
_cell_length_c 11.126050
_cell_angle_alpha 90.000000
_cell_angle_beta 50.517006
_cell_angle_gamma 90.000000
_cell_volume 1755.271424
_symmetry_space_group_name_H-M "P 21/M"
_symmetry_group_IT_number 11
_symmetry_cell_setting 'monoclinic'
loop_
_space_group_symop_operation_xyz
x,y,z
-x,1/2+y,-z
-x,-y,-z
x,1/2-y,z
loop_
_atom_site_type_symbol
_atom_site_label
_atom_site_fract_x
_atom_site_fract_y
_atom_site_fract_z
Si Si1 0.264502 0.417338 0.000970
Si Si2 0.024821 0.587526 0.643446
Si Si3 0.228651 0.417617 0.761459
Si Si4 0.592766 0.911939 0.508892
Si Si5 0.075537 0.916438 0.852482
Si Si6 0.442363 0.087671 0.735615
Si Si7 0.119244 0.584145 0.281333
O O1 0.259388 0.250000 0.031650
O O2 0.202752 0.505136 0.156028
O O3 0.239525 0.436399 0.891629
O O4 0.358273 0.461272 0.897296
O O5 0.995980 0.750000 0.670974
O O6 0.067599 0.569757 0.718269
O O7 0.085201 0.563962 0.458041
O O8 0.948687 0.485771 0.720320
O O9 0.214953 0.250000 0.758630
O O10 0.314190 0.457118 0.595248
O O11 0.156120 0.510645 0.802100
O O12 0.587065 0.750000 0.553175
O O13 0.574681 0.916275 0.387439
O O14 0.523344 0.000991 0.657375
O O15 0.072653 0.750000 0.885473
O O16 0.000000 0.000000 0.000000
O O17 0.454787 0.250000 0.752803
O O18 0.126459 0.750000 0.249383
#
# Coordination Sequence:
#
# PCOD9158370 Si02
#       7
#     4   4   4   4   4   4   4
#     4   9  17  29  44  65  95 124 145 176 225 265
#     4   9  20  36  48  62  89 119 144 180 229 265
#     4   9  18  31  45  64  93 124 150 179 219 264
#     4   8  14  25  40  59  86 118 147 177 214 254
#     4  11  22  34  48  66  90 119 149 182 220 261
#     4   8  14  24  39  60  87 118 147 174 211 261
#     4  10  19  31  49  69  86 111 150 187 218 261
#
# _framework density 15.951949000000001
#
# number of rings (size 3 to 8) (size 9 to 14) (size 15 to 20)
#    0.000    2.857    0.000    3.429    0.000    6.857 
#    0.000    2.857    0.000    0.000    0.000    1.000 
#    0.000    0.000    0.000    0.000    0.000    0.000 
#
# Total GULP energy -155994.018369 kJ/mol
# GULP energy per Si atom -5571.214942 kJ/mol
# Density = 1.591564 g / cm^3
# Si number density = 15.951949 Si / 1000 Ang^3
#
#
#
# Elastic Constant Matrix: (Units=GPa)
#
#
# Indices 1 2 3 4 5 6 
#
# 1 69.0147 51.9141 41.3034 0.0000 -29.3045 0.0000
# 2 51.9141 78.0972 62.7407 0.0000 -29.3482 0.0000
# 3 41.3034 62.7407 83.0522 0.0000 -38.0001 0.0000
# 4 0.0000 0.0000 0.0000 29.9114 0.0000 -8.7417
# 5 -29.3045 -29.3482 -38.0001 0.0000 33.3345 0.0000
# 6 0.0000 0.0000 0.0000 -8.7417 0.0000 26.3493
#
#
#
# Elastic Compliance Matrix: (Units=1/GPa)
#
#
# Indices 1 2 3 4 5 6 
#
# 1 0.035388 -0.023412 0.010222 0.000000 0.022150 0.000000
# 2 -0.023412 0.048089 -0.030790 0.000000 -0.013343 0.000000
# 3 0.010222 -0.030790 0.045829 0.000000 0.034122 0.000000
# 4 0.000000 0.000000 0.000000 0.037022 0.000000 0.012282
# 5 0.022150 -0.013343 0.034122 0.000000 0.076622 0.000000
# 6 0.000000 0.000000 0.000000 0.012282 0.000000 0.042027
#
#
# Mechanical properties :
#
#
# Convention : Reuss Voigt Hill
#
# Bulk Modulus (GPa) = 24.18591 60.23118 42.20855
# Shear Modulus (GPa) = 12.92929 22.86608 17.89769
#
# Velocity S-wave (km/s) = 2.85004 3.79018 3.35322
# Velocity P-wave (km/s) = 5.10147 7.54942 6.44278
#
# Compressibility (1/GPa) = 0.04134639
#
# Stress axis : x y z
#
# Youngs Moduli (GPa) = 28.25787 20.79488 21.82010
#
# Poissons Ratio (x) = 0.48685 -0.22304
# Poissons Ratio (y) = 0.66157 0.67184
# Poissons Ratio (z) = -0.28884 0.64027
#
# Static dielectric constant tensor:
#      x y z
#    x 1.518100 0.000000 -0.010010 
#    y 0.000000 1.522070 0.000000 
#    z -0.010010 0.000000 1.542180 
# 
# From -- ./inp_files/42306.got.cif
#   From: 2010.05.17/outbox.cif.g08.bks.cpg/sg11_22_cif.got.tgz:42306.got - 2010.06.03 12:22:45.
