data_PCOD9158832
_publ_section_title
;
Structure prediction by ZEFSAII (Michael W. Deem and Ramdas Pophale) SiO2 
 PCOD9158832
Probable space group: P 21/M
;
_chemical_formula_sum "Si O2"
_cell_formula_units_Z 28
_cell_length_a 15.181639
_cell_length_b 8.925854
_cell_length_c 19.292426
_cell_angle_alpha 90.000000
_cell_angle_beta 142.567769
_cell_angle_gamma 90.000000
_cell_volume 1589.030190
_symmetry_space_group_name_H-M "P 21/M"
_symmetry_group_IT_number 11
_symmetry_cell_setting 'monoclinic'
loop_
_space_group_symop_operation_xyz
x,y,z
-x,1/2+y,-z
-x,-y,-z
x,1/2-y,z
loop_
_atom_site_type_symbol
_atom_site_label
_atom_site_fract_x
_atom_site_fract_y
_atom_site_fract_z
Si Si1 0.269018 0.071389 0.247060
Si Si2 0.568042 0.430672 0.973858
Si Si3 0.181575 0.578642 0.056104
Si Si4 0.474780 0.078723 0.766920
Si Si5 0.600981 0.072532 0.416800
Si Si6 0.165015 0.428900 0.337006
Si Si7 0.127111 0.071551 0.879999
O O1 0.254927 0.250000 0.228088
O O2 0.438910 0.033677 0.342547
O O3 0.223709 0.033965 0.296569
O O4 0.176585 0.990632 0.129483
O O5 0.577780 0.250000 0.983657
O O6 0.472086 0.467128 0.845535
O O7 0.500000 0.500000 0.000000
O O8 0.726634 0.498692 0.058746
O O9 0.128993 0.750000 0.021453
O O10 0.353757 0.579253 0.145126
O O11 0.112763 0.484813 0.950728
O O12 0.423219 0.250000 0.727436
O O13 0.397711 0.974551 0.662946
O O14 0.620930 0.250000 0.437129
O O15 0.719663 0.985203 0.535090
O O16 0.146813 0.250000 0.329662
O O17 0.011590 0.510884 0.247602
O O18 0.136729 0.250000 0.884297
#
# Coordination Sequence:
#
# PCOD9158832 Si02
#       7
#     4   4   4   4   4   4   4
#     4   9  19  33  50  73 100 135 180 225 264 304
#     4  10  20  36  60  88 112 134 164 204 253 309
#     4   9  17  31  51  73 100 134 172 216 263 310
#     4   8  16  31  51  76 104 134 167 204 249 300
#     4  10  19  32  51  75 102 135 179 222 258 300
#     4  11  22  35  50  70 102 142 180 219 263 309
#     4  11  22  36  53  75 105 138 173 213 260 313
#
# _framework density 17.620809999999999
#
# number of rings (size 3 to 8) (size 9 to 14) (size 15 to 20)
#    0.000    2.286    0.000    4.286    0.000    6.286 
#    0.000    0.000    0.000    0.857    0.000    0.000 
#    0.000    0.000    0.000    0.000    0.000    0.000 
#
# Total GULP energy -156321.118402 kJ/mol
# GULP energy per Si atom -5582.897086 kJ/mol
# Density = 1.758070 g / cm^3
# Si number density = 17.620810 Si / 1000 Ang^3
#
#
#
# Elastic Constant Matrix: (Units=GPa)
#
#
# Indices 1 2 3 4 5 6 
#
# 1 88.9911 44.0392 52.7042 0.0000 -17.5660 0.0000
# 2 44.0392 86.0187 56.9813 0.0000 -5.1521 0.0000
# 3 52.7042 56.9813 110.6894 0.0000 -5.1297 0.0000
# 4 0.0000 0.0000 0.0000 32.1938 0.0000 -5.6306
# 5 -17.5660 -5.1521 -5.1297 0.0000 20.2420 0.0000
# 6 0.0000 0.0000 0.0000 -5.6306 0.0000 23.5014
#
#
#
# Elastic Compliance Matrix: (Units=1/GPa)
#
#
# Indices 1 2 3 4 5 6 
#
# 1 0.020633 -0.005494 -0.006305 0.000000 0.014909 0.000000
# 2 -0.005494 0.019203 -0.007350 0.000000 -0.001743 0.000000
# 3 -0.006305 -0.007350 0.015664 0.000000 -0.003373 0.000000
# 4 0.000000 0.000000 0.000000 0.032420 0.000000 0.007767
# 5 0.014909 -0.001743 -0.003373 0.000000 0.061042 0.000000
# 6 0.000000 0.000000 0.000000 0.007767 0.000000 0.044412
#
#
# Mechanical properties :
#
#
# Convention : Reuss Voigt Hill
#
# Bulk Modulus (GPa) = 58.13547 65.90540 62.02043
# Shear Modulus (GPa) = 21.06103 23.98574 22.52338
#
# Velocity S-wave (km/s) = 3.46097 3.69347 3.57911
# Velocity P-wave (km/s) = 7.00251 7.46138 7.23559
#
# Compressibility (1/GPa) = 0.01720120
#
# Stress axis : x y z
#
# Youngs Moduli (GPa) = 48.46639 52.07624 63.84092
#
# Poissons Ratio (x) = 0.28609 0.40253
# Poissons Ratio (y) = 0.26626 0.46924
# Poissons Ratio (z) = 0.30559 0.38277
#
# Static dielectric constant tensor:
#      x y z
#    x 1.601330 0.000000 0.004650 
#    y 0.000000 1.591460 0.000000 
#    z 0.004650 0.000000 1.593710 
# 
# From -- ./inp_files/42620.got.cif
#   From: 2010.05.17/outbox.cif.g08.bks.cpg/sg11_22_cif.got.tgz:42620.got - 2010.06.03 12:22:45.
