data_PCOD9158019
_publ_section_title
;
Structure prediction by ZEFSAII (Michael W. Deem and Ramdas Pophale) SiO2 
 PCOD9158019
Probable space group: P 21/M
;
_chemical_formula_sum "Si O2"
_cell_formula_units_Z 32
_cell_length_a 21.822053
_cell_length_b 8.915283
_cell_length_c 31.425933
_cell_angle_alpha 90.000000
_cell_angle_beta 160.543400
_cell_angle_gamma 90.000000
_cell_volume 2036.498454
_symmetry_space_group_name_H-M "P 21/M"
_symmetry_group_IT_number 11
_symmetry_cell_setting 'monoclinic'
loop_
_space_group_symop_operation_xyz
x,y,z
-x,1/2+y,-z
-x,-y,-z
x,1/2-y,z
loop_
_atom_site_type_symbol
_atom_site_label
_atom_site_fract_x
_atom_site_fract_y
_atom_site_fract_z
Si Si1 0.432912 0.929542 0.114721
Si Si2 0.781414 0.069837 0.195543
Si Si3 0.822418 0.569078 0.507621
Si Si4 0.171854 0.430581 0.588045
Si Si5 0.213044 0.070620 0.046565
Si Si6 0.557731 0.570681 0.717377
Si Si7 0.879769 0.429704 0.883185
Si Si8 0.573607 0.570867 0.981766
O O1 0.427667 0.750000 0.109185
O O2 0.635572 0.975524 0.264315
O O3 0.287518 0.987416 0.054164
O O4 0.401615 0.998124 0.047905
O O5 0.774880 0.250000 0.185294
O O6 0.627936 0.032426 0.130756
O O7 0.984299 0.028700 0.344096
O O8 0.718063 0.990429 0.110884
O O9 0.801892 0.750000 0.496096
O O10 0.827613 0.525643 0.461230
O O11 0.647072 0.492690 0.414328
O O12 0.158308 0.250000 0.580933
O O13 0.000000 0.500000 0.500000
O O14 0.227798 0.250000 0.050297
O O15 0.341205 0.031566 0.171429
O O16 0.002439 0.035858 0.921959
O O17 0.560304 0.750000 0.715399
O O18 0.679436 0.498793 0.759401
O O19 0.873208 0.250000 0.883401
O O20 0.000000 0.500000 0.000000
O O21 0.586128 0.750000 0.986888
#
# Coordination Sequence:
#
# PCOD9158019 Si02
#       8
#     4   4   4   4   4   4   4   4
#     4  11  21  32  49  72  99 130 166 203 243 294
#     4   9  19  35  54  73  95 126 167 211 253 295
#     4  10  19  33  50  70  99 132 165 203 248 293
#     4  10  21  33  46  68  97 132 165 197 242 294
#     4   9  18  31  46  68  98 131 165 200 241 287
#     4  10  19  30  46  71 100 132 167 202 242 292
#     4   9  17  29  46  68  96 130 166 201 241 290
#     4  10  20  35  54  72  96 127 164 212 256 294
#
# _framework density 15.713245000000001
#
# number of rings (size 3 to 8) (size 9 to 14) (size 15 to 20)
#    0.000    2.250    1.250    3.000    0.000    6.000 
#    0.000    0.000    0.000    0.000    0.000    0.875 
#    0.000    0.000    0.000    0.000    0.000    0.000 
#
# Total GULP energy -178484.105218 kJ/mol
# GULP energy per Si atom -5577.628288 kJ/mol
# Density = 1.567748 g / cm^3
# Si number density = 15.713245 Si / 1000 Ang^3
#
#
#
# Elastic Constant Matrix: (Units=GPa)
#
#
# Indices 1 2 3 4 5 6 
#
# 1 134.7563 54.0975 72.1655 0.0000 13.7566 0.0000
# 2 54.0975 39.1345 37.4363 0.0000 4.5687 0.0000
# 3 72.1655 37.4363 85.0675 0.0000 10.4959 0.0000
# 4 0.0000 0.0000 0.0000 21.2078 0.0000 7.6584
# 5 13.7566 4.5687 10.4959 0.0000 24.0598 0.0000
# 6 0.0000 0.0000 0.0000 7.6584 0.0000 25.3542
#
#
#
# Elastic Compliance Matrix: (Units=1/GPa)
#
#
# Indices 1 2 3 4 5 6 
#
# 1 0.019819 -0.019548 -0.007684 0.000000 -0.004268 0.000000
# 2 -0.019548 0.063412 -0.011855 0.000000 0.004307 0.000000
# 3 -0.007684 -0.011855 0.023961 0.000000 -0.003808 0.000000
# 4 0.000000 0.000000 0.000000 0.052926 0.000000 -0.015986
# 5 -0.004268 0.004307 -0.003808 0.000000 0.044847 0.000000
# 6 0.000000 0.000000 0.000000 -0.015986 0.000000 0.044270
#
#
# Mechanical properties :
#
#
# Convention : Reuss Voigt Hill
#
# Bulk Modulus (GPa) = 34.46009 65.15077 49.80543
# Shear Modulus (GPa) = 14.83329 20.47495 17.65412
#
# Velocity S-wave (km/s) = 3.07579 3.61368 3.35553
# Velocity P-wave (km/s) = 5.88151 7.67880 6.83945
#
# Compressibility (1/GPa) = 0.02901908
#
# Stress axis : x y z
#
# Youngs Moduli (GPa) = 50.45729 15.76978 41.73528
#
# Poissons Ratio (x) = 0.30827 0.32068
# Poissons Ratio (y) = 0.98633 0.49476
# Poissons Ratio (z) = 0.38770 0.18695
#
# Static dielectric constant tensor:
#      x y z
#    x 1.512400 0.000000 0.018160 
#    y 0.000000 1.522360 0.000000 
#    z 0.018160 0.000000 1.520870 
# 
# From -- ./inp_files/42793.got.cif
#   From: 2010.05.17/outbox.cif.g08.bks.cpg/sg11_22_cif.got.tgz:42793.got - 2010.06.03 12:22:45.
