data_PCOD9158429
_publ_section_title
;
Structure prediction by ZEFSAII (Michael W. Deem and Ramdas Pophale) SiO2 
 PCOD9158429
Probable space group: P 21/M
;
_chemical_formula_sum "Si O2"
_cell_formula_units_Z 24
_cell_length_a 14.521130
_cell_length_b 17.771323
_cell_length_c 14.670020
_cell_angle_alpha 90.000000
_cell_angle_beta 159.740767
_cell_angle_gamma 90.000000
_cell_volume 1310.881811
_symmetry_space_group_name_H-M "P 21/M"
_symmetry_group_IT_number 11
_symmetry_cell_setting 'monoclinic'
loop_
_space_group_symop_operation_xyz
x,y,z
-x,1/2+y,-z
-x,-y,-z
x,1/2-y,z
loop_
_atom_site_type_symbol
_atom_site_label
_atom_site_fract_x
_atom_site_fract_y
_atom_site_fract_z
Si Si1 0.903539 0.664557 0.119664
Si Si2 0.011178 0.987162 0.117657
Si Si3 0.336516 0.659597 0.866477
Si Si4 0.336327 0.888128 0.660416
Si Si5 0.553295 0.538022 0.342214
Si Si6 0.770959 0.660393 0.418625
O O1 0.949849 0.750000 0.132418
O O2 0.980667 0.600518 0.118136
O O3 0.080295 0.647152 0.373276
O O4 0.597144 0.652920 0.862606
O O5 0.280458 0.018011 0.412876
O O6 0.758366 0.028955 0.928256
O O7 0.000000 0.000000 0.000000
O O8 0.327243 0.750000 0.842421
O O9 0.330188 0.621084 0.762611
O O10 0.075689 0.638879 0.682486
O O11 0.597249 0.642528 0.167406
O O12 0.362260 0.974248 0.652564
O O13 0.643187 0.616570 0.383917
O O14 0.758076 0.750000 0.420541
#
# Coordination Sequence:
#
# PCOD9158429 Si02
#       6
#     4   4   4   4   4   4
#     4  10  19  33  53  78 107 133 166 211 259 308
#     4  10  21  38  58  78 102 132 167 212 264 316
#     4  10  19  31  49  74 105 140 177 213 247 288
#     4  10  20  32  52  78 105 139 172 209 255 302
#     4  10  21  37  55  76 103 136 170 211 264 307
#     4  10  21  35  51  74 106 142 178 212 245 291
#
# _framework density 18.308287
#
# number of rings (size 3 to 8) (size 9 to 14) (size 15 to 20)
#    0.000    2.000    0.000    4.000    0.000    2.667 
#    0.000    1.667    0.000    0.000    0.000    0.000 
#    0.000    0.000    0.000    0.000    0.000    0.000 
#
# Total GULP energy -134050.151619 kJ/mol
# GULP energy per Si atom -5585.422984 kJ/mol
# Density = 1.826662 g / cm^3
# Si number density = 18.308287 Si / 1000 Ang^3
#
#
#
# Elastic Constant Matrix: (Units=GPa)
#
#
# Indices 1 2 3 4 5 6 
#
# 1 41.3925 21.5610 -25.7375 0.0000 -13.5788 0.0000
# 2 21.5610 45.7866 -1.6614 0.0000 -7.6852 0.0000
# 3 -25.7375 -1.6614 48.5248 0.0000 3.0144 0.0000
# 4 0.0000 0.0000 0.0000 11.2730 0.0000 -1.0007
# 5 -13.5788 -7.6852 3.0144 0.0000 17.8490 0.0000
# 6 0.0000 0.0000 0.0000 -1.0007 0.0000 9.1685
#
#
#
# Elastic Compliance Matrix: (Units=1/GPa)
#
#
# Indices 1 2 3 4 5 6 
#
# 1 0.071777 -0.026255 0.034847 0.000000 0.037415 0.000000
# 2 -0.026255 0.033147 -0.012569 0.000000 -0.003579 0.000000
# 3 0.034847 -0.012569 0.037746 0.000000 0.014724 0.000000
# 4 0.000000 0.000000 0.000000 0.089575 0.000000 0.009776
# 5 0.037415 -0.003579 0.014724 0.000000 0.080462 0.000000
# 6 0.000000 0.000000 0.000000 0.009776 0.000000 0.110136
#
#
# Mechanical properties :
#
#
# Convention : Reuss Voigt Hill
#
# Bulk Modulus (GPa) = 7.42298 13.78088 10.60193
# Shear Modulus (GPa) = 10.51078 17.09421 13.80249
#
# Velocity S-wave (km/s) = 2.39864 3.05894 2.74869
# Velocity P-wave (km/s) = 3.42557 4.47433 3.98461
#
# Compressibility (1/GPa) = 0.13471670
#
# Stress axis : x y z
#
# Youngs Moduli (GPa) = 13.93210 30.16841 26.49289
#
# Poissons Ratio (x) = 0.79208 -0.92320
# Poissons Ratio (y) = 0.36579 0.33298
# Poissons Ratio (z) = -0.48549 0.37917
#
# Static dielectric constant tensor:
#      x y z
#    x 1.586950 0.000000 0.003980 
#    y 0.000000 1.631860 0.000000 
#    z 0.003980 0.000000 1.624640 
# 
# From -- ./inp_files/8217.got.cif
#   From: 2010.05.17/outbox.cif.g08.bks.cpg/sg11_5_cif.got.tgz:8217.got - 2010.06.03 12:22:45.
