data_PCOD9158816
_publ_section_title
;
Structure prediction by ZEFSAII (Michael W. Deem and Ramdas Pophale) SiO2 
 PCOD9158816
Probable space group: P 21/M
;
_chemical_formula_sum "Si O2"
_cell_formula_units_Z 32
_cell_length_a 12.558259
_cell_length_b 7.592543
_cell_length_c 22.267491
_cell_angle_alpha 90.000000
_cell_angle_beta 134.197279
_cell_angle_gamma 90.000000
_cell_volume 1522.204647
_symmetry_space_group_name_H-M "P 21/M"
_symmetry_group_IT_number 11
_symmetry_cell_setting 'monoclinic'
loop_
_space_group_symop_operation_xyz
x,y,z
-x,1/2+y,-z
-x,-y,-z
x,1/2-y,z
loop_
_atom_site_type_symbol
_atom_site_label
_atom_site_fract_x
_atom_site_fract_y
_atom_site_fract_z
Si Si1 0.604734 0.538149 0.597441
Si Si2 0.870594 0.465368 0.282658
Si Si3 0.579658 0.045564 0.364166
Si Si4 0.950720 0.458524 0.893281
Si Si5 0.067291 0.037711 0.253808
Si Si6 0.759316 0.954043 0.925753
Si Si7 0.090055 0.040267 0.474796
Si Si8 0.565547 0.033151 0.221876
O O1 0.500000 0.500000 0.500000
O O2 0.610533 0.750000 0.604402
O O3 0.531370 0.467644 0.630115
O O4 0.773863 0.475545 0.658050
O O5 0.867877 0.250000 0.282350
O O6 0.707692 0.523345 0.239286
O O7 0.932216 0.523831 0.242515
O O8 0.990963 0.520563 0.379991
O O9 0.537608 0.250000 0.340824
O O10 0.580717 0.972735 0.297088
O O11 0.745832 0.036744 0.455647
O O12 0.945311 0.250000 0.902828
O O13 0.942437 0.489256 0.819575
O O14 0.816246 0.537236 0.879290
O O15 0.105600 0.530339 0.981864
O O16 0.066786 0.250000 0.256677
O O17 0.747703 0.750000 0.939002
O O18 0.594093 0.028000 0.864976
O O19 0.107538 0.250000 0.476203
O O20 0.000000 0.000000 0.500000
O O21 0.566424 0.250000 0.222482
#
# Coordination Sequence:
#
# PCOD9158816 Si02
#       8
#     4   4   4   4   4   4   4   4
#     4  10  21  35  52  75 105 141 179 220 265 314
#     4   9  18  32  53  76  99 134 180 218 247 301
#     4  10  19  32  51  74 101 134 174 217 262 309
#     4  10  20  34  54  82 109 134 169 217 269 314
#     4  10  20  36  56  76 102 143 184 211 252 316
#     4   9  18  34  58  81 104 136 172 213 264 321
#     4  11  20  33  52  75 103 135 173 216 258 305
#     4   9  16  31  54  77 100 130 173 217 254 305
#
# _framework density 21.02214
#
# number of rings (size 3 to 8) (size 9 to 14) (size 15 to 20)
#    0.000    2.250    1.250    2.250    0.000    4.500 
#    0.000    3.750    0.000    0.000    0.000    0.000 
#    0.000    0.000    0.000    0.000    0.000    0.000 
#
# Total GULP energy -178705.876491 kJ/mol
# GULP energy per Si atom -5584.558640 kJ/mol
# Density = 2.097429 g / cm^3
# Si number density = 21.022140 Si / 1000 Ang^3
#
#
#
# Elastic Constant Matrix: (Units=GPa)
#
#
# Indices 1 2 3 4 5 6 
#
# 1 139.5135 -0.3081 55.7361 0.0000 12.6072 0.0000
# 2 -0.3081 47.1157 -2.8450 0.0000 2.8754 0.0000
# 3 55.7361 -2.8450 93.5909 0.0000 7.8163 0.0000
# 4 0.0000 0.0000 0.0000 15.6326 0.0000 -3.3930
# 5 12.6072 2.8754 7.8163 0.0000 36.1442 0.0000
# 6 0.0000 0.0000 0.0000 -3.3930 0.0000 9.0290
#
#
#
# Elastic Compliance Matrix: (Units=1/GPa)
#
#
# Indices 1 2 3 4 5 6 
#
# 1 0.009567 -0.000141 -0.005524 0.000000 -0.002131 0.000000
# 2 -0.000141 0.021390 0.000888 0.000000 -0.001845 0.000000
# 3 -0.005524 0.000888 0.014101 0.000000 -0.001193 0.000000
# 4 0.000000 0.000000 0.000000 0.069649 0.000000 0.026173
# 5 -0.002131 -0.001845 -0.001193 0.000000 0.028815 0.000000
# 6 0.000000 0.000000 0.000000 0.026173 0.000000 0.120589
#
#
# Mechanical properties :
#
#
# Convention : Reuss Voigt Hill
#
# Bulk Modulus (GPa) = 28.16529 42.82066 35.49298
# Shear Modulus (GPa) = 17.51323 27.33698 22.42511
#
# Velocity S-wave (km/s) = 2.88945 3.61000 3.26964
# Velocity P-wave (km/s) = 4.95570 6.14733 5.58340
#
# Compressibility (1/GPa) = 0.03550469
#
# Stress axis : x y z
#
# Youngs Moduli (GPa) = 104.52902 46.75162 70.91745
#
# Poissons Ratio (x) = 0.00659 0.39172
# Poissons Ratio (y) = 0.01473 -0.06299
# Poissons Ratio (z) = 0.57737 -0.04152
#
# Static dielectric constant tensor:
#      x y z
#    x 1.746630 0.000000 0.010610 
#    y 0.000000 1.820400 0.000000 
#    z 0.010610 0.000000 1.737520 
# 
# From -- ./inp_files/64390.got.cif
#   From: 2010.05.17/outbox.cif.g08.bks.cpg/sg11_33_cif.got.tgz:64390.got - 2010.06.03 12:22:45.
