data_PCOD9158363
_publ_section_title
;
Structure prediction by ZEFSAII (Michael W. Deem and Ramdas Pophale) SiO2 
 PCOD9158363
Probable space group: P 21/M
;
_chemical_formula_sum "Si O2"
_cell_formula_units_Z 28
_cell_length_a 9.341234
_cell_length_b 7.575296
_cell_length_c 30.312804
_cell_angle_alpha 90.000000
_cell_angle_beta 38.503939
_cell_angle_gamma 90.000000
_cell_volume 1335.417521
_symmetry_space_group_name_H-M "P 21/M"
_symmetry_group_IT_number 11
_symmetry_cell_setting 'monoclinic'
loop_
_space_group_symop_operation_xyz
x,y,z
-x,1/2+y,-z
-x,-y,-z
x,1/2-y,z
loop_
_atom_site_type_symbol
_atom_site_label
_atom_site_fract_x
_atom_site_fract_y
_atom_site_fract_z
Si Si1 0.415081 0.455913 0.298218
Si Si2 0.884856 0.966977 0.711165
Si Si3 0.323846 0.961428 0.002517
Si Si4 0.709651 0.962913 0.848446
Si Si5 0.938952 0.959783 0.156712
Si Si6 0.732316 0.962289 0.571065
Si Si7 0.592145 0.038286 0.429078
O O1 0.349816 0.250000 0.316244
O O2 0.269857 0.529112 0.292400
O O3 0.685736 0.466311 0.223874
O O4 0.353515 0.532104 0.360949
O O5 0.882372 0.750000 0.712496
O O6 0.783529 0.025928 0.782548
O O7 0.147724 0.024598 0.641183
O O8 0.301568 0.750000 0.003440
O O9 0.462291 0.028036 0.926439
O O10 0.080841 0.028791 0.079775
O O11 0.500000 0.000000 0.000000
O O12 0.696955 0.750000 0.849852
O O13 0.903555 0.005923 0.838197
O O14 0.916089 0.750000 0.157665
O O15 0.703692 0.750000 0.578242
O O16 0.579856 0.030207 0.567139
O O17 0.000000 0.000000 0.500000
O O18 0.600373 0.250000 0.422958
O O19 0.500000 0.000000 0.500000
#
# Coordination Sequence:
#
# PCOD9158363 Si02
#       7
#     4   4   4   4   4   4   4
#     4  10  20  35  53  73  98 133 171 205 242 292
#     4   9  18  33  54  75  96 126 169 210 242 284
#     4   8  15  27  46  71  98 127 162 203 248 293
#     4   9  16  31  54  75  96 128 168 209 249 295
#     4  10  19  31  48  74 104 132 164 206 251 296
#     4  10  21  36  56  79 103 130 164 203 246 295
#     4  10  20  35  54  77 101 128 162 202 245 291
#
# _framework density 20.967227000000001
#
# number of rings (size 3 to 8) (size 9 to 14) (size 15 to 20)
#    0.000    2.571    0.000    2.143    0.000    5.143 
#    0.000    4.286    0.000    0.000    0.000    0.000 
#    0.000    0.000    0.000    0.000    0.000    0.000 
#
# Total GULP energy -156239.954974 kJ/mol
# GULP energy per Si atom -5579.998392 kJ/mol
# Density = 2.091950 g / cm^3
# Si number density = 20.967227 Si / 1000 Ang^3
#
#
#
# Elastic Constant Matrix: (Units=GPa)
#
#
# Indices 1 2 3 4 5 6 
#
# 1 150.4072 -1.1206 108.4449 0.0000 8.8453 0.0000
# 2 -1.1206 47.7637 -4.6964 0.0000 6.7328 0.0000
# 3 108.4449 -4.6964 226.5634 0.0000 11.4311 0.0000
# 4 0.0000 0.0000 0.0000 14.4720 0.0000 1.2437
# 5 8.8453 6.7328 11.4311 0.0000 30.4081 0.0000
# 6 0.0000 0.0000 0.0000 1.2437 0.0000 9.5500
#
#
#
# Elastic Compliance Matrix: (Units=1/GPa)
#
#
# Indices 1 2 3 4 5 6 
#
# 1 0.010192 -0.000075 -0.004823 0.000000 -0.001135 0.000000
# 2 -0.000075 0.021722 0.000742 0.000000 -0.005067 0.000000
# 3 -0.004823 0.000742 0.006804 0.000000 -0.001319 0.000000
# 4 0.000000 0.000000 0.000000 0.069881 0.000000 -0.009101
# 5 -0.001135 -0.005067 -0.001319 0.000000 0.034834 0.000000
# 6 0.000000 0.000000 0.000000 -0.009101 0.000000 0.105897
#
#
# Mechanical properties :
#
#
# Convention : Reuss Voigt Hill
#
# Bulk Modulus (GPa) = 32.88820 69.99888 51.44354
# Shear Modulus (GPa) = 18.67226 32.35980 25.51603
#
# Velocity S-wave (km/s) = 2.98744 3.93281 3.49226
# Velocity P-wave (km/s) = 5.25541 7.35392 6.39138
#
# Compressibility (1/GPa) = 0.03040605
#
# Stress axis : x y z
#
# Youngs Moduli (GPa) = 98.11580 46.03671 146.96983
#
# Poissons Ratio (x) = 0.00346 0.70879
# Poissons Ratio (y) = 0.00737 -0.10903
# Poissons Ratio (z) = 0.47319 -0.03415
#
# Static dielectric constant tensor:
#      x y z
#    x 1.712410 0.000000 0.015770 
#    y 0.000000 1.809510 0.000000 
#    z 0.015770 0.000000 1.760700 
# 
# From -- ./inp_files/28533.got.cif
#   From: 2010.05.17/outbox.cif.g08.bks.cpg/sg11_15_cif.got.tgz:28533.got - 2010.06.03 12:22:45.
