data_PCOD9158539
_publ_section_title
;
Structure prediction by ZEFSAII (Michael W. Deem and Ramdas Pophale) SiO2 
 PCOD9158539
Probable space group: P 21/M
;
_chemical_formula_sum "Si O2"
_cell_formula_units_Z 24
_cell_length_a 27.251553
_cell_length_b 8.622095
_cell_length_c 11.880061
_cell_angle_alpha 90.000000
_cell_angle_beta 150.838507
_cell_angle_gamma 90.000000
_cell_volume 1360.175577
_symmetry_space_group_name_H-M "P 21/M"
_symmetry_group_IT_number 11
_symmetry_cell_setting 'monoclinic'
loop_
_space_group_symop_operation_xyz
x,y,z
-x,1/2+y,-z
-x,-y,-z
x,1/2-y,z
loop_
_atom_site_type_symbol
_atom_site_label
_atom_site_fract_x
_atom_site_fract_y
_atom_site_fract_z
Si Si1 0.817482 0.935667 0.420662
Si Si2 0.386920 0.434944 0.893130
Si Si3 0.004575 0.935340 0.634739
Si Si4 0.890358 0.068912 0.794120
Si Si5 0.615938 0.435465 0.364029
Si Si6 0.805490 0.568916 0.847005
O O1 0.832206 0.750000 0.472962
O O2 0.696498 0.959702 0.176210
O O3 0.900126 0.976271 0.491408
O O4 0.843057 0.039958 0.578861
O O5 0.388840 0.250000 0.875568
O O6 0.362688 0.510837 0.722619
O O7 0.499940 0.482959 0.152544
O O8 0.009543 0.750000 0.642793
O O9 0.000000 0.000000 0.500000
O O10 0.106111 0.995385 0.899623
O O11 0.889232 0.250000 0.823974
O O12 0.841012 0.966409 0.791468
O O13 0.000000 0.000000 0.000000
O O14 0.624666 0.250000 0.382888
O O15 0.692755 0.500411 0.611591
O O16 0.801223 0.750000 0.863202
#
# Coordination Sequence:
#
# PCOD9158539 Si02
#       6
#     4   4   4   4   4   4
#     4  10  20  35  56  80 110 147 182 223 272 330
#     4   9  18  32  51  78 114 150 183 220 268 326
#     4  11  24  41  60  81 108 141 185 233 283 335
#     4  12  22  32  50  80 113 146 181 221 273 332
#     4  10  19  31  50  80 115 149 184 222 268 325
#     4  12  23  36  55  79 113 150 186 227 274 328
#
# _framework density 17.644781999999999
#
# number of rings (size 3 to 8) (size 9 to 14) (size 15 to 20)
#    0.000    1.333    3.333    4.000    0.000    1.333 
#    0.000    0.000    0.000    1.000    0.000    0.000 
#    0.000    0.000    0.000    0.000    0.000    0.000 
#
# Total GULP energy -133693.175718 kJ/mol
# GULP energy per Si atom -5570.548988 kJ/mol
# Density = 1.760462 g / cm^3
# Si number density = 17.644782 Si / 1000 Ang^3
#
#
#
# Elastic Constant Matrix: (Units=GPa)
#
#
# Indices 1 2 3 4 5 6 
#
# 1 83.3527 28.6573 78.7062 0.0000 6.5225 0.0000
# 2 28.6573 44.4323 38.6765 0.0000 4.7618 0.0000
# 3 78.7062 38.6765 141.3012 0.0000 24.9170 0.0000
# 4 0.0000 0.0000 0.0000 28.7765 0.0000 -2.7802
# 5 6.5225 4.7618 24.9170 0.0000 25.6114 0.0000
# 6 0.0000 0.0000 0.0000 -2.7802 0.0000 20.7745
#
#
#
# Elastic Compliance Matrix: (Units=1/GPa)
#
#
# Indices 1 2 3 4 5 6 
#
# 1 0.027976 -0.005322 -0.015746 0.000000 0.009184 0.000000
# 2 -0.005322 0.030733 -0.005648 0.000000 0.001136 0.000000
# 3 -0.015746 -0.005648 0.019919 0.000000 -0.014318 0.000000
# 4 0.000000 0.000000 0.000000 0.035206 0.000000 0.004711
# 5 0.009184 0.001136 -0.014318 0.000000 0.050425 0.000000
# 6 0.000000 0.000000 0.000000 0.004711 0.000000 0.048766
#
#
# Mechanical properties :
#
#
# Convention : Reuss Voigt Hill
#
# Bulk Modulus (GPa) = 39.68835 62.35181 51.02008
# Shear Modulus (GPa) = 18.19130 23.23555 20.71342
#
# Velocity S-wave (km/s) = 3.21436 3.63278 3.42996
# Velocity P-wave (km/s) = 6.02644 7.28080 6.68311
#
# Compressibility (1/GPa) = 0.02519631
#
# Stress axis : x y z
#
# Youngs Moduli (GPa) = 35.74444 32.53792 50.20433
#
# Poissons Ratio (x) = 0.17316 0.79051
# Poissons Ratio (y) = 0.19023 0.28357
# Poissons Ratio (z) = 0.56283 0.18378
#
# Static dielectric constant tensor:
#      x y z
#    x 1.616270 0.000000 0.051260 
#    y 0.000000 1.721510 0.000000 
#    z 0.051260 0.000000 1.654750 
# 
# From -- ./inp_files/40503.got.cif
#   From: 2010.05.17/outbox.cif.g08.bks.cpg/sg11_21_cif.got.tgz:40503.got - 2010.06.03 12:22:45.
