data_PCOD9158637
_publ_section_title
;
Structure prediction by ZEFSAII (Michael W. Deem and Ramdas Pophale) SiO2 
 PCOD9158637
Probable space group: P 21/M
;
_chemical_formula_sum "Si O2"
_cell_formula_units_Z 32
_cell_length_a 30.430673
_cell_length_b 8.827682
_cell_length_c 21.079463
_cell_angle_alpha 90.000000
_cell_angle_beta 18.979498
_cell_angle_gamma 90.000000
_cell_volume 1841.654311
_symmetry_space_group_name_H-M "P 21/M"
_symmetry_group_IT_number 11
_symmetry_cell_setting 'monoclinic'
loop_
_space_group_symop_operation_xyz
x,y,z
-x,1/2+y,-z
-x,-y,-z
x,1/2-y,z
loop_
_atom_site_type_symbol
_atom_site_label
_atom_site_fract_x
_atom_site_fract_y
_atom_site_fract_z
Si Si1 0.087972 0.568420 0.693860
Si Si2 0.353560 0.931910 0.628580
Si Si3 0.909069 0.932463 0.815202
Si Si4 0.344877 0.568013 0.147550
Si Si5 0.650281 0.569541 0.718999
Si Si6 0.063018 0.932280 0.476999
Si Si7 0.940003 0.067929 0.017728
Si Si8 0.361173 0.569194 0.766966
O O1 0.084233 0.750000 0.704511
O O2 0.239936 0.512770 0.474013
O O3 0.000602 0.523794 0.750892
O O4 0.022656 0.493742 0.844705
O O5 0.368261 0.750000 0.605695
O O6 0.338232 0.973821 0.724043
O O7 0.491154 0.007540 0.416838
O O8 0.217221 0.975358 0.778322
O O9 0.900929 0.750000 0.826318
O O10 0.981198 0.980297 0.651706
O O11 0.760851 0.000277 0.026532
O O12 0.338213 0.750000 0.168147
O O13 0.329982 0.486672 0.235610
O O14 0.219670 0.525689 0.274192
O O15 0.493568 0.534123 0.917652
O O16 0.669198 0.750000 0.689704
O O17 0.056405 0.750000 0.482686
O O18 0.000000 0.000000 0.500000
O O19 0.947145 0.250000 0.009251
O O20 0.000000 0.000000 0.000000
O O21 0.359086 0.750000 0.773992
#
# Coordination Sequence:
#
# PCOD9158637 Si02
#       8
#     4   4   4   4   4   4   4   4
#     4  11  21  36  58  83 113 149 188 231 280 331
#     4   9  19  35  54  80 114 146 179 225 277 329
#     4  10  20  35  56  80 111 147 185 230 280 329
#     4   9  18  35  54  78 113 147 181 226 283 336
#     4  10  19  31  55  85 111 142 184 234 279 327
#     4  10  21  38  56  79 111 148 185 225 276 332
#     4  11  23  40  59  84 116 149 188 230 278 336
#     4  10  19  32  55  85 112 140 183 232 275 324
#
# _framework density 17.375682000000001
#
# number of rings (size 3 to 8) (size 9 to 14) (size 15 to 20)
#    0.000    2.000    2.500    1.500    0.000    3.500 
#    0.000    1.250    0.000    3.000    0.000    0.000 
#    0.000    0.000    0.000    0.000    0.000    0.000 
#
# Total GULP energy -178620.711828 kJ/mol
# GULP energy per Si atom -5581.897245 kJ/mol
# Density = 1.733613 g / cm^3
# Si number density = 17.375682 Si / 1000 Ang^3
#
#
#
# Elastic Constant Matrix: (Units=GPa)
#
#
# Indices 1 2 3 4 5 6 
#
# 1 131.2666 41.6226 88.5392 0.0000 -12.3644 0.0000
# 2 41.6226 33.2494 49.1913 0.0000 -5.0208 0.0000
# 3 88.5392 49.1913 164.4163 0.0000 -17.0057 0.0000
# 4 0.0000 0.0000 0.0000 30.6333 0.0000 1.6881
# 5 -12.3644 -5.0208 -17.0057 0.0000 26.4829 0.0000
# 6 0.0000 0.0000 0.0000 1.6881 0.0000 28.4281
#
#
#
# Elastic Compliance Matrix: (Units=1/GPa)
#
#
# Indices 1 2 3 4 5 6 
#
# 1 0.014124 -0.011540 -0.003961 0.000000 0.001863 0.000000
# 2 -0.011540 0.063390 -0.012924 0.000000 -0.001669 0.000000
# 3 -0.003961 -0.012924 0.012465 0.000000 0.003705 0.000000
# 4 0.000000 0.000000 0.000000 0.032751 0.000000 -0.001945
# 5 0.001863 -0.001669 0.003705 0.000000 0.040693 0.000000
# 6 0.000000 0.000000 0.000000 -0.001945 0.000000 0.035292
#
#
# Mechanical properties :
#
#
# Convention : Reuss Voigt Hill
#
# Bulk Modulus (GPa) = 30.18389 76.40428 53.29409
# Shear Modulus (GPa) = 18.75412 27.08081 22.91747
#
# Velocity S-wave (km/s) = 3.28888 3.95213 3.63566
# Velocity P-wave (km/s) = 5.64193 8.05563 6.95430
#
# Compressibility (1/GPa) = 0.03313025
#
# Stress axis : x y z
#
# Youngs Moduli (GPa) = 70.80030 15.77524 80.22665
#
# Poissons Ratio (x) = 0.18205 0.31774
# Poissons Ratio (y) = 0.81706 1.03682
# Poissons Ratio (z) = 0.28041 0.20387
#
# Static dielectric constant tensor:
#      x y z
#    x 1.564050 0.000000 -0.014200 
#    y 0.000000 1.582580 0.000000 
#    z -0.014200 0.000000 1.589800 
# 
# From -- ./inp_files/67405.got.cif
#   From: 2010.05.17/outbox.cif.g08.bks.cpg/sg11_34_cif.got.tgz:67405.got - 2010.06.03 12:22:45.
