data_PCOD9158529
_publ_section_title
;
Structure prediction by ZEFSAII (Michael W. Deem and Ramdas Pophale) SiO2 
 PCOD9158529
Probable space group: P 21/M
;
_chemical_formula_sum "Si O2"
_cell_formula_units_Z 28
_cell_length_a 29.253350
_cell_length_b 8.737255
_cell_length_c 10.235906
_cell_angle_alpha 90.000000
_cell_angle_beta 35.395839
_cell_angle_gamma 90.000000
_cell_volume 1515.381344
_symmetry_space_group_name_H-M "P 21/M"
_symmetry_group_IT_number 11
_symmetry_cell_setting 'monoclinic'
loop_
_space_group_symop_operation_xyz
x,y,z
-x,1/2+y,-z
-x,-y,-z
x,1/2-y,z
loop_
_atom_site_type_symbol
_atom_site_label
_atom_site_fract_x
_atom_site_fract_y
_atom_site_fract_z
Si Si1 0.793243 0.565610 0.979415
Si Si2 0.924363 0.934466 0.887412
Si Si3 0.356976 0.932595 0.542341
Si Si4 0.855105 0.565505 0.324882
Si Si5 0.484623 0.566737 0.891312
Si Si6 0.091656 0.065464 0.516020
Si Si7 0.686350 0.066109 0.656400
O O1 0.784997 0.750000 0.002570
O O2 0.709241 0.491735 0.204926
O O3 0.855254 0.520505 0.948691
O O4 0.835141 0.521750 0.746514
O O5 0.928757 0.750000 0.875347
O O6 0.900363 0.986653 0.089087
O O7 0.009447 0.000886 0.654975
O O8 0.362115 0.750000 0.532716
O O9 0.328598 0.977841 0.461056
O O10 0.444148 0.001210 0.360205
O O11 0.856226 0.750000 0.322188
O O12 0.894150 0.512217 0.368722
O O13 0.765093 0.511209 0.524250
O O14 0.490007 0.750000 0.883284
O O15 0.500000 0.500000 0.000000
O O16 0.393261 0.526001 0.078125
O O17 0.086995 0.250000 0.525324
O O18 0.695304 0.250000 0.638622
#
# Coordination Sequence:
#
# PCOD9158529 Si02
#       7
#     4   4   4   4   4   4   4
#     4  10  20  35  53  74 103 136 170 210 257 304
#     4  10  20  34  53  75  98 132 175 213 254 304
#     4  10  19  31  50  78 105 133 171 210 256 304
#     4  10  20  34  52  75 103 134 171 210 252 303
#     4   9  17  29  47  75 108 136 167 209 256 302
#     4  10  22  36  51  74 103 136 170 210 259 304
#     4   9  18  31  49  76 104 132 167 206 251 298
#
# _framework density 18.477198000000001
#
# number of rings (size 3 to 8) (size 9 to 14) (size 15 to 20)
#    0.000    2.286    1.429    2.571    0.000    5.143 
#    0.000    0.000    0.000    0.857    0.000    0.000 
#    0.000    0.000    0.000    0.000    0.000    0.000 
#
# Total GULP energy -156203.732625 kJ/mol
# GULP energy per Si atom -5578.704737 kJ/mol
# Density = 1.843514 g / cm^3
# Si number density = 18.477198 Si / 1000 Ang^3
#
#
#
# Elastic Constant Matrix: (Units=GPa)
#
#
# Indices 1 2 3 4 5 6 
#
# 1 14.3200 1.6971 6.3456 0.0000 -0.6827 0.0000
# 2 1.6971 11.4547 17.6386 0.0000 -3.1200 0.0000
# 3 6.3456 17.6386 99.9806 0.0000 -17.8448 0.0000
# 4 0.0000 0.0000 0.0000 29.5575 0.0000 -13.2889
# 5 -0.6827 -3.1200 -17.8448 0.0000 33.2756 0.0000
# 6 0.0000 0.0000 0.0000 -13.2889 0.0000 16.6930
#
#
#
# Elastic Compliance Matrix: (Units=1/GPa)
#
#
# Indices 1 2 3 4 5 6 
#
# 1 0.072095 -0.004988 -0.003887 0.000000 -0.001073 0.000000
# 2 -0.004988 0.120208 -0.020897 0.000000 -0.000038 0.000000
# 3 -0.003887 -0.020897 0.015008 0.000000 0.006009 0.000000
# 4 0.000000 0.000000 0.000000 0.052691 0.000000 0.041946
# 5 -0.001073 -0.000038 0.006009 0.000000 0.033249 0.000000
# 6 0.000000 0.000000 0.000000 0.041946 0.000000 0.093298
#
#
# Mechanical properties :
#
#
# Convention : Reuss Voigt Hill
#
# Bulk Modulus (GPa) = 6.76746 19.67977 13.22361
# Shear Modulus (GPa) = 10.09388 22.57681 16.33535
#
# Velocity S-wave (km/s) = 2.33982 3.49932 2.97658
# Velocity P-wave (km/s) = 3.31213 5.19625 4.35725
#
# Compressibility (1/GPa) = 0.14776597
#
# Stress axis : x y z
#
# Youngs Moduli (GPa) = 13.87056 8.31891 66.63143
#
# Poissons Ratio (x) = 0.04149 0.25902
# Poissons Ratio (y) = 0.06918 1.39242
# Poissons Ratio (z) = 0.05392 0.17384
#
# Static dielectric constant tensor:
#      x y z
#    x 1.620010 0.000000 0.011370 
#    y 0.000000 1.614830 0.000000 
#    z 0.011370 0.000000 1.666020 
# 
# From -- ./inp_files/28270.got.cif
#   From: 2010.05.17/outbox.cif.g08.bks.cpg/sg11_15_cif.got.tgz:28270.got - 2010.06.03 12:22:45.
