data_PCOD9158995
_publ_section_title
;
Structure prediction by ZEFSAII (Michael W. Deem and Ramdas Pophale) SiO2 
 PCOD9158995
Probable space group: P 21/M
;
_chemical_formula_sum "Si O2"
_cell_formula_units_Z 32
_cell_length_a 27.461954
_cell_length_b 8.198574
_cell_length_c 21.446980
_cell_angle_alpha 90.000000
_cell_angle_beta 19.822702
_cell_angle_gamma 90.000000
_cell_volume 1637.485219
_symmetry_space_group_name_H-M "P 21/M"
_symmetry_group_IT_number 11
_symmetry_cell_setting 'monoclinic'
loop_
_space_group_symop_operation_xyz
x,y,z
-x,1/2+y,-z
-x,-y,-z
x,1/2-y,z
loop_
_atom_site_type_symbol
_atom_site_label
_atom_site_fract_x
_atom_site_fract_y
_atom_site_fract_z
Si Si1 0.300307 0.447610 0.908259
Si Si2 0.276189 0.948249 0.285866
Si Si3 0.466210 0.942337 0.273921
Si Si4 0.346790 0.945041 0.710206
Si Si5 0.456805 0.944430 0.951540
Si Si6 0.055393 0.946492 0.000252
Si Si7 0.146000 0.442284 0.643345
Si Si8 0.010938 0.942347 0.679099
O O1 0.297220 0.250000 0.913637
O O2 0.432439 0.501383 0.792258
O O3 0.319642 0.498639 0.813586
O O4 0.148733 0.510327 0.118491
O O5 0.280257 0.750000 0.284359
O O6 0.118894 0.006909 0.496056
O O7 0.394261 0.013098 0.192597
O O8 0.331941 0.995240 0.150202
O O9 0.439336 0.750000 0.314518
O O10 0.544219 0.970596 0.113896
O O11 0.313222 0.029802 0.454663
O O12 0.343448 0.750000 0.713693
O O13 0.500000 0.000000 0.500000
O O14 0.214946 0.005101 0.825972
O O15 0.450290 0.750000 0.950436
O O16 0.056997 0.750000 0.998836
O O17 0.947632 0.999328 0.184991
O O18 0.000000 0.000000 0.000000
O O19 0.119124 0.250000 0.665880
O O20 0.094712 0.533678 0.643238
O O21 0.994282 0.750000 0.687030
#
# Coordination Sequence:
#
# PCOD9158995 Si02
#       8
#     4   4   4   4   4   4   4   4
#     4  10  23  41  61  85 115 154 196 236 285 344
#     4   9  18  32  54  83 114 149 190 237 290 342
#     4  11  23  38  56  83 118 155 195 239 287 342
#     4  11  24  43  63  87 118 153 192 235 285 343
#     4  10  19  32  52  82 117 150 190 240 289 340
#     4  10  24  42  61  88 120 150 187 235 284 339
#     4  11  22  38  59  87 116 146 192 243 288 335
#     4  10  19  36  61  86 111 149 193 236 287 341
#
# _framework density 19.542162000000001
#
# number of rings (size 3 to 8) (size 9 to 14) (size 15 to 20)
#    0.000    1.750    2.500    1.500    1.750    3.500 
#    0.000    0.625    0.000    0.000    0.000    0.000 
#    0.000    0.000    0.000    0.000    0.000    0.000 
#
# Total GULP energy -178717.952056 kJ/mol
# GULP energy per Si atom -5584.936002 kJ/mol
# Density = 1.949768 g / cm^3
# Si number density = 19.542162 Si / 1000 Ang^3
#
#
#
# Elastic Constant Matrix: (Units=GPa)
#
#
# Indices 1 2 3 4 5 6 
#
# 1 76.5168 -5.8722 29.3617 0.0000 -8.9140 0.0000
# 2 -5.8722 12.3292 -1.3994 0.0000 0.3904 0.0000
# 3 29.3617 -1.3994 121.6451 0.0000 4.5524 0.0000
# 4 0.0000 0.0000 0.0000 23.4110 0.0000 6.4399
# 5 -8.9140 0.3904 4.5524 0.0000 29.3439 0.0000
# 6 0.0000 0.0000 0.0000 6.4399 0.0000 19.5548
#
#
#
# Elastic Compliance Matrix: (Units=1/GPa)
#
#
# Indices 1 2 3 4 5 6 
#
# 1 0.015714 0.006873 -0.003912 0.000000 0.005289 0.000000
# 2 0.006873 0.084264 -0.000730 0.000000 0.001080 0.000000
# 3 -0.003912 -0.000730 0.009254 0.000000 -0.002614 0.000000
# 4 0.000000 0.000000 0.000000 0.046970 0.000000 -0.015469
# 5 0.005289 0.001080 -0.002614 0.000000 0.036076 0.000000
# 6 0.000000 0.000000 0.000000 -0.015469 0.000000 0.056233
#
#
# Mechanical properties :
#
#
# Convention : Reuss Voigt Hill
#
# Bulk Modulus (GPa) = 8.79552 28.29680 18.54616
# Shear Modulus (GPa) = 17.73381 27.02201 22.37791
#
# Velocity S-wave (km/s) = 3.01568 3.72257 3.38762
# Velocity P-wave (km/s) = 4.07877 5.74352 4.98119
#
# Compressibility (1/GPa) = 0.11369427
#
# Stress axis : x y z
#
# Youngs Moduli (GPa) = 63.63902 11.86743 108.05856
#
# Poissons Ratio (x) = -0.08156 0.42269
# Poissons Ratio (y) = -0.43737 0.07887
# Poissons Ratio (z) = 0.24894 0.00866
#
# Static dielectric constant tensor:
#      x y z
#    x 1.647450 0.000000 0.004200 
#    y 0.000000 1.683650 0.000000 
#    z 0.004200 0.000000 1.711820 
# 
# From -- ./inp_files/66933.got.cif
#   From: 2010.05.17/outbox.cif.g08.bks.cpg/sg11_34_cif.got.tgz:66933.got - 2010.06.03 12:22:45.
