data_PCOD9158588
_publ_section_title
;
Structure prediction by ZEFSAII (Michael W. Deem and Ramdas Pophale) SiO2 
 PCOD9158588
Probable space group: P 21/M
;
_chemical_formula_sum "Si O2"
_cell_formula_units_Z 32
_cell_length_a 22.445854
_cell_length_b 8.633269
_cell_length_c 29.083523
_cell_angle_alpha 90.000000
_cell_angle_beta 162.149212
_cell_angle_gamma 90.000000
_cell_volume 1727.604776
_symmetry_space_group_name_H-M "P 21/M"
_symmetry_group_IT_number 11
_symmetry_cell_setting 'monoclinic'
loop_
_space_group_symop_operation_xyz
x,y,z
-x,1/2+y,-z
-x,-y,-z
x,1/2-y,z
loop_
_atom_site_type_symbol
_atom_site_label
_atom_site_fract_x
_atom_site_fract_y
_atom_site_fract_z
Si Si1 0.295317 0.436465 0.207307
Si Si2 0.216868 0.564085 0.662379
Si Si3 0.441571 0.065605 0.739256
Si Si4 0.297608 0.562809 0.537934
Si Si5 0.870492 0.935296 0.066515
Si Si6 0.510941 0.562905 0.956680
Si Si7 0.910409 0.938622 0.201043
Si Si8 0.956722 0.934240 0.893799
O O1 0.272997 0.250000 0.185878
O O2 0.514814 0.476643 0.355409
O O3 0.224726 0.477193 0.206805
O O4 0.145930 0.515740 0.062339
O O5 0.212255 0.750000 0.658031
O O6 0.340603 0.505214 0.710009
O O7 0.329259 0.515184 0.791394
O O8 0.000000 0.500000 0.500000
O O9 0.437954 0.250000 0.739087
O O10 0.331906 0.008711 0.613073
O O11 0.663110 0.006840 0.900320
O O12 0.292972 0.750000 0.539061
O O13 0.098461 0.511105 0.367777
O O14 0.851157 0.750000 0.051836
O O15 0.917724 0.986344 0.153139
O O16 0.026138 0.985793 0.142840
O O17 0.512975 0.750000 0.959770
O O18 0.500000 0.500000 0.000000
O O19 0.709569 0.511857 0.077321
O O20 0.910509 0.750000 0.201162
O O21 0.958296 0.750000 0.888856
#
# Coordination Sequence:
#
# PCOD9158588 Si02
#       8
#     4   4   4   4   4   4   4   4
#     4   9  18  32  52  80 115 152 190 236 292 345
#     4  11  24  43  64  89 121 153 191 237 284 340
#     4  12  24  38  59  89 119 150 193 243 290 338
#     4  10  20  37  61  86 113 152 195 240 291 344
#     4  11  20  37  60  83 112 153 198 239 286 342
#     4  10  22  41  61  85 116 153 192 234 282 340
#     4   9  20  39  61  83 111 150 196 236 280 343
#     4  10  19  31  51  82 116 149 191 242 290 342
#
# _framework density 18.522753999999999
#
# number of rings (size 3 to 8) (size 9 to 14) (size 15 to 20)
#    0.000    1.750    2.500    2.250    1.750    1.500 
#    0.000    1.875    0.000    0.000    0.000    0.000 
#    0.000    0.000    0.000    0.000    0.000    0.000 
#
# Total GULP energy -178726.879961 kJ/mol
# GULP energy per Si atom -5585.214999 kJ/mol
# Density = 1.848060 g / cm^3
# Si number density = 18.522754 Si / 1000 Ang^3
#
#
#
# Elastic Constant Matrix: (Units=GPa)
#
#
# Indices 1 2 3 4 5 6 
#
# 1 163.4080 36.3224 64.2406 0.0000 -18.6972 0.0000
# 2 36.3224 40.3366 31.3344 0.0000 -4.2441 0.0000
# 3 64.2406 31.3344 114.2730 0.0000 -20.0503 0.0000
# 4 0.0000 0.0000 0.0000 10.5767 0.0000 4.2708
# 5 -18.6972 -4.2441 -20.0503 0.0000 30.0003 0.0000
# 6 0.0000 0.0000 0.0000 4.2708 0.0000 32.5517
#
#
#
# Elastic Compliance Matrix: (Units=1/GPa)
#
#
# Indices 1 2 3 4 5 6 
#
# 1 0.008791 -0.005288 -0.003016 0.000000 0.002715 0.000000
# 2 -0.005288 0.034741 -0.007102 0.000000 -0.003128 0.000000
# 3 -0.003016 -0.007102 0.013467 0.000000 0.006116 0.000000
# 4 0.000000 0.000000 0.000000 0.099837 0.000000 -0.013099
# 5 0.002715 -0.003128 0.006116 0.000000 0.038671 0.000000
# 6 0.000000 0.000000 0.000000 -0.013099 0.000000 0.032439
#
#
# Mechanical properties :
#
#
# Convention : Reuss Voigt Hill
#
# Bulk Modulus (GPa) = 38.18622 64.64582 51.41602
# Shear Modulus (GPa) = 18.69247 27.03375 22.86311
#
# Velocity S-wave (km/s) = 3.18018 3.82447 3.51711
# Velocity P-wave (km/s) = 5.84340 7.38096 6.65672
#
# Compressibility (1/GPa) = 0.02618746
#
# Stress axis : x y z
#
# Youngs Moduli (GPa) = 113.74805 28.78415 74.25561
#
# Poissons Ratio (x) = 0.15221 0.22394
# Poissons Ratio (y) = 0.60150 0.52739
# Poissons Ratio (z) = 0.34304 0.20443
#
# Static dielectric constant tensor:
#      x y z
#    x 1.642250 0.000000 0.009810 
#    y 0.000000 1.638260 0.000000 
#    z 0.009810 0.000000 1.617300 
# 
# From -- ./inp_files/72138.got.cif
#   From: 2010.05.17/outbox.cif.g08.bks.cpg/sg11_37_cif.got.tgz:72138.got - 2010.06.03 12:22:45.
