data_PCOD9158287
_publ_section_title
;
Structure prediction by ZEFSAII (Michael W. Deem and Ramdas Pophale) SiO2 
 PCOD9158287
Probable space group: P 21/M
;
_chemical_formula_sum "Si O2"
_cell_formula_units_Z 28
_cell_length_a 31.249093
_cell_length_b 8.525431
_cell_length_c 9.960110
_cell_angle_alpha 90.000000
_cell_angle_beta 36.818679
_cell_angle_gamma 90.000000
_cell_volume 1590.197339
_symmetry_space_group_name_H-M "P 21/M"
_symmetry_group_IT_number 11
_symmetry_cell_setting 'monoclinic'
loop_
_space_group_symop_operation_xyz
x,y,z
-x,1/2+y,-z
-x,-y,-z
x,1/2-y,z
loop_
_atom_site_type_symbol
_atom_site_label
_atom_site_fract_x
_atom_site_fract_y
_atom_site_fract_z
Si Si1 0.060286 0.563285 0.447683
Si Si2 0.216657 0.061942 0.048611
Si Si3 0.345599 0.440514 0.231617
Si Si4 0.221048 0.440650 0.346462
Si Si5 0.501888 0.061185 0.842880
Si Si6 0.341742 0.938478 0.546726
Si Si7 0.940202 0.561854 0.250216
O O1 0.058562 0.750000 0.454470
O O2 0.139136 0.506182 0.207087
O O3 0.047799 0.498650 0.629101
O O4 0.000000 0.500000 0.500000
O O5 0.211727 0.250000 0.059112
O O6 0.232668 0.012011 0.162392
O O7 0.278234 0.006634 0.794650
O O8 0.343480 0.250000 0.243565
O O9 0.282358 0.495561 0.293245
O O10 0.336868 0.504137 0.404685
O O11 0.424753 0.487073 0.979099
O O12 0.222705 0.250000 0.344647
O O13 0.140438 0.488345 0.587468
O O14 0.502576 0.250000 0.841964
O O15 0.579680 0.010967 0.594862
O O16 0.500000 0.000000 0.000000
O O17 0.338255 0.750000 0.556987
O O18 0.941637 0.750000 0.248268
O O19 0.000000 0.500000 0.000000
#
# Coordination Sequence:
#
# PCOD9158287 Si02
#       7
#     4   4   4   4   4   4   4
#     4  11  22  38  58  80 105 136 171 213 260 310
#     4  10  20  36  54  74 101 136 171 207 252 306
#     4   9  16  31  53  74  95 129 172 215 258 303
#     4   8  17  33  53  73  97 128 168 211 253 299
#     4   8  15  27  46  69  97 129 165 208 256 302
#     4  10  19  31  47  74 105 133 167 211 256 304
#     4  10  20  36  55  78 106 139 175 215 261 312
#
# _framework density 17.607879000000001
#
# number of rings (size 3 to 8) (size 9 to 14) (size 15 to 20)
#    0.000    2.571    0.000    3.429    0.000    1.714 
#    0.000    9.286    0.000    0.000    0.000    0.000 
#    0.000    0.000    0.000    0.000    0.000    0.000 
#
# Total GULP energy -156049.443130 kJ/mol
# GULP energy per Si atom -5573.194398 kJ/mol
# Density = 1.756780 g / cm^3
# Si number density = 17.607879 Si / 1000 Ang^3
#
#
#
# Elastic Constant Matrix: (Units=GPa)
#
#
# Indices 1 2 3 4 5 6 
#
# 1 156.3543 34.8992 88.7981 0.0000 -37.6061 0.0000
# 2 34.8992 56.4267 39.2840 0.0000 -10.8194 0.0000
# 3 88.7981 39.2840 163.4692 0.0000 -31.3205 0.0000
# 4 0.0000 0.0000 0.0000 21.8732 0.0000 0.0700
# 5 -37.6061 -10.8194 -31.3205 0.0000 18.6367 0.0000
# 6 0.0000 0.0000 0.0000 0.0700 0.0000 20.4180
#
#
#
# Elastic Compliance Matrix: (Units=1/GPa)
#
#
# Indices 1 2 3 4 5 6 
#
# 1 0.013679 -0.002430 -0.002697 0.000000 0.021660 0.000000
# 2 -0.002430 0.022110 -0.003648 0.000000 0.001802 0.000000
# 3 -0.002697 -0.003648 0.010340 0.000000 0.009818 0.000000
# 4 0.000000 0.000000 0.000000 0.045719 0.000000 -0.000157
# 5 0.021660 0.001802 0.009818 0.000000 0.114909 0.000000
# 6 0.000000 0.000000 0.000000 -0.000157 0.000000 0.048977
#
#
# Mechanical properties :
#
#
# Convention : Reuss Voigt Hill
#
# Bulk Modulus (GPa) = 34.98979 78.02364 56.50672
# Shear Modulus (GPa) = 17.67969 26.40352 22.04161
#
# Velocity S-wave (km/s) = 3.17216 3.87658 3.54192
# Velocity P-wave (km/s) = 5.77335 8.02777 6.99202
#
# Compressibility (1/GPa) = 0.02857976
#
# Stress axis : x y z
#
# Youngs Moduli (GPa) = 73.10352 45.22779 96.71122
#
# Poissons Ratio (x) = 0.10990 0.26081
# Poissons Ratio (y) = 0.17763 0.35283
# Poissons Ratio (z) = 0.19714 0.16501
#
# Static dielectric constant tensor:
#      x y z
#    x 1.599950 0.000000 -0.035640 
#    y 0.000000 1.526150 0.000000 
#    z -0.035640 0.000000 1.588170 
# 
# From -- ./inp_files/28992.got.cif
#   From: 2010.05.17/outbox.cif.g08.bks.cpg/sg11_15_cif.got.tgz:28992.got - 2010.06.03 12:22:45.
