data_PCOD9158266
_publ_section_title
;
Structure prediction by ZEFSAII (Michael W. Deem and Ramdas Pophale) SiO2 
 PCOD9158266
Probable space group: P 21/M
;
_chemical_formula_sum "Si O2"
_cell_formula_units_Z 28
_cell_length_a 31.948038
_cell_length_b 7.803039
_cell_length_c 9.871562
_cell_angle_alpha 90.000000
_cell_angle_beta 28.146691
_cell_angle_gamma 90.000000
_cell_volume 1160.881467
_symmetry_space_group_name_H-M "P 21/M"
_symmetry_group_IT_number 11
_symmetry_cell_setting 'monoclinic'
loop_
_space_group_symop_operation_xyz
x,y,z
-x,1/2+y,-z
-x,-y,-z
x,1/2-y,z
loop_
_atom_site_type_symbol
_atom_site_label
_atom_site_fract_x
_atom_site_fract_y
_atom_site_fract_z
Si Si1 0.806400 0.545052 0.539716
Si Si2 0.505185 0.543764 0.645276
Si Si3 0.101676 0.047776 0.172741
Si Si4 0.041430 0.040296 0.065146
Si Si5 0.153024 0.548891 0.303065
Si Si6 0.406799 0.456422 0.341207
Si Si7 0.674838 0.548464 0.691059
O O1 0.807645 0.750000 0.523369
O O2 0.782270 0.510648 0.763643
O O3 0.741072 0.472539 0.613433
O O4 0.905496 0.480678 0.218199
O O5 0.500000 0.500000 0.500000
O O6 0.501770 0.750000 0.663000
O O7 0.583851 0.488140 0.527539
O O8 0.418919 0.466472 0.964433
O O9 0.109239 0.250000 0.150597
O O10 0.106563 0.990755 0.004200
O O11 0.165312 0.987093 0.110459
O O12 0.000000 0.000000 0.500000
O O13 0.035859 0.250000 0.079592
O O14 0.944215 0.972010 0.379875
O O15 0.146800 0.750000 0.334532
O O16 0.397197 0.250000 0.371173
O O17 0.336164 0.522497 0.430353
O O18 0.500000 0.500000 0.000000
O O19 0.697731 0.750000 0.609710
#
# Coordination Sequence:
#
# PCOD9158266 Si02
#       7
#     4   4   4   4   4   4   4
#     4  10  19  32  50  71  96 127 162 206 254 297
#     4  10  19  32  53  78 104 131 161 197 237 285
#     4   9  16  29  48  69  92 120 159 207 255 301
#     4   8  16  30  48  70  94 124 167 211 250 294
#     4  10  19  31  47  69  98 132 169 209 250 297
#     4   8  15  29  49  72  95 123 157 192 231 281
#     4   9  18  33  52  73  98 127 162 202 247 295
#
# _framework density 24.119603999999999
#
# number of rings (size 3 to 8) (size 9 to 14) (size 15 to 20)
#    0.000    2.857    0.000    2.571    0.000    1.143 
#    0.000    5.000    0.000    5.143    0.000    0.000 
#    0.000    0.000    0.000    0.000    0.000    0.000 
#
# Total GULP energy -155976.496163 kJ/mol
# GULP energy per Si atom -5570.589149 kJ/mol
# Density = 2.406471 g / cm^3
# Si number density = 24.119604 Si / 1000 Ang^3
#
#
#
# Elastic Constant Matrix: (Units=GPa)
#
#
# Indices 1 2 3 4 5 6 
#
# 1 201.3790 7.4209 31.6345 0.0000 41.5422 0.0000
# 2 7.4209 38.4956 -8.7679 0.0000 0.1155 0.0000
# 3 31.6345 -8.7679 50.2054 0.0000 22.3404 0.0000
# 4 0.0000 0.0000 0.0000 4.6250 0.0000 5.6381
# 5 41.5422 0.1155 22.3404 0.0000 33.1817 0.0000
# 6 0.0000 0.0000 0.0000 5.6381 0.0000 19.2819
#
#
#
# Elastic Compliance Matrix: (Units=1/GPa)
#
#
# Indices 1 2 3 4 5 6 
#
# 1 0.006796 -0.001536 -0.001095 0.000000 -0.007766 0.000000
# 2 -0.001536 0.027918 0.007183 0.000000 -0.003010 0.000000
# 3 -0.001095 0.007183 0.030359 0.000000 -0.019094 0.000000
# 4 0.000000 0.000000 0.000000 0.335974 0.000000 -0.098239
# 5 -0.007766 -0.003010 -0.019094 0.000000 0.052727 0.000000
# 6 0.000000 0.000000 0.000000 -0.098239 0.000000 0.080588
#
#
# Mechanical properties :
#
#
# Convention : Reuss Voigt Hill
#
# Bulk Modulus (GPa) = 13.48112 38.96166 26.22139
# Shear Modulus (GPa) = 9.09117 28.73722 18.91420
#
# Velocity S-wave (km/s) = 1.94355 3.45548 2.80337
# Velocity P-wave (km/s) = 3.26158 5.66648 4.62315
#
# Compressibility (1/GPa) = 0.07417782
#
# Stress axis : x y z
#
# Youngs Moduli (GPa) = 147.13463 35.81889 32.93902
#
# Poissons Ratio (x) = 0.05503 0.03606
# Poissons Ratio (y) = 0.22603 -0.23660
# Poissons Ratio (z) = 0.16109 -0.25729
#
# Static dielectric constant tensor:
#      x y z
#    x 2.079050 0.000000 -0.024340 
#    y 0.000000 1.887800 0.000000 
#    z -0.024340 0.000000 1.934860 
# 
# From -- ./inp_files/28971.got.cif
#   From: 2010.05.17/outbox.cif.g08.bks.cpg/sg11_15_cif.got.tgz:28971.got - 2010.06.03 12:22:45.
