data_PCOD9158540
_publ_section_title
;
Structure prediction by ZEFSAII (Michael W. Deem and Ramdas Pophale) SiO2 
 PCOD9158540
Probable space group: P 21/M
;
_chemical_formula_sum "Si O2"
_cell_formula_units_Z 32
_cell_length_a 31.411435
_cell_length_b 7.975397
_cell_length_c 13.105279
_cell_angle_alpha 90.000000
_cell_angle_beta 152.575356
_cell_angle_gamma 90.000000
_cell_volume 1512.143305
_symmetry_space_group_name_H-M "P 21/M"
_symmetry_group_IT_number 11
_symmetry_cell_setting 'monoclinic'
loop_
_space_group_symop_operation_xyz
x,y,z
-x,1/2+y,-z
-x,-y,-z
x,1/2-y,z
loop_
_atom_site_type_symbol
_atom_site_label
_atom_site_fract_x
_atom_site_fract_y
_atom_site_fract_z
Si Si1 0.647253 0.553207 0.605993
Si Si2 0.188720 0.951092 0.916857
Si Si3 0.540323 0.050790 0.694205
Si Si4 0.407545 0.441309 0.861359
Si Si5 0.125268 0.452242 0.556057
Si Si6 0.744296 0.057729 0.614024
Si Si7 0.693080 0.553527 0.157531
Si Si8 0.917038 0.454769 0.101856
O O1 0.652133 0.750000 0.589721
O O2 0.542116 0.507642 0.403167
O O3 0.690503 0.447307 0.607261
O O4 0.710733 0.522496 0.840152
O O5 0.194533 0.750000 0.929816
O O6 0.122907 0.004429 0.871766
O O7 0.151278 0.007043 0.728210
O O8 0.555551 0.250000 0.728007
O O9 0.500000 0.000000 0.500000
O O10 0.632973 0.962416 0.927227
O O11 0.428958 0.250000 0.931862
O O12 0.319800 0.457080 0.599453
O O13 0.369131 0.524032 0.884108
O O14 0.500000 0.500000 0.000000
O O15 0.124204 0.250000 0.545308
O O16 0.205951 0.517989 0.653153
O O17 0.021853 0.512808 0.312737
O O18 0.751267 0.250000 0.593033
O O19 0.845355 0.991159 0.861241
O O20 0.706281 0.750000 0.210295
O O21 0.915280 0.250000 0.096662
#
# Coordination Sequence:
#
# PCOD9158540 Si02
#       8
#     4   4   4   4   4   4   4   4
#     4  10  20  34  52  77 106 141 181 221 267 324
#     4  10  19  31  50  81 114 145 181 224 269 316
#     4  11  23  36  53  76 107 144 180 216 262 318
#     4  11  23  40  61  85 110 140 177 223 274 326
#     4  10  19  35  55  75 105 147 186 223 266 318
#     4  10  20  36  58  84 109 136 173 222 272 320
#     4  10  23  39  56  79 108 141 182 225 268 318
#     4   8  17  33  54  79 109 144 182 220 265 316
#
# _framework density 21.162016000000001
#
# number of rings (size 3 to 8) (size 9 to 14) (size 15 to 20)
#    0.000    2.000    0.000    4.500    0.000    8.500 
#    0.000    3.750    0.000    0.000    0.000    0.000 
#    0.000    0.000    0.000    0.000    0.000    0.000 
#
# Total GULP energy -178646.840553 kJ/mol
# GULP energy per Si atom -5582.713767 kJ/mol
# Density = 2.111385 g / cm^3
# Si number density = 21.162016 Si / 1000 Ang^3
#
#
#
# Elastic Constant Matrix: (Units=GPa)
#
#
# Indices 1 2 3 4 5 6 
#
# 1 95.4763 6.8039 52.3382 0.0000 18.9855 0.0000
# 2 6.8039 19.3447 -5.3335 0.0000 12.8360 0.0000
# 3 52.3382 -5.3335 111.6149 0.0000 20.3089 0.0000
# 4 0.0000 0.0000 0.0000 21.7002 0.0000 -3.3178
# 5 18.9855 12.8360 20.3089 0.0000 38.2459 0.0000
# 6 0.0000 0.0000 0.0000 -3.3178 0.0000 14.4858
#
#
#
# Elastic Compliance Matrix: (Units=1/GPa)
#
#
# Indices 1 2 3 4 5 6 
#
# 1 0.015130 -0.006157 -0.007083 0.000000 -0.001683 0.000000
# 2 -0.006157 0.076183 0.011760 0.000000 -0.028757 0.000000
# 3 -0.007083 0.011760 0.014303 0.000000 -0.008026 0.000000
# 4 0.000000 0.000000 0.000000 0.047755 0.000000 0.010938
# 5 -0.001683 -0.028757 -0.008026 0.000000 0.040895 0.000000
# 6 0.000000 0.000000 0.000000 0.010938 0.000000 0.071538
#
#
# Mechanical properties :
#
#
# Convention : Reuss Voigt Hill
#
# Bulk Modulus (GPa) = 9.74129 37.11702 23.42915
# Shear Modulus (GPa) = 16.50260 26.39486 21.44873
#
# Velocity S-wave (km/s) = 2.79556 3.53551 3.18708
# Velocity P-wave (km/s) = 3.87729 5.85183 4.96374
#
# Compressibility (1/GPa) = 0.10265576
#
# Stress axis : x y z
#
# Youngs Moduli (GPa) = 66.09455 13.12629 69.91608
#
# Poissons Ratio (x) = 0.08082 0.49519
# Poissons Ratio (y) = 0.40697 -0.82222
# Poissons Ratio (z) = 0.46812 -0.15437
#
# Static dielectric constant tensor:
#      x y z
#    x 1.808190 0.000000 0.005530 
#    y 0.000000 1.794580 0.000000 
#    z 0.005530 0.000000 1.773810 
# 
# From -- ./inp_files/45255.got.cif
#   From: 2010.05.17/outbox.cif.g08.bks.cpg/sg11_23_cif.got.tgz:45255.got - 2010.06.03 12:22:45.
