data_PCOD9158614
_publ_section_title
;
Structure prediction by ZEFSAII (Michael W. Deem and Ramdas Pophale) SiO2 
 PCOD9158614
Probable space group: P 21/M
;
_chemical_formula_sum "Si O2"
_cell_formula_units_Z 28
_cell_length_a 7.887278
_cell_length_b 24.379615
_cell_length_c 8.885275
_cell_angle_alpha 90.000000
_cell_angle_beta 136.651528
_cell_angle_gamma 90.000000
_cell_volume 1172.798834
_symmetry_space_group_name_H-M "P 21/M"
_symmetry_group_IT_number 11
_symmetry_cell_setting 'monoclinic'
loop_
_space_group_symop_operation_xyz
x,y,z
-x,1/2+y,-z
-x,-y,-z
x,1/2-y,z
loop_
_atom_site_type_symbol
_atom_site_label
_atom_site_fract_x
_atom_site_fract_y
_atom_site_fract_z
Si Si1 0.282210 0.457177 0.824514
Si Si2 0.499777 0.189391 0.685807
Si Si3 0.661866 0.128901 0.090053
Si Si4 0.771269 0.313903 0.455991
Si Si5 0.956151 0.689825 0.098398
Si Si6 0.341135 0.119363 0.319736
Si Si7 0.893972 0.540627 0.635240
O O1 0.027798 0.481250 0.728501
O O2 0.232164 0.454103 0.611499
O O3 0.500000 0.500000 0.000000
O O4 0.411082 0.403252 0.973749
O O5 0.399849 0.250000 0.650833
O O6 0.757627 0.194361 0.762471
O O7 0.325203 0.155147 0.463080
O O8 0.581199 0.158490 0.886783
O O9 0.760459 0.172040 0.274586
O O10 0.878465 0.084030 0.208960
O O11 0.694139 0.250000 0.426959
O O12 0.027740 0.318480 0.711790
O O13 0.600486 0.362704 0.414358
O O14 0.840894 0.750000 0.993461
O O15 0.847882 0.643432 0.923002
O O16 0.285829 0.058442 0.344219
#
# Coordination Sequence:
#
# PCOD9158614 Si02
#       7
#     4   4   4   4   4   4   4
#     4   9  20  37  61  88 116 142 189 252 303 339
#     4  10  19  31  53  83 111 144 194 238 278 338
#     4  11  20  37  57  84 117 150 186 244 298 345
#     4  10  23  37  52  81 124 160 186 228 292 347
#     4   9  18  34  52  74 109 152 191 227 268 335
#     4  11  19  36  59  82 111 155 198 234 281 342
#     4  10  20  36  62  89 108 148 200 241 293 345
#
# _framework density 23.874511999999999
#
# number of rings (size 3 to 8) (size 9 to 14) (size 15 to 20)
#    0.000    2.000    2.857    2.571    0.000    1.143 
#    0.000    0.714    0.000    8.571    0.000    0.000 
#    0.000    0.000    0.000    0.000    0.000    0.000 
#
# Total GULP energy -156226.456713 kJ/mol
# GULP energy per Si atom -5579.516311 kJ/mol
# Density = 2.382017 g / cm^3
# Si number density = 23.874512 Si / 1000 Ang^3
#
#
#
# Elastic Constant Matrix: (Units=GPa)
#
#
# Indices 1 2 3 4 5 6 
#
# 1 30.3101 7.8752 12.3896 0.0000 -0.4544 0.0000
# 2 7.8752 40.8497 33.7741 0.0000 -2.6702 0.0000
# 3 12.3896 33.7741 134.4441 0.0000 -30.1799 0.0000
# 4 0.0000 0.0000 0.0000 -95.4701 0.0000 -373.2681
# 5 -0.4544 -2.6702 -30.1799 0.0000 34.9886 0.0000
# 6 0.0000 0.0000 0.0000 -373.2681 0.0000 -955.6748
#
#
#
# Elastic Compliance Matrix: (Units=1/GPa)
#
#
# Indices 1 2 3 4 5 6 
#
# 1 0.035244 -0.004874 -0.002485 0.000000 -0.002058 0.000000
# 2 -0.004874 0.032410 -0.008869 0.000000 -0.005240 0.000000
# 3 -0.002485 -0.008869 0.012074 0.000000 0.009705 0.000000
# 4 0.000000 0.000000 0.000000 0.019872 0.000000 -0.007762
# 5 -0.002058 -0.005240 0.009705 0.000000 0.036525 0.000000
# 6 0.000000 0.000000 0.000000 -0.007762 0.000000 0.001985
#
#
# Mechanical properties :
#
#
# Convention : Reuss Voigt Hill
#
# Bulk Modulus (GPa) = 21.15483 34.85353 28.00418
# Shear Modulus (GPa) = 26.83499 -193.12693 -83.14597
#
# Velocity S-wave (km/s) = 3.35625 -9.00378 -5.90778
# Velocity P-wave (km/s) = 4.88869 9.66750 5.89751
#
# Compressibility (1/GPa) = 0.04727053
#
# Stress axis : x y z
#
# Youngs Moduli (GPa) = 28.37376 30.85487 82.82495
#
# Poissons Ratio (x) = 0.15039 0.20586
# Poissons Ratio (y) = 0.13830 0.73456
# Poissons Ratio (z) = 0.07052 0.27365
#
# Static dielectric constant tensor:
#      x y z
#    x 2.011430 0.000000 -0.006630 
#    y 0.000000 1.938880 0.000000 
#    z -0.006630 0.000000 1.879330 
# 
# From -- ./inp_files/10610.got.cif
#   From: 2010.05.17/outbox.cif.g08.bks.cpg/sg11_6_cif.got.tgz:10610.got - 2010.06.03 12:22:45.
