data_PCOD9158459
_publ_section_title
;
Structure prediction by ZEFSAII (Michael W. Deem and Ramdas Pophale) SiO2 
 PCOD9158459
Probable space group: P 21/M
;
_chemical_formula_sum "Si O2"
_cell_formula_units_Z 32
_cell_length_a 24.759645
_cell_length_b 8.653947
_cell_length_c 16.452430
_cell_angle_alpha 90.000000
_cell_angle_beta 153.358537
_cell_angle_gamma 90.000000
_cell_volume 1580.738932
_symmetry_space_group_name_H-M "P 21/M"
_symmetry_group_IT_number 11
_symmetry_cell_setting 'monoclinic'
loop_
_space_group_symop_operation_xyz
x,y,z
-x,1/2+y,-z
-x,-y,-z
x,1/2-y,z
loop_
_atom_site_type_symbol
_atom_site_label
_atom_site_fract_x
_atom_site_fract_y
_atom_site_fract_z
Si Si1 0.310047 0.070318 0.055506
Si Si2 0.258684 0.932927 0.447719
Si Si3 0.880099 0.565218 0.881132
Si Si4 0.301858 0.924955 0.780324
Si Si5 0.877064 0.074872 0.307815
Si Si6 0.486786 0.564896 0.160642
Si Si7 0.121547 0.067066 0.410117
Si Si8 0.132968 0.437071 0.948149
O O1 0.344849 0.250000 0.105253
O O2 0.409098 0.979454 0.136323
O O3 0.259018 0.017977 0.074321
O O4 0.189746 0.042765 0.841240
O O5 0.258913 0.750000 0.440660
O O6 0.230143 0.008292 0.322603
O O7 0.383356 0.992077 0.652802
O O8 0.155094 0.985443 0.370665
O O9 0.886193 0.750000 0.887620
O O10 0.868236 0.516410 0.958913
O O11 0.000000 0.500000 0.000000
O O12 0.324973 0.750000 0.780137
O O13 0.207719 0.912353 0.727768
O O14 0.230094 0.022551 0.617221
O O15 0.419607 0.987258 0.986717
O O16 0.890026 0.250000 0.291610
O O17 0.000000 0.000000 0.500000
O O18 0.493522 0.750000 0.164651
O O19 0.117840 0.250000 0.395167
O O20 0.988711 0.006657 0.255426
O O21 0.124902 0.250000 0.931565
#
# Coordination Sequence:
#
# PCOD9158459 Si02
#       8
#     4   4   4   4   4   4   4   4
#     4  10  20  36  58  85 117 157 197 239 295 356
#     4  12  25  42  64  88 119 158 198 248 303 360
#     4  11  22  40  65  93 122 156 196 243 300 360
#     4   9  20  37  55  78 115 157 197 243 296 350
#     4  10  19  31  49  76 111 154 199 246 295 346
#     4  10  22  42  64  87 118 159 205 250 293 349
#     4  12  24  36  58  90 122 156 201 250 299 358
#     4  10  22  39  61  89 125 159 193 243 302 358
#
# _framework density 20.243696
#
# number of rings (size 3 to 8) (size 9 to 14) (size 15 to 20)
#    0.000    1.500    1.250    5.250    0.000    8.000 
#    0.000    0.625    0.000    0.000    0.000    0.000 
#    0.000    0.000    0.000    0.000    0.000    0.000 
#
# Total GULP energy -178681.287136 kJ/mol
# GULP energy per Si atom -5583.790223 kJ/mol
# Density = 2.019762 g / cm^3
# Si number density = 20.243696 Si / 1000 Ang^3
#
#
#
# Elastic Constant Matrix: (Units=GPa)
#
#
# Indices 1 2 3 4 5 6 
#
# 1 65.8333 8.1457 -1.3970 0.0000 -9.0485 0.0000
# 2 8.1457 56.0702 7.5421 0.0000 -5.5504 0.0000
# 3 -1.3970 7.5421 66.7656 0.0000 -5.6837 0.0000
# 4 0.0000 0.0000 0.0000 29.7140 0.0000 0.1837
# 5 -9.0485 -5.5504 -5.6837 0.0000 28.9237 0.0000
# 6 0.0000 0.0000 0.0000 0.1837 0.0000 24.8754
#
#
#
# Elastic Compliance Matrix: (Units=1/GPa)
#
#
# Indices 1 2 3 4 5 6 
#
# 1 0.016124 -0.001993 0.000976 0.000000 0.004854 0.000000
# 2 -0.001993 0.018639 -0.001928 0.000000 0.002574 0.000000
# 3 0.000976 -0.001928 0.015469 0.000000 0.002975 0.000000
# 4 0.000000 0.000000 0.000000 0.033656 0.000000 -0.000249
# 5 0.004854 0.002574 0.002975 0.000000 0.037171 0.000000
# 6 0.000000 0.000000 0.000000 -0.000249 0.000000 0.040202
#
#
# Mechanical properties :
#
#
# Convention : Reuss Voigt Hill
#
# Bulk Modulus (GPa) = 22.55255 24.13898 23.34577
# Shear Modulus (GPa) = 27.48275 28.32783 27.90529
#
# Velocity S-wave (km/s) = 3.68855 3.74483 3.71680
# Velocity P-wave (km/s) = 5.41344 5.53611 5.47511
#
# Compressibility (1/GPa) = 0.04434088
#
# Stress axis : x y z
#
# Youngs Moduli (GPa) = 62.01812 53.65231 64.64440
#
# Poissons Ratio (x) = 0.10694 -0.06308
# Poissons Ratio (y) = 0.12362 0.12464
# Poissons Ratio (z) = -0.06051 0.10344
#
# Static dielectric constant tensor:
#      x y z
#    x 1.768040 0.000000 -0.009090 
#    y 0.000000 1.690520 0.000000 
#    z -0.009090 0.000000 1.525330 
# 
# From -- ./inp_files/55714.got.cif
#   From: 2010.05.17/outbox.cif.g08.bks.cpg/sg11_28_cif.got.tgz:55714.got - 2010.06.03 12:22:45.
