data_PCOD9158616
_publ_section_title
;
Structure prediction by ZEFSAII (Michael W. Deem and Ramdas Pophale) SiO2 
 PCOD9158616
Probable space group: P 21/M
;
_chemical_formula_sum "Si O2"
_cell_formula_units_Z 32
_cell_length_a 17.204386
_cell_length_b 8.722569
_cell_length_c 11.241548
_cell_angle_alpha 90.000000
_cell_angle_beta 84.605573
_cell_angle_gamma 90.000000
_cell_volume 1679.507694
_symmetry_space_group_name_H-M "P 21/M"
_symmetry_group_IT_number 11
_symmetry_cell_setting 'monoclinic'
loop_
_space_group_symop_operation_xyz
x,y,z
-x,1/2+y,-z
-x,-y,-z
x,1/2-y,z
loop_
_atom_site_type_symbol
_atom_site_label
_atom_site_fract_x
_atom_site_fract_y
_atom_site_fract_z
Si Si1 0.480310 0.432206 0.293171
Si Si2 0.333753 0.067938 0.463631
Si Si3 0.245246 0.568818 0.698354
Si Si4 0.087088 0.066688 0.623301
Si Si5 0.385650 0.929629 0.087495
Si Si6 0.918844 0.567001 0.657206
Si Si7 0.761746 0.429501 0.738954
Si Si8 0.626838 0.568844 0.167023
O O1 0.493505 0.250000 0.293958
O O2 0.421212 0.473240 0.408536
O O3 0.434328 0.478493 0.179152
O O4 0.561717 0.519774 0.272961
O O5 0.330231 0.250000 0.489503
O O6 0.298801 0.974433 0.577305
O O7 0.278741 0.028936 0.358938
O O8 0.241157 0.750000 0.713634
O O9 0.160212 0.501146 0.682986
O O10 0.289798 0.493210 0.802412
O O11 0.085662 0.250000 0.634340
O O12 0.095841 0.030012 0.480912
O O13 0.004411 0.996589 0.674058
O O14 0.592534 0.250000 0.908887
O O15 0.295044 0.943790 0.139811
O O16 0.396443 0.992801 0.954473
O O17 0.916725 0.750000 0.670552
O O18 0.849371 0.488582 0.740008
O O19 0.761635 0.250000 0.703781
O O20 0.627935 0.750000 0.155063
#
# Coordination Sequence:
#
# PCOD9158616 Si02
#       8
#     4   4   4   4   4   4   4   4
#     4  10  21  38  60  84 111 142 182 232 281 326
#     4  10  20  35  55  81 112 146 182 223 274 330
#     4  12  24  38  57  79 112 150 185 225 274 333
#     4  10  20  34  53  80 115 149 183 223 268 323
#     4  10  21  38  59  84 112 143 185 232 279 325
#     4  10  19  31  53  83 116 148 182 224 269 321
#     4  10  19  32  55  84 114 146 180 226 276 325
#     4  12  25  40  58  79 107 146 190 231 277 329
#
# _framework density 19.053203
#
# number of rings (size 3 to 8) (size 9 to 14) (size 15 to 20)
#    0.000    1.500    1.250    4.875    0.000    4.500 
#    0.000    0.000    0.000    0.750    0.000    0.000 
#    0.000    0.000    0.000    0.000    0.000    0.000 
#
# Total GULP energy -178881.378468 kJ/mol
# GULP energy per Si atom -5590.043077 kJ/mol
# Density = 1.900984 g / cm^3
# Si number density = 19.053203 Si / 1000 Ang^3
#
#
#
# Elastic Constant Matrix: (Units=GPa)
#
#
# Indices 1 2 3 4 5 6 
#
# 1 107.2229 11.9007 0.8438 0.0000 -6.0755 0.0000
# 2 11.9007 50.8796 -8.2798 0.0000 -10.9396 0.0000
# 3 0.8438 -8.2798 13.6798 0.0000 -2.6303 0.0000
# 4 0.0000 0.0000 0.0000 21.5299 0.0000 -0.6251
# 5 -6.0755 -10.9396 -2.6303 0.0000 21.1023 0.0000
# 6 0.0000 0.0000 0.0000 -0.6251 0.0000 36.5265
#
#
#
# Elastic Compliance Matrix: (Units=1/GPa)
#
#
# Indices 1 2 3 4 5 6 
#
# 1 0.009667 -0.002228 -0.001672 0.000000 0.001420 0.000000
# 2 -0.002228 0.026662 0.019271 0.000000 0.015582 0.000000
# 3 -0.001672 0.019271 0.088824 0.000000 0.020580 0.000000
# 4 0.000000 0.000000 0.000000 0.046470 0.000000 0.000795
# 5 0.001420 0.015582 0.020580 0.000000 0.058440 0.000000
# 6 0.000000 0.000000 0.000000 0.000795 0.000000 0.027391
#
#
# Mechanical properties :
#
#
# Convention : Reuss Voigt Hill
#
# Bulk Modulus (GPa) = 6.41457 20.07908 13.24682
# Shear Modulus (GPa) = 17.94189 26.98625 22.46407
#
# Velocity S-wave (km/s) = 3.07200 3.76754 3.43741
# Velocity P-wave (km/s) = 3.99460 5.43021 4.76676
#
# Compressibility (1/GPa) = 0.15589515
#
# Stress axis : x y z
#
# Youngs Moduli (GPa) = 103.44201 37.50708 11.25817
#
# Poissons Ratio (x) = 0.08356 0.01882
# Poissons Ratio (y) = 0.23046 -0.21695
# Poissons Ratio (z) = 0.17293 -0.72278
#
# Static dielectric constant tensor:
#      x y z
#    x 1.678500 0.000000 -0.006140 
#    y 0.000000 1.629460 0.000000 
#    z -0.006140 0.000000 1.654130 
# 
# From -- ./inp_files/38246.got.cif
#   From: 2010.05.17/outbox.cif.g08.bks.cpg/sg11_20_cif.got.tgz:38246.got - 2010.06.03 12:22:45.
