data_PCOD9158496
_publ_section_title
;
Structure prediction by ZEFSAII (Michael W. Deem and Ramdas Pophale) SiO2 
 PCOD9158496
Probable space group: P 21/M
;
_chemical_formula_sum "Si O2"
_cell_formula_units_Z 24
_cell_length_a 9.972763
_cell_length_b 8.485915
_cell_length_c 20.783127
_cell_angle_alpha 90.000000
_cell_angle_beta 49.593758
_cell_angle_gamma 90.000000
_cell_volume 1339.295933
_symmetry_space_group_name_H-M "P 21/M"
_symmetry_group_IT_number 11
_symmetry_cell_setting 'monoclinic'
loop_
_space_group_symop_operation_xyz
x,y,z
-x,1/2+y,-z
-x,-y,-z
x,1/2-y,z
loop_
_atom_site_type_symbol
_atom_site_label
_atom_site_fract_x
_atom_site_fract_y
_atom_site_fract_z
Si Si1 0.605638 0.940652 0.029462
Si Si2 0.599620 0.440390 0.778440
Si Si3 0.037337 0.940402 0.277531
Si Si4 0.970769 0.939887 0.864544
Si Si5 0.359963 0.061394 0.594562
Si Si6 0.366411 0.561322 0.736577
O O1 0.601002 0.750000 0.029971
O O2 0.512237 0.992622 0.124166
O O3 0.808943 0.992979 0.959281
O O4 0.500000 0.000000 0.000000
O O5 0.595609 0.250000 0.777769
O O6 0.801433 0.490462 0.727608
O O7 0.509820 0.503647 0.742411
O O8 0.040197 0.750000 0.273182
O O9 0.841001 0.989685 0.359037
O O10 0.067351 0.004156 0.196244
O O11 0.971758 0.750000 0.864875
O O12 0.169112 0.993682 0.818748
O O13 0.363809 0.250000 0.593732
O O14 0.500000 0.000000 0.500000
O O15 0.397261 0.001178 0.655011
O O16 0.365896 0.750000 0.734785
#
# Coordination Sequence:
#
# PCOD9158496 Si02
#       6
#     4   4   4   4   4   4
#     4  10  19  31  50  75 105 140 182 223 258 301
#     4  10  20  34  51  76 109 142 176 217 262 306
#     4   9  18  33  54  78 104 137 174 212 259 314
#     4   9  18  32  50  74 104 139 180 222 258 300
#     4  10  20  37  61  84 105 132 169 212 261 318
#     4  10  21  36  53  77 109 141 175 215 262 311
#
# _framework density 17.919862999999999
#
# number of rings (size 3 to 8) (size 9 to 14) (size 15 to 20)
#    0.000    2.333    1.667    1.000    0.000    3.333 
#    0.000    0.833    0.000    0.000    0.000    0.000 
#    0.000    0.000    0.000    0.000    0.000    0.000 
#
# Total GULP energy -133875.138634 kJ/mol
# GULP energy per Si atom -5578.130776 kJ/mol
# Density = 1.787908 g / cm^3
# Si number density = 17.919863 Si / 1000 Ang^3
#
#
#
# Elastic Constant Matrix: (Units=GPa)
#
#
# Indices 1 2 3 4 5 6 
#
# 1 168.4641 27.5314 84.1174 0.0000 -12.5955 0.0000
# 2 27.5314 14.6282 27.8060 0.0000 -4.3204 0.0000
# 3 84.1174 27.8060 146.4219 0.0000 -16.8262 0.0000
# 4 0.0000 0.0000 0.0000 22.9867 0.0000 4.5101
# 5 -12.5955 -4.3204 -16.8262 0.0000 17.6743 0.0000
# 6 0.0000 0.0000 0.0000 4.5101 0.0000 27.3748
#
#
#
# Elastic Compliance Matrix: (Units=1/GPa)
#
#
# Indices 1 2 3 4 5 6 
#
# 1 0.009461 -0.011585 -0.003128 0.000000 0.000933 0.000000
# 2 -0.011585 0.122091 -0.015775 0.000000 0.006570 0.000000
# 3 -0.003128 -0.015775 0.012265 0.000000 0.005591 0.000000
# 4 0.000000 0.000000 0.000000 0.044957 0.000000 -0.007407
# 5 0.000933 0.006570 0.005591 0.000000 0.064173 0.000000
# 6 0.000000 0.000000 0.000000 -0.007407 0.000000 0.037750
#
#
# Mechanical properties :
#
#
# Convention : Reuss Voigt Hill
#
# Bulk Modulus (GPa) = 12.07134 67.60264 39.83699
# Shear Modulus (GPa) = 13.18268 26.27778 19.73023
#
# Velocity S-wave (km/s) = 2.71522 3.83352 3.32177
# Velocity P-wave (km/s) = 4.07196 7.57637 6.08203
#
# Compressibility (1/GPa) = 0.08284084
#
# Stress axis : x y z
#
# Youngs Moduli (GPa) = 105.69934 8.19062 81.53419
#
# Poissons Ratio (x) = 0.09489 0.25504
# Poissons Ratio (y) = 1.22450 1.28622
# Poissons Ratio (z) = 0.33062 0.12921
#
# Static dielectric constant tensor:
#      x y z
#    x 1.603560 0.000000 -0.045840 
#    y 0.000000 1.607170 0.000000 
#    z -0.045840 0.000000 1.609800 
# 
# From -- ./inp_files/20333.got.cif
#   From: 2010.05.17/outbox.cif.g08.bks.cpg/sg11_11_cif.got.tgz:20333.got - 2010.06.03 12:22:45.
