data_PCOD9158444
_publ_section_title
;
Structure prediction by ZEFSAII (Michael W. Deem and Ramdas Pophale) SiO2 
 PCOD9158444
Probable space group: P 21/M
;
_chemical_formula_sum "Si O2"
_cell_formula_units_Z 30
_cell_length_a 16.601009
_cell_length_b 7.982076
_cell_length_c 9.758563
_cell_angle_alpha 90.000000
_cell_angle_beta 105.053594
_cell_angle_gamma 90.000000
_cell_volume 1248.736878
_symmetry_space_group_name_H-M "P 21/M"
_symmetry_group_IT_number 11
_symmetry_cell_setting 'monoclinic'
loop_
_space_group_symop_operation_xyz
x,y,z
-x,1/2+y,-z
-x,-y,-z
x,1/2-y,z
loop_
_atom_site_type_symbol
_atom_site_label
_atom_site_fract_x
_atom_site_fract_y
_atom_site_fract_z
Si Si1 0.434315 0.750000 0.938564
Si Si2 0.267694 0.052224 0.507627
Si Si3 0.219444 0.545915 0.783402
Si Si4 0.967189 0.445198 0.336642
Si Si5 0.737299 0.045242 0.897779
Si Si6 0.472921 0.069689 0.786044
Si Si7 0.594455 0.555680 0.628497
Si Si8 0.876869 0.055764 0.756476
O O1 0.430863 0.599099 0.821817
O O2 0.453843 0.608741 0.069412
O O3 0.260825 0.250000 0.474588
O O4 0.354340 0.991816 0.480456
O O5 0.259393 0.019949 0.663121
O O6 0.190474 0.965727 0.395715
O O7 0.223996 0.750000 0.783815
O O8 0.123476 0.483875 0.740138
O O9 0.262987 0.497287 0.943980
O O10 0.952608 0.250000 0.342829
O O11 0.000000 0.500000 0.500000
O O12 0.037973 0.472881 0.254528
O O13 0.729211 0.250000 0.883828
O O14 0.826407 0.998717 0.868360
O O15 0.666657 0.959940 0.776899
O O16 0.425439 0.250000 0.763552
O O17 0.517859 0.043240 0.659955
O O18 0.572549 0.750000 0.604941
O O19 0.895845 0.250000 0.783227
#
# Coordination Sequence:
#
# PCOD9158444 Si02
#       8
#     2   4   4   4   4   4   4   4
#     4   8  16  26  44  76 110 138 172 208 246 290
#     4  10  20  32  49  71  96 127 163 210 249 295
#     4  10  21  36  51  67  94 125 165 210 255 303
#     4  11  21  32  50  72  91 119 159 205 253 311
#     4   9  20  36  50  68  95 131 165 206 251 304
#     4   9  15  27  46  72 109 144 168 207 252 290
#     4  10  19  31  49  75 105 134 170 205 248 298
#     4  10  19  33  51  70  93 119 159 202 256 308
#
# _framework density 24.024277999999999
#
# number of rings (size 3 to 8) (size 9 to 14) (size 15 to 20)
#    0.400    1.867    2.000    1.600    0.000    3.733 
#    0.000    0.000    0.000    0.000    0.000    0.000 
#    0.000    6.400    0.000    0.400    0.000    0.400 
#
# Total GULP energy -167263.196992 kJ/mol
# GULP energy per Si atom -5575.439900 kJ/mol
# Density = 2.396960 g / cm^3
# Si number density = 24.024278 Si / 1000 Ang^3
#
#
#
# Elastic Constant Matrix: (Units=GPa)
#
#
# Indices 1 2 3 4 5 6 
#
# 1 97.5139 14.0774 40.5352 0.0000 1.5680 0.0000
# 2 14.0774 72.1922 16.5797 0.0000 -7.2643 0.0000
# 3 40.5352 16.5797 123.2424 0.0000 -23.3743 0.0000
# 4 0.0000 0.0000 0.0000 34.6437 0.0000 -7.5764
# 5 1.5680 -7.2643 -23.3743 0.0000 30.8401 0.0000
# 6 0.0000 0.0000 0.0000 -7.5764 0.0000 27.5152
#
#
#
# Elastic Compliance Matrix: (Units=1/GPa)
#
#
# Indices 1 2 3 4 5 6 
#
# 1 0.012583 -0.001828 -0.004783 0.000000 -0.004695 0.000000
# 2 -0.001828 0.014692 -0.000819 0.000000 0.002933 0.000000
# 3 -0.004783 -0.000819 0.011453 0.000000 0.008731 0.000000
# 4 0.000000 0.000000 0.000000 0.030715 0.000000 0.008457
# 5 -0.004695 0.002933 0.008731 0.000000 0.039972 0.000000
# 6 0.000000 0.000000 0.000000 0.008457 0.000000 0.038672
#
#
# Mechanical properties :
#
#
# Convention : Reuss Voigt Hill
#
# Bulk Modulus (GPa) = 41.89748 48.37033 45.13391
# Shear Modulus (GPa) = 29.25643 33.38355 31.31999
#
# Velocity S-wave (km/s) = 3.49346 3.73175 3.61457
# Velocity P-wave (km/s) = 5.80947 6.22459 6.02061
#
# Compressibility (1/GPa) = 0.02386779
#
# Stress axis : x y z
#
# Youngs Moduli (GPa) = 79.47497 68.06650 87.31013
#
# Poissons Ratio (x) = 0.12440 0.41762
# Poissons Ratio (y) = 0.14525 0.07152
# Poissons Ratio (z) = 0.38014 0.05575
#
# Static dielectric constant tensor:
#      x y z
#    x 2.500500 0.000000 0.474440 
#    y 0.000000 1.899180 0.000000 
#    z 0.474440 0.000000 2.336530 
# 
# From -- ./inp_files/25873.got.cif
#   From: 2010.05.17/outbox.cif.g08.bks.cpg/sg11_13_cif.got.tgz:25873.got - 2010.06.03 12:22:45.
