data_PCOD9158749
_publ_section_title
;
Structure prediction by ZEFSAII (Michael W. Deem and Ramdas Pophale) SiO2 
 PCOD9158749
Probable space group: P 21/M
;
_chemical_formula_sum "Si O2"
_cell_formula_units_Z 32
_cell_length_a 11.975226
_cell_length_b 8.972515
_cell_length_c 30.958371
_cell_angle_alpha 90.000000
_cell_angle_beta 33.706769
_cell_angle_gamma 90.000000
_cell_volume 1845.967981
_symmetry_space_group_name_H-M "P 21/M"
_symmetry_group_IT_number 11
_symmetry_cell_setting 'monoclinic'
loop_
_space_group_symop_operation_xyz
x,y,z
-x,1/2+y,-z
-x,-y,-z
x,1/2-y,z
loop_
_atom_site_type_symbol
_atom_site_label
_atom_site_fract_x
_atom_site_fract_y
_atom_site_fract_z
Si Si1 0.078069 0.072125 0.273029
Si Si2 0.811000 0.927498 0.035859
Si Si3 0.100895 0.574504 0.081953
Si Si4 0.668428 0.573602 0.314791
Si Si5 0.358947 0.426078 0.580762
Si Si6 0.613714 0.576343 0.238082
Si Si7 0.899620 0.573994 0.829434
Si Si8 0.537579 0.926188 0.796853
O O1 0.038286 0.250000 0.284255
O O2 0.174201 0.033285 0.195034
O O3 0.238011 0.041932 0.258908
O O4 0.868047 0.989017 0.347421
O O5 0.829718 0.750000 0.030880
O O6 0.615580 0.982044 0.124194
O O7 0.810610 0.986917 0.987070
O O8 0.000000 0.000000 0.000000
O O9 0.141905 0.750000 0.064961
O O10 0.174557 0.513842 0.104594
O O11 0.856804 0.554706 0.158367
O O12 0.732784 0.750000 0.293027
O O13 0.566835 0.547957 0.393656
O O14 0.551738 0.549006 0.307739
O O15 0.864346 0.469537 0.249854
O O16 0.500000 0.500000 0.500000
O O17 0.354103 0.250000 0.575242
O O18 0.577072 0.750000 0.239284
O O19 0.506706 0.473735 0.237786
O O20 0.873019 0.750000 0.844808
O O21 0.499976 0.750000 0.814699
#
# Coordination Sequence:
#
# PCOD9158749 Si02
#       8
#     4   4   4   4   4   4   4   4
#     4   9  20  37  54  76 107 140 174 212 254 309
#     4  12  23  35  51  73 101 135 177 222 266 311
#     4  10  19  32  50  73 101 131 170 221 269 308
#     4   8  16  30  48  73 104 134 167 206 253 302
#     4  10  19  33  57  85 110 137 167 208 256 307
#     4   9  17  30  49  72 100 133 172 214 255 303
#     4   9  16  29  50  73  98 130 170 214 258 305
#     4  11  22  35  52  74 104 140 175 215 264 311
#
# _framework density 17.335077999999999
#
# number of rings (size 3 to 8) (size 9 to 14) (size 15 to 20)
#    0.000    2.250    1.250    3.375    0.000    4.000 
#    0.000    0.625    0.000    0.750    0.000    0.000 
#    0.000    0.000    0.000    0.000    0.000    0.000 
#
# Total GULP energy -178425.097164 kJ/mol
# GULP energy per Si atom -5575.784286 kJ/mol
# Density = 1.729562 g / cm^3
# Si number density = 17.335078 Si / 1000 Ang^3
#
#
#
# Elastic Constant Matrix: (Units=GPa)
#
#
# Indices 1 2 3 4 5 6 
#
# 1 81.8731 51.0010 38.6461 0.0000 19.2178 0.0000
# 2 51.0010 83.1718 42.2284 0.0000 12.5053 0.0000
# 3 38.6461 42.2284 71.4071 0.0000 24.4615 0.0000
# 4 0.0000 0.0000 0.0000 25.8037 0.0000 7.1994
# 5 19.2178 12.5053 24.4615 0.0000 23.3596 0.0000
# 6 0.0000 0.0000 0.0000 7.1994 0.0000 26.1678
#
#
#
# Elastic Compliance Matrix: (Units=1/GPa)
#
#
# Indices 1 2 3 4 5 6 
#
# 1 0.022662 -0.011314 -0.001968 0.000000 -0.010526 0.000000
# 2 -0.011314 0.022908 -0.009998 0.000000 0.007514 0.000000
# 3 -0.001968 -0.009998 0.028995 0.000000 -0.023391 0.000000
# 4 0.000000 0.000000 0.000000 0.041976 0.000000 -0.011549
# 5 -0.010526 0.007514 -0.023391 0.000000 0.071940 0.000000
# 6 0.000000 0.000000 0.000000 -0.011549 0.000000 0.041392
#
#
# Mechanical properties :
#
#
# Convention : Reuss Voigt Hill
#
# Bulk Modulus (GPa) = 35.70913 55.57811 45.64362
# Shear Modulus (GPa) = 17.49678 22.03800 19.76739
#
# Velocity S-wave (km/s) = 3.18044 3.56939 3.38051
# Velocity P-wave (km/s) = 5.84217 7.00843 6.45171
#
# Compressibility (1/GPa) = 0.02800404
#
# Stress axis : x y z
#
# Youngs Moduli (GPa) = 44.12747 43.65373 34.48922
#
# Poissons Ratio (x) = 0.49392 0.06787
# Poissons Ratio (y) = 0.49928 0.34481
# Poissons Ratio (z) = 0.08684 0.43643
#
# Static dielectric constant tensor:
#      x y z
#    x 1.619680 0.000000 0.026670 
#    y 0.000000 1.581810 0.000000 
#    z 0.026670 0.000000 1.572840 
# 
# From -- ./inp_files/73057.got.cif
#   From: 2010.05.17/outbox.cif.g08.bks.cpg/sg11_37_cif.got.tgz:73057.got - 2010.06.03 12:22:45.
