data_PCOD9158633
_publ_section_title
;
Structure prediction by ZEFSAII (Michael W. Deem and Ramdas Pophale) SiO2 
 PCOD9158633
Probable space group: P 21/M
;
_chemical_formula_sum "Si O2"
_cell_formula_units_Z 30
_cell_length_a 11.432971
_cell_length_b 25.600018
_cell_length_c 8.770280
_cell_angle_alpha 90.000000
_cell_angle_beta 39.886544
_cell_angle_gamma 90.000000
_cell_volume 1646.089247
_symmetry_space_group_name_H-M "P 21/M"
_symmetry_group_IT_number 11
_symmetry_cell_setting 'monoclinic'
loop_
_space_group_symop_operation_xyz
x,y,z
-x,1/2+y,-z
-x,-y,-z
x,1/2-y,z
loop_
_atom_site_type_symbol
_atom_site_label
_atom_site_fract_x
_atom_site_fract_y
_atom_site_fract_z
Si Si1 0.000054 0.845148 0.446777
Si Si2 0.000216 0.564666 0.195671
Si Si3 0.000095 0.343498 0.042210
Si Si4 0.713785 0.989697 0.962282
Si Si5 0.715525 0.134281 0.579109
Si Si6 0.000152 0.250000 0.793633
Si Si7 0.284553 0.365769 0.009966
Si Si8 0.714172 0.489650 0.609989
O O1 0.000210 0.896429 0.340720
O O2 0.177442 0.846597 0.378041
O O3 0.999876 0.795557 0.338954
O O4 0.822689 0.846694 0.732903
O O5 0.173026 0.526812 0.040375
O O6 0.827651 0.526733 0.386040
O O7 0.999991 0.601814 0.049927
O O8 0.177730 0.342487 0.972739
O O9 0.822448 0.342453 0.328107
O O10 0.000151 0.296044 0.925493
O O11 0.740092 0.928641 0.969904
O O12 0.770219 0.000023 0.729921
O O13 0.499782 0.001886 0.187085
O O14 0.740378 0.071413 0.549889
O O15 0.500023 0.145548 0.797507
#
# Coordination Sequence:
#
# PCOD9158633 Si02
#       8
#     4   4   4   4   4   2   4   4
#     4  10  20  38  63  83 106 145 195 246 281 327
#     4  11  19  33  57  84 118 158 192 222 277 339
#     4  10  24  41  58  82 119 158 186 239 297 343
#     4  10  19  31  54  89 124 154 188 231 273 332
#     4  10  21  38  60  88 118 151 189 229 284 348
#     4  10  24  46  62  82 112 142 194 254 300 334
#     4  10  21  38  60  88 118 151 189 229 284 348
#     4  10  19  31  54  89 124 154 188 231 273 332
#
# _framework density 18.225014000000002
#
# number of rings (size 3 to 8) (size 9 to 14) (size 15 to 20)
#    0.000    1.867    2.667    2.000    0.000    5.333 
#    0.000   10.667    0.000    0.000    0.000    0.000 
#    0.000    0.000    0.000    0.000    0.000    0.000 
#
# Total GULP energy -167006.320603 kJ/mol
# GULP energy per Si atom -5566.877353 kJ/mol
# Density = 1.818353 g / cm^3
# Si number density = 18.225014 Si / 1000 Ang^3
#
#
#
# Elastic Constant Matrix: (Units=GPa)
#
#
# Indices 1 2 3 4 5 6 
#
# 1 -821.3923 79.2712 1070.6691 0.0000 136.9908 0.0000
# 2 79.2712 99.2471 25.2722 0.0000 -9.3753 0.0000
# 3 1070.6691 25.2722 -943.9789 0.0000 -154.0523 0.0000
# 4 0.0000 0.0000 0.0000 12.1440 0.0000 15.2946
# 5 136.9908 -9.3753 -154.0523 0.0000 6.5995 0.0000
# 6 0.0000 0.0000 0.0000 15.2946 0.0000 16.7552
#
#
#
# Elastic Compliance Matrix: (Units=1/GPa)
#
#
# Indices 1 2 3 4 5 6 
#
# 1 0.003869 -0.003775 0.003799 0.000000 0.002995 0.000000
# 2 -0.003775 0.014300 -0.004159 0.000000 0.001594 0.000000
# 3 0.003799 -0.004159 0.003528 0.000000 -0.002394 0.000000
# 4 0.000000 0.000000 0.000000 -0.550280 0.000000 0.502309
# 5 0.002995 0.001594 -0.002394 0.000000 0.035745 0.000000
# 6 0.000000 0.000000 0.000000 0.502309 0.000000 -0.398837
#
#
# Mechanical properties :
#
#
# Convention : Reuss Voigt Hill
#
# Bulk Modulus (GPa) = 74.46960 76.03343 75.25151
# Shear Modulus (GPa) = -5.68875 -182.32270 -94.00572
#
# Velocity S-wave (km/s) = -1.76866 -10.01284 -7.18976
# Velocity P-wave (km/s) = 6.06457 9.58468 5.24820
#
# Compressibility (1/GPa) = 0.01342830
#
# Stress axis : x y z
#
# Youngs Moduli (GPa) = 258.45933 69.92812 283.41381
#
# Poissons Ratio (x) = 0.26396 -1.07657
# Poissons Ratio (y) = 0.97561 1.17862
# Poissons Ratio (z) = -0.98178 0.29081
#
# Static dielectric constant tensor:
#      x y z
#    x 1.628320 0.000000 -0.002450 
#    y 0.000000 1.592670 0.000000 
#    z -0.002450 0.000000 1.628830 
# 
# From -- ./inp_files/19711.got.cif
#   From: 2010.05.17/outbox.cif.g08.bks.cpg/sg11_10_cif.got.tgz:19711.got - 2010.06.03 12:22:45.
