data_PCOD9158494
_publ_section_title
;
Structure prediction by ZEFSAII (Michael W. Deem and Ramdas Pophale) SiO2 
 PCOD9158494
Probable space group: P 21/M
;
_chemical_formula_sum "Si O2"
_cell_formula_units_Z 32
_cell_length_a 14.984290
_cell_length_b 12.905191
_cell_length_c 14.884208
_cell_angle_alpha 90.000000
_cell_angle_beta 41.113773
_cell_angle_gamma 90.000000
_cell_volume 1892.602141
_symmetry_space_group_name_H-M "P 21/M"
_symmetry_group_IT_number 11
_symmetry_cell_setting 'monoclinic'
loop_
_space_group_symop_operation_xyz
x,y,z
-x,1/2+y,-z
-x,-y,-z
x,1/2-y,z
loop_
_atom_site_type_symbol
_atom_site_label
_atom_site_fract_x
_atom_site_fract_y
_atom_site_fract_z
Si Si1 0.672849 0.486420 0.464290
Si Si2 0.388642 0.375001 0.662489
Si Si3 0.778669 0.868296 0.537553
Si Si4 0.955361 0.374106 0.266337
Si Si5 0.457836 0.128376 0.931105
Si Si6 0.773527 0.625055 0.038005
Si Si7 0.964999 0.487240 0.631582
Si Si8 0.320173 0.465285 0.205924
O O1 0.540225 0.414069 0.572256
O O2 0.651508 0.564899 0.397549
O O3 0.697374 0.555112 0.534160
O O4 0.810220 0.419971 0.348529
O O5 0.387015 0.250000 0.653775
O O6 0.284467 0.405973 0.821141
O O7 0.751306 0.750000 0.536445
O O8 0.737499 0.894628 0.670739
O O9 0.938964 0.894947 0.406876
O O10 0.951137 0.250000 0.270211
O O11 0.991889 0.416526 0.338204
O O12 0.078473 0.410482 0.107753
O O13 0.488386 0.250000 0.897217
O O14 0.339914 0.099218 0.950331
O O15 0.586497 0.054363 0.822547
O O16 0.402521 0.103646 0.072658
O O17 0.781028 0.750000 0.033890
O O18 0.803302 0.480655 0.754168
O O19 0.000000 0.500000 0.500000
#
# Coordination Sequence:
#
# PCOD9158494 Si02
#       8
#     4   4   4   4   4   4   4   4
#     4  10  21  35  54  80 105 136 176 218 268 319
#     4  10  20  36  56  79 107 136 172 219 269 324
#     4  10  20  34  51  72 102 138 173 213 264 315
#     4  10  19  34  55  78 106 137 176 222 266 317
#     4  10  19  31  50  75 104 137 173 217 260 310
#     4   9  18  32  53  77 102 138 175 212 266 314
#     4   9  19  32  48  75 102 135 178 215 259 311
#     4  10  19  32  50  74 103 136 178 214 259 314
#
# _framework density 16.907938000000001
#
# number of rings (size 3 to 8) (size 9 to 14) (size 15 to 20)
#    0.000    2.250    1.250    1.875    0.000    3.000 
#    0.000    6.250    0.000    0.000    0.000    4.375 
#    0.000    0.000    0.000    0.000    0.000    0.000 
#
# Total GULP energy -178295.168214 kJ/mol
# GULP energy per Si atom -5571.724007 kJ/mol
# Density = 1.686945 g / cm^3
# Si number density = 16.907938 Si / 1000 Ang^3
#
#
#
# Elastic Constant Matrix: (Units=GPa)
#
#
# Indices 1 2 3 4 5 6 
#
# 1 66.6261 14.6874 30.8938 0.0000 -7.1554 0.0000
# 2 14.6874 65.5275 35.0264 0.0000 -3.2510 0.0000
# 3 30.8938 35.0264 68.5813 0.0000 -7.4654 0.0000
# 4 0.0000 0.0000 0.0000 19.8218 0.0000 0.8307
# 5 -7.1554 -3.2510 -7.4654 0.0000 30.9074 0.0000
# 6 0.0000 0.0000 0.0000 0.8307 0.0000 16.9906
#
#
#
# Elastic Compliance Matrix: (Units=1/GPa)
#
#
# Indices 1 2 3 4 5 6 
#
# 1 0.019154 0.000410 -0.008576 0.000000 0.002406 0.000000
# 2 0.000410 0.021005 -0.010950 0.000000 -0.000340 0.000000
# 3 -0.008576 -0.010950 0.024335 0.000000 0.002741 0.000000
# 4 0.000000 0.000000 0.000000 0.050553 0.000000 -0.002472
# 5 0.002406 -0.000340 0.002741 0.000000 0.033538 0.000000
# 6 0.000000 0.000000 0.000000 -0.002472 0.000000 0.058977
#
#
# Mechanical properties :
#
#
# Convention : Reuss Voigt Hill
#
# Bulk Modulus (GPa) = 38.07615 40.21669 39.14642
# Shear Modulus (GPa) = 19.64282 21.55245 20.59764
#
# Velocity S-wave (km/s) = 3.41215 3.57416 3.49409
# Velocity P-wave (km/s) = 6.17189 6.39298 6.28341
#
# Compressibility (1/GPa) = 0.02626316
#
# Stress axis : x y z
#
# Youngs Moduli (GPa) = 52.20965 47.60814 41.09313
#
# Poissons Ratio (x) = -0.01953 0.35240
# Poissons Ratio (y) = -0.02142 0.44995
# Poissons Ratio (z) = 0.44774 0.52129
#
# Static dielectric constant tensor:
#      x y z
#    x 1.564520 0.000000 -0.008450 
#    y 0.000000 1.546680 0.000000 
#    z -0.008450 0.000000 1.596730 
# 
# From -- ./inp_files/52274.got.cif
#   From: 2010.05.17/outbox.cif.g08.bks.cpg/sg11_27_cif.got.tgz:52274.got - 2010.06.03 12:22:45.
