data_PCOD9158472
_publ_section_title
;
Structure prediction by ZEFSAII (Michael W. Deem and Ramdas Pophale) SiO2 
 PCOD9158472
Probable space group: P 21/M
;
_chemical_formula_sum "Si O2"
_cell_formula_units_Z 32
_cell_length_a 5.960318
_cell_length_b 23.408335
_cell_length_c 10.828508
_cell_angle_alpha 90.000000
_cell_angle_beta 77.356293
_cell_angle_gamma 90.000000
_cell_volume 1474.168642
_symmetry_space_group_name_H-M "P 21/M"
_symmetry_group_IT_number 11
_symmetry_cell_setting 'monoclinic'
loop_
_space_group_symop_operation_xyz
x,y,z
-x,1/2+y,-z
-x,-y,-z
x,1/2-y,z
loop_
_atom_site_type_symbol
_atom_site_label
_atom_site_fract_x
_atom_site_fract_y
_atom_site_fract_z
Si Si1 0.056399 0.434049 0.455914
Si Si2 0.249202 0.314918 0.022843
Si Si3 0.054047 0.628812 0.125551
Si Si4 0.150500 0.990884 0.103464
Si Si5 0.342973 0.413132 0.661107
Si Si6 0.394449 0.814128 0.251337
Si Si7 0.598320 0.588818 0.813505
Si Si8 0.742193 0.037211 0.310040
O O1 0.174505 0.406995 0.562813
O O2 0.241458 0.418264 0.327638
O O3 0.000000 0.500000 0.500000
O O4 0.809762 0.423561 0.418344
O O5 0.212717 0.250000 0.067039
O O6 0.347154 0.354020 0.119723
O O7 0.428693 0.314012 0.886443
O O8 0.015872 0.341265 0.992693
O O9 0.224876 0.574903 0.099432
O O10 0.152266 0.671983 0.214786
O O11 0.823049 0.598740 0.202343
O O12 0.346379 0.036966 0.100070
O O13 0.976667 0.007668 0.235409
O O14 0.000000 0.000000 0.000000
O O15 0.533860 0.364545 0.662893
O O16 0.416728 0.480500 0.651111
O O17 0.398418 0.750000 0.304208
O O18 0.350229 0.576937 0.786848
#
# Coordination Sequence:
#
# PCOD9158472 Si02
#       8
#     4   4   4   4   4   4   4   4
#     4   9  20  37  56  80 111 140 179 222 272 335
#     4  10  22  37  52  76 110 146 185 223 264 327
#     4  10  19  35  55  78 110 144 173 221 278 325
#     4  10  19  31  49  82 115 137 173 219 269 335
#     4   9  19  36  54  79 108 136 177 227 273 323
#     4  10  21  35  55  79 103 141 187 226 272 328
#     4  11  21  34  56  81 112 150 180 225 278 329
#     4   9  20  33  52  83 108 142 177 213 274 335
#
# _framework density 21.707151
#
# number of rings (size 3 to 8) (size 9 to 14) (size 15 to 20)
#    0.000    2.250    1.250    1.875    1.750    4.000 
#    0.000    0.625    0.000    0.750    0.000    0.000 
#    0.000    0.000    0.000    0.000    0.000    0.000 
#
# Total GULP energy -178284.100466 kJ/mol
# GULP energy per Si atom -5571.378140 kJ/mol
# Density = 2.165774 g / cm^3
# Si number density = 21.707151 Si / 1000 Ang^3
#
#
#
# Elastic Constant Matrix: (Units=GPa)
#
#
# Indices 1 2 3 4 5 6 
#
# 1 49.3378 42.4667 20.5061 0.0000 30.5114 0.0000
# 2 42.4667 143.9805 53.9177 0.0000 26.8521 0.0000
# 3 20.5061 53.9177 95.8399 0.0000 24.9225 0.0000
# 4 0.0000 0.0000 0.0000 25.9037 0.0000 6.3839
# 5 30.5114 26.8521 24.9225 0.0000 55.9016 0.0000
# 6 0.0000 0.0000 0.0000 6.3839 0.0000 21.2579
#
#
#
# Elastic Compliance Matrix: (Units=1/GPa)
#
#
# Indices 1 2 3 4 5 6 
#
# 1 0.037414 -0.008273 0.001047 0.000000 -0.016914 0.000000
# 2 -0.008273 0.010894 -0.004719 0.000000 0.001386 0.000000
# 3 0.001047 -0.004719 0.014053 0.000000 -0.004570 0.000000
# 4 0.000000 0.000000 0.000000 0.041690 0.000000 -0.012520
# 5 -0.016914 0.001386 -0.004570 0.000000 0.028492 0.000000
# 6 0.000000 0.000000 0.000000 -0.012520 0.000000 0.050801
#
#
# Mechanical properties :
#
#
# Convention : Reuss Voigt Hill
#
# Bulk Modulus (GPa) = 25.99329 58.10436 42.04883
# Shear Modulus (GPa) = 22.72136 32.09718 27.40927
#
# Velocity S-wave (km/s) = 3.23882 3.84949 3.55728
# Velocity P-wave (km/s) = 5.09776 6.82522 6.02373
#
# Compressibility (1/GPa) = 0.03847147
#
# Stress axis : x y z
#
# Youngs Moduli (GPa) = 26.72824 91.79221 71.15719
#
# Poissons Ratio (x) = 0.75939 -0.07453
# Poissons Ratio (y) = 0.22112 0.33581
# Poissons Ratio (z) = -0.02799 0.43319
#
# Static dielectric constant tensor:
#      x y z
#    x 1.978240 0.000000 -0.053370 
#    y 0.000000 1.815260 0.000000 
#    z -0.053370 0.000000 1.863640 
# 
# From -- ./inp_files/30197.got.cif
#   From: 2010.05.17/outbox.cif.g08.bks.cpg/sg11_16_cif.got.tgz:30197.got - 2010.06.03 12:22:45.
