data_PCOD9158265
_publ_section_title
;
Structure prediction by ZEFSAII (Michael W. Deem and Ramdas Pophale) SiO2 
 PCOD9158265
Probable space group: P 21/M
;
_chemical_formula_sum "Si O2"
_cell_formula_units_Z 32
_cell_length_a 35.480193
_cell_length_b 7.541700
_cell_length_c 12.190670
_cell_angle_alpha 90.000000
_cell_angle_beta 26.605088
_cell_angle_gamma 90.000000
_cell_volume 1460.845265
_symmetry_space_group_name_H-M "P 21/M"
_symmetry_group_IT_number 11
_symmetry_cell_setting 'monoclinic'
loop_
_space_group_symop_operation_xyz
x,y,z
-x,1/2+y,-z
-x,-y,-z
x,1/2-y,z
loop_
_atom_site_type_symbol
_atom_site_label
_atom_site_fract_x
_atom_site_fract_y
_atom_site_fract_z
Si Si1 0.713814 0.046515 0.430638
Si Si2 0.545132 0.539517 0.766695
Si Si3 0.756336 0.536819 0.718884
Si Si4 0.866255 0.546746 0.888785
Si Si5 0.014106 0.466715 0.244624
Si Si6 0.175546 0.045260 0.236658
Si Si7 0.623224 0.462331 0.887435
Si Si8 0.911875 0.538248 0.170426
O O1 0.737961 0.250000 0.386578
O O2 0.677757 0.971520 0.640009
O O3 0.636821 0.041240 0.543837
O O4 0.791986 0.952344 0.171474
O O5 0.557333 0.750000 0.721484
O O6 0.500000 0.500000 0.000000
O O7 0.473649 0.474972 0.868113
O O8 0.765827 0.750000 0.701251
O O9 0.767464 0.468460 0.814061
O O10 0.671360 0.500554 0.874020
O O11 0.832982 0.466877 0.443644
O O12 0.887850 0.750000 0.805657
O O13 0.946365 0.469965 0.743892
O O14 0.832987 0.463035 0.862446
O O15 0.010327 0.250000 0.254763
O O16 0.920444 0.536659 0.469755
O O17 0.074996 0.524820 0.987669
O O18 0.202589 0.250000 0.151207
O O19 0.619080 0.250000 0.882848
O O20 0.901125 0.750000 0.192911
O O21 0.000000 0.500000 0.000000
#
# Coordination Sequence:
#
# PCOD9158265 Si02
#       8
#     4   4   4   4   4   4   4   4
#     4  10  20  34  53  80 108 134 168 207 255 308
#     4   9  17  31  52  79 110 138 165 201 250 306
#     4  10  20  33  50  73 102 136 173 209 251 304
#     4  10  21  36  53  73 100 134 173 217 260 302
#     4  10  20  33  51  74  98 131 174 215 260 311
#     4  10  21  36  52  71  98 136 177 215 258 303
#     4   9  19  33  51  79 108 133 163 200 248 303
#     4  10  19  31  47  69  97 129 165 204 251 301
#
# _framework density 21.905125999999999
#
# number of rings (size 3 to 8) (size 9 to 14) (size 15 to 20)
#    0.000    2.250    1.250    2.625    0.000    6.000 
#    0.000    0.000    0.000    0.750    0.000    0.000 
#    0.000    0.000    0.000    0.000    0.000    0.000 
#
# Total GULP energy -178568.929389 kJ/mol
# GULP energy per Si atom -5580.279043 kJ/mol
# Density = 2.185527 g / cm^3
# Si number density = 21.905126 Si / 1000 Ang^3
#
#
#
# Elastic Constant Matrix: (Units=GPa)
#
#
# Indices 1 2 3 4 5 6 
#
# 1 177.4884 -2.7786 16.5294 0.0000 -23.0283 0.0000
# 2 -2.7786 61.6802 -6.1371 0.0000 6.7219 0.0000
# 3 16.5294 -6.1371 19.7556 0.0000 -15.0021 0.0000
# 4 0.0000 0.0000 0.0000 14.8277 0.0000 -3.5368
# 5 -23.0283 6.7219 -15.0021 0.0000 36.1079 0.0000
# 6 0.0000 0.0000 0.0000 -3.5368 0.0000 7.6878
#
#
#
# Elastic Compliance Matrix: (Units=1/GPa)
#
#
# Indices 1 2 3 4 5 6 
#
# 1 0.006288 -0.000341 -0.003321 0.000000 0.002694 0.000000
# 2 -0.000341 0.016797 0.004329 0.000000 -0.001545 0.000000
# 3 -0.003321 0.004329 0.076731 0.000000 0.028956 0.000000
# 4 0.000000 0.000000 0.000000 0.075755 0.000000 0.034852
# 5 0.002694 -0.001545 0.028956 0.000000 0.041731 0.000000
# 6 0.000000 0.000000 0.000000 0.034852 0.000000 0.146111
#
#
# Mechanical properties :
#
#
# Convention : Reuss Voigt Hill
#
# Bulk Modulus (GPa) = 9.88630 30.46127 20.17379
# Shear Modulus (GPa) = 12.63285 28.47871 20.55578
#
# Velocity S-wave (km/s) = 2.40408 3.60959 3.06666
# Velocity P-wave (km/s) = 3.49702 5.59539 4.66570
#
# Compressibility (1/GPa) = 0.10115005
#
# Stress axis : x y z
#
# Youngs Moduli (GPa) = 159.04286 59.53620 13.03254
#
# Poissons Ratio (x) = 0.02029 0.04328
# Poissons Ratio (y) = 0.05419 -0.05642
# Poissons Ratio (z) = 0.52822 -0.25776
#
# Static dielectric constant tensor:
#      x y z
#    x 1.865220 0.000000 -0.009150 
#    y 0.000000 1.753030 0.000000 
#    z -0.009150 0.000000 1.781700 
# 
# From -- ./inp_files/45220.got.cif
#   From: 2010.05.17/outbox.cif.g08.bks.cpg/sg11_23_cif.got.tgz:45220.got - 2010.06.03 12:22:45.
