data_PCOD9158944
_publ_section_title
;
Structure prediction by ZEFSAII (Michael W. Deem and Ramdas Pophale) SiO2 
 PCOD9158944
Probable space group: P 21/M
;
_chemical_formula_sum "Si O2"
_cell_formula_units_Z 28
_cell_length_a 9.666903
_cell_length_b 13.701879
_cell_length_c 10.897403
_cell_angle_alpha 90.000000
_cell_angle_beta 87.212738
_cell_angle_gamma 90.000000
_cell_volume 1441.705033
_symmetry_space_group_name_H-M "P 21/M"
_symmetry_group_IT_number 11
_symmetry_cell_setting 'monoclinic'
loop_
_space_group_symop_operation_xyz
x,y,z
-x,1/2+y,-z
-x,-y,-z
x,1/2-y,z
loop_
_atom_site_type_symbol
_atom_site_label
_atom_site_fract_x
_atom_site_fract_y
_atom_site_fract_z
Si Si1 0.161877 0.632880 0.998767
Si Si2 0.135463 0.861119 0.713562
Si Si3 0.194450 0.361767 0.333436
Si Si4 0.412806 0.135433 0.907391
Si Si5 0.900379 0.636426 0.171437
Si Si6 0.634262 0.991781 0.860020
Si Si7 0.131724 0.034503 0.571877
O O1 0.187658 0.750000 0.013311
O O2 0.011741 0.610081 0.063228
O O3 0.163536 0.612945 0.853675
O O4 0.731468 0.434897 0.933846
O O5 0.178816 0.750000 0.690388
O O6 0.968278 0.864985 0.699526
O O7 0.204975 0.936272 0.616395
O O8 0.239941 0.250000 0.312002
O O9 0.279694 0.438222 0.248767
O O10 0.206721 0.392559 0.475757
O O11 0.450809 0.250000 0.900139
O O12 0.254504 0.125377 0.871790
O O13 0.509427 0.062671 0.825305
O O14 0.420197 0.092170 0.045009
O O15 0.922753 0.750000 0.196575
O O16 0.916811 0.582442 0.299203
O O17 0.000000 0.000000 0.500000
#
# Coordination Sequence:
#
# PCOD9158944 Si02
#       7
#     4   4   4   4   4   4   4
#     4  10  19  32  55  86 114 139 176 225 273 323
#     4   9  18  31  49  78 114 145 175 220 275 327
#     4  10  20  34  52  76 106 142 185 226 267 322
#     4  10  22  38  55  78 109 143 180 225 278 334
#     4  10  20  35  56  81 110 146 184 223 271 327
#     4  11  21  35  56  81 109 144 180 225 278 325
#     4  10  19  32  52  78 108 142 182 224 265 312
#
# _framework density 19.42145
#
# number of rings (size 3 to 8) (size 9 to 14) (size 15 to 20)
#    0.000    2.000    0.000    4.714    0.000    4.571 
#    0.000    2.143    0.000    0.857    0.000    0.000 
#    0.000    0.000    0.000    0.000    0.000    0.000 
#
# Total GULP energy -156249.913717 kJ/mol
# GULP energy per Si atom -5580.354061 kJ/mol
# Density = 1.937725 g / cm^3
# Si number density = 19.421450 Si / 1000 Ang^3
#
#
#
# Elastic Constant Matrix: (Units=GPa)
#
#
# Indices 1 2 3 4 5 6 
#
# 1 37.1888 24.2638 0.4542 0.0000 -1.7888 0.0000
# 2 24.2638 117.1367 42.9251 0.0000 -0.3014 0.0000
# 3 0.4542 42.9251 67.6063 0.0000 8.9284 0.0000
# 4 0.0000 0.0000 0.0000 39.1640 0.0000 -2.0819
# 5 -1.7888 -0.3014 8.9284 0.0000 8.9180 0.0000
# 6 0.0000 0.0000 0.0000 -2.0819 0.0000 30.5133
#
#
#
# Elastic Compliance Matrix: (Units=1/GPa)
#
#
# Indices 1 2 3 4 5 6 
#
# 1 0.032487 -0.008590 0.005086 0.000000 0.001134 0.000000
# 2 -0.008590 0.013998 -0.009985 0.000000 0.008747 0.000000
# 3 0.005086 -0.009985 0.024208 0.000000 -0.023554 0.000000
# 4 0.000000 0.000000 0.000000 0.025627 0.000000 0.001748
# 5 0.001134 0.008747 -0.023554 0.000000 0.136237 0.000000
# 6 0.000000 0.000000 0.000000 0.001748 0.000000 0.032892
#
#
# Mechanical properties :
#
#
# Convention : Reuss Voigt Hill
#
# Bulk Modulus (GPa) = 22.87581 39.69089 31.28335
# Shear Modulus (GPa) = 16.28670 26.00496 21.14583
#
# Velocity S-wave (km/s) = 2.89899 3.66318 3.30326
# Velocity P-wave (km/s) = 4.79684 6.19458 5.53997
#
# Compressibility (1/GPa) = 0.04371431
#
# Stress axis : x y z
#
# Youngs Moduli (GPa) = 30.78154 71.43837 41.30890
#
# Poissons Ratio (x) = 0.61368 -0.21011
# Poissons Ratio (y) = 0.26442 0.41248
# Poissons Ratio (z) = -0.15656 0.71333
#
# Static dielectric constant tensor:
#      x y z
#    x 1.706590 0.000000 -0.017550 
#    y 0.000000 1.747210 0.000000 
#    z -0.017550 0.000000 1.659170 
# 
# From -- ./inp_files/34325.got.cif
#   From: 2010.05.17/outbox.cif.g08.bks.cpg/sg11_18_cif.got.tgz:34325.got - 2010.06.03 12:22:45.
