data_PCOD9158867
_publ_section_title
;
Structure prediction by ZEFSAII (Michael W. Deem and Ramdas Pophale) SiO2 
 PCOD9158867
Probable space group: P 21/M
;
_chemical_formula_sum "Si O2"
_cell_formula_units_Z 32
_cell_length_a 26.878733
_cell_length_b 8.490170
_cell_length_c 21.154002
_cell_angle_alpha 90.000000
_cell_angle_beta 158.429159
_cell_angle_gamma 90.000000
_cell_volume 1774.818117
_symmetry_space_group_name_H-M "P 21/M"
_symmetry_group_IT_number 11
_symmetry_cell_setting 'monoclinic'
loop_
_space_group_symop_operation_xyz
x,y,z
-x,1/2+y,-z
-x,-y,-z
x,1/2-y,z
loop_
_atom_site_type_symbol
_atom_site_label
_atom_site_fract_x
_atom_site_fract_y
_atom_site_fract_z
Si Si1 0.437272 0.061197 0.360080
Si Si2 0.287927 0.558328 0.366084
Si Si3 0.121251 0.559993 0.289407
Si Si4 0.828788 0.062117 0.908183
Si Si5 0.495062 0.062718 0.922189
Si Si6 0.789041 0.440614 0.466316
Si Si7 0.961365 0.059374 0.550134
Si Si8 0.218600 0.438321 0.778934
O O1 0.425898 0.250000 0.348118
O O2 0.553505 0.015559 0.447884
O O3 0.500000 0.000000 0.500000
O O4 0.289970 0.986847 0.184027
O O5 0.282947 0.750000 0.359221
O O6 0.212331 0.501203 0.338802
O O7 0.215930 0.507074 0.215444
O O8 0.129139 0.750000 0.299100
O O9 0.171098 0.504094 0.416652
O O10 0.968807 0.511393 0.094617
O O11 0.839144 0.250000 0.918333
O O12 0.491081 0.250000 0.919760
O O13 0.358091 0.999676 0.728549
O O14 0.500000 0.000000 0.000000
O O15 0.631842 0.009937 0.047848
O O16 0.785319 0.250000 0.462027
O O17 0.901738 0.487889 0.547489
O O18 0.954493 0.250000 0.537485
O O19 0.115076 0.013821 0.713016
O O20 0.861592 0.989353 0.379166
O O21 0.231910 0.250000 0.795761
#
# Coordination Sequence:
#
# PCOD9158867 Si02
#       8
#     4   4   4   4   4   4   4   4
#     4   9  16  29  50  76 104 133 170 218 268 312
#     4   8  16  31  52  78 105 135 176 223 265 311
#     4  10  20  35  54  76 104 140 178 217 268 318
#     4  10  19  32  51  77 107 139 179 222 264 312
#     4  12  23  36  56  81 107 137 173 214 260 314
#     4  10  21  37  56  78 106 139 175 219 266 317
#     4   9  18  33  53  78 107 135 170 214 259 311
#     4  10  19  32  54  82 106 134 170 212 261 307
#
# _framework density 18.030017999999998
#
# number of rings (size 3 to 8) (size 9 to 14) (size 15 to 20)
#    0.000    2.250    1.250    3.375    0.000    1.000 
#    0.000    4.375    0.000    7.500    0.000    0.000 
#    0.000    0.000    0.000    0.000    0.000    0.000 
#
# Total GULP energy -178441.737681 kJ/mol
# GULP energy per Si atom -5576.304303 kJ/mol
# Density = 1.798898 g / cm^3
# Si number density = 18.030018 Si / 1000 Ang^3
#
#
#
# Elastic Constant Matrix: (Units=GPa)
#
#
# Indices 1 2 3 4 5 6 
#
# 1 100.2291 21.0549 137.7900 0.0000 13.0647 0.0000
# 2 21.0549 14.8054 11.1896 0.0000 -1.0904 0.0000
# 3 137.7900 11.1896 87.9876 0.0000 25.2714 0.0000
# 4 0.0000 0.0000 0.0000 29.3031 0.0000 5.0561
# 5 13.0647 -1.0904 25.2714 0.0000 28.8133 0.0000
# 6 0.0000 0.0000 0.0000 5.0561 0.0000 15.6556
#
#
#
# Elastic Compliance Matrix: (Units=1/GPa)
#
#
# Indices 1 2 3 4 5 6 
#
# 1 -0.006738 -0.000948 0.013107 0.000000 -0.008477 0.000000
# 2 -0.000948 0.079720 -0.012891 0.000000 0.014753 0.000000
# 3 0.013107 -0.012891 -0.007586 0.000000 0.000222 0.000000
# 4 0.000000 0.000000 0.000000 0.036140 0.000000 -0.011672
# 5 -0.008477 0.014753 0.000222 0.000000 0.038913 0.000000
# 6 0.000000 0.000000 0.000000 -0.011672 0.000000 0.067644
#
#
# Mechanical properties :
#
#
# Convention : Reuss Voigt Hill
#
# Bulk Modulus (GPa) = 15.64124 60.34344 37.99234
# Shear Modulus (GPa) = 21.65740 16.95356 19.30548
#
# Velocity S-wave (km/s) = 3.46957 3.06975 3.27577
# Velocity P-wave (km/s) = 4.97439 6.79010 5.95189
#
# Compressibility (1/GPa) = 0.06393357
#
# Stress axis : x y z
#
# Youngs Moduli (GPa) = -148.40599 12.54385 -131.82654
#
# Poissons Ratio (x) = 0.01189 1.72791
# Poissons Ratio (y) = -0.14070 -1.69935
# Poissons Ratio (z) = 1.94523 0.16170
#
# Static dielectric constant tensor:
#      x y z
#    x 1.641470 0.000000 0.030190 
#    y 0.000000 1.547600 0.000000 
#    z 0.030190 0.000000 1.591140 
# 
# From -- ./inp_files/67190.got.cif
#   From: 2010.05.17/outbox.cif.g08.bks.cpg/sg11_34_cif.got.tgz:67190.got - 2010.06.03 12:22:45.
