data_PCOD9158872
_publ_section_title
;
Structure prediction by ZEFSAII (Michael W. Deem and Ramdas Pophale) SiO2 
 PCOD9158872
Probable space group: P 21/M
;
_chemical_formula_sum "Si O2"
_cell_formula_units_Z 32
_cell_length_a 21.437772
_cell_length_b 8.526341
_cell_length_c 23.176059
_cell_angle_alpha 90.000000
_cell_angle_beta 24.769350
_cell_angle_gamma 90.000000
_cell_volume 1774.847902
_symmetry_space_group_name_H-M "P 21/M"
_symmetry_group_IT_number 11
_symmetry_cell_setting 'monoclinic'
loop_
_space_group_symop_operation_xyz
x,y,z
-x,1/2+y,-z
-x,-y,-z
x,1/2-y,z
loop_
_atom_site_type_symbol
_atom_site_label
_atom_site_fract_x
_atom_site_fract_y
_atom_site_fract_z
Si Si1 0.708425 0.059036 0.163417
Si Si2 0.249665 0.563074 0.284672
Si Si3 0.349035 0.561931 0.655815
Si Si4 0.135484 0.436640 0.261854
Si Si5 0.494108 0.060875 0.242235
Si Si6 0.966145 0.938219 0.092870
Si Si7 0.174750 0.063117 0.473073
Si Si8 0.572753 0.939271 0.050777
O O1 0.704929 0.250000 0.167065
O O2 0.665303 0.009446 0.264802
O O3 0.591382 0.002716 0.214172
O O4 0.879870 0.015703 0.004554
O O5 0.238507 0.750000 0.286789
O O6 0.166171 0.481213 0.302462
O O7 0.188453 0.515750 0.398664
O O8 0.423815 0.514974 0.140907
O O9 0.500000 0.500000 0.500000
O O10 0.351239 0.750000 0.653234
O O11 0.195159 0.505263 0.754996
O O12 0.123844 0.250000 0.266714
O O13 0.982748 0.513325 0.369369
O O14 0.278368 0.492337 0.105893
O O15 0.498983 0.250000 0.239120
O O16 0.320039 0.014422 0.387483
O O17 0.558699 0.004139 0.127009
O O18 0.956281 0.750000 0.100875
O O19 0.000000 0.000000 0.000000
O O20 0.179814 0.250000 0.461081
O O21 0.572411 0.750000 0.053720
#
# Coordination Sequence:
#
# PCOD9158872 Si02
#       8
#     4   4   4   4   4   4   4   4
#     4   8  16  32  54  76  97 128 167 206 244 285
#     4  10  19  33  52  72  95 123 159 200 246 299
#     4  10  19  32  51  77 110 139 166 203 249 295
#     4  11  21  33  49  70  98 127 157 197 247 298
#     4   9  18  35  56  73  92 125 170 207 238 287
#     4   9  16  29  50  75 103 132 165 203 244 289
#     4  10  20  33  50  72  97 126 162 202 242 289
#     4   9  20  35  50  71  98 126 156 200 253 294
#
# _framework density 18.029713000000001
#
# number of rings (size 3 to 8) (size 9 to 14) (size 15 to 20)
#    0.000    2.500    0.000    3.375    0.000    2.000 
#    0.000    5.000    0.000    6.000    0.000    0.000 
#    0.000    0.000    0.000    0.000    0.000    0.000 
#
# Total GULP energy -178413.234310 kJ/mol
# GULP energy per Si atom -5575.413572 kJ/mol
# Density = 1.798868 g / cm^3
# Si number density = 18.029713 Si / 1000 Ang^3
#
#
#
# Elastic Constant Matrix: (Units=GPa)
#
#
# Indices 1 2 3 4 5 6 
#
# 1 81.3796 9.3616 43.9233 0.0000 -32.7214 0.0000
# 2 9.3616 16.0262 20.4387 0.0000 -6.2696 0.0000
# 3 43.9233 20.4387 151.7049 0.0000 -32.3015 0.0000
# 4 0.0000 0.0000 0.0000 30.4443 0.0000 -1.0932
# 5 -32.7214 -6.2696 -32.3015 0.0000 19.9877 0.0000
# 6 0.0000 0.0000 0.0000 -1.0932 0.0000 17.3909
#
#
#
# Elastic Compliance Matrix: (Units=1/GPa)
#
#
# Indices 1 2 3 4 5 6 
#
# 1 0.037029 -0.000073 0.003341 0.000000 0.065995 0.000000
# 2 -0.000073 0.076971 -0.007979 0.000000 0.011129 0.000000
# 3 0.003341 -0.007979 0.011177 0.000000 0.021029 0.000000
# 4 0.000000 0.000000 0.000000 0.032921 0.000000 0.002069
# 5 0.065995 0.011129 0.021029 0.000000 0.195544 0.000000
# 6 0.000000 0.000000 0.000000 0.002069 0.000000 0.057631
#
#
# Mechanical properties :
#
#
# Convention : Reuss Voigt Hill
#
# Bulk Modulus (GPa) = 8.63904 44.06198 26.35051
# Shear Modulus (GPa) = 10.88659 25.25704 18.07181
#
# Velocity S-wave (km/s) = 2.45993 3.74686 3.16940
# Velocity P-wave (km/s) = 3.58752 6.57345 5.29531
#
# Compressibility (1/GPa) = 0.11575360
#
# Stress axis : x y z
#
# Youngs Moduli (GPa) = 27.00597 12.99197 89.46874
#
# Poissons Ratio (x) = 0.00095 -0.29888
# Poissons Ratio (y) = 0.00197 0.71389
# Poissons Ratio (z) = -0.09022 0.10367
#
# Static dielectric constant tensor:
#      x y z
#    x 1.602100 0.000000 -0.030520 
#    y 0.000000 1.610870 0.000000 
#    z -0.030520 0.000000 1.646450 
# 
# From -- ./inp_files/72283.got.cif
#   From: 2010.05.17/outbox.cif.g08.bks.cpg/sg11_37_cif.got.tgz:72283.got - 2010.06.03 12:22:45.
