data_PCOD9158517
_publ_section_title
;
Structure prediction by ZEFSAII (Michael W. Deem and Ramdas Pophale) SiO2 
 PCOD9158517
Probable space group: P 21/M
;
_chemical_formula_sum "Si O2"
_cell_formula_units_Z 28
_cell_length_a 13.869138
_cell_length_b 7.757917
_cell_length_c 13.985851
_cell_angle_alpha 90.000000
_cell_angle_beta 63.575274
_cell_angle_gamma 90.000000
_cell_volume 1347.592811
_symmetry_space_group_name_H-M "P 21/M"
_symmetry_group_IT_number 11
_symmetry_cell_setting 'monoclinic'
loop_
_space_group_symop_operation_xyz
x,y,z
-x,1/2+y,-z
-x,-y,-z
x,1/2-y,z
loop_
_atom_site_type_symbol
_atom_site_label
_atom_site_fract_x
_atom_site_fract_y
_atom_site_fract_z
Si Si1 0.056697 0.544874 0.250242
Si Si2 0.604536 0.957779 0.391828
Si Si3 0.876794 0.454764 0.578949
Si Si4 0.761565 0.946743 0.957041
Si Si5 0.419259 0.038474 0.815523
Si Si6 0.592215 0.455475 0.882994
Si Si7 0.817927 0.546197 0.400630
O O1 0.048615 0.750000 0.268540
O O2 0.126279 0.479731 0.310918
O O3 0.122170 0.518692 0.123788
O O4 0.934357 0.475777 0.313560
O O5 0.611758 0.750000 0.384346
O O6 0.593225 0.018063 0.287580
O O7 0.713405 0.025392 0.393635
O O8 0.500000 0.000000 0.500000
O O9 0.858401 0.250000 0.586741
O O10 0.810318 0.525513 0.518850
O O11 0.000000 0.500000 0.500000
O O12 0.778782 0.750000 0.976738
O O13 0.693338 0.959431 0.888973
O O14 0.681219 0.022195 0.073559
O O15 0.418425 0.250000 0.820733
O O16 0.534943 0.987975 0.810089
O O17 0.612948 0.250000 0.869167
O O18 0.500000 0.500000 0.000000
O O19 0.820408 0.750000 0.379759
#
# Coordination Sequence:
#
# PCOD9158517 Si02
#       7
#     4   4   4   4   4   4   4
#     4   9  18  32  49  74 105 137 167 201 253 310
#     4  10  21  39  58  75  98 131 172 217 260 309
#     4   9  17  30  50  74 103 136 169 205 251 302
#     4  10  19  31  50  77 104 136 173 208 252 307
#     4   8  17  34  53  72 100 136 170 205 253 306
#     4   9  16  29  49  73 101 134 168 204 249 300
#     4   9  19  35  54  75 103 138 174 212 259 308
#
# _framework density 20.777788999999999
#
# number of rings (size 3 to 8) (size 9 to 14) (size 15 to 20)
#    0.000    2.857    0.000    3.000    0.000    4.571 
#    0.000    9.286    0.000    0.000    0.000    0.000 
#    0.000    0.000    0.000    0.000    0.000    0.000 
#
# Total GULP energy -155874.980454 kJ/mol
# GULP energy per Si atom -5566.963588 kJ/mol
# Density = 2.073050 g / cm^3
# Si number density = 20.777789 Si / 1000 Ang^3
#
#
#
# Elastic Constant Matrix: (Units=GPa)
#
#
# Indices 1 2 3 4 5 6 
#
# 1 107.9589 -3.6254 65.1982 0.0000 18.0814 0.0000
# 2 -3.6254 21.7491 -4.0774 0.0000 1.3299 0.0000
# 3 65.1982 -4.0774 139.4187 0.0000 -0.8861 0.0000
# 4 0.0000 0.0000 0.0000 20.2151 0.0000 -2.4013
# 5 18.0814 1.3299 -0.8861 0.0000 33.5246 0.0000
# 6 0.0000 0.0000 0.0000 -2.4013 0.0000 16.9166
#
#
#
# Elastic Compliance Matrix: (Units=1/GPa)
#
#
# Indices 1 2 3 4 5 6 
#
# 1 0.014928 0.001687 -0.006984 0.000000 -0.008303 0.000000
# 2 0.001687 0.046532 0.000555 0.000000 -0.002741 0.000000
# 3 -0.006984 0.000555 0.010481 0.000000 0.004022 0.000000
# 4 0.000000 0.000000 0.000000 0.050317 0.000000 0.007142
# 5 -0.008303 -0.002741 0.004022 0.000000 0.034522 0.000000
# 6 0.000000 0.000000 0.000000 0.007142 0.000000 0.060127
#
#
# Mechanical properties :
#
#
# Convention : Reuss Voigt Hill
#
# Bulk Modulus (GPa) = 16.01171 42.67970 29.34571
# Shear Modulus (GPa) = 20.22566 28.24000 24.23283
#
# Velocity S-wave (km/s) = 3.12336 3.69066 3.41880
# Velocity P-wave (km/s) = 4.55303 6.22470 5.45330
#
# Compressibility (1/GPa) = 0.06245429
#
# Stress axis : x y z
#
# Youngs Moduli (GPa) = 66.98792 21.49070 95.41391
#
# Poissons Ratio (x) = -0.03625 0.66641
# Poissons Ratio (y) = -0.11299 -0.05292
# Poissons Ratio (z) = 0.46787 -0.01192
#
# Static dielectric constant tensor:
#      x y z
#    x 1.763020 0.000000 0.000900 
#    y 0.000000 1.772850 0.000000 
#    z 0.000900 0.000000 1.753000 
# 
# From -- ./inp_files/51104.got.cif
#   From: 2010.05.17/outbox.cif.g08.bks.cpg/sg11_26_cif.got.tgz:51104.got - 2010.06.03 12:22:45.
