data_PCOD9158864
_publ_section_title
;
Structure prediction by ZEFSAII (Michael W. Deem and Ramdas Pophale) SiO2 
 PCOD9158864
Probable space group: P 21/M
;
_chemical_formula_sum "Si O2"
_cell_formula_units_Z 28
_cell_length_a 12.563585
_cell_length_b 9.710269
_cell_length_c 14.602067
_cell_angle_alpha 90.000000
_cell_angle_beta 119.279985
_cell_angle_gamma 90.000000
_cell_volume 1553.800533
_symmetry_space_group_name_H-M "P 21/M"
_symmetry_group_IT_number 11
_symmetry_cell_setting 'monoclinic'
loop_
_space_group_symop_operation_xyz
x,y,z
-x,1/2+y,-z
-x,-y,-z
x,1/2-y,z
loop_
_atom_site_type_symbol
_atom_site_label
_atom_site_fract_x
_atom_site_fract_y
_atom_site_fract_z
Si Si1 0.363039 0.915246 0.735118
Si Si2 0.591162 0.407458 0.897729
Si Si3 0.806439 0.999700 0.864131
Si Si4 0.627032 0.595399 0.638791
Si Si5 0.607824 0.587866 0.424226
Si Si6 0.058691 0.399550 0.901153
Si Si7 0.232598 0.912653 0.866210
O O1 0.376497 0.750000 0.728519
O O2 0.266924 0.940313 0.776079
O O3 0.489547 0.985127 0.822363
O O4 0.331151 0.996172 0.628806
O O5 0.544393 0.250000 0.883419
O O6 0.703619 0.412457 0.873475
O O7 0.651519 0.448741 0.020096
O O8 0.916790 0.080628 0.863393
O O9 0.735468 0.916526 0.756546
O O10 0.870826 0.913685 0.972157
O O11 0.572294 0.750000 0.621901
O O12 0.666428 0.576877 0.549858
O O13 0.526282 0.480219 0.619425
O O14 0.600070 0.750000 0.396580
O O15 0.082636 0.250000 0.871822
O O16 0.116125 0.510905 0.857822
O O17 0.215341 0.750000 0.870639
#
# Coordination Sequence:
#
# PCOD9158864 Si02
#       7
#     4   4   4   4   4   4   4
#     4  11  21  34  52  75 106 143 179 218 265 320
#     4  10  19  32  51  77 106 138 175 218 266 319
#     4  10  20  33  55  81 111 141 173 216 268 317
#     4  10  20  35  54  78 108 141 176 216 266 320
#     4  10  21  34  52  79 108 139 177 221 266 313
#     4  10  21  35  54  82 109 141 182 218 260 317
#     4   9  21  37  51  72 106 143 180 222 266 311
#
# _framework density 18.020332
#
# number of rings (size 3 to 8) (size 9 to 14) (size 15 to 20)
#    0.000    2.000    1.429    2.143    0.000    8.571 
#    0.000    0.000    0.000    0.857    0.000    0.000 
#    0.000    0.000    0.000    0.000    0.000    0.000 
#
# Total GULP energy -156135.042482 kJ/mol
# GULP energy per Si atom -5576.251517 kJ/mol
# Density = 1.797932 g / cm^3
# Si number density = 18.020332 Si / 1000 Ang^3
#
#
#
# Elastic Constant Matrix: (Units=GPa)
#
#
# Indices 1 2 3 4 5 6 
#
# 1 75.1140 29.0472 29.5330 0.0000 -19.3924 0.0000
# 2 29.0472 82.5059 24.8631 0.0000 -15.7241 0.0000
# 3 29.5330 24.8631 68.4784 0.0000 -25.9212 0.0000
# 4 0.0000 0.0000 0.0000 17.0066 0.0000 -8.2300
# 5 -19.3924 -15.7241 -25.9212 0.0000 28.5424 0.0000
# 6 0.0000 0.0000 0.0000 -8.2300 0.0000 13.5769
#
#
#
# Elastic Compliance Matrix: (Units=1/GPa)
#
#
# Indices 1 2 3 4 5 6 
#
# 1 0.018056 -0.003937 -0.003863 0.000000 0.006591 0.000000
# 2 -0.003937 0.014873 -0.002458 0.000000 0.003287 0.000000
# 3 -0.003863 -0.002458 0.023857 0.000000 0.017687 0.000000
# 4 0.000000 0.000000 0.000000 0.083210 0.000000 0.050440
# 5 0.006591 0.003287 0.017687 0.000000 0.057387 0.000000
# 6 0.000000 0.000000 0.000000 0.050440 0.000000 0.104230
#
#
# Mechanical properties :
#
#
# Convention : Reuss Voigt Hill
#
# Bulk Modulus (GPa) = 27.57084 43.66498 35.61791
# Shear Modulus (GPa) = 14.96023 21.33550 18.14787
#
# Velocity S-wave (km/s) = 2.88442 3.44462 3.17689
# Velocity P-wave (km/s) = 5.14065 6.33278 5.76760
#
# Compressibility (1/GPa) = 0.03627020
#
# Stress axis : x y z
#
# Youngs Moduli (GPa) = 55.38398 67.23379 41.91674
#
# Poissons Ratio (x) = 0.26467 0.16192
# Poissons Ratio (y) = 0.21802 0.10305
# Poissons Ratio (z) = 0.21394 0.16529
#
# Static dielectric constant tensor:
#      x y z
#    x 1.604250 0.000000 -0.024530 
#    y 0.000000 1.730200 0.000000 
#    z -0.024530 0.000000 1.638440 
# 
# From -- ./inp_files/49497.got.cif
#   From: 2010.05.17/outbox.cif.g08.bks.cpg/sg11_25_cif.got.tgz:49497.got - 2010.06.03 12:22:45.
