data_PCOD9158440
_publ_section_title
;
Structure prediction by ZEFSAII (Michael W. Deem and Ramdas Pophale) SiO2 
 PCOD9158440
Probable space group: P 21/M
;
_chemical_formula_sum "Si O2"
_cell_formula_units_Z 32
_cell_length_a 12.010186
_cell_length_b 7.922324
_cell_length_c 33.336361
_cell_angle_alpha 90.000000
_cell_angle_beta 150.299235
_cell_angle_gamma 90.000000
_cell_volume 1571.585889
_symmetry_space_group_name_H-M "P 21/M"
_symmetry_group_IT_number 11
_symmetry_cell_setting 'monoclinic'
loop_
_space_group_symop_operation_xyz
x,y,z
-x,1/2+y,-z
-x,-y,-z
x,1/2-y,z
loop_
_atom_site_type_symbol
_atom_site_label
_atom_site_fract_x
_atom_site_fract_y
_atom_site_fract_z
Si Si1 0.014656 0.453019 0.604829
Si Si2 0.015539 0.447701 0.944742
Si Si3 0.875149 0.453606 0.274577
Si Si4 0.357919 0.545121 0.575019
Si Si5 0.429560 0.051792 0.684913
Si Si6 0.631816 0.549435 0.880132
Si Si7 0.063479 0.055034 0.165839
Si Si8 0.876792 0.956255 0.727734
O O1 0.019584 0.250000 0.603444
O O2 0.989515 0.500770 0.643082
O O3 0.255607 0.514040 0.663475
O O4 0.818106 0.511438 0.513631
O O5 0.000254 0.250000 0.948225
O O6 0.779843 0.521730 0.886720
O O7 0.047973 0.472967 0.907804
O O8 0.214813 0.518185 0.035169
O O9 0.869056 0.250000 0.270581
O O10 0.619960 0.519693 0.199436
O O11 0.989108 0.514440 0.269226
O O12 0.348592 0.750000 0.575347
O O13 0.313974 0.469782 0.605217
O O14 0.613656 0.497955 0.643671
O O15 0.476791 0.250000 0.706871
O O16 0.667380 0.959410 0.756648
O O17 0.610075 0.750000 0.879158
O O18 0.997823 0.250000 0.145264
O O19 0.026952 0.984297 0.199158
O O20 0.883941 0.750000 0.730983
#
# Coordination Sequence:
#
# PCOD9158440 Si02
#       8
#     4   4   4   4   4   4   4   4
#     4  10  21  33  47  72 103 131 160 202 252 294
#     4  10  19  32  52  78 105 128 158 200 242 290
#     4  10  20  35  53  71  94 128 170 206 240 288
#     4   9  18  34  52  70  98 133 165 199 245 295
#     4  10  19  31  49  75 104 129 160 204 248 289
#     4   9  19  34  52  75 103 133 160 195 245 294
#     4  10  19  33  53  74  99 132 166 198 242 296
#     4   8  17  34  53  70  92 128 169 206 240 282
#
# _framework density 20.361597
#
# number of rings (size 3 to 8) (size 9 to 14) (size 15 to 20)
#    0.000    2.500    0.000    3.000    0.000    5.000 
#    0.000    3.750    0.000    0.000    0.000    0.000 
#    0.000    0.000    0.000    0.000    0.000    0.000 
#
# Total GULP energy -178587.500214 kJ/mol
# GULP energy per Si atom -5580.859382 kJ/mol
# Density = 2.031525 g / cm^3
# Si number density = 20.361597 Si / 1000 Ang^3
#
#
#
# Elastic Constant Matrix: (Units=GPa)
#
#
# Indices 1 2 3 4 5 6 
#
# 1 98.4407 -7.1706 25.9250 0.0000 -28.3144 0.0000
# 2 -7.1706 13.7614 -6.2433 0.0000 4.7546 0.0000
# 3 25.9250 -6.2433 52.8118 0.0000 -24.9145 0.0000
# 4 0.0000 0.0000 0.0000 20.6478 0.0000 -9.0186
# 5 -28.3144 4.7546 -24.9145 0.0000 29.0937 0.0000
# 6 0.0000 0.0000 0.0000 -9.0186 0.0000 13.1287
#
#
#
# Elastic Compliance Matrix: (Units=1/GPa)
#
#
# Indices 1 2 3 4 5 6 
#
# 1 0.014217 0.002689 -0.000572 0.000000 0.012907 0.000000
# 2 0.002689 0.078423 0.005268 0.000000 -0.005688 0.000000
# 3 -0.000572 0.005268 0.032164 0.000000 0.026126 0.000000
# 4 0.000000 0.000000 0.000000 0.069192 0.000000 0.047530
# 5 0.012907 -0.005688 0.026126 0.000000 0.070236 0.000000
# 6 0.000000 0.000000 0.000000 0.047530 0.000000 0.108819
#
#
# Mechanical properties :
#
#
# Convention : Reuss Voigt Hill
#
# Bulk Modulus (GPa) = 7.16466 21.11510 14.13988
# Shear Modulus (GPa) = 12.35158 22.74090 17.54624
#
# Velocity S-wave (km/s) = 2.46562 3.34556 2.93871
# Velocity P-wave (km/s) = 3.41058 5.03153 4.29816
#
# Compressibility (1/GPa) = 0.13957388
#
# Stress axis : x y z
#
# Youngs Moduli (GPa) = 70.33601 12.75132 31.09065
#
# Poissons Ratio (x) = -0.03429 0.01779
# Poissons Ratio (y) = -0.18915 -0.16377
# Poissons Ratio (z) = 0.04025 -0.06717
#
# Static dielectric constant tensor:
#      x y z
#    x 1.708740 0.000000 -0.009790 
#    y 0.000000 1.731540 0.000000 
#    z -0.009790 0.000000 1.741370 
# 
# From -- ./inp_files/73208.got.cif
#   From: 2010.05.17/outbox.cif.g08.bks.cpg/sg11_37_cif.got.tgz:73208.got - 2010.06.03 12:22:45.
