data_PCOD9158784
_publ_section_title
;
Structure prediction by ZEFSAII (Michael W. Deem and Ramdas Pophale) SiO2 
 PCOD9158784
Probable space group: P 21/M
;
_chemical_formula_sum "Si O2"
_cell_formula_units_Z 32
_cell_length_a 14.781833
_cell_length_b 19.593566
_cell_length_c 8.709501
_cell_angle_alpha 90.000000
_cell_angle_beta 37.220675
_cell_angle_gamma 90.000000
_cell_volume 1525.839809
_symmetry_space_group_name_H-M "P 21/M"
_symmetry_group_IT_number 11
_symmetry_cell_setting 'monoclinic'
loop_
_space_group_symop_operation_xyz
x,y,z
-x,1/2+y,-z
-x,-y,-z
x,1/2-y,z
loop_
_atom_site_type_symbol
_atom_site_label
_atom_site_fract_x
_atom_site_fract_y
_atom_site_fract_z
Si Si1 0.977690 0.170645 0.023448
Si Si2 0.487650 0.887778 0.450884
Si Si3 0.861983 0.462438 0.342643
Si Si4 0.196800 0.325970 0.997963
Si Si5 0.104078 0.031908 0.227902
Si Si6 0.204617 0.828974 0.011003
Si Si7 0.307933 0.937596 0.109165
Si Si8 0.408069 0.022764 0.402073
O O1 0.924578 0.250000 0.120034
O O2 0.886358 0.109138 0.225456
O O3 0.947494 0.159413 0.882292
O O4 0.134801 0.168579 0.905386
O O5 0.342362 0.849081 0.711689
O O6 0.551230 0.934596 0.502989
O O7 0.441451 0.942260 0.383827
O O8 0.626228 0.838810 0.226771
O O9 0.766834 0.447710 0.626167
O O10 0.767963 0.521260 0.389162
O O11 0.024300 0.488602 0.177860
O O12 0.157714 0.250000 0.104094
O O13 0.118758 0.386868 0.198352
O O14 0.261595 0.998300 0.052825
O O15 0.000000 0.000000 0.500000
O O16 0.212405 0.750000 0.039933
O O17 0.235600 0.873292 0.120429
O O18 0.486962 0.943135 0.869010
#
# Coordination Sequence:
#
# PCOD9158784 Si02
#       8
#     4   4   4   4   4   4   4   4
#     4   9  19  33  50  74 102 130 172 217 257 310
#     4  10  19  32  52  77 106 134 172 217 259 315
#     4  10  19  33  53  75 102 138 172 216 261 304
#     4  10  19  33  54  78 103 137 177 218 264 313
#     4   9  19  34  51  76 105 137 173 217 261 313
#     4  10  20  35  53  76 106 138 171 216 268 312
#     4  10  20  34  53  76 106 136 175 216 259 318
#     4  10  19  32  50  78 104 133 171 214 262 310
#
# _framework density 20.972057
#
# number of rings (size 3 to 8) (size 9 to 14) (size 15 to 20)
#    0.000    2.250    2.500    0.750    0.000    1.500 
#    0.000    4.375    0.000    0.000    0.000    3.500 
#    0.000    0.000    0.000    0.000    0.000    0.000 
#
# Total GULP energy -178299.671121 kJ/mol
# GULP energy per Si atom -5571.864723 kJ/mol
# Density = 2.092432 g / cm^3
# Si number density = 20.972057 Si / 1000 Ang^3
#
#
#
# Elastic Constant Matrix: (Units=GPa)
#
#
# Indices 1 2 3 4 5 6 
#
# 1 58.7395 15.7535 -4.2016 0.0000 -2.5272 0.0000
# 2 15.7535 115.9358 -2.3130 0.0000 7.0802 0.0000
# 3 -4.2016 -2.3130 41.7076 0.0000 6.3156 0.0000
# 4 0.0000 0.0000 0.0000 14.1337 0.0000 -4.0256
# 5 -2.5272 7.0802 6.3156 0.0000 22.1456 0.0000
# 6 0.0000 0.0000 0.0000 -4.0256 0.0000 31.3359
#
#
#
# Elastic Compliance Matrix: (Units=1/GPa)
#
#
# Indices 1 2 3 4 5 6 
#
# 1 0.017910 -0.002560 0.001284 0.000000 0.002496 0.000000
# 2 -0.002560 0.009200 0.000775 0.000000 -0.003455 0.000000
# 3 0.001284 0.000775 0.025255 0.000000 -0.007304 0.000000
# 4 0.000000 0.000000 0.000000 0.073440 0.000000 0.009435
# 5 0.002496 -0.003455 -0.007304 0.000000 0.048628 0.000000
# 6 0.000000 0.000000 0.000000 0.009435 0.000000 0.033124
#
#
# Mechanical properties :
#
#
# Convention : Reuss Voigt Hill
#
# Bulk Modulus (GPa) = 19.46917 26.09563 22.78240
# Shear Modulus (GPa) = 22.15530 27.33265 24.74397
#
# Velocity S-wave (km/s) = 3.25379 3.61403 3.43863
# Velocity P-wave (km/s) = 4.83939 5.46671 5.16259
#
# Compressibility (1/GPa) = 0.05136326
#
# Stress axis : x y z
#
# Youngs Moduli (GPa) = 55.83379 108.69776 39.59645
#
# Poissons Ratio (x) = 0.27832 -0.05085
# Poissons Ratio (y) = 0.14296 -0.03070
# Poissons Ratio (z) = -0.07171 -0.08428
#
# Static dielectric constant tensor:
#      x y z
#    x 1.840550 0.000000 -0.042710 
#    y 0.000000 1.740860 0.000000 
#    z -0.042710 0.000000 1.797560 
# 
# From -- ./inp_files/23093.got.cif
#   From: 2010.05.17/outbox.cif.g08.bks.cpg/sg11_12_cif.got.tgz:23093.got - 2010.06.03 12:22:45.
