data_PCOD9158396
_publ_section_title
;
Structure prediction by ZEFSAII (Michael W. Deem and Ramdas Pophale) SiO2 
 PCOD9158396
Probable space group: P 21/M
;
_chemical_formula_sum "Si O2"
_cell_formula_units_Z 24
_cell_length_a 8.401651
_cell_length_b 20.671106
_cell_length_c 4.733122
_cell_angle_alpha 90.000000
_cell_angle_beta 77.753752
_cell_angle_gamma 90.000000
_cell_volume 803.303218
_symmetry_space_group_name_H-M "P 21/M"
_symmetry_group_IT_number 11
_symmetry_cell_setting 'monoclinic'
loop_
_space_group_symop_operation_xyz
x,y,z
-x,1/2+y,-z
-x,-y,-z
x,1/2-y,z
loop_
_atom_site_type_symbol
_atom_site_label
_atom_site_fract_x
_atom_site_fract_y
_atom_site_fract_z
Si Si1 0.344750 0.490176 0.858245
Si Si2 0.979449 0.360422 0.740030
Si Si3 0.000000 0.500000 0.000000
Si Si4 0.320424 0.369836 0.449711
Si Si5 0.397595 0.250000 0.829389
Si Si6 0.345253 0.634072 0.883198
Si Si7 0.064939 0.250000 0.163636
Si Si8 0.730436 0.250000 0.513729
O O1 0.356522 0.436853 0.608511
O O2 0.304821 0.563197 0.761996
O O3 0.500000 0.500000 0.000000
O O4 0.177629 0.476480 0.085328
O O5 0.129239 0.356690 0.462238
O O6 0.000854 0.434448 0.821680
O O7 0.781299 0.356955 0.809719
O O8 0.023113 0.310742 0.973939
O O9 0.363822 0.312131 0.647798
O O10 0.458795 0.366772 0.154539
O O11 0.591497 0.250000 0.808573
O O12 0.260570 0.250000 0.122656
O O13 0.305629 0.689477 0.677286
O O14 0.929011 0.250000 0.468623
#
# Coordination Sequence:
#
# PCOD9158396 Si02
#       8
#     4   4   2   4   2   4   2   2
#     4  10  19  31  49  72  98 127 161 200 240 285
#     4   8  14  24  42  64  88 114 148 188 228 272
#     4   8  16  30  46  62  90 122 152 192 234 272
#     4   9  16  28  47  68  93 125 158 194 238 284
#     4   8  14  24  41  67  91 116 156 195 229 280
#     4   9  16  28  47  68  93 125 158 194 238 284
#     4   8  12  20  36  62  86 110 142 182 228 272
#     4   8  14  24  41  67  91 116 156 195 229 280
#
# _framework density 29.876636999999999
#
# number of rings (size 3 to 8) (size 9 to 14) (size 15 to 20)
#    0.000    3.333    0.000    0.500    0.000    0.000 
#    0.000    0.833    0.000   36.000    0.000    0.000 
#    0.000  114.667    0.000    0.000    0.000    0.000 
#
# Total GULP energy -133738.394736 kJ/mol
# GULP energy per Si atom -5572.433114 kJ/mol
# Density = 2.980864 g / cm^3
# Si number density = 29.876637 Si / 1000 Ang^3
#
#
#
# Elastic Constant Matrix: (Units=GPa)
#
#
# Indices 1 2 3 4 5 6 
#
# 1 165.6032 22.4779 101.5935 0.0000 -53.6587 0.0000
# 2 22.4779 131.5825 69.0822 0.0000 0.7663 0.0000
# 3 101.5935 69.0822 195.5139 0.0000 -57.1921 0.0000
# 4 0.0000 0.0000 0.0000 -17.9748 0.0000 75.8661
# 5 -53.6587 0.7663 -57.1921 0.0000 95.2141 0.0000
# 6 0.0000 0.0000 0.0000 75.8661 0.0000 -127.9107
#
#
#
# Elastic Compliance Matrix: (Units=1/GPa)
#
#
# Indices 1 2 3 4 5 6 
#
# 1 0.009522 0.000658 -0.004382 0.000000 0.002729 0.000000
# 2 0.000658 0.009891 -0.004551 0.000000 -0.002443 0.000000
# 3 -0.004382 -0.004551 0.010055 0.000000 0.003607 0.000000
# 4 0.000000 0.000000 0.000000 0.037006 0.000000 0.021949
# 5 0.002729 -0.002443 0.003607 0.000000 0.014226 0.000000
# 6 0.000000 0.000000 0.000000 0.021949 0.000000 0.005200
#
#
# Mechanical properties :
#
#
# Convention : Reuss Voigt Hill
#
# Bulk Modulus (GPa) = 77.41648 97.66743 87.54195
# Shear Modulus (GPa) = 46.83556 9.83546 28.33551
#
# Velocity S-wave (km/s) = 3.96363 1.81636 3.08298
# Velocity P-wave (km/s) = 6.84948 6.09591 6.48365
#
# Compressibility (1/GPa) = 0.01291715
#
# Stress axis : x y z
#
# Youngs Moduli (GPa) = 105.02488 101.10076 99.45325
#
# Poissons Ratio (x) = -0.06654 0.43581
# Poissons Ratio (y) = -0.06913 0.45265
# Poissons Ratio (z) = 0.46022 0.46015
#
# Static dielectric constant tensor:
#      x y z
#    x 2.378190 0.000000 -0.277690 
#    y 0.000000 2.467830 0.000000 
#    z -0.277690 0.000000 2.587870 
# 
# From -- ./inp_files/13957.got.cif
#   From: 2010.05.17/outbox.cif.g08.bks.cpg/sg11_7_cif.got.tgz:13957.got - 2010.06.03 12:22:45.
