data_PCOD9158063
_publ_section_title
;
Structure prediction by ZEFSAII (Michael W. Deem and Ramdas Pophale) SiO2 
 PCOD9158063
Probable space group: P 21/M
;
_chemical_formula_sum "Si O2"
_cell_formula_units_Z 32
_cell_length_a 16.987468
_cell_length_b 7.480605
_cell_length_c 23.579548
_cell_angle_alpha 90.000000
_cell_angle_beta 150.946044
_cell_angle_gamma 90.000000
_cell_volume 1455.154410
_symmetry_space_group_name_H-M "P 21/M"
_symmetry_group_IT_number 11
_symmetry_cell_setting 'monoclinic'
loop_
_space_group_symop_operation_xyz
x,y,z
-x,1/2+y,-z
-x,-y,-z
x,1/2-y,z
loop_
_atom_site_type_symbol
_atom_site_label
_atom_site_fract_x
_atom_site_fract_y
_atom_site_fract_z
Si Si1 0.742420 0.959981 0.614437
Si Si2 0.369756 0.546953 0.212836
Si Si3 0.722686 0.966460 0.297897
Si Si4 0.649854 0.469100 0.923986
Si Si5 0.260786 0.543243 0.564588
Si Si6 0.401792 0.532480 0.354943
Si Si7 0.898800 0.462737 0.175398
Si Si8 0.921828 0.535163 0.314454
O O1 0.748911 0.750000 0.604773
O O2 0.586558 0.032030 0.482345
O O3 0.919108 0.038235 0.714456
O O4 0.699264 0.979025 0.653632
O O5 0.307974 0.750000 0.174851
O O6 0.316332 0.467242 0.119046
O O7 0.566810 0.550893 0.333745
O O8 0.334883 0.466854 0.252519
O O9 0.728682 0.750000 0.303234
O O10 0.533850 0.020002 0.175950
O O11 0.822409 0.029091 0.306298
O O12 0.786359 0.032755 0.398609
O O13 0.651099 0.250000 0.923148
O O14 0.777231 0.531185 0.050940
O O15 0.287512 0.750000 0.566464
O O16 0.107784 0.468677 0.434073
O O17 0.405326 0.750000 0.355534
O O18 0.909103 0.250000 0.172307
O O19 0.843089 0.491199 0.204740
O O20 0.931462 0.750000 0.325134
#
# Coordination Sequence:
#
# PCOD9158063 Si02
#       8
#     4   4   4   4   4   4   4   4
#     4   9  18  31  47  70  99 125 151 192 240 282
#     4   9  17  32  53  73  96 128 163 196 235 286
#     4   9  18  34  52  69  95 130 163 196 240 288
#     4   8  16  32  52  70  91 125 165 202 236 275
#     4  10  19  30  47  74 103 126 155 198 244 286
#     4   9  17  30  50  73  94 122 158 190 231 289
#     4  10  20  34  51  70  94 127 166 200 236 285
#     4  10  21  33  47  71 100 128 159 200 246 286
#
# _framework density 21.990793
#
# number of rings (size 3 to 8) (size 9 to 14) (size 15 to 20)
#    0.000    2.750    0.000    2.250    0.000    4.000 
#    0.000    5.625    0.000    0.000    0.000    0.000 
#    0.000    0.000    0.000    0.000    0.000    0.000 
#
# Total GULP energy -178649.725410 kJ/mol
# GULP energy per Si atom -5582.803919 kJ/mol
# Density = 2.194074 g / cm^3
# Si number density = 21.990793 Si / 1000 Ang^3
#
#
#
# Elastic Constant Matrix: (Units=GPa)
#
#
# Indices 1 2 3 4 5 6 
#
# 1 72.6705 -10.1401 35.3570 0.0000 -28.7074 0.0000
# 2 -10.1401 68.4257 -2.1884 0.0000 4.9214 0.0000
# 3 35.3570 -2.1884 87.6870 0.0000 -31.5982 0.0000
# 4 0.0000 0.0000 0.0000 1.8283 0.0000 -6.1951
# 5 -28.7074 4.9214 -31.5982 0.0000 32.5585 0.0000
# 6 0.0000 0.0000 0.0000 -6.1951 0.0000 19.8312
#
#
#
# Elastic Compliance Matrix: (Units=1/GPa)
#
#
# Indices 1 2 3 4 5 6 
#
# 1 0.021827 0.001984 -0.002960 0.000000 0.016073 0.000000
# 2 0.001984 0.014981 -0.000941 0.000000 -0.001428 0.000000
# 3 -0.002960 -0.000941 0.017969 0.000000 0.014972 0.000000
# 4 0.000000 0.000000 0.000000 -9.348137 0.000000 -2.920290
# 5 0.016073 -0.001428 0.014972 0.000000 0.059632 0.000000
# 6 0.000000 0.000000 0.000000 -2.920290 0.000000 -0.861852
#
#
# Mechanical properties :
#
#
# Convention : Reuss Voigt Hill
#
# Bulk Modulus (GPa) = 19.62922 30.53778 25.08350
# Shear Modulus (GPa) = -0.49629 24.56060 12.03216
#
# Velocity S-wave (km/s) = -0.47557 3.34557 2.34165
# Velocity P-wave (km/s) = 2.94006 5.37034 4.32923
#
# Compressibility (1/GPa) = 0.05094445
#
# Stress axis : x y z
#
# Youngs Moduli (GPa) = 45.81506 66.75117 55.65065
#
# Poissons Ratio (x) = -0.13243 0.16470
# Poissons Ratio (y) = -0.09089 0.05235
# Poissons Ratio (z) = 0.13559 0.06279
#
# Static dielectric constant tensor:
#      x y z
#    x 1.806810 0.000000 -0.014890 
#    y 0.000000 1.819710 0.000000 
#    z -0.014890 0.000000 1.791490 
# 
# From -- ./inp_files/43811.got.cif
#   From: 2010.05.17/outbox.cif.g08.bks.cpg/sg11_22_cif.got.tgz:43811.got - 2010.06.03 12:22:45.
