data_PCOD9158253
_publ_section_title
;
Structure prediction by ZEFSAII (Michael W. Deem and Ramdas Pophale) SiO2 
 PCOD9158253
Probable space group: P 21/M
;
_chemical_formula_sum "Si O2"
_cell_formula_units_Z 32
_cell_length_a 23.362204
_cell_length_b 8.900753
_cell_length_c 19.553155
_cell_angle_alpha 90.000000
_cell_angle_beta 28.862482
_cell_angle_gamma 90.000000
_cell_volume 1962.649796
_symmetry_space_group_name_H-M "P 21/M"
_symmetry_group_IT_number 11
_symmetry_cell_setting 'monoclinic'
loop_
_space_group_symop_operation_xyz
x,y,z
-x,1/2+y,-z
-x,-y,-z
x,1/2-y,z
loop_
_atom_site_type_symbol
_atom_site_label
_atom_site_fract_x
_atom_site_fract_y
_atom_site_fract_z
Si Si1 0.713259 0.424910 0.161974
Si Si2 0.374872 0.931607 0.605813
Si Si3 0.776682 0.929350 0.960013
Si Si4 0.821044 0.428455 0.646938
Si Si5 0.509209 0.930158 0.192922
Si Si6 0.577294 0.929430 0.858117
Si Si7 0.081798 0.069938 0.318494
Si Si8 0.563964 0.926326 0.593819
O O1 0.743849 0.250000 0.128039
O O2 0.716236 0.475107 0.238139
O O3 0.785126 0.507179 0.027570
O O4 0.574265 0.438579 0.285521
O O5 0.382814 0.750000 0.595825
O O6 0.500000 0.000000 0.500000
O O7 0.359030 0.997058 0.546603
O O8 0.781064 0.750000 0.960411
O O9 0.646712 0.968395 0.065587
O O10 0.873409 0.977889 0.803036
O O11 0.797634 0.250000 0.671512
O O12 0.711518 0.516491 0.729759
O O13 0.845790 0.485978 0.697928
O O14 0.943225 0.456514 0.477965
O O15 0.499715 0.750000 0.197770
O O16 0.469612 0.007038 0.164564
O O17 0.433141 0.990644 0.336642
O O18 0.568895 0.750000 0.868598
O O19 0.500000 0.000000 0.000000
O O20 0.102648 0.250000 0.303645
O O21 0.591076 0.750000 0.571624
#
# Coordination Sequence:
#
# PCOD9158253 Si02
#       8
#     4   4   4   4   4   4   4   4
#     4   8  15  24  35  55  84 115 148 185 222 265
#     4   9  15  23  35  53  79 113 151 189 228 269
#     4   9  17  28  44  65  90 120 151 185 225 270
#     4  10  20  34  52  72  93 120 154 191 233 277
#     4  10  19  31  47  68  94 123 155 190 230 275
#     4  12  24  37  52  70  94 122 155 193 233 277
#     4   9  18  33  51  71  95 121 152 191 232 276
#     4   9  16  26  39  57  83 117 154 188 224 268
#
# _framework density 16.304487999999999
#
# number of rings (size 3 to 8) (size 9 to 14) (size 15 to 20)
#    0.000    2.500    0.000    4.125    0.000    6.000 
#    0.000    0.000    0.000    0.000    0.000    0.000 
#    0.000    1.000    0.000    3.000    0.000    5.500 
#
# Total GULP energy -178311.757049 kJ/mol
# GULP energy per Si atom -5572.242408 kJ/mol
# Density = 1.626738 g / cm^3
# Si number density = 16.304488 Si / 1000 Ang^3
#
#
#
# Elastic Constant Matrix: (Units=GPa)
#
#
# Indices 1 2 3 4 5 6 
#
# 1 62.0757 40.4785 47.5518 0.0000 30.2570 0.0000
# 2 40.4785 71.0814 43.9137 0.0000 16.6930 0.0000
# 3 47.5518 43.9137 103.6051 0.0000 45.9705 0.0000
# 4 0.0000 0.0000 0.0000 24.9396 0.0000 8.9012
# 5 30.2570 16.6930 45.9705 0.0000 33.5753 0.0000
# 6 0.0000 0.0000 0.0000 8.9012 0.0000 25.9678
#
#
#
# Elastic Compliance Matrix: (Units=1/GPa)
#
#
# Indices 1 2 3 4 5 6 
#
# 1 0.041098 -0.017638 0.002944 0.000000 -0.032298 0.000000
# 2 -0.017638 0.026846 -0.011246 0.000000 0.017945 0.000000
# 3 0.002944 -0.011246 0.029972 0.000000 -0.038099 0.000000
# 4 0.000000 0.000000 0.000000 0.045686 0.000000 -0.015660
# 5 -0.032298 0.017945 -0.038099 0.000000 0.102132 0.000000
# 6 0.000000 0.000000 0.000000 -0.015660 0.000000 0.043877
#
#
# Mechanical properties :
#
#
# Convention : Reuss Voigt Hill
#
# Bulk Modulus (GPa) = 21.72170 55.62782 38.67476
# Shear Modulus (GPa) = 14.01198 23.88445 18.94822
#
# Velocity S-wave (km/s) = 2.93472 3.83155 3.41273
# Velocity P-wave (km/s) = 4.98346 7.33257 6.26903
#
# Compressibility (1/GPa) = 0.04603691
#
# Stress axis : x y z
#
# Youngs Moduli (GPa) = 24.33191 37.24966 33.36392
#
# Poissons Ratio (x) = 0.65700 -0.09822
# Poissons Ratio (y) = 0.42916 0.37521
# Poissons Ratio (z) = -0.07163 0.41891
#
# Static dielectric constant tensor:
#      x y z
#    x 1.540180 0.000000 0.024160 
#    y 0.000000 1.546350 0.000000 
#    z 0.024160 0.000000 1.568090 
# 
# From -- ./inp_files/61773.got.cif
#   From: 2010.05.17/outbox.cif.g08.bks.cpg/sg11_31_cif.got.tgz:61773.got - 2010.06.03 12:22:45.
