data_PCOD9158508
_publ_section_title
;
Structure prediction by ZEFSAII (Michael W. Deem and Ramdas Pophale) SiO2 
 PCOD9158508
Probable space group: P 21/M
;
_chemical_formula_sum "Si O2"
_cell_formula_units_Z 28
_cell_length_a 18.155830
_cell_length_b 8.415353
_cell_length_c 14.445658
_cell_angle_alpha 90.000000
_cell_angle_beta 136.005354
_cell_angle_gamma 90.000000
_cell_volume 1533.045410
_symmetry_space_group_name_H-M "P 21/M"
_symmetry_group_IT_number 11
_symmetry_cell_setting 'monoclinic'
loop_
_space_group_symop_operation_xyz
x,y,z
-x,1/2+y,-z
-x,-y,-z
x,1/2-y,z
loop_
_atom_site_type_symbol
_atom_site_label
_atom_site_fract_x
_atom_site_fract_y
_atom_site_fract_z
Si Si1 0.668246 0.055589 0.829718
Si Si2 0.094367 0.559955 0.286482
Si Si3 0.764158 0.942083 0.417126
Si Si4 0.130724 0.560163 0.871027
Si Si5 0.430697 0.441720 0.639303
Si Si6 0.708250 0.442033 0.655225
Si Si7 0.890026 0.559518 0.356589
O O1 0.668605 0.250000 0.830682
O O2 0.551532 0.002736 0.755892
O O3 0.687943 0.005804 0.741472
O O4 0.764019 0.001789 0.981548
O O5 0.089555 0.750000 0.283098
O O6 0.148151 0.502689 0.430840
O O7 0.176627 0.509352 0.280722
O O8 0.976389 0.493693 0.174482
O O9 0.766056 0.750000 0.421675
O O10 0.650571 0.996211 0.354062
O O11 0.797799 0.991700 0.344836
O O12 0.132547 0.750000 0.872227
O O13 0.125197 0.502306 0.760475
O O14 0.431694 0.250000 0.641815
O O15 0.378786 0.494265 0.495352
O O16 0.704050 0.250000 0.649027
O O17 0.892994 0.750000 0.356505
O O18 0.000000 0.500000 0.500000
#
# Coordination Sequence:
#
# PCOD9158508 Si02
#       7
#     4   4   4   4   4   4   4
#     4   9  19  35  53  73 104 142 174 207 254 307
#     4  10  19  31  50  76 105 133 167 214 261 303
#     4   9  18  32  53  78 102 128 165 211 257 306
#     4  11  22  35  51  73 104 141 176 210 252 307
#     4   9  17  33  56  79 101 132 173 212 252 303
#     4   9  18  33  53  78 104 133 171 215 259 302
#     4  11  21  34  54  79 104 133 168 212 259 306
#
# _framework density 18.264299999999999
#
# number of rings (size 3 to 8) (size 9 to 14) (size 15 to 20)
#    0.000    2.286    1.429    1.714    0.000    1.714 
#    0.000    3.571    0.000    0.000    0.000    0.000 
#    0.000    0.000    0.000    0.000    0.000    0.000 
#
# Total GULP energy -156229.074203 kJ/mol
# GULP energy per Si atom -5579.609793 kJ/mol
# Density = 1.822273 g / cm^3
# Si number density = 18.264300 Si / 1000 Ang^3
#
#
#
# Elastic Constant Matrix: (Units=GPa)
#
#
# Indices 1 2 3 4 5 6 
#
# 1 113.1883 15.1230 71.4474 0.0000 32.5454 0.0000
# 2 15.1230 10.1328 8.2863 0.0000 7.3396 0.0000
# 3 71.4474 8.2863 112.0532 0.0000 39.9970 0.0000
# 4 0.0000 0.0000 0.0000 16.1435 0.0000 -0.5551
# 5 32.5454 7.3396 39.9970 0.0000 21.6339 0.0000
# 6 0.0000 0.0000 0.0000 -0.5551 0.0000 19.0155
#
#
#
# Elastic Compliance Matrix: (Units=1/GPa)
#
#
# Indices 1 2 3 4 5 6 
#
# 1 0.017769 -0.014515 -0.007271 0.000000 -0.008364 0.000000
# 2 -0.014515 0.156571 0.026003 0.000000 -0.079358 0.000000
# 3 -0.007271 0.026003 0.031999 0.000000 -0.057045 0.000000
# 4 0.000000 0.000000 0.000000 0.062007 0.000000 0.001810
# 5 -0.008364 -0.079358 -0.057045 0.000000 0.191194 0.000000
# 6 0.000000 0.000000 0.000000 0.001810 0.000000 0.052642
#
#
# Mechanical properties :
#
#
# Convention : Reuss Voigt Hill
#
# Bulk Modulus (GPa) = 4.65607 47.23196 25.94402
# Shear Modulus (GPa) = 8.69054 20.72641 14.70848
#
# Velocity S-wave (km/s) = 2.18370 3.37234 2.84088
# Velocity P-wave (km/s) = 2.98544 6.40937 4.99964
#
# Compressibility (1/GPa) = 0.21477335
#
# Stress axis : x y z
#
# Youngs Moduli (GPa) = 56.27921 6.38688 31.25059
#
# Poissons Ratio (x) = 0.09271 0.22722
# Poissons Ratio (y) = 0.81691 -0.81262
# Poissons Ratio (z) = 0.40920 -0.16608
#
# Static dielectric constant tensor:
#      x y z
#    x 1.540870 0.000000 0.195760 
#    y 0.000000 1.622800 0.000000 
#    z 0.195760 0.000000 1.318860 
# 
# From -- ./inp_files/42623.got.cif
#   From: 2010.05.17/outbox.cif.g08.bks.cpg/sg11_22_cif.got.tgz:42623.got - 2010.06.03 12:22:45.
