data_PCOD9158304
_publ_section_title
;
Structure prediction by ZEFSAII (Michael W. Deem and Ramdas Pophale) SiO2 
 PCOD9158304
Probable space group: P 21/M
;
_chemical_formula_sum "Si O2"
_cell_formula_units_Z 32
_cell_length_a 14.438226
_cell_length_b 9.270894
_cell_length_c 11.430253
_cell_angle_alpha 90.000000
_cell_angle_beta 106.888513
_cell_angle_gamma 90.000000
_cell_volume 1464.013465
_symmetry_space_group_name_H-M "P 21/M"
_symmetry_group_IT_number 11
_symmetry_cell_setting 'monoclinic'
loop_
_space_group_symop_operation_xyz
x,y,z
-x,1/2+y,-z
-x,-y,-z
x,1/2-y,z
loop_
_atom_site_type_symbol
_atom_site_label
_atom_site_fract_x
_atom_site_fract_y
_atom_site_fract_z
Si Si1 0.516550 0.413978 0.126699
Si Si2 0.357520 0.585404 0.384379
Si Si3 0.017066 0.908326 0.119450
Si Si4 0.935103 0.075120 0.623309
Si Si5 0.419885 0.415294 0.630478
Si Si6 0.138105 0.579102 0.639875
Si Si7 0.700628 0.586164 0.856009
Si Si8 0.797196 0.587677 0.125452
O O1 0.552287 0.250000 0.119278
O O2 0.578300 0.500983 0.245522
O O3 0.411169 0.402530 0.147501
O O4 0.500000 0.500000 0.000000
O O5 0.324991 0.750000 0.390270
O O6 0.363269 0.499247 0.507877
O O7 0.468502 0.589676 0.375699
O O8 0.297992 0.505958 0.260848
O O9 0.050295 0.750000 0.096179
O O10 0.910975 0.899393 0.139011
O O11 0.084893 0.961702 0.249274
O O12 0.000000 0.000000 0.000000
O O13 0.955619 0.250000 0.626253
O O14 0.854020 0.048480 0.495783
O O15 0.029905 0.981537 0.626318
O O16 0.387247 0.250000 0.631866
O O17 0.141993 0.750000 0.659953
O O18 0.207821 0.500948 0.757043
O O19 0.738674 0.750000 0.851905
O O20 0.751919 0.523097 0.990601
O O21 0.756834 0.750000 0.125093
#
# Coordination Sequence:
#
# PCOD9158304 Si02
#       8
#     4   4   4   4   4   4   4   4
#     4  10  19  31  48  70  94 120 153 191 231 275
#     4   9  16  26  43  68  94 117 148 192 233 266
#     4   9  17  29  45  65  90 118 148 183 223 265
#     4   8  15  27  41  60  88 117 143 179 225 266
#     4   9  16  27  44  66  92 121 152 187 228 272
#     4   9  15  24  42  66  87 110 146 187 224 263
#     4   9  18  32  49  67  90 123 157 186 223 274
#     4   9  18  32  47  65  92 122 150 184 225 265
#
# _framework density 21.857721999999999
#
# number of rings (size 3 to 8) (size 9 to 14) (size 15 to 20)
#    0.000    3.000    0.000    2.250    0.000    6.500 
#    0.000    0.000    0.000    1.500    0.000    8.750 
#    0.000    0.000    0.000    0.000    0.000    0.000 
#
# Total GULP energy -178441.445178 kJ/mol
# GULP energy per Si atom -5576.295162 kJ/mol
# Density = 2.180797 g / cm^3
# Si number density = 21.857722 Si / 1000 Ang^3
#
#
#
# Elastic Constant Matrix: (Units=GPa)
#
#
# Indices 1 2 3 4 5 6 
#
# 1 50.9639 6.4777 2.3319 0.0000 4.4447 0.0000
# 2 6.4777 133.5742 126.4626 0.0000 -10.5416 0.0000
# 3 2.3319 126.4626 291.1619 0.0000 -4.1001 0.0000
# 4 0.0000 0.0000 0.0000 40.4660 0.0000 -0.5308
# 5 4.4447 -10.5416 -4.1001 0.0000 19.2236 0.0000
# 6 0.0000 0.0000 0.0000 -0.5308 0.0000 4.3528
#
#
#
# Elastic Compliance Matrix: (Units=1/GPa)
#
#
# Indices 1 2 3 4 5 6 
#
# 1 0.020349 -0.002048 0.000646 0.000000 -0.005690 0.000000
# 2 -0.002048 0.013603 -0.005798 0.000000 0.006697 0.000000
# 3 0.000646 -0.005798 0.005918 0.000000 -0.002066 0.000000
# 4 0.000000 0.000000 0.000000 0.024752 0.000000 0.003018
# 5 -0.005690 0.006697 -0.002066 0.000000 0.056566 0.000000
# 6 0.000000 0.000000 0.000000 0.003018 0.000000 0.230104
#
#
# Mechanical properties :
#
#
# Convention : Reuss Voigt Hill
#
# Bulk Modulus (GPa) = 39.25870 82.91603 61.08736
# Shear Modulus (GPa) = 13.36250 35.50367 24.43309
#
# Velocity S-wave (km/s) = 2.47521 4.03464 3.34701
# Velocity P-wave (km/s) = 5.11556 7.72795 6.55325
#
# Compressibility (1/GPa) = 0.02547206
#
# Stress axis : x y z
#
# Youngs Moduli (GPa) = 49.14320 73.51142 168.96419
#
# Poissons Ratio (x) = 0.15054 -0.10921
# Poissons Ratio (y) = 0.10063 0.97961
# Poissons Ratio (z) = -0.03176 0.42620
#
# Static dielectric constant tensor:
#      x y z
#    x 1.883740 0.000000 0.000310 
#    y 0.000000 1.768950 0.000000 
#    z 0.000310 0.000000 1.827680 
# 
# From -- ./inp_files/42438.got.cif
#   From: 2010.05.17/outbox.cif.g08.bks.cpg/sg11_22_cif.got.tgz:42438.got - 2010.06.03 12:22:45.
