data_PCOD9158289
_publ_section_title
;
Structure prediction by ZEFSAII (Michael W. Deem and Ramdas Pophale) SiO2 
 PCOD9158289
Probable space group: P 21/M
;
_chemical_formula_sum "Si O2"
_cell_formula_units_Z 32
_cell_length_a 10.810015
_cell_length_b 7.312639
_cell_length_c 17.239687
_cell_angle_alpha 90.000000
_cell_angle_beta 58.969808
_cell_angle_gamma 90.000000
_cell_volume 1167.771341
_symmetry_space_group_name_H-M "P 21/M"
_symmetry_group_IT_number 11
_symmetry_cell_setting 'monoclinic'
loop_
_space_group_symop_operation_xyz
x,y,z
-x,1/2+y,-z
-x,-y,-z
x,1/2-y,z
loop_
_atom_site_type_symbol
_atom_site_label
_atom_site_fract_x
_atom_site_fract_y
_atom_site_fract_z
Si Si1 0.629882 0.541765 0.160104
Si Si2 0.058169 0.468345 0.893562
Si Si3 0.665639 0.027243 0.809628
Si Si4 0.584003 0.032451 0.570751
Si Si5 0.711987 0.967370 0.354031
Si Si6 0.125207 0.534339 0.516946
Si Si7 0.741914 0.469873 0.954407
Si Si8 0.011868 0.543536 0.280422
O O1 0.611996 0.750000 0.195420
O O2 0.774174 0.464181 0.155986
O O3 0.467358 0.462683 0.200900
O O4 0.680246 0.549049 0.053378
O O5 0.071703 0.250000 0.878756
O O6 0.913021 0.525352 0.891109
O O7 0.000000 0.500000 0.000000
O O8 0.664196 0.250000 0.802232
O O9 0.652902 0.982158 0.905834
O O10 0.832821 0.965177 0.745500
O O11 0.567397 0.250000 0.581022
O O12 0.429377 0.957630 0.644109
O O13 0.725111 0.973814 0.570478
O O14 0.645440 0.994059 0.463270
O O15 0.726568 0.750000 0.337860
O O16 0.870632 0.041783 0.282742
O O17 0.137432 0.750000 0.530902
O O18 0.000000 0.500000 0.500000
O O19 0.074332 0.439243 0.610946
O O20 0.738799 0.250000 0.964064
O O21 0.041503 0.750000 0.242359
#
# Coordination Sequence:
#
# PCOD9158289 Si02
#       8
#     4   4   4   4   4   4   4   4
#     4   9  16  27  43  64  89 118 152 189 226 265
#     4   8  14  24  40  60  84 110 144 184 224 264
#     4   9  17  28  44  64  91 121 148 184 227 268
#     4   8  14  24  40  63  86 104 130 172 212 247
#     4   8  13  23  41  62  83 105 135 169 207 255
#     4  10  19  31  48  68  91 116 147 185 222 263
#     4   9  16  27  43  64  88 115 151 192 228 264
#     4   9  17  30  47  65  89 120 148 177 223 275
#
# _framework density 27.402623999999999
#
# number of rings (size 3 to 8) (size 9 to 14) (size 15 to 20)
#    0.000    3.250    0.000    0.750    0.000    0.500 
#    0.000    1.250    2.750    0.000    0.000    0.000 
#    0.000    0.000    0.000    0.000    0.000    0.000 
#
# Total GULP energy -178293.298514 kJ/mol
# GULP energy per Si atom -5571.665579 kJ/mol
# Density = 2.734025 g / cm^3
# Si number density = 27.402624 Si / 1000 Ang^3
#
#
#
# Elastic Constant Matrix: (Units=GPa)
#
#
# Indices 1 2 3 4 5 6 
#
# 1 231.2803 6.1800 42.8027 0.0000 -62.7480 0.0000
# 2 6.1800 120.9822 4.6307 0.0000 -2.7893 0.0000
# 3 42.8027 4.6307 119.4933 0.0000 -56.4605 0.0000
# 4 0.0000 0.0000 0.0000 -1.0487 0.0000 8.3638
# 5 -62.7480 -2.7893 -56.4605 0.0000 64.8628 0.0000
# 6 0.0000 0.0000 0.0000 8.3638 0.0000 -8.4279
#
#
#
# Elastic Compliance Matrix: (Units=1/GPa)
#
#
# Indices 1 2 3 4 5 6 
#
# 1 0.005936 -0.000189 0.001003 0.000000 0.006607 0.000000
# 2 -0.000189 0.008285 -0.000291 0.000000 -0.000080 0.000000
# 3 0.001003 -0.000291 0.014393 0.000000 0.013486 0.000000
# 4 0.000000 0.000000 0.000000 0.137903 0.000000 0.136854
# 5 0.006607 -0.000080 0.013486 0.000000 0.033545 0.000000
# 6 0.000000 0.000000 0.000000 0.136854 0.000000 0.017160
#
#
# Mechanical properties :
#
#
# Convention : Reuss Voigt Hill
#
# Bulk Modulus (GPa) = 33.71724 64.33138 49.02431
# Shear Modulus (GPa) = 22.11785 38.95341 30.53563
#
# Velocity S-wave (km/s) = 2.84411 3.77440 3.34178
# Velocity P-wave (km/s) = 4.80795 6.52090 5.72881
#
# Compressibility (1/GPa) = 0.02965842
#
# Stress axis : x y z
#
# Youngs Moduli (GPa) = 168.47039 120.70524 69.47865
#
# Poissons Ratio (x) = 0.02285 -0.06969
# Poissons Ratio (y) = 0.03189 0.02023
# Poissons Ratio (z) = -0.16898 0.03515
#
# Static dielectric constant tensor:
#      x y z
#    x 4.977430 0.000000 1.592120 
#    y 0.000000 1.575150 0.000000 
#    z 1.592120 0.000000 3.108250 
# 
# From -- ./inp_files/68307.got.cif
#   From: 2010.05.17/outbox.cif.g08.bks.cpg/sg11_35_cif.got.tgz:68307.got - 2010.06.03 12:22:45.
