data_PCOD9158299
_publ_section_title
;
Structure prediction by ZEFSAII (Michael W. Deem and Ramdas Pophale) SiO2 
 PCOD9158299
Probable space group: P 21/M
;
_chemical_formula_sum "Si O2"
_cell_formula_units_Z 20
_cell_length_a 19.532772
_cell_length_b 13.447554
_cell_length_c 13.008033
_cell_angle_alpha 90.000000
_cell_angle_beta 21.033768
_cell_angle_gamma 90.000000
_cell_volume 1226.349261
_symmetry_space_group_name_H-M "P 21/M"
_symmetry_group_IT_number 11
_symmetry_cell_setting 'monoclinic'
loop_
_space_group_symop_operation_xyz
x,y,z
-x,1/2+y,-z
-x,-y,-z
x,1/2-y,z
loop_
_atom_site_type_symbol
_atom_site_label
_atom_site_fract_x
_atom_site_fract_y
_atom_site_fract_z
Si Si1 0.347054 0.364800 0.512790
Si Si2 0.031649 0.134855 0.781029
Si Si3 0.273085 0.993903 0.046068
Si Si4 0.895875 0.633478 0.555577
Si Si5 0.280097 0.032237 0.809089
O O1 0.408551 0.250000 0.418419
O O2 0.182738 0.383046 0.659329
O O3 0.265598 0.385362 0.741226
O O4 0.525586 0.437492 0.242571
O O5 0.966631 0.250000 0.878145
O O6 0.127575 0.122271 0.534360
O O7 0.855664 0.059405 0.032023
O O8 0.105339 0.911502 0.286675
O O9 0.249546 0.068109 0.174103
O O10 0.237708 0.053019 0.988253
O O11 0.885534 0.750000 0.594940
O O12 0.500000 0.000000 0.500000
#
# Coordination Sequence:
#
# PCOD9158299 Si02
#       5
#     4   4   4   4   4
#     4  10  19  31  48  69  94 124 156 191 232 277
#     4   9  18  32  50  70  93 122 153 189 234 279
#     4   9  18  31  48  71  93 122 158 192 232 273
#     4   9  17  31  49  68  93 122 155 193 231 274
#     4   9  18  31  48  70  93 120 154 190 229 274
#
# _framework density 16.308568000000001
#
# number of rings (size 3 to 8) (size 9 to 14) (size 15 to 20)
#    0.000    2.800    0.000    1.200    0.000    6.400 
#    0.000    3.000    0.000    1.200    0.000    0.000 
#    0.000    0.000    0.000    0.000    0.000    0.000 
#
# Total GULP energy -111352.700629 kJ/mol
# GULP energy per Si atom -5567.635031 kJ/mol
# Density = 1.627145 g / cm^3
# Si number density = 16.308568 Si / 1000 Ang^3
#
#
#
# Elastic Constant Matrix: (Units=GPa)
#
#
# Indices 1 2 3 4 5 6 
#
# 1 91.6357 51.7174 31.8958 0.0000 -0.0575 0.0000
# 2 51.7174 69.0080 41.7857 0.0000 6.6205 0.0000
# 3 31.8958 41.7857 67.9947 0.0000 6.6426 0.0000
# 4 0.0000 0.0000 0.0000 27.4291 0.0000 6.2435
# 5 -0.0575 6.6205 6.6426 0.0000 14.5474 0.0000
# 6 0.0000 0.0000 0.0000 6.2435 0.0000 25.1309
#
#
#
# Elastic Compliance Matrix: (Units=1/GPa)
#
#
# Indices 1 2 3 4 5 6 
#
# 1 0.019604 -0.014953 -0.000711 0.000000 0.007207 0.000000
# 2 -0.014953 0.034734 -0.013378 0.000000 -0.009758 0.000000
# 3 -0.000711 -0.013378 0.023726 0.000000 -0.004748 0.000000
# 4 0.000000 0.000000 0.000000 0.038643 0.000000 -0.009600
# 5 0.007207 -0.009758 -0.004748 0.000000 0.075378 0.000000
# 6 0.000000 0.000000 0.000000 -0.009600 0.000000 0.042177
#
#
# Mechanical properties :
#
#
# Convention : Reuss Voigt Hill
#
# Bulk Modulus (GPa) = 50.04995 53.27068 51.66032
# Shear Modulus (GPa) = 16.72207 20.30411 18.51309
#
# Velocity S-wave (km/s) = 3.20559 3.53228 3.37289
# Velocity P-wave (km/s) = 6.66761 7.02646 6.84939
#
# Compressibility (1/GPa) = 0.01998004
#
# Stress axis : x y z
#
# Youngs Moduli (GPa) = 51.01030 28.78992 42.14809
#
# Poissons Ratio (x) = 0.43049 0.02996
# Poissons Ratio (y) = 0.76275 0.56387
# Poissons Ratio (z) = 0.03626 0.38516
#
# Static dielectric constant tensor:
#      x y z
#    x 1.562080 0.000000 0.022500 
#    y 0.000000 1.529800 0.000000 
#    z 0.022500 0.000000 1.531080 
# 
# From -- ./inp_files/12215.got.cif
#   From: 2010.05.17/outbox.cif.g08.bks.cpg/sg11_7_cif.got.tgz:12215.got - 2010.06.03 12:22:45.
