data_PCOD9158843
_publ_section_title
;
Structure prediction by ZEFSAII (Michael W. Deem and Ramdas Pophale) SiO2 
 PCOD9158843
Probable space group: P 21/M
;
_chemical_formula_sum "Si O2"
_cell_formula_units_Z 32
_cell_length_a 14.664663
_cell_length_b 7.748970
_cell_length_c 14.767225
_cell_angle_alpha 90.000000
_cell_angle_beta 105.743504
_cell_angle_gamma 90.000000
_cell_volume 1615.137060
_symmetry_space_group_name_H-M "P 21/M"
_symmetry_group_IT_number 11
_symmetry_cell_setting 'monoclinic'
loop_
_space_group_symop_operation_xyz
x,y,z
-x,1/2+y,-z
-x,-y,-z
x,1/2-y,z
loop_
_atom_site_type_symbol
_atom_site_label
_atom_site_fract_x
_atom_site_fract_y
_atom_site_fract_z
Si Si1 0.734020 0.451648 0.560689
Si Si2 0.412292 0.040755 0.635542
Si Si3 0.830549 0.542641 0.110634
Si Si4 0.228132 0.958063 0.108615
Si Si5 0.252382 0.461638 0.725559
Si Si6 0.109296 0.049456 0.534585
Si Si7 0.029510 0.956935 0.110814
Si Si8 0.628218 0.038171 0.709021
O O1 0.751812 0.250000 0.578557
O O2 0.648651 0.477020 0.466081
O O3 0.829026 0.521926 0.539597
O O4 0.695548 0.521815 0.645206
O O5 0.412010 0.250000 0.630705
O O6 0.352402 0.988956 0.708173
O O7 0.520367 0.980771 0.666483
O O8 0.835485 0.750000 0.118791
O O9 0.770344 0.478885 0.179433
O O10 0.939864 0.477291 0.143716
O O11 0.787391 0.505326 0.000190
O O12 0.226035 0.750000 0.110999
O O13 0.137279 0.020899 0.143234
O O14 0.323693 0.014881 0.183675
O O15 0.251732 0.250000 0.726054
O O16 0.171085 0.526727 0.634139
O O17 0.109029 0.250000 0.553179
O O18 0.000000 0.000000 0.500000
O O19 0.032770 0.750000 0.123965
O O20 0.000000 0.000000 0.000000
O O21 0.626366 0.250000 0.705980
#
# Coordination Sequence:
#
# PCOD9158843 Si02
#       8
#     4   4   4   4   4   4   4   4
#     4  10  19  32  51  75  99 128 164 203 245 295
#     4   9  17  33  52  70  94 127 165 205 246 298
#     4   9  16  29  47  67  89 121 160 196 236 289
#     4   9  17  30  45  66  93 122 157 200 245 293
#     4   8  16  30  50  70  92 126 164 195 236 292
#     4  10  20  35  53  76 105 136 164 198 241 288
#     4   8  14  24  41  60  82 110 144 184 225 270
#     4   9  18  31  50  72  96 128 164 201 251 303
#
# _framework density 19.812560999999999
#
# number of rings (size 3 to 8) (size 9 to 14) (size 15 to 20)
#    0.000    3.000    0.000    1.875    0.000    1.000 
#    0.000   10.000    0.000    6.000    0.000    0.000 
#    0.000    0.000    0.000    0.000    0.000    0.000 
#
# Total GULP energy -178260.600816 kJ/mol
# GULP energy per Si atom -5570.643776 kJ/mol
# Density = 1.976747 g / cm^3
# Si number density = 19.812561 Si / 1000 Ang^3
#
#
#
# Elastic Constant Matrix: (Units=GPa)
#
#
# Indices 1 2 3 4 5 6 
#
# 1 124.9414 -2.8825 61.2406 0.0000 2.8860 0.0000
# 2 -2.8825 19.8702 -3.8898 0.0000 2.1792 0.0000
# 3 61.2406 -3.8898 82.1365 0.0000 -19.2914 0.0000
# 4 0.0000 0.0000 0.0000 15.7174 0.0000 1.0868
# 5 2.8860 2.1792 -19.2914 0.0000 26.5924 0.0000
# 6 0.0000 0.0000 0.0000 1.0868 0.0000 15.6583
#
#
#
# Elastic Compliance Matrix: (Units=1/GPa)
#
#
# Indices 1 2 3 4 5 6 
#
# 1 0.015217 0.000755 -0.014118 0.000000 -0.011955 0.000000
# 2 0.000755 0.051023 0.001027 0.000000 -0.003518 0.000000
# 3 -0.014118 0.001027 0.027832 0.000000 0.021639 0.000000
# 4 0.000000 0.000000 0.000000 0.063931 0.000000 -0.004437
# 5 -0.011955 -0.003518 0.021639 0.000000 0.054889 0.000000
# 6 0.000000 0.000000 0.000000 -0.004437 0.000000 0.064172
#
#
# Mechanical properties :
#
#
# Convention : Reuss Voigt Hill
#
# Bulk Modulus (GPa) = 14.40910 37.32053 25.86482
# Shear Modulus (GPa) = 15.39077 23.09227 19.24152
#
# Velocity S-wave (km/s) = 2.79017 3.41770 3.11975
# Velocity P-wave (km/s) = 4.20340 5.86958 5.10492
#
# Compressibility (1/GPa) = 0.06940059
#
# Stress axis : x y z
#
# Youngs Moduli (GPa) = 65.71392 19.59895 35.92934
#
# Poissons Ratio (x) = -0.01480 0.50726
# Poissons Ratio (y) = -0.04961 -0.03690
# Poissons Ratio (z) = 0.92777 -0.02013
#
# Static dielectric constant tensor:
#      x y z
#    x 1.776470 0.000000 0.012530 
#    y 0.000000 1.728150 0.000000 
#    z 0.012530 0.000000 1.691900 
# 
# From -- ./inp_files/51415.got.cif
#   From: 2010.05.17/outbox.cif.g08.bks.cpg/sg11_26_cif.got.tgz:51415.got - 2010.06.03 12:22:45.
