data_PCOD9158830
_publ_section_title
;
Structure prediction by ZEFSAII (Michael W. Deem and Ramdas Pophale) SiO2 
 PCOD9158830
Probable space group: P 21/M
;
_chemical_formula_sum "Si O2"
_cell_formula_units_Z 32
_cell_length_a 20.774436
_cell_length_b 7.511618
_cell_length_c 21.335019
_cell_angle_alpha 90.000000
_cell_angle_beta 28.673009
_cell_angle_gamma 90.000000
_cell_volume 1597.442664
_symmetry_space_group_name_H-M "P 21/M"
_symmetry_group_IT_number 11
_symmetry_cell_setting 'monoclinic'
loop_
_space_group_symop_operation_xyz
x,y,z
-x,1/2+y,-z
-x,-y,-z
x,1/2-y,z
loop_
_atom_site_type_symbol
_atom_site_label
_atom_site_fract_x
_atom_site_fract_y
_atom_site_fract_z
Si Si1 0.653223 0.463294 0.850032
Si Si2 0.184703 0.962461 0.169235
Si Si3 0.364286 0.539595 0.903015
Si Si4 0.659946 0.034295 0.702859
Si Si5 0.589464 0.034732 0.274503
Si Si6 0.126444 0.964441 0.582291
Si Si7 0.655676 0.036913 0.350785
Si Si8 0.278821 0.962468 0.572697
O O1 0.670036 0.250000 0.832850
O O2 0.749496 0.532712 0.822787
O O3 0.678623 0.530673 0.758046
O O4 0.500000 0.500000 0.000000
O O5 0.208848 0.750000 0.149102
O O6 0.261801 0.034612 0.042121
O O7 0.027019 0.991903 0.299549
O O8 0.336438 0.750000 0.921094
O O9 0.514115 0.518376 0.801929
O O10 0.362001 0.466448 0.834254
O O11 0.662828 0.250000 0.701207
O O12 0.774409 0.971890 0.557307
O O13 0.597058 0.250000 0.267631
O O14 0.669897 0.970186 0.267434
O O15 0.432026 0.991029 0.418710
O O16 0.138155 0.750000 0.573572
O O17 0.179873 0.032229 0.603784
O O18 0.675043 0.250000 0.332440
O O19 0.733456 0.966915 0.345564
O O20 0.500000 0.000000 0.500000
O O21 0.259334 0.750000 0.593152
#
# Coordination Sequence:
#
# PCOD9158830 Si02
#       8
#     4   4   4   4   4   4   4   4
#     4  10  20  35  55  77 101 128 161 203 249 295
#     4  10  22  37  51  72 101 132 166 204 247 295
#     4  10  19  32  51  75 101 129 165 205 246 294
#     4  10  20  34  54  77 100 128 164 205 247 292
#     4   9  16  26  45  73  99 124 160 202 244 291
#     4  10  21  35  50  73 102 133 169 204 243 293
#     4   8  14  24  40  66  97 126 156 195 242 287
#     4   9  16  28  46  68  98 131 161 198 243 289
#
# _framework density 20.032017
#
# number of rings (size 3 to 8) (size 9 to 14) (size 15 to 20)
#    0.000    2.500    2.500    0.000    0.000    2.500 
#    0.000    0.000    0.000    0.750    0.000    0.000 
#    0.000    0.000    0.000    0.000    0.000    0.000 
#
# Total GULP energy -178462.663353 kJ/mol
# GULP energy per Si atom -5576.958230 kJ/mol
# Density = 1.998642 g / cm^3
# Si number density = 20.032017 Si / 1000 Ang^3
#
#
#
# Elastic Constant Matrix: (Units=GPa)
#
#
# Indices 1 2 3 4 5 6 
#
# 1 197.0147 -0.3487 70.0824 0.0000 34.1252 0.0000
# 2 -0.3487 51.5568 -12.6883 0.0000 6.2502 0.0000
# 3 70.0824 -12.6883 88.9511 0.0000 10.5435 0.0000
# 4 0.0000 0.0000 0.0000 15.2873 0.0000 -6.3464
# 5 34.1252 6.2502 10.5435 0.0000 33.2848 0.0000
# 6 0.0000 0.0000 0.0000 -6.3464 0.0000 11.6395
#
#
#
# Elastic Compliance Matrix: (Units=1/GPa)
#
#
# Indices 1 2 3 4 5 6 
#
# 1 0.008282 -0.000588 -0.005834 0.000000 -0.006532 0.000000
# 2 -0.000588 0.020932 0.003993 0.000000 -0.004593 0.000000
# 3 -0.005834 0.003993 0.016404 0.000000 0.000036 0.000000
# 4 0.000000 0.000000 0.000000 0.084553 0.000000 0.046102
# 5 -0.006532 -0.004593 0.000036 0.000000 0.037592 0.000000
# 6 0.000000 0.000000 0.000000 0.046102 0.000000 0.111052
#
#
# Mechanical properties :
#
#
# Convention : Reuss Voigt Hill
#
# Bulk Modulus (GPa) = 24.53416 50.17928 37.35672
# Shear Modulus (GPa) = 16.82037 30.74080 23.78059
#
# Velocity S-wave (km/s) = 2.90086 3.92163 3.44921
# Velocity P-wave (km/s) = 4.84706 6.75348 5.87807
#
# Compressibility (1/GPa) = 0.04075949
#
# Stress axis : x y z
#
# Youngs Moduli (GPa) = 120.74938 47.77455 60.95923
#
# Poissons Ratio (x) = 0.02809 0.35567
# Poissons Ratio (y) = 0.07100 -0.24343
# Poissons Ratio (z) = 0.70451 -0.19078
#
# Static dielectric constant tensor:
#      x y z
#    x 1.749670 0.000000 0.054650 
#    y 0.000000 1.725130 0.000000 
#    z 0.054650 0.000000 1.660400 
# 
# From -- ./inp_files/66395.got.cif
#   From: 2010.05.17/outbox.cif.g08.bks.cpg/sg11_34_cif.got.tgz:66395.got - 2010.06.03 12:22:45.
