data_PCOD9158116
_publ_section_title
;
Structure prediction by ZEFSAII (Michael W. Deem and Ramdas Pophale) SiO2 
 PCOD9158116
Probable space group: P 21/M
;
_chemical_formula_sum "Si O2"
_cell_formula_units_Z 32
_cell_length_a 14.747585
_cell_length_b 7.532251
_cell_length_c 18.615962
_cell_angle_alpha 90.000000
_cell_angle_beta 42.570433
_cell_angle_gamma 90.000000
_cell_volume 1398.931416
_symmetry_space_group_name_H-M "P 21/M"
_symmetry_group_IT_number 11
_symmetry_cell_setting 'monoclinic'
loop_
_space_group_symop_operation_xyz
x,y,z
-x,1/2+y,-z
-x,-y,-z
x,1/2-y,z
loop_
_atom_site_type_symbol
_atom_site_label
_atom_site_fract_x
_atom_site_fract_y
_atom_site_fract_z
Si Si1 0.239484 0.032971 0.986805
Si Si2 0.501396 0.966852 0.351899
Si Si3 0.265410 0.550224 0.581536
Si Si4 0.533558 0.036811 0.792843
Si Si5 0.097705 0.455128 0.546556
Si Si6 0.198934 0.463815 0.845357
Si Si7 0.035969 0.954333 0.810839
Si Si8 0.175033 0.458979 0.342927
O O1 0.237336 0.250000 0.991209
O O2 0.392747 0.975834 0.909418
O O3 0.207830 0.982441 0.922991
O O4 0.113648 0.970043 0.107376
O O5 0.493139 0.750000 0.356721
O O6 0.403037 0.031895 0.471861
O O7 0.460210 0.024365 0.294684
O O8 0.656135 0.014458 0.271921
O O9 0.296028 0.750000 0.589778
O O10 0.175014 0.557509 0.562492
O O11 0.162557 0.459924 0.696688
O O12 0.527220 0.250000 0.792867
O O13 0.667444 0.988973 0.757397
O O14 0.139651 0.250000 0.526655
O O15 0.139059 0.526946 0.444081
O O16 0.936529 0.463242 0.644730
O O17 0.187555 0.250000 0.849892
O O18 0.080291 0.543729 0.868070
O O19 0.029603 0.750000 0.789128
O O20 0.150184 0.250000 0.357086
#
# Coordination Sequence:
#
# PCOD9158116 Si02
#       8
#     4   4   4   4   4   4   4   4
#     4   8  16  31  50  71  94 125 163 200 242 284
#     4   8  15  28  46  67  91 124 161 192 235 287
#     4  10  19  32  49  67  96 132 161 195 237 284
#     4   9  15  28  51  71  93 126 160 195 233 283
#     4  10  20  32  48  72 101 130 157 188 228 284
#     4   9  17  31  50  68  90 124 165 205 240 283
#     4  10  20  32  47  70  97 126 162 202 243 283
#     4  10  19  30  48  76 104 124 150 192 239 280
#
# _framework density 22.874604000000001
#
# number of rings (size 3 to 8) (size 9 to 14) (size 15 to 20)
#    0.000    2.750    1.250    2.625    0.000    2.000 
#    0.000    3.750    0.000    0.750    0.000    0.000 
#    0.000    0.000    0.000    0.000    0.000    0.000 
#
# Total GULP energy -178534.255127 kJ/mol
# GULP energy per Si atom -5579.195473 kJ/mol
# Density = 2.282254 g / cm^3
# Si number density = 22.874604 Si / 1000 Ang^3
#
#
#
# Elastic Constant Matrix: (Units=GPa)
#
#
# Indices 1 2 3 4 5 6 
#
# 1 32.2242 -6.2124 9.6267 0.0000 -24.8364 0.0000
# 2 -6.2124 67.8410 4.2871 0.0000 2.3394 0.0000
# 3 9.6267 4.2871 143.3818 0.0000 -43.5358 0.0000
# 4 0.0000 0.0000 0.0000 -3.7033 0.0000 -1.4718
# 5 -24.8364 2.3394 -43.5358 0.0000 34.8176 0.0000
# 6 0.0000 0.0000 0.0000 -1.4718 0.0000 13.1663
#
#
#
# Elastic Compliance Matrix: (Units=1/GPa)
#
#
# Indices 1 2 3 4 5 6 
#
# 1 0.108368 0.004532 0.025740 0.000000 0.109183 0.000000
# 2 0.004532 0.015093 -0.000132 0.000000 0.002054 0.000000
# 3 0.025740 -0.000132 0.017455 0.000000 0.040196 0.000000
# 4 0.000000 0.000000 0.000000 -0.258542 0.000000 -0.028902
# 5 0.109183 0.002054 0.040196 0.000000 0.156727 0.000000
# 6 0.000000 0.000000 0.000000 -0.028902 0.000000 0.072721
#
#
# Mechanical properties :
#
#
# Convention : Reuss Voigt Hill
#
# Bulk Modulus (GPa) = 4.97028 28.76112 16.86570
# Shear Modulus (GPa) = 42.15663 24.57248 33.36456
#
# Velocity S-wave (km/s) = 4.29761 3.28109 3.82329
# Velocity P-wave (km/s) = 5.17721 5.19180 5.18451
#
# Compressibility (1/GPa) = 0.20119577
#
# Stress axis : x y z
#
# Youngs Moduli (GPa) = 9.22786 66.25647 57.29031
#
# Poissons Ratio (x) = -0.30027 -1.47467
# Poissons Ratio (y) = -0.04182 0.00756
# Poissons Ratio (z) = -0.23753 0.00875
#
# Static dielectric constant tensor:
#      x y z
#    x 1.821600 0.000000 -0.007180 
#    y 0.000000 1.846250 0.000000 
#    z -0.007180 0.000000 1.949140 
# 
# From -- ./inp_files/42791.got.cif
#   From: 2010.05.17/outbox.cif.g08.bks.cpg/sg11_22_cif.got.tgz:42791.got - 2010.06.03 12:22:45.
