data_PCOD9158352
_publ_section_title
;
Structure prediction by ZEFSAII (Michael W. Deem and Ramdas Pophale) SiO2 
 PCOD9158352
Probable space group: P 21/M
;
_chemical_formula_sum "Si O2"
_cell_formula_units_Z 32
_cell_length_a 21.155008
_cell_length_b 9.147534
_cell_length_c 22.373342
_cell_angle_alpha 90.000000
_cell_angle_beta 158.191578
_cell_angle_gamma 90.000000
_cell_volume 1608.466224
_symmetry_space_group_name_H-M "P 21/M"
_symmetry_group_IT_number 11
_symmetry_cell_setting 'monoclinic'
loop_
_space_group_symop_operation_xyz
x,y,z
-x,1/2+y,-z
-x,-y,-z
x,1/2-y,z
loop_
_atom_site_type_symbol
_atom_site_label
_atom_site_fract_x
_atom_site_fract_y
_atom_site_fract_z
Si Si1 0.855521 0.076004 0.816395
Si Si2 0.125715 0.076966 0.949011
Si Si3 0.267171 0.584095 0.167540
Si Si4 0.645355 0.912000 0.547089
Si Si5 0.417479 0.921500 0.836300
Si Si6 0.902343 0.578716 0.664666
Si Si7 0.136662 0.073792 0.505804
Si Si8 0.259538 0.578513 0.830732
O O1 0.870607 0.250000 0.836361
O O2 0.836676 0.015611 0.867178
O O3 0.991072 0.032434 0.883819
O O4 0.684793 0.030762 0.631581
O O5 0.136510 0.250000 0.955123
O O6 0.060809 0.010689 0.830483
O O7 0.284337 0.002977 0.120556
O O8 0.205018 0.750000 0.100342
O O9 0.452690 0.593669 0.358550
O O10 0.698529 0.750000 0.616351
O O11 0.753483 0.941916 0.582154
O O12 0.434711 0.750000 0.836672
O O13 0.332366 0.933222 0.827457
O O14 0.283791 0.998292 0.674050
O O15 0.605185 0.993884 0.008391
O O16 0.948285 0.750000 0.703940
O O17 0.843813 0.538573 0.547227
O O18 0.148560 0.250000 0.524848
O O19 0.938767 0.030374 0.344987
O O20 0.259797 0.750000 0.848360
#
# Coordination Sequence:
#
# PCOD9158352 Si02
#       8
#     4   4   4   4   4   4   4   4
#     4   9  18  31  48  70  96 125 159 202 255 310
#     4  10  20  33  49  70  97 129 164 207 256 305
#     4  10  19  31  48  72  98 125 161 205 254 311
#     4   9  18  32  50  71  95 125 162 206 254 303
#     4  10  20  34  56  87 120 148 178 226 281 327
#     4   9  19  37  55  71  95 132 174 212 252 301
#     4  10  20  36  59  82 108 149 194 230 269 322
#     4   9  19  36  57  84 116 150 187 225 270 325
#
# _framework density 19.894729000000002
#
# number of rings (size 3 to 8) (size 9 to 14) (size 15 to 20)
#    0.000    2.500    0.000    1.875    0.000    3.000 
#    2.250    0.000    0.000    0.000    0.000    0.000 
#    0.000    0.000    0.000    0.000    0.000    0.000 
#
# Total GULP energy -178203.814907 kJ/mol
# GULP energy per Si atom -5568.869216 kJ/mol
# Density = 1.984945 g / cm^3
# Si number density = 19.894729 Si / 1000 Ang^3
#
#
#
# Elastic Constant Matrix: (Units=GPa)
#
#
# Indices 1 2 3 4 5 6 
#
# 1 34.7748 24.8946 20.1575 0.0000 -19.5725 0.0000
# 2 24.8946 38.7832 39.5068 0.0000 -24.6735 0.0000
# 3 20.1575 39.5068 93.7116 0.0000 -34.0663 0.0000
# 4 0.0000 0.0000 0.0000 31.8862 0.0000 -7.9276
# 5 -19.5725 -24.6735 -34.0663 0.0000 29.3442 0.0000
# 6 0.0000 0.0000 0.0000 -7.9276 0.0000 18.2137
#
#
#
# Elastic Compliance Matrix: (Units=1/GPa)
#
#
# Indices 1 2 3 4 5 6 
#
# 1 0.060439 -0.034117 0.009704 0.000000 0.022892 0.000000
# 2 -0.034117 0.082316 -0.018125 0.000000 0.025417 0.000000
# 3 0.009704 -0.018125 0.022557 0.000000 0.017420 0.000000
# 4 0.000000 0.000000 0.000000 0.035167 0.000000 0.015307
# 5 0.022892 0.025417 0.017420 0.000000 0.090942 0.000000
# 6 0.000000 0.000000 0.000000 0.015307 0.000000 0.061566
#
#
# Mechanical properties :
#
#
# Convention : Reuss Voigt Hill
#
# Bulk Modulus (GPa) = 12.46287 37.37638 24.91963
# Shear Modulus (GPa) = 10.75711 21.40287 16.07999
#
# Velocity S-wave (km/s) = 2.32782 3.28351 2.84606
# Velocity P-wave (km/s) = 3.67464 5.76221 4.83250
#
# Compressibility (1/GPa) = 0.08023833
#
# Stress axis : x y z
#
# Youngs Moduli (GPa) = 16.54548 12.14826 44.33177
#
# Poissons Ratio (x) = 0.41446 -0.43020
# Poissons Ratio (y) = 0.56448 0.80349
# Poissons Ratio (z) = -0.16056 0.22018
#
# Static dielectric constant tensor:
#      x y z
#    x 1.716110 0.000000 0.046220 
#    y 0.000000 2.570330 0.000000 
#    z 0.046220 0.000000 1.827630 
# 
# From -- ./inp_files/70013.got.cif
#   From: 2010.05.17/outbox.cif.g08.bks.cpg/sg11_36_cif.got.tgz:70013.got - 2010.06.03 12:22:45.
