data_PCOD9158483
_publ_section_title
;
Structure prediction by ZEFSAII (Michael W. Deem and Ramdas Pophale) SiO2 
 PCOD9158483
Probable space group: P 21/M
;
_chemical_formula_sum "Si O2"
_cell_formula_units_Z 32
_cell_length_a 19.814517
_cell_length_b 8.892147
_cell_length_c 28.038157
_cell_angle_alpha 90.000000
_cell_angle_beta 24.230381
_cell_angle_gamma 90.000000
_cell_volume 2027.467735
_symmetry_space_group_name_H-M "P 21/M"
_symmetry_group_IT_number 11
_symmetry_cell_setting 'monoclinic'
loop_
_space_group_symop_operation_xyz
x,y,z
-x,1/2+y,-z
-x,-y,-z
x,1/2-y,z
loop_
_atom_site_type_symbol
_atom_site_label
_atom_site_fract_x
_atom_site_fract_y
_atom_site_fract_z
Si Si1 0.176404 0.431301 0.232564
Si Si2 0.578332 0.931348 0.840933
Si Si3 0.825058 0.568655 0.598162
Si Si4 0.827890 0.931365 0.487568
Si Si5 0.232951 0.429857 0.086451
Si Si6 0.615354 0.929852 0.384655
Si Si7 0.629834 0.930520 0.523701
Si Si8 0.898490 0.569888 0.268612
O O1 0.162343 0.250000 0.243013
O O2 0.317645 0.475320 0.179031
O O3 0.218055 0.477036 0.151752
O O4 0.003537 0.500567 0.360045
O O5 0.563606 0.750000 0.850294
O O6 0.686160 0.976722 0.725551
O O7 0.399297 0.002803 0.958010
O O8 0.838538 0.750000 0.591711
O O9 0.786818 0.525937 0.568262
O O10 0.000000 0.500000 0.500000
O O11 0.841128 0.750000 0.476799
O O12 0.693735 0.976330 0.534515
O O13 0.238524 0.250000 0.081346
O O14 0.070226 0.488389 0.164992
O O15 0.600046 0.750000 0.395350
O O16 0.798965 0.967401 0.284262
O O17 0.500000 0.000000 0.500000
O O18 0.538025 0.994114 0.386192
O O19 0.610198 0.750000 0.534527
O O20 0.775858 0.968566 0.391812
O O21 0.922929 0.750000 0.254468
#
# Coordination Sequence:
#
# PCOD9158483 Si02
#       8
#     4   4   4   4   4   4   4   4
#     4  10  20  33  48  70  97 127 164 203 242 285
#     4  10  21  36  50  66  95 131 165 202 246 289
#     4  10  20  34  53  73  94 125 164 205 247 289
#     4  10  19  31  50  74  98 128 163 199 242 290
#     4  11  22  32  47  72  97 126 167 204 238 285
#     4   9  17  28  44  67  96 129 161 191 232 286
#     4   9  17  29  45  69  99 128 159 193 236 288
#     4   9  17  30  46  66  95 130 159 187 236 290
#
# _framework density 15.783234999999999
#
# number of rings (size 3 to 8) (size 9 to 14) (size 15 to 20)
#    0.000    2.250    2.500    1.875    0.000    4.500 
#    0.000    0.000    0.000    0.000    0.000    0.875 
#    0.000    0.000    0.000    0.000    0.000    0.000 
#
# Total GULP energy -178421.929480 kJ/mol
# GULP energy per Si atom -5575.685296 kJ/mol
# Density = 1.574731 g / cm^3
# Si number density = 15.783235 Si / 1000 Ang^3
#
#
#
# Elastic Constant Matrix: (Units=GPa)
#
#
# Indices 1 2 3 4 5 6 
#
# 1 140.8159 37.8707 79.6659 0.0000 -27.3483 0.0000
# 2 37.8707 18.8354 35.6667 0.0000 -8.2962 0.0000
# 3 79.6659 35.6667 116.0244 0.0000 -9.3693 0.0000
# 4 0.0000 0.0000 0.0000 23.3003 0.0000 -8.7061
# 5 -27.3483 -8.2962 -9.3693 0.0000 20.1653 0.0000
# 6 0.0000 0.0000 0.0000 -8.7061 0.0000 19.5164
#
#
#
# Elastic Compliance Matrix: (Units=1/GPa)
#
#
# Indices 1 2 3 4 5 6 
#
# 1 0.018306 -0.021716 -0.004790 0.000000 0.013667 0.000000
# 2 -0.021716 0.182998 -0.039110 0.000000 0.027665 0.000000
# 3 -0.004790 -0.039110 0.022969 0.000000 -0.011915 0.000000
# 4 0.000000 0.000000 0.000000 0.051502 0.000000 0.022975
# 5 0.013667 0.027665 -0.011915 0.000000 0.073971 0.000000
# 6 0.000000 0.000000 0.000000 0.022975 0.000000 0.061488
#
#
# Mechanical properties :
#
#
# Convention : Reuss Voigt Hill
#
# Bulk Modulus (GPa) = 10.74805 64.67584 37.71194
# Shear Modulus (GPa) = 8.71870 20.76120 14.73995
#
# Velocity S-wave (km/s) = 2.35287 3.63077 3.05929
# Velocity P-wave (km/s) = 3.76908 7.65788 6.03528
#
# Compressibility (1/GPa) = 0.09304015
#
# Stress axis : x y z
#
# Youngs Moduli (GPa) = 54.62674 5.46454 43.53782
#
# Poissons Ratio (x) = 0.11867 0.20856
# Poissons Ratio (y) = 1.18627 1.70277
# Poissons Ratio (z) = 0.26168 0.21372
#
# Static dielectric constant tensor:
#      x y z
#    x 1.556220 0.000000 -0.004210 
#    y 0.000000 1.528290 0.000000 
#    z -0.004210 0.000000 1.490100 
# 
# From -- ./inp_files/42828.got.cif
#   From: 2010.05.17/outbox.cif.g08.bks.cpg/sg11_22_cif.got.tgz:42828.got - 2010.06.03 12:22:45.
