data_PCOD9158597
_publ_section_title
;
Structure prediction by ZEFSAII (Michael W. Deem and Ramdas Pophale) SiO2 
 PCOD9158597
Probable space group: P 21/M
;
_chemical_formula_sum "Si O2"
_cell_formula_units_Z 32
_cell_length_a 13.153240
_cell_length_b 7.613035
_cell_length_c 15.147049
_cell_angle_alpha 90.000000
_cell_angle_beta 101.907366
_cell_angle_gamma 90.000000
_cell_volume 1484.128994
_symmetry_space_group_name_H-M "P 21/M"
_symmetry_group_IT_number 11
_symmetry_cell_setting 'monoclinic'
loop_
_space_group_symop_operation_xyz
x,y,z
-x,1/2+y,-z
-x,-y,-z
x,1/2-y,z
loop_
_atom_site_type_symbol
_atom_site_label
_atom_site_fract_x
_atom_site_fract_y
_atom_site_fract_z
Si Si1 0.096214 0.949858 0.135702
Si Si2 0.026799 0.040076 0.404667
Si Si3 0.676008 0.465655 0.114801
Si Si4 0.780955 0.536076 0.666738
Si Si5 0.546371 0.539249 0.603285
Si Si6 0.293964 0.537452 0.077767
Si Si7 0.902345 0.457112 0.212951
Si Si8 0.499385 0.541178 0.782846
O O1 0.074371 0.750000 0.105767
O O2 0.167149 0.959055 0.236469
O O3 0.177215 0.028377 0.079246
O O4 0.986595 0.026056 0.148886
O O5 0.023693 0.250000 0.395532
O O6 0.143215 0.985933 0.399602
O O7 0.952267 0.969881 0.312755
O O8 0.000000 0.000000 0.500000
O O9 0.674846 0.250000 0.114099
O O10 0.788761 0.526133 0.169339
O O11 0.582827 0.528713 0.160662
O O12 0.667668 0.520504 0.011502
O O13 0.782255 0.750000 0.676726
O O14 0.664705 0.475925 0.630636
O O15 0.500000 0.500000 0.500000
O O16 0.549653 0.750000 0.611361
O O17 0.488151 0.472800 0.680788
O O18 0.712463 0.250000 0.922287
O O19 0.382418 0.486175 0.163525
O O20 0.888185 0.250000 0.224232
O O21 0.481744 0.750000 0.776962
#
# Coordination Sequence:
#
# PCOD9158597 Si02
#       8
#     4   4   4   4   4   4   4   4
#     4  10  19  31  52  80 106 135 174 221 266 312
#     4   9  18  31  51  75  98 131 173 215 260 314
#     4   9  19  36  56  79 109 144 180 221 268 322
#     4   9  18  35  53  72 101 137 175 214 261 317
#     4  10  21  35  54  80 106 136 177 220 266 317
#     4  10  20  34  55  82 110 140 177 224 276 318
#     4   9  19  36  54  73 105 145 179 216 267 321
#     4  10  20  36  58  80 106 144 187 222 258 323
#
# _framework density 21.561468000000001
#
# number of rings (size 3 to 8) (size 9 to 14) (size 15 to 20)
#    0.000    2.500    1.250    1.500    0.000    5.000 
#    0.000    2.500    0.000    0.000    0.000    0.000 
#    0.000    0.000    0.000    0.000    0.000    0.000 
#
# Total GULP energy -178533.249137 kJ/mol
# GULP energy per Si atom -5579.164036 kJ/mol
# Density = 2.151239 g / cm^3
# Si number density = 21.561468 Si / 1000 Ang^3
#
#
#
# Elastic Constant Matrix: (Units=GPa)
#
#
# Indices 1 2 3 4 5 6 
#
# 1 79.8482 -7.2602 38.4689 0.0000 -16.0904 0.0000
# 2 -7.2602 36.2921 -2.4318 0.0000 -1.9057 0.0000
# 3 38.4689 -2.4318 123.5194 0.0000 -27.1548 0.0000
# 4 0.0000 0.0000 0.0000 6.7456 0.0000 -4.7284
# 5 -16.0904 -1.9057 -27.1548 0.0000 38.1984 0.0000
# 6 0.0000 0.0000 0.0000 -4.7284 0.0000 13.9373
#
#
#
# Elastic Compliance Matrix: (Units=1/GPa)
#
#
# Indices 1 2 3 4 5 6 
#
# 1 0.015463 0.003036 -0.003900 0.000000 0.003892 0.000000
# 2 0.003036 0.028328 0.000242 0.000000 0.002864 0.000000
# 3 -0.003900 0.000242 0.010616 0.000000 0.005916 0.000000
# 4 0.000000 0.000000 0.000000 0.194500 0.000000 0.065986
# 5 0.003892 0.002864 0.005916 0.000000 0.032167 0.000000
# 6 0.000000 0.000000 0.000000 0.065986 0.000000 0.094136
#
#
# Mechanical properties :
#
#
# Convention : Reuss Voigt Hill
#
# Bulk Modulus (GPa) = 18.81004 33.02371 25.91688
# Shear Modulus (GPa) = 12.68468 25.83511 19.25990
#
# Velocity S-wave (km/s) = 2.42813 3.46527 2.99198
# Velocity P-wave (km/s) = 4.07479 5.60001 4.89714
#
# Compressibility (1/GPa) = 0.05316309
#
# Stress axis : x y z
#
# Youngs Moduli (GPa) = 64.66904 35.30044 94.19792
#
# Poissons Ratio (x) = -0.10719 0.36741
# Poissons Ratio (y) = -0.19637 -0.02277
# Poissons Ratio (z) = 0.25224 -0.00853
#
# Static dielectric constant tensor:
#      x y z
#    x 1.778350 0.000000 -0.026580 
#    y 0.000000 1.799420 0.000000 
#    z -0.026580 0.000000 1.793900 
# 
# From -- ./inp_files/49379.got.cif
#   From: 2010.05.17/outbox.cif.g08.bks.cpg/sg11_25_cif.got.tgz:49379.got - 2010.06.03 12:22:45.
