data_PCOD9158696
_publ_section_title
;
Structure prediction by ZEFSAII (Michael W. Deem and Ramdas Pophale) SiO2 
 PCOD9158696
Probable space group: P 21/M
;
_chemical_formula_sum "Si O2"
_cell_formula_units_Z 32
_cell_length_a 14.001268
_cell_length_b 9.003882
_cell_length_c 23.016354
_cell_angle_alpha 90.000000
_cell_angle_beta 29.964187
_cell_angle_gamma 90.000000
_cell_volume 1449.216192
_symmetry_space_group_name_H-M "P 21/M"
_symmetry_group_IT_number 11
_symmetry_cell_setting 'monoclinic'
loop_
_space_group_symop_operation_xyz
x,y,z
-x,1/2+y,-z
-x,-y,-z
x,1/2-y,z
loop_
_atom_site_type_symbol
_atom_site_label
_atom_site_fract_x
_atom_site_fract_y
_atom_site_fract_z
Si Si1 0.572263 0.582310 0.030737
Si Si2 0.725132 0.917038 0.440639
Si Si3 0.853933 0.070259 0.751710
Si Si4 0.185600 0.918256 0.924558
Si Si5 0.932367 0.082109 0.880181
Si Si6 0.881340 0.921592 0.612367
Si Si7 0.352777 0.082754 0.655318
Si Si8 0.475954 0.585174 0.219365
O O1 0.596103 0.750000 0.995344
O O2 0.365607 0.517646 0.118111
O O3 0.537147 0.595510 0.119351
O O4 0.773494 0.495067 0.923625
O O5 0.733234 0.750000 0.460506
O O6 0.660492 0.908370 0.407799
O O7 0.944405 0.975159 0.324769
O O8 0.554277 0.004636 0.562633
O O9 0.839396 0.250000 0.761595
O O10 0.891819 0.013165 0.666414
O O11 0.211500 0.750000 0.888205
O O12 0.355479 0.035489 0.827267
O O13 0.158661 0.905553 0.008256
O O14 0.000000 0.000000 0.000000
O O15 0.963210 0.250000 0.840769
O O16 0.143645 0.012598 0.778703
O O17 0.928550 0.750000 0.596210
O O18 0.666181 0.947144 0.704559
O O19 0.000000 0.000000 0.500000
O O20 0.354780 0.250000 0.678603
O O21 0.399184 0.750000 0.274632
#
# Coordination Sequence:
#
# PCOD9158696 Si02
#       8
#     4   4   4   4   4   4   4   4
#     4   8  15  28  49  72  96 128 162 201 248 303
#     4   9  18  34  56  77 101 136 174 214 260 314
#     4   9  18  34  53  75 103 134 171 213 261 311
#     4  10  19  32  49  71  99 136 175 215 262 312
#     4   9  18  32  50  72 100 133 169 211 259 312
#     4  11  21  34  52  75 102 135 171 210 256 308
#     4   9  18  34  54  76 103 136 173 214 264 313
#     4   9  17  32  51  70  95 130 168 208 253 305
#
# _framework density 22.080901000000001
#
# number of rings (size 3 to 8) (size 9 to 14) (size 15 to 20)
#    0.000    2.750    0.000    2.625    0.000    4.500 
#    2.250    0.625    0.000    0.000    0.000    0.000 
#    0.000    0.000    0.000    0.000    0.000    0.000 
#
# Total GULP energy -178172.408068 kJ/mol
# GULP energy per Si atom -5567.887752 kJ/mol
# Density = 2.203064 g / cm^3
# Si number density = 22.080901 Si / 1000 Ang^3
#
#
#
# Elastic Constant Matrix: (Units=GPa)
#
#
# Indices 1 2 3 4 5 6 
#
# 1 55.8386 12.9978 11.8806 0.0000 -34.4286 0.0000
# 2 12.9978 53.3690 24.6731 0.0000 -14.0940 0.0000
# 3 11.8806 24.6731 112.7086 0.0000 -32.1154 0.0000
# 4 0.0000 0.0000 0.0000 32.2544 0.0000 -10.2829
# 5 -34.4286 -14.0940 -32.1154 0.0000 40.8349 0.0000
# 6 0.0000 0.0000 0.0000 -10.2829 0.0000 17.8315
#
#
#
# Elastic Compliance Matrix: (Units=1/GPa)
#
#
# Indices 1 2 3 4 5 6 
#
# 1 0.041823 -0.003134 0.007755 0.000000 0.040279 0.000000
# 2 -0.003134 0.021790 -0.003930 0.000000 0.001787 0.000000
# 3 0.007755 -0.003930 0.013393 0.000000 0.015715 0.000000
# 4 0.000000 0.000000 0.000000 0.037987 0.000000 0.021906
# 5 0.040279 0.001787 0.015715 0.000000 0.071425 0.000000
# 6 0.000000 0.000000 0.000000 0.021906 0.000000 0.068713
#
#
# Mechanical properties :
#
#
# Convention : Reuss Voigt Hill
#
# Bulk Modulus (GPa) = 12.75718 35.66880 24.21299
# Shear Modulus (GPa) = 17.86479 29.67513 23.76996
#
# Velocity S-wave (km/s) = 2.84749 3.66994 3.28456
# Velocity P-wave (km/s) = 4.07442 5.84352 5.03724
#
# Compressibility (1/GPa) = 0.07838726
#
# Stress axis : x y z
#
# Youngs Moduli (GPa) = 23.91008 45.89308 74.66455
#
# Poissons Ratio (x) = 0.14382 -0.57899
# Poissons Ratio (y) = 0.07493 0.29346
# Poissons Ratio (z) = -0.18541 0.18038
#
# Static dielectric constant tensor:
#      x y z
#    x 1.936950 0.000000 -0.233100 
#    y 0.000000 1.821450 0.000000 
#    z -0.233100 0.000000 3.103200 
# 
# From -- ./inp_files/71609.got.cif
#   From: 2010.05.17/outbox.cif.g08.bks.cpg/sg11_36_cif.got.tgz:71609.got - 2010.06.03 12:22:45.
