data_PCOD9158086
_publ_section_title
;
Structure prediction by ZEFSAII (Michael W. Deem and Ramdas Pophale) SiO2 
 PCOD9158086
Probable space group: P 21/M
;
_chemical_formula_sum "Si O2"
_cell_formula_units_Z 30
_cell_length_a 9.349703
_cell_length_b 9.634803
_cell_length_c 14.128489
_cell_angle_alpha 90.000000
_cell_angle_beta 83.849826
_cell_angle_gamma 90.000000
_cell_volume 1265.405078
_symmetry_space_group_name_H-M "P 21/M"
_symmetry_group_IT_number 11
_symmetry_cell_setting 'monoclinic'
loop_
_space_group_symop_operation_xyz
x,y,z
-x,1/2+y,-z
-x,-y,-z
x,1/2-y,z
loop_
_atom_site_type_symbol
_atom_site_label
_atom_site_fract_x
_atom_site_fract_y
_atom_site_fract_z
Si Si1 0.525269 0.250000 0.004911
Si Si2 0.121975 0.407431 0.038247
Si Si3 0.623410 0.993521 0.864819
Si Si4 0.332322 0.907656 0.557645
Si Si5 0.107914 0.583558 0.423306
Si Si6 0.504019 0.909437 0.310778
Si Si7 0.204952 0.401576 0.832943
Si Si8 0.045010 0.590925 0.712027
O O1 0.472219 0.369930 0.085529
O O2 0.579644 0.130314 0.925386
O O3 0.072510 0.250000 0.054917
O O4 0.211326 0.460234 0.119932
O O5 0.236473 0.404869 0.942141
O O6 0.000000 0.500000 0.000000
O O7 0.601302 0.013430 0.754264
O O8 0.388929 0.750000 0.556005
O O9 0.264361 0.938344 0.459145
O O10 0.188501 0.908296 0.634808
O O11 0.441147 0.014091 0.598571
O O12 0.081063 0.750000 0.425335
O O13 0.000000 0.500000 0.500000
O O14 0.068539 0.512730 0.327454
O O15 0.460268 0.750000 0.329637
O O16 0.650062 0.905076 0.236427
O O17 0.134550 0.250000 0.820086
O O18 0.104144 0.525515 0.804882
O O19 0.996021 0.750000 0.721476
#
# Coordination Sequence:
#
# PCOD9158086 Si02
#       8
#     2   4   4   4   4   4   4   4
#     4  10  20  32  56  76 102 124 164 214 264 306
#     4  11  25  41  55  73 101 137 177 215 260 312
#     4  11  21  36  52  79 100 132 169 213 262 311
#     4   8  16  26  37  61  93 126 161 196 242 298
#     4   9  15  24  38  57  87 126 163 195 237 297
#     4  10  19  30  48  72  99 127 164 210 258 303
#     4   9  18  33  49  68  96 126 165 212 253 298
#     4   9  16  26  40  64  89 122 163 201 243 295
#
# _framework density 23.707823999999999
#
# number of rings (size 3 to 8) (size 9 to 14) (size 15 to 20)
#    0.000    2.400    1.333    3.200    3.733    4.267 
#    4.800    0.000    0.000    0.000    0.000    0.000 
#    0.000    1.067    0.000    2.800    0.000    3.600 
#
# Total GULP energy -167179.243847 kJ/mol
# GULP energy per Si atom -5572.641462 kJ/mol
# Density = 2.365386 g / cm^3
# Si number density = 23.707824 Si / 1000 Ang^3
#
#
#
# Elastic Constant Matrix: (Units=GPa)
#
#
# Indices 1 2 3 4 5 6 
#
# 1 74.7443 50.1683 28.3867 0.0000 19.9427 0.0000
# 2 50.1683 202.2940 62.9611 0.0000 41.0157 0.0000
# 3 28.3867 62.9611 160.2365 0.0000 27.4795 0.0000
# 4 0.0000 0.0000 0.0000 30.0750 0.0000 0.1654
# 5 19.9427 41.0157 27.4795 0.0000 47.4612 0.0000
# 6 0.0000 0.0000 0.0000 0.1654 0.0000 7.3556
#
#
#
# Elastic Compliance Matrix: (Units=1/GPa)
#
#
# Indices 1 2 3 4 5 6 
#
# 1 0.016877 -0.003064 -0.001137 0.000000 -0.003785 0.000000
# 2 -0.003064 0.006959 -0.001533 0.000000 -0.003838 0.000000
# 3 -0.001137 -0.001533 0.007478 0.000000 -0.002527 0.000000
# 4 0.000000 0.000000 0.000000 0.033254 0.000000 -0.000748
# 5 -0.003785 -0.003838 -0.002527 0.000000 0.027441 0.000000
# 6 0.000000 0.000000 0.000000 -0.000748 0.000000 0.135967
#
#
# Mechanical properties :
#
#
# Convention : Reuss Voigt Hill
#
# Bulk Modulus (GPa) = 50.38857 80.03412 65.21134
# Shear Modulus (GPa) = 20.32028 36.69562 28.50795
#
# Velocity S-wave (km/s) = 2.93082 3.93851 3.47143
# Velocity P-wave (km/s) = 5.72303 7.38338 6.60558
#
# Compressibility (1/GPa) = 0.01984577
#
# Stress axis : x y z
#
# Youngs Moduli (GPa) = 59.25095 143.70652 133.72675
#
# Poissons Ratio (x) = 0.44035 0.15201
# Poissons Ratio (y) = 0.18156 0.20502
# Poissons Ratio (z) = 0.06735 0.22032
#
# Static dielectric constant tensor:
#      x y z
#    x 1.994450 0.000000 -0.061000 
#    y 0.000000 1.802730 0.000000 
#    z -0.061000 0.000000 1.927450 
# 
# From -- ./inp_files/40780.got.cif
#   From: 2010.05.17/outbox.cif.g08.bks.cpg/sg11_21_cif.got.tgz:40780.got - 2010.06.03 12:22:45.
