data_PCOD9158058
_publ_section_title
;
Structure prediction by ZEFSAII (Michael W. Deem and Ramdas Pophale) SiO2 
 PCOD9158058
Probable space group: P 21/M
;
_chemical_formula_sum "Si O2"
_cell_formula_units_Z 32
_cell_length_a 22.864739
_cell_length_b 9.239205
_cell_length_c 19.304736
_cell_angle_alpha 90.000000
_cell_angle_beta 25.821141
_cell_angle_gamma 90.000000
_cell_volume 1776.298576
_symmetry_space_group_name_H-M "P 21/M"
_symmetry_group_IT_number 11
_symmetry_cell_setting 'monoclinic'
loop_
_space_group_symop_operation_xyz
x,y,z
-x,1/2+y,-z
-x,-y,-z
x,1/2-y,z
loop_
_atom_site_type_symbol
_atom_site_label
_atom_site_fract_x
_atom_site_fract_y
_atom_site_fract_z
Si Si1 0.503120 0.920562 0.221744
Si Si2 0.043627 0.423308 0.770935
Si Si3 0.514128 0.076163 0.356789
Si Si4 0.782820 0.577404 0.278138
Si Si5 0.396316 0.916972 0.016024
Si Si6 0.799752 0.079506 0.514683
Si Si7 0.206806 0.922762 0.872962
Si Si8 0.297897 0.082941 0.249827
O O1 0.531864 0.750000 0.194122
O O2 0.347332 0.937387 0.364334
O O3 0.521280 0.996039 0.275999
O O4 0.592278 0.998070 0.068115
O O5 0.054812 0.250000 0.747144
O O6 0.138135 0.460167 0.736011
O O7 0.093736 0.507770 0.650503
O O8 0.894506 0.457957 0.956569
O O9 0.516102 0.250000 0.343129
O O10 0.373331 0.040303 0.543151
O O11 0.642337 0.037549 0.266342
O O12 0.795263 0.750000 0.255672
O O13 0.832631 0.498895 0.156277
O O14 0.356828 0.750000 0.048751
O O15 0.305552 0.998067 0.169318
O O16 0.548509 0.917180 0.884730
O O17 0.823441 0.250000 0.498843
O O18 0.788993 0.998355 0.599536
O O19 0.199170 0.750000 0.870830
O O20 0.258047 0.250000 0.283748
#
# Coordination Sequence:
#
# PCOD9158058 Si02
#       8
#     4   4   4   4   4   4   4   4
#     4  10  19  30  47  72  99 130 169 210 250 296
#     4  10  20  35  52  73 100 132 167 206 252 301
#     4  10  20  35  52  73 100 132 167 206 252 301
#     4  10  20  34  54  74  97 130 167 206 252 304
#     4   9  16  26  42  66  99 135 167 204 249 296
#     4  10  19  30  47  72  99 130 169 210 250 296
#     4  10  22  36  52  74 101 130 165 208 254 302
#     4   9  16  26  42  66  99 135 167 204 249 296
#
# _framework density 18.014989
#
# number of rings (size 3 to 8) (size 9 to 14) (size 15 to 20)
#    0.000    2.250    1.250    2.250    0.000    6.000 
#    0.000    0.000    0.000    0.000    0.000    0.875 
#    0.000    0.000    0.000    0.000    0.000    0.000 
#
# Total GULP energy -178588.969461 kJ/mol
# GULP energy per Si atom -5580.905296 kJ/mol
# Density = 1.797399 g / cm^3
# Si number density = 18.014989 Si / 1000 Ang^3
#
#
#
# Elastic Constant Matrix: (Units=GPa)
#
#
# Indices 1 2 3 4 5 6 
#
# 1 24.4216 21.3892 15.6289 0.0000 21.1002 0.0000
# 2 21.3892 61.0815 28.2078 0.0000 22.4150 0.0000
# 3 15.6289 28.2078 62.6628 0.0000 21.2315 0.0000
# 4 0.0000 0.0000 0.0000 25.9629 0.0000 15.7996
# 5 21.1002 22.4150 21.2315 0.0000 38.9761 0.0000
# 6 0.0000 0.0000 0.0000 15.7996 0.0000 24.6118
#
#
#
# Elastic Compliance Matrix: (Units=1/GPa)
#
#
# Indices 1 2 3 4 5 6 
#
# 1 0.089311 -0.016463 -0.002073 0.000000 -0.037753 0.000000
# 2 -0.016463 0.026192 -0.006868 0.000000 -0.002409 0.000000
# 3 -0.002073 -0.006868 0.021889 0.000000 -0.006851 0.000000
# 4 0.000000 0.000000 0.000000 0.063210 0.000000 -0.040578
# 5 -0.037753 -0.002409 -0.006851 0.000000 0.051212 0.000000
# 6 0.000000 0.000000 0.000000 -0.040578 0.000000 0.066680
#
#
# Mechanical properties :
#
#
# Convention : Reuss Voigt Hill
#
# Bulk Modulus (GPa) = 11.54955 30.95752 21.25354
# Shear Modulus (GPa) = 12.55765 23.43951 17.99858
#
# Velocity S-wave (km/s) = 2.64307 3.61101 3.16427
# Velocity P-wave (km/s) = 3.96729 5.88281 5.01731
#
# Compressibility (1/GPa) = 0.08658346
#
# Stress axis : x y z
#
# Youngs Moduli (GPa) = 11.19682 38.17893 45.68605
#
# Poissons Ratio (x) = 0.62855 0.09471
# Poissons Ratio (y) = 0.18434 0.31378
# Poissons Ratio (z) = 0.02321 0.26222
#
# Static dielectric constant tensor:
#      x y z
#    x 1.583260 0.000000 -0.013520 
#    y 0.000000 1.597510 0.000000 
#    z -0.013520 0.000000 1.612790 
# 
# From -- ./inp_files/66954.got.cif
#   From: 2010.05.17/outbox.cif.g08.bks.cpg/sg11_34_cif.got.tgz:66954.got - 2010.06.03 12:22:45.
