data_PCOD9158418
_publ_section_title
;
Structure prediction by ZEFSAII (Michael W. Deem and Ramdas Pophale) SiO2 
 PCOD9158418
Probable space group: P 21/M
;
_chemical_formula_sum "Si O2"
_cell_formula_units_Z 24
_cell_length_a 12.152848
_cell_length_b 8.700183
_cell_length_c 21.428216
_cell_angle_alpha 90.000000
_cell_angle_beta 38.855874
_cell_angle_gamma 90.000000
_cell_volume 1421.384992
_symmetry_space_group_name_H-M "P 21/M"
_symmetry_group_IT_number 11
_symmetry_cell_setting 'monoclinic'
loop_
_space_group_symop_operation_xyz
x,y,z
-x,1/2+y,-z
-x,-y,-z
x,1/2-y,z
loop_
_atom_site_type_symbol
_atom_site_label
_atom_site_fract_x
_atom_site_fract_y
_atom_site_fract_z
Si Si1 0.039455 0.070849 0.223507
Si Si2 0.602286 0.562568 0.136470
Si Si3 0.395381 0.933258 0.105634
Si Si4 0.349531 0.432078 0.749974
Si Si5 0.970661 0.929944 0.919664
Si Si6 0.639450 0.434187 0.390190
O O1 0.047637 0.250000 0.238499
O O2 0.076749 0.064665 0.132779
O O3 0.838844 0.015168 0.318979
O O4 0.192330 0.979406 0.189882
O O5 0.602895 0.750000 0.135800
O O6 0.479151 0.511629 0.134066
O O7 0.557693 0.515434 0.226808
O O8 0.801440 0.515856 0.032045
O O9 0.413900 0.750000 0.095082
O O10 0.500000 0.000000 0.000000
O O11 0.373365 0.250000 0.732103
O O12 0.399542 0.512936 0.663313
O O13 0.143984 0.470158 0.851135
O O14 0.008548 0.750000 0.917521
O O15 0.500000 0.500000 0.500000
O O16 0.639536 0.250000 0.391631
#
# Coordination Sequence:
#
# PCOD9158418 Si02
#       6
#     4   4   4   4   4   4
#     4   9  18  33  51  74 104 134 165 209 257 296
#     4   9  18  31  46  67 103 143 171 206 251 293
#     4  11  20  32  49  71 103 143 181 211 242 290
#     4  10  19  31  49  74 101 131 170 208 253 308
#     4   9  16  30  47  66 102 140 169 208 253 293
#     4  10  21  38  59  79 102 127 160 212 266 310
#
# _framework density 16.884938999999999
#
# number of rings (size 3 to 8) (size 9 to 14) (size 15 to 20)
#    0.000    2.333    1.667    3.000    0.000    3.333 
#    0.000    4.167    0.000    1.000    0.000    0.000 
#    0.000    0.000    0.000    0.000    0.000    0.000 
#
# Total GULP energy -133811.741885 kJ/mol
# GULP energy per Si atom -5575.489245 kJ/mol
# Density = 1.684651 g / cm^3
# Si number density = 16.884939 Si / 1000 Ang^3
#
#
#
# Elastic Constant Matrix: (Units=GPa)
#
#
# Indices 1 2 3 4 5 6 
#
# 1 117.4793 27.2030 62.0070 0.0000 21.2921 0.0000
# 2 27.2030 32.4917 25.4612 0.0000 4.2623 0.0000
# 3 62.0070 25.4612 115.3979 0.0000 12.6987 0.0000
# 4 0.0000 0.0000 0.0000 24.8621 0.0000 -2.5473
# 5 21.2921 4.2623 12.6987 0.0000 12.5045 0.0000
# 6 0.0000 0.0000 0.0000 -2.5473 0.0000 22.3277
#
#
#
# Elastic Compliance Matrix: (Units=1/GPa)
#
#
# Indices 1 2 3 4 5 6 
#
# 1 0.016597 -0.007228 -0.005049 0.000000 -0.020669 0.000000
# 2 -0.007228 0.040626 -0.005528 0.000000 0.004073 0.000000
# 3 -0.005049 -0.005528 0.012885 0.000000 -0.002604 0.000000
# 4 0.000000 0.000000 0.000000 0.040698 0.000000 0.004643
# 5 -0.020669 0.004073 -0.002604 0.000000 0.116422 0.000000
# 6 0.000000 0.000000 0.000000 0.004643 0.000000 0.045317
#
#
# Mechanical properties :
#
#
# Convention : Reuss Voigt Hill
#
# Bulk Modulus (GPa) = 28.98688 54.96792 41.97740
# Shear Modulus (GPa) = 15.64200 21.98538 18.81369
#
# Velocity S-wave (km/s) = 3.04696 3.61234 3.34163
# Velocity P-wave (km/s) = 5.43905 7.07274 6.30900
#
# Compressibility (1/GPa) = 0.03449837
#
# Stress axis : x y z
#
# Youngs Moduli (GPa) = 60.25326 24.61478 77.61087
#
# Poissons Ratio (x) = 0.17790 0.39184
# Poissons Ratio (y) = 0.43548 0.42905
# Poissons Ratio (z) = 0.30420 0.13608
#
# Static dielectric constant tensor:
#      x y z
#    x 1.596330 0.000000 0.009570 
#    y 0.000000 1.571040 0.000000 
#    z 0.009570 0.000000 1.554220 
# 
# From -- ./inp_files/36975.got.cif
#   From: 2010.05.17/outbox.cif.g08.bks.cpg/sg11_19_cif.got.tgz:36975.got - 2010.06.03 12:22:45.
