data_PCOD9158848
_publ_section_title
;
Structure prediction by ZEFSAII (Michael W. Deem and Ramdas Pophale) SiO2 
 PCOD9158848
Probable space group: P 21/M
;
_chemical_formula_sum "Si O2"
_cell_formula_units_Z 32
_cell_length_a 23.848818
_cell_length_b 7.396728
_cell_length_c 23.468696
_cell_angle_alpha 90.000000
_cell_angle_beta 19.820904
_cell_angle_gamma 90.000000
_cell_volume 1403.780299
_symmetry_space_group_name_H-M "P 21/M"
_symmetry_group_IT_number 11
_symmetry_cell_setting 'monoclinic'
loop_
_space_group_symop_operation_xyz
x,y,z
-x,1/2+y,-z
-x,-y,-z
x,1/2-y,z
loop_
_atom_site_type_symbol
_atom_site_label
_atom_site_fract_x
_atom_site_fract_y
_atom_site_fract_z
Si Si1 0.042653 0.034149 0.893956
Si Si2 0.411713 0.466033 0.524555
Si Si3 0.333489 0.042756 0.082633
Si Si4 0.495881 0.970912 0.688047
Si Si5 0.137136 0.970685 0.045351
Si Si6 0.976693 0.462603 0.404588
Si Si7 0.157958 0.032020 0.590345
Si Si8 0.307416 0.529062 0.241000
O O1 0.049098 0.250000 0.881284
O O2 0.912869 0.971603 0.970803
O O3 0.224954 0.962751 0.705826
O O4 0.000000 0.000000 0.000000
O O5 0.500000 0.500000 0.500000
O O6 0.402227 0.250000 0.528112
O O7 0.498753 0.528431 0.383468
O O8 0.341750 0.250000 0.054556
O O9 0.162774 0.960180 0.222465
O O10 0.309172 0.036085 0.174356
O O11 0.518720 0.967927 0.896619
O O12 0.496822 0.750000 0.688174
O O13 0.663913 0.031354 0.557758
O O14 0.323238 0.029497 0.880611
O O15 0.137281 0.750000 0.046697
O O16 0.992574 0.031120 0.225726
O O17 0.998587 0.250000 0.396339
O O18 0.882260 0.481420 0.435546
O O19 0.855039 0.533205 0.570093
O O20 0.160320 0.250000 0.591864
O O21 0.309590 0.750000 0.237712
#
# Coordination Sequence:
#
# PCOD9158848 Si02
#       8
#     4   4   4   4   4   4   4   4
#     4  10  19  32  51  76 104 131 164 207 256 314
#     4  10  19  32  51  76 104 131 164 207 256 314
#     4   9  18  33  53  77 106 138 171 208 252 301
#     4   9  17  32  53  73  97 129 164 208 259 301
#     4   9  17  32  53  73  97 129 164 208 259 301
#     4  10  21  35  51  74 106 140 170 206 260 306
#     4  10  20  35  53  74  97 130 178 218 246 298
#     4   9  18  33  53  77 106 138 171 208 252 301
#
# _framework density 22.795591000000002
#
# number of rings (size 3 to 8) (size 9 to 14) (size 15 to 20)
#    0.000    2.500    1.250    1.125    0.000    3.500 
#    0.000    1.250    0.000    1.500    0.000    0.000 
#    0.000    0.000    0.000    0.000    0.000    0.000 
#
# Total GULP energy -178694.597821 kJ/mol
# GULP energy per Si atom -5584.206182 kJ/mol
# Density = 2.274371 g / cm^3
# Si number density = 22.795591 Si / 1000 Ang^3
#
#
#
# Elastic Constant Matrix: (Units=GPa)
#
#
# Indices 1 2 3 4 5 6 
#
# 1 48.7495 -13.1280 10.1460 0.0000 -25.7426 0.0000
# 2 -13.1280 79.4334 4.0191 0.0000 -3.6720 0.0000
# 3 10.1460 4.0191 113.2828 0.0000 -36.4458 0.0000
# 4 0.0000 0.0000 0.0000 -3.8503 0.0000 1.8965
# 5 -25.7426 -3.6720 -36.4458 0.0000 36.7437 0.0000
# 6 0.0000 0.0000 0.0000 1.8965 0.0000 20.8284
#
#
#
# Elastic Compliance Matrix: (Units=1/GPa)
#
#
# Indices 1 2 3 4 5 6 
#
# 1 0.040723 0.008048 0.008085 0.000000 0.037354 0.000000
# 2 0.008048 0.014238 0.001536 0.000000 0.008585 0.000000
# 3 0.008085 0.001536 0.014570 0.000000 0.020270 0.000000
# 4 0.000000 0.000000 0.000000 -0.248572 0.000000 0.022633
# 5 0.037354 0.008585 0.020270 0.000000 0.074349 0.000000
# 6 0.000000 0.000000 0.000000 0.022633 0.000000 0.045951
#
#
# Mechanical properties :
#
#
# Convention : Reuss Voigt Hill
#
# Bulk Modulus (GPa) = 9.53573 27.06001 18.29787
# Shear Modulus (GPa) = -84.57032 26.77293 -28.89869
#
# Velocity S-wave (km/s) = -6.09754 3.43078 -3.56438
# Velocity P-wave (km/s) = 6.73655 5.25264 2.98252
#
# Compressibility (1/GPa) = 0.10486876
#
# Stress axis : x y z
#
# Youngs Moduli (GPa) = 24.55633 70.23269 68.63363
#
# Poissons Ratio (x) = -0.56523 -0.55489
# Poissons Ratio (y) = -0.19763 -0.10542
# Poissons Ratio (z) = -0.19853 -0.10788
#
# Static dielectric constant tensor:
#      x y z
#    x 1.801330 0.000000 -0.025980 
#    y 0.000000 1.847060 0.000000 
#    z -0.025980 0.000000 1.848530 
# 
# From -- ./inp_files/69985.got.cif
#   From: 2010.05.17/outbox.cif.g08.bks.cpg/sg11_35_cif.got.tgz:69985.got - 2010.06.03 12:22:45.
