data_PCOD9158863
_publ_section_title
;
Structure prediction by ZEFSAII (Michael W. Deem and Ramdas Pophale) SiO2 
 PCOD9158863
Probable space group: P 21/M
;
_chemical_formula_sum "Si O2"
_cell_formula_units_Z 32
_cell_length_a 22.885277
_cell_length_b 8.474626
_cell_length_c 29.128187
_cell_angle_alpha 90.000000
_cell_angle_beta 161.386228
_cell_angle_gamma 90.000000
_cell_volume 1803.165195
_symmetry_space_group_name_H-M "P 21/M"
_symmetry_group_IT_number 11
_symmetry_cell_setting 'monoclinic'
loop_
_space_group_symop_operation_xyz
x,y,z
-x,1/2+y,-z
-x,-y,-z
x,1/2-y,z
loop_
_atom_site_type_symbol
_atom_site_label
_atom_site_fract_x
_atom_site_fract_y
_atom_site_fract_z
Si Si1 0.406397 0.438638 0.476904
Si Si2 0.083104 0.559613 0.993143
Si Si3 0.711232 0.938341 0.769147
Si Si4 0.282992 0.559353 0.693304
Si Si5 0.690175 0.559217 0.011949
Si Si6 0.013955 0.940588 0.838718
Si Si7 0.685235 0.559174 0.113927
Si Si8 0.064201 0.059428 0.618643
O O1 0.500000 0.500000 0.500000
O O2 0.404071 0.250000 0.472877
O O3 0.470088 0.508341 0.388392
O O4 0.196307 0.494419 0.323293
O O5 0.091362 0.750000 0.000973
O O6 0.238682 0.492440 0.142302
O O7 0.086836 0.508212 0.943134
O O8 0.886558 0.512001 0.868563
O O9 0.700199 0.750000 0.759169
O O10 0.282773 0.750000 0.694217
O O11 0.492240 0.506907 0.845087
O O12 0.198007 0.500819 0.678050
O O13 0.140043 0.507480 0.547600
O O14 0.693609 0.750000 0.014294
O O15 0.854717 0.498795 0.103529
O O16 0.700498 0.506231 0.072701
O O17 0.012699 0.750000 0.837785
O O18 0.679143 0.750000 0.109065
O O19 0.854291 0.508268 0.272000
O O20 0.500000 0.500000 0.000000
O O21 0.066618 0.250000 0.619451
#
# Coordination Sequence:
#
# PCOD9158863 Si02
#       8
#     4   4   4   4   4   4   4   4
#     4  11  21  36  57  83 112 145 184 232 280 328
#     4   9  18  35  54  78 110 142 178 224 271 324
#     4  10  19  33  55  85 112 138 178 225 275 326
#     4   9  17  31  49  73 104 132 165 215 263 311
#     4  10  21  35  51  74 107 144 180 221 271 324
#     4  10  22  39  56  77 110 148 185 224 273 332
#     4  10  19  32  51  77 106 137 175 221 267 315
#     4   9  17  29  50  76 100 130 169 213 263 311
#
# _framework density 17.746570999999999
#
# number of rings (size 3 to 8) (size 9 to 14) (size 15 to 20)
#    0.000    2.250    2.500    0.750    0.000    3.000 
#    0.000    1.250    0.000    1.500    0.000    0.000 
#    0.000    0.000    0.000    0.000    0.000    0.000 
#
# Total GULP energy -178494.791246 kJ/mol
# GULP energy per Si atom -5577.962226 kJ/mol
# Density = 1.770618 g / cm^3
# Si number density = 17.746571 Si / 1000 Ang^3
#
#
#
# Elastic Constant Matrix: (Units=GPa)
#
#
# Indices 1 2 3 4 5 6 
#
# 1 133.9435 19.5674 97.5885 0.0000 -7.4443 0.0000
# 2 19.5674 10.3791 26.9293 0.0000 -3.8554 0.0000
# 3 97.5885 26.9293 175.3299 0.0000 -11.3469 0.0000
# 4 0.0000 0.0000 0.0000 23.2417 0.0000 0.6366
# 5 -7.4443 -3.8554 -11.3469 0.0000 29.0702 0.0000
# 6 0.0000 0.0000 0.0000 0.6366 0.0000 26.6901
#
#
#
# Elastic Compliance Matrix: (Units=1/GPa)
#
#
# Indices 1 2 3 4 5 6 
#
# 1 0.013113 -0.009684 -0.005824 0.000000 -0.000200 0.000000
# 2 -0.009684 0.171478 -0.020145 0.000000 0.012399 0.000000
# 3 -0.005824 -0.020145 0.012075 0.000000 0.000550 0.000000
# 4 0.000000 0.000000 0.000000 0.043054 0.000000 -0.001027
# 5 -0.000200 0.012399 0.000550 0.000000 0.036207 0.000000
# 6 0.000000 0.000000 0.000000 -0.001027 0.000000 0.037492
#
#
# Mechanical properties :
#
#
# Convention : Reuss Voigt Hill
#
# Bulk Modulus (GPa) = 7.97712 67.53589 37.75651
# Shear Modulus (GPa) = 11.72302 27.50490 19.61396
#
# Velocity S-wave (km/s) = 2.57296 3.94111 3.32810
# Velocity P-wave (km/s) = 3.65125 7.67126 6.00749
#
# Compressibility (1/GPa) = 0.12535852
#
# Stress axis : x y z
#
# Youngs Moduli (GPa) = 76.26156 5.83167 82.81660
#
# Poissons Ratio (x) = 0.05648 0.48233
# Poissons Ratio (y) = 0.73855 1.66833
# Poissons Ratio (z) = 0.44415 0.11748
#
# Static dielectric constant tensor:
#      x y z
#    x 1.577240 0.000000 -0.024710 
#    y 0.000000 1.605940 0.000000 
#    z -0.024710 0.000000 1.624550 
# 
# From -- ./inp_files/72172.got.cif
#   From: 2010.05.17/outbox.cif.g08.bks.cpg/sg11_37_cif.got.tgz:72172.got - 2010.06.03 12:22:45.
