data_PCOD9158199
_publ_section_title
;
Structure prediction by ZEFSAII (Michael W. Deem and Ramdas Pophale) SiO2 
 PCOD9158199
Probable space group: P 21/M
;
_chemical_formula_sum "Si O2"
_cell_formula_units_Z 28
_cell_length_a 21.795298
_cell_length_b 9.017725
_cell_length_c 17.129004
_cell_angle_alpha 90.000000
_cell_angle_beta 25.315599
_cell_angle_gamma 90.000000
_cell_volume 1439.572878
_symmetry_space_group_name_H-M "P 21/M"
_symmetry_group_IT_number 11
_symmetry_cell_setting 'monoclinic'
loop_
_space_group_symop_operation_xyz
x,y,z
-x,1/2+y,-z
-x,-y,-z
x,1/2-y,z
loop_
_atom_site_type_symbol
_atom_site_label
_atom_site_fract_x
_atom_site_fract_y
_atom_site_fract_z
Si Si1 0.884618 0.578856 0.748219
Si Si2 0.035714 0.572586 0.186575
Si Si3 0.581432 0.427170 0.524778
Si Si4 0.149058 0.082444 0.376062
Si Si5 0.427631 0.083959 0.154533
Si Si6 0.293558 0.430794 0.463411
Si Si7 0.699967 0.072374 0.218160
O O1 0.869232 0.750000 0.787031
O O2 0.887376 0.484336 0.823141
O O3 0.786650 0.548181 0.784211
O O4 0.037294 0.539807 0.532520
O O5 0.028511 0.750000 0.199670
O O6 0.871121 0.520764 0.365250
O O7 0.141688 0.531789 0.993813
O O8 0.576938 0.250000 0.540925
O O9 0.653113 0.505631 0.516110
O O10 0.422150 0.489291 0.691020
O O11 0.670230 0.459816 0.343186
O O12 0.084992 0.250000 0.444081
O O13 0.265737 0.093805 0.308539
O O14 0.489321 0.250000 0.089517
O O15 0.404024 0.019891 0.267969
O O16 0.500000 0.000000 0.000000
O O17 0.295578 0.250000 0.461647
O O18 0.681698 0.250000 0.228391
#
# Coordination Sequence:
#
# PCOD9158199 Si02
#       7
#     4   4   4   4   4   4   4
#     4  10  19  30  52  81 106 134 177 229 277 322
#     4  10  20  37  59  82 115 152 189 231 281 340
#     4  10  21  38  60  87 118 148 186 235 281 332
#     4   9  18  35  52  70 102 143 181 220 272 329
#     4  10  21  37  55  76 107 146 188 229 276 332
#     4  10  21  38  59  82 113 154 191 229 285 345
#     4   9  20  39  62  86 113 151 190 227 280 343
#
# _framework density 19.450213999999999
#
# number of rings (size 3 to 8) (size 9 to 14) (size 15 to 20)
#    0.000    2.286    1.429    0.857    0.000    5.143 
#    0.000    2.857    0.000    0.000    0.000    0.000 
#    0.000    0.000    0.000    0.000    0.000    0.000 
#
# Total GULP energy -155946.831071 kJ/mol
# GULP energy per Si atom -5569.529681 kJ/mol
# Density = 1.940594 g / cm^3
# Si number density = 19.450214 Si / 1000 Ang^3
#
#
#
# Elastic Constant Matrix: (Units=GPa)
#
#
# Indices 1 2 3 4 5 6 
#
# 1 91.1207 16.2585 29.1007 0.0000 28.9366 0.0000
# 2 16.2585 15.3311 25.2728 0.0000 9.8018 0.0000
# 3 29.1007 25.2728 104.8074 0.0000 23.6660 0.0000
# 4 0.0000 0.0000 0.0000 22.4233 0.0000 6.9990
# 5 28.9366 9.8018 23.6660 0.0000 16.7345 0.0000
# 6 0.0000 0.0000 0.0000 6.9990 0.0000 34.6413
#
#
#
# Elastic Compliance Matrix: (Units=1/GPa)
#
#
# Indices 1 2 3 4 5 6 
#
# 1 0.025680 -0.003971 0.004891 0.000000 -0.048996 0.000000
# 2 -0.003971 0.129403 -0.021357 0.000000 -0.038726 0.000000
# 3 0.004891 -0.021357 0.018244 0.000000 -0.021749 0.000000
# 4 0.000000 0.000000 0.000000 0.047598 0.000000 -0.009617
# 5 -0.048996 -0.038726 -0.021749 0.000000 0.197919 0.000000
# 6 0.000000 0.000000 0.000000 -0.009617 0.000000 0.030810
#
#
# Mechanical properties :
#
#
# Convention : Reuss Voigt Hill
#
# Bulk Modulus (GPa) = 7.54979 39.16925 23.35952
# Shear Modulus (GPa) = 9.35141 24.13497 16.74319
#
# Velocity S-wave (km/s) = 2.19506 3.52640 2.93716
# Velocity P-wave (km/s) = 3.21161 6.06322 4.85165
#
# Compressibility (1/GPa) = 0.13245406
#
# Stress axis : x y z
#
# Youngs Moduli (GPa) = 38.94014 7.72783 54.81211
#
# Poissons Ratio (x) = 0.03068 -0.26807
# Poissons Ratio (y) = 0.15462 1.17060
# Poissons Ratio (z) = -0.19044 0.16504
#
# Static dielectric constant tensor:
#      x y z
#    x 1.720810 0.000000 0.001680 
#    y 0.000000 1.672700 0.000000 
#    z 0.001680 0.000000 1.725550 
# 
# From -- ./inp_files/54451.got.cif
#   From: 2010.05.17/outbox.cif.g08.bks.cpg/sg11_28_cif.got.tgz:54451.got - 2010.06.03 12:22:45.
