data_PCOD9158623
_publ_section_title
;
Structure prediction by ZEFSAII (Michael W. Deem and Ramdas Pophale) SiO2 
 PCOD9158623
Probable space group: P 21/M
;
_chemical_formula_sum "Si O2"
_cell_formula_units_Z 24
_cell_length_a 26.279291
_cell_length_b 8.777782
_cell_length_c 20.091990
_cell_angle_alpha 90.000000
_cell_angle_beta 163.997250
_cell_angle_gamma 90.000000
_cell_volume 1277.709578
_symmetry_space_group_name_H-M "P 21/M"
_symmetry_group_IT_number 11
_symmetry_cell_setting 'monoclinic'
loop_
_space_group_symop_operation_xyz
x,y,z
-x,1/2+y,-z
-x,-y,-z
x,1/2-y,z
loop_
_atom_site_type_symbol
_atom_site_label
_atom_site_fract_x
_atom_site_fract_y
_atom_site_fract_z
Si Si1 0.678992 0.750000 0.813230
Si Si2 0.128714 0.063986 0.497556
Si Si3 0.428708 0.501062 0.567444
Si Si4 0.283222 0.582598 0.961892
Si Si5 0.109768 0.750000 0.391707
Si Si6 0.197697 0.428674 0.729637
Si Si7 0.755858 0.750000 0.755328
Si Si8 0.182663 0.750000 0.328180
O O1 0.567524 0.605615 0.699859
O O2 0.681588 0.750000 0.737050
O O3 0.886131 0.750000 0.102715
O O4 0.154303 0.250000 0.510953
O O5 0.240937 0.033340 0.707423
O O6 0.161412 0.914463 0.491528
O O7 0.912080 0.050933 0.246989
O O8 0.557547 0.420815 0.783689
O O9 0.318679 0.392749 0.379759
O O10 0.287775 0.605235 0.430868
O O11 0.264459 0.750000 0.908469
O O12 0.324029 0.475627 0.950376
O O13 0.183668 0.750000 0.409210
O O14 0.176044 0.250000 0.703625
O O15 0.000000 0.500000 0.500000
O O16 0.975029 0.750000 0.039671
#
# Coordination Sequence:
#
# PCOD9158623 Si02
#       8
#     2   4   4   4   2   4   2   2
#     4  10  22  36  62  90 114 143 192 234 298 355
#     4   9  19  33  53  89 124 152 193 239 290 344
#     4  11  21  39  60  86 114 147 188 245 284 347
#     4  10  19  31  53  88 116 144 193 241 295 341
#     4  11  20  38  61  82 122 160 194 242 292 339
#     4   9  18  27  47  83 121 151 182 233 289 345
#     4  11  22  42  61  84 115 147 187 239 300 349
#     4  10  26  40  58  84 111 156 197 225 290 369
#
# _framework density 18.783609999999999
#
# number of rings (size 3 to 8) (size 9 to 14) (size 15 to 20)
#    0.000    2.000    2.500    2.500    8.167    0.000 
#    1.500    0.000    3.667    1.000    0.000    0.000 
#    0.000    0.000    0.000    0.000    0.000    0.000 
#
# Total GULP energy -133643.591025 kJ/mol
# GULP energy per Si atom -5568.482959 kJ/mol
# Density = 1.874086 g / cm^3
# Si number density = 18.783610 Si / 1000 Ang^3
#
#
#
# Elastic Constant Matrix: (Units=GPa)
#
#
# Indices 1 2 3 4 5 6 
#
# 1 98.8932 59.5368 31.5819 0.0000 -14.8167 0.0000
# 2 59.5368 102.1303 7.4622 0.0000 -12.8791 0.0000
# 3 31.5819 7.4622 33.4861 0.0000 -16.2188 0.0000
# 4 0.0000 0.0000 0.0000 22.1890 0.0000 -18.2761
# 5 -14.8167 -12.8791 -16.2188 0.0000 29.6810 0.0000
# 6 0.0000 0.0000 0.0000 -18.2761 0.0000 35.9700
#
#
#
# Elastic Compliance Matrix: (Units=1/GPa)
#
#
# Indices 1 2 3 4 5 6 
#
# 1 0.024799 -0.013539 -0.023420 0.000000 -0.006293 0.000000
# 2 -0.013539 0.017751 0.012607 0.000000 0.007833 0.000000
# 3 -0.023420 0.012607 0.062731 0.000000 0.028058 0.000000
# 4 0.000000 0.000000 0.000000 0.077501 0.000000 0.039378
# 5 -0.006293 0.007833 0.028058 0.000000 0.049281 0.000000
# 6 0.000000 0.000000 0.000000 0.039378 0.000000 0.047809
#
#
# Mechanical properties :
#
#
# Convention : Reuss Voigt Hill
#
# Bulk Modulus (GPa) = 17.67459 47.96349 32.81904
# Shear Modulus (GPa) = 14.39119 26.62991 20.51055
#
# Velocity S-wave (km/s) = 2.77096 3.76935 3.30803
# Velocity P-wave (km/s) = 4.43482 6.67339 5.66576
#
# Compressibility (1/GPa) = 0.05657839
#
# Stress axis : x y z
#
# Youngs Moduli (GPa) = 40.32390 56.33621 15.94098
#
# Poissons Ratio (x) = 0.76274 0.37333
# Poissons Ratio (y) = 0.54595 -0.20097
# Poissons Ratio (z) = 0.94437 -0.71024
#
# Static dielectric constant tensor:
#      x y z
#    x 1.648210 0.000000 -0.021600 
#    y 0.000000 1.695250 0.000000 
#    z -0.021600 0.000000 1.653550 
# 
# From -- ./inp_files/25790.got.cif
#   From: 2010.05.17/outbox.cif.g08.bks.cpg/sg11_13_cif.got.tgz:25790.got - 2010.06.03 12:22:45.
