data_PCOD9158274
_publ_section_title
;
Structure prediction by ZEFSAII (Michael W. Deem and Ramdas Pophale) SiO2 
 PCOD9158274
Probable space group: P 21/M
;
_chemical_formula_sum "Si O2"
_cell_formula_units_Z 32
_cell_length_a 16.188132
_cell_length_b 8.089825
_cell_length_c 14.928580
_cell_angle_alpha 90.000000
_cell_angle_beta 62.924938
_cell_angle_gamma 90.000000
_cell_volume 1740.783969
_symmetry_space_group_name_H-M "P 21/M"
_symmetry_group_IT_number 11
_symmetry_cell_setting 'monoclinic'
loop_
_space_group_symop_operation_xyz
x,y,z
-x,1/2+y,-z
-x,-y,-z
x,1/2-y,z
loop_
_atom_site_type_symbol
_atom_site_label
_atom_site_fract_x
_atom_site_fract_y
_atom_site_fract_z
Si Si1 0.647250 0.555335 0.287027
Si Si2 0.102575 0.445149 0.541072
Si Si3 0.438388 0.549112 0.384962
Si Si4 0.893193 0.446708 0.656605
Si Si5 0.272427 0.952737 0.138323
Si Si6 0.347614 0.945211 0.916811
Si Si7 0.444720 0.550210 0.175299
Si Si8 0.263777 0.555560 0.584948
O O1 0.647867 0.750000 0.304905
O O2 0.542284 0.489746 0.356531
O O3 0.665916 0.528142 0.172836
O O4 0.719191 0.473102 0.318829
O O5 0.094854 0.250000 0.528713
O O6 0.137647 0.523011 0.430611
O O7 0.173329 0.476142 0.586219
O O8 0.998661 0.511558 0.611533
O O9 0.441127 0.750000 0.388839
O O10 0.420031 0.506793 0.290282
O O11 0.356176 0.489581 0.488963
O O12 0.897376 0.250000 0.668731
O O13 0.818564 0.511966 0.764200
O O14 0.272186 0.750000 0.139036
O O15 0.363814 0.003272 0.148685
O O16 0.283617 0.004967 0.029967
O O17 0.333964 0.750000 0.911533
O O18 0.454329 0.976027 0.893140
O O19 0.452986 0.750000 0.167004
O O20 0.257565 0.750000 0.569661
#
# Coordination Sequence:
#
# PCOD9158274 Si02
#       8
#     4   4   4   4   4   4   4   4
#     4  10  20  35  50  67  96 130 165 203 241 280
#     4  10  20  33  51  77 104 127 155 195 242 289
#     4   8  16  29  47  70  96 128 161 193 231 281
#     4   9  18  35  55  73  98 131 162 194 237 286
#     4   9  17  30  51  73  94 127 168 204 237 282
#     4  10  19  31  47  70  98 128 165 203 241 284
#     4   9  16  29  47  69  99 131 161 193 236 285
#     4  11  20  32  52  74  97 128 164 198 238 288
#
# _framework density 18.382522999999999
#
# number of rings (size 3 to 8) (size 9 to 14) (size 15 to 20)
#    0.000    2.500    0.000    3.750    0.000    2.500 
#    0.000   10.625    0.000    0.750    0.000    0.000 
#    0.000    0.000    0.000    0.000    0.000    0.000 
#
# Total GULP energy -178550.263748 kJ/mol
# GULP energy per Si atom -5579.695742 kJ/mol
# Density = 1.834068 g / cm^3
# Si number density = 18.382523 Si / 1000 Ang^3
#
#
#
# Elastic Constant Matrix: (Units=GPa)
#
#
# Indices 1 2 3 4 5 6 
#
# 1 83.7402 -7.0130 41.7028 0.0000 9.2443 0.0000
# 2 -7.0130 10.8562 -4.4266 0.0000 -4.2128 0.0000
# 3 41.7028 -4.4266 104.1289 0.0000 -9.7392 0.0000
# 4 0.0000 0.0000 0.0000 16.2914 0.0000 4.0644
# 5 9.2443 -4.2128 -9.7392 0.0000 13.6277 0.0000
# 6 0.0000 0.0000 0.0000 4.0644 0.0000 20.6057
#
#
#
# Elastic Compliance Matrix: (Units=1/GPa)
#
#
# Indices 1 2 3 4 5 6 
#
# 1 0.018717 0.000953 -0.009232 0.000000 -0.019000 0.000000
# 2 0.000953 0.111350 0.008049 0.000000 0.039528 0.000000
# 3 -0.009232 0.008049 0.015498 0.000000 0.019827 0.000000
# 4 0.000000 0.000000 0.000000 0.064559 0.000000 -0.012734
# 5 -0.019000 0.039528 0.019827 0.000000 0.112657 0.000000
# 6 0.000000 0.000000 0.000000 -0.012734 0.000000 0.051042
#
#
# Mechanical properties :
#
#
# Convention : Reuss Voigt Hill
#
# Bulk Modulus (GPa) = 6.89165 28.80575 17.84870
# Shear Modulus (GPa) = 11.83009 21.33576 16.58292
#
# Velocity S-wave (km/s) = 2.53958 3.41053 3.00676
# Velocity P-wave (km/s) = 3.51518 5.58688 4.66742
#
# Compressibility (1/GPa) = 0.14510322
#
# Stress axis : x y z
#
# Youngs Moduli (GPa) = 53.42796 8.98072 64.52635
#
# Poissons Ratio (x) = -0.00856 0.59574
# Poissons Ratio (y) = -0.05093 -0.51936
# Poissons Ratio (z) = 0.49327 -0.07228
#
# Static dielectric constant tensor:
#      x y z
#    x 1.620410 0.000000 -0.010090 
#    y 0.000000 1.652340 0.000000 
#    z -0.010090 0.000000 1.645780 
# 
# From -- ./inp_files/51667.got.cif
#   From: 2010.05.17/outbox.cif.g08.bks.cpg/sg11_26_cif.got.tgz:51667.got - 2010.06.03 12:22:45.
