data_PCOD9158799
_publ_section_title
;
Structure prediction by ZEFSAII (Michael W. Deem and Ramdas Pophale) SiO2 
 PCOD9158799
Probable space group: P 21/M
;
_chemical_formula_sum "Si O2"
_cell_formula_units_Z 28
_cell_length_a 17.365415
_cell_length_b 7.572977
_cell_length_c 15.770029
_cell_angle_alpha 90.000000
_cell_angle_beta 135.000124
_cell_angle_gamma 90.000000
_cell_volume 1466.453710
_symmetry_space_group_name_H-M "P 21/M"
_symmetry_group_IT_number 11
_symmetry_cell_setting 'monoclinic'
loop_
_space_group_symop_operation_xyz
x,y,z
-x,1/2+y,-z
-x,-y,-z
x,1/2-y,z
loop_
_atom_site_type_symbol
_atom_site_label
_atom_site_fract_x
_atom_site_fract_y
_atom_site_fract_z
Si Si1 0.977848 0.038268 0.384290
Si Si2 0.347479 0.037520 0.444333
Si Si3 0.201155 0.463406 0.481721
Si Si4 0.620011 0.453367 0.896116
Si Si5 0.734634 0.467085 0.153582
Si Si6 0.413358 0.539064 0.313650
Si Si7 0.619606 0.041036 0.235560
O O1 0.975415 0.250000 0.372804
O O2 0.080905 0.970586 0.411099
O O3 0.858620 0.974101 0.264871
O O4 0.000000 0.000000 0.500000
O O5 0.349877 0.250000 0.451506
O O6 0.253493 0.974116 0.434163
O O7 0.465078 0.970771 0.569693
O O8 0.341024 0.992233 0.340361
O O9 0.196357 0.250000 0.475016
O O10 0.284819 0.510136 0.622044
O O11 0.656842 0.250000 0.918658
O O12 0.628597 0.532744 0.808637
O O13 0.492378 0.456134 0.820837
O O14 0.685662 0.530131 0.026479
O O15 0.733029 0.250000 0.153453
O O16 0.660931 0.522674 0.176115
O O17 0.424490 0.750000 0.311938
O O18 0.599304 0.250000 0.214348
#
# Coordination Sequence:
#
# PCOD9158799 Si02
#       7
#     4   4   4   4   4   4   4
#     4  10  19  33  52  73  97 128 166 201 238 279
#     4   9  17  30  46  69  95 121 158 198 239 287
#     4  10  19  32  51  72  98 132 162 194 241 292
#     4  10  19  34  51  68  99 134 163 195 238 295
#     4   9  19  33  49  71  99 131 165 200 234 282
#     4   9  17  29  47  69  92 123 159 194 240 291
#     4  11  20  30  47  74 103 128 161 200 240 282
#
# _framework density 19.093682000000001
#
# number of rings (size 3 to 8) (size 9 to 14) (size 15 to 20)
#    0.000    2.286    2.857    0.857    0.000    1.143 
#    0.000    1.429    0.000    0.857    0.000    0.000 
#    0.000    0.000    0.000    0.000    0.000    0.000 
#
# Total GULP energy -156261.059733 kJ/mol
# GULP energy per Si atom -5580.752133 kJ/mol
# Density = 1.905022 g / cm^3
# Si number density = 19.093682 Si / 1000 Ang^3
#
#
#
# Elastic Constant Matrix: (Units=GPa)
#
#
# Indices 1 2 3 4 5 6 
#
# 1 139.1487 -1.3267 62.9684 0.0000 -39.5120 0.0000
# 2 -1.3267 44.6883 -4.3326 0.0000 -2.3280 0.0000
# 3 62.9684 -4.3326 110.4302 0.0000 -33.8306 0.0000
# 4 0.0000 0.0000 0.0000 11.1107 0.0000 -4.0004
# 5 -39.5120 -2.3280 -33.8306 0.0000 31.2818 0.0000
# 6 0.0000 0.0000 0.0000 -4.0004 0.0000 4.3902
#
#
#
# Elastic Compliance Matrix: (Units=1/GPa)
#
#
# Indices 1 2 3 4 5 6 
#
# 1 0.011967 0.000652 -0.003219 0.000000 0.011682 0.000000
# 2 0.000652 0.022825 0.001939 0.000000 0.004619 0.000000
# 3 -0.003219 0.001939 0.014604 0.000000 0.011873 0.000000
# 4 0.000000 0.000000 0.000000 0.133949 0.000000 0.122055
# 5 0.011682 0.004619 0.011873 0.000000 0.059907 0.000000
# 6 0.000000 0.000000 0.000000 0.122055 0.000000 0.339000
#
#
# Mechanical properties :
#
#
# Convention : Reuss Voigt Hill
#
# Bulk Modulus (GPa) = 20.77308 45.43171 33.10239
# Shear Modulus (GPa) = 8.33951 25.15374 16.74663
#
# Velocity S-wave (km/s) = 2.09217 3.63352 2.96476
# Velocity P-wave (km/s) = 4.09138 6.43809 5.39391
#
# Compressibility (1/GPa) = 0.04813924
#
# Stress axis : x y z
#
# Youngs Moduli (GPa) = 83.56488 43.81133 68.47310
#
# Poissons Ratio (x) = -0.02855 0.22042
# Poissons Ratio (y) = -0.05446 -0.13276
# Poissons Ratio (z) = 0.26900 -0.08494
#
# Static dielectric constant tensor:
#      x y z
#    x 1.667660 0.000000 -0.017590 
#    y 0.000000 1.750070 0.000000 
#    z -0.017590 0.000000 1.647630 
# 
# From -- ./inp_files/37465.got.cif
#   From: 2010.05.17/outbox.cif.g08.bks.cpg/sg11_19_cif.got.tgz:37465.got - 2010.06.03 12:22:45.
