data_PCOD9158966
_publ_section_title
;
Structure prediction by ZEFSAII (Michael W. Deem and Ramdas Pophale) SiO2 
 PCOD9158966
Probable space group: P 21/M
;
_chemical_formula_sum "Si O2"
_cell_formula_units_Z 32
_cell_length_a 5.282886
_cell_length_b 16.794826
_cell_length_c 22.181453
_cell_angle_alpha 90.000000
_cell_angle_beta 58.722792
_cell_angle_gamma 90.000000
_cell_volume 1682.026657
_symmetry_space_group_name_H-M "P 21/M"
_symmetry_group_IT_number 11
_symmetry_cell_setting 'monoclinic'
loop_
_space_group_symop_operation_xyz
x,y,z
-x,1/2+y,-z
-x,-y,-z
x,1/2-y,z
loop_
_atom_site_type_symbol
_atom_site_label
_atom_site_fract_x
_atom_site_fract_y
_atom_site_fract_z
Si Si1 0.774981 0.663036 0.412367
Si Si2 0.355418 0.473468 0.661915
Si Si3 0.072431 0.844609 0.990756
Si Si4 0.261513 0.077989 0.856983
Si Si5 0.853326 0.989322 0.810411
Si Si6 0.775686 0.843840 0.899886
Si Si7 0.436087 0.663013 0.280655
Si Si8 0.700614 0.952556 0.523840
O O1 0.633352 0.750000 0.428531
O O2 0.625673 0.596494 0.389953
O O3 0.782719 0.628949 0.479286
O O4 0.093941 0.669058 0.340733
O O5 0.487874 0.423258 0.700516
O O6 0.524886 0.545995 0.608963
O O7 0.035592 0.498853 0.725854
O O8 0.018844 0.750000 0.005631
O O9 0.424372 0.857418 0.952177
O O10 0.949538 0.865315 0.939635
O O11 0.899664 0.892082 0.063338
O O12 0.514342 0.014010 0.842071
O O13 0.448698 0.149034 0.801289
O O14 0.012558 0.044888 0.841414
O O15 0.876196 0.900563 0.833411
O O16 0.821272 0.750000 0.882300
O O17 0.565915 0.750000 0.285067
O O18 0.500000 0.000000 0.500000
O O19 0.000000 0.000000 0.500000
#
# Coordination Sequence:
#
# PCOD9158966 Si02
#       8
#     4   4   4   4   4   4   4   4
#     4  10  19  34  55  82 110 145 182 220 269 329
#     4  10  20  36  54  80 115 148 185 222 279 326
#     4  10  21  38  58  80 112 149 184 228 278 327
#     4  11  22  36  54  85 115 143 184 224 279 331
#     4  11  23  36  57  82 111 146 183 232 275 331
#     4  10  22  40  58  78 104 145 192 232 280 328
#     4  10  19  32  52  79 114 147 179 217 269 332
#     4  10  20  35  56  79 107 145 181 221 263 316
#
# _framework density 19.02467
#
# number of rings (size 3 to 8) (size 9 to 14) (size 15 to 20)
#    0.000    1.750    2.500    2.250    0.000    3.000 
#    0.000    1.875    0.000    0.000    0.000    5.250 
#    0.000    0.000    0.000    0.000    0.000    0.000 
#
# Total GULP energy -178160.582455 kJ/mol
# GULP energy per Si atom -5567.518202 kJ/mol
# Density = 1.898137 g / cm^3
# Si number density = 19.024670 Si / 1000 Ang^3
#
#
#
# Elastic Constant Matrix: (Units=GPa)
#
#
# Indices 1 2 3 4 5 6 
#
# 1 71.9460 4.0189 4.4658 0.0000 1.8121 0.0000
# 2 4.0189 58.7392 43.2122 0.0000 5.6260 0.0000
# 3 4.4658 43.2122 60.2679 0.0000 6.5973 0.0000
# 4 0.0000 0.0000 0.0000 -46.8994 0.0000 -1.0102
# 5 1.8121 5.6260 6.5973 0.0000 20.6560 0.0000
# 6 0.0000 0.0000 0.0000 -1.0102 0.0000 17.5418
#
#
#
# Elastic Compliance Matrix: (Units=1/GPa)
#
#
# Indices 1 2 3 4 5 6 
#
# 1 0.013985 -0.000382 -0.000662 0.000000 -0.000911 0.000000
# 2 -0.000382 0.036091 -0.025674 0.000000 -0.001596 0.000000
# 3 -0.000662 -0.025674 0.035520 0.000000 -0.004294 0.000000
# 4 0.000000 0.000000 0.000000 -0.021296 0.000000 -0.001226
# 5 -0.000911 -0.001596 -0.004294 0.000000 0.050298 0.000000
# 6 0.000000 0.000000 0.000000 -0.001226 0.000000 0.056936
#
#
# Mechanical properties :
#
#
# Convention : Reuss Voigt Hill
#
# Bulk Modulus (GPa) = 31.09638 32.70522 31.90080
# Shear Modulus (GPa) = 21.21413 7.54343 14.37878
#
# Velocity S-wave (km/s) = 3.34291 1.99341 2.75216
# Velocity P-wave (km/s) = 5.59293 4.74621 5.18688
#
# Compressibility (1/GPa) = 0.03215808
#
# Stress axis : x y z
#
# Youngs Moduli (GPa) = 71.50656 27.70765 28.15295
#
# Poissons Ratio (x) = 0.01059 0.01865
# Poissons Ratio (y) = 0.02733 0.72281
# Poissons Ratio (z) = 0.04737 0.71138
#
# Static dielectric constant tensor:
#      x y z
#    x 1.697310 0.000000 0.025630 
#    y 0.000000 1.843530 0.000000 
#    z 0.025630 0.000000 1.711340 
# 
# From -- ./inp_files/8108.got.cif
#   From: 2010.05.17/outbox.cif.g08.bks.cpg/sg11_5_cif.got.tgz:8108.got - 2010.06.03 12:22:45.
