data_PCOD9158657
_publ_section_title
;
Structure prediction by ZEFSAII (Michael W. Deem and Ramdas Pophale) SiO2 
 PCOD9158657
Probable space group: P 21/M
;
_chemical_formula_sum "Si O2"
_cell_formula_units_Z 28
_cell_length_a 11.972943
_cell_length_b 14.182280
_cell_length_c 11.841627
_cell_angle_alpha 90.000000
_cell_angle_beta 132.544784
_cell_angle_gamma 90.000000
_cell_volume 1481.419076
_symmetry_space_group_name_H-M "P 21/M"
_symmetry_group_IT_number 11
_symmetry_cell_setting 'monoclinic'
loop_
_space_group_symop_operation_xyz
x,y,z
-x,1/2+y,-z
-x,-y,-z
x,1/2-y,z
loop_
_atom_site_type_symbol
_atom_site_label
_atom_site_fract_x
_atom_site_fract_y
_atom_site_fract_z
Si Si1 0.652659 0.362867 0.807503
Si Si2 0.260277 0.636330 0.873117
Si Si3 0.903832 0.455062 0.834522
Si Si4 0.677260 0.858250 0.348650
Si Si5 0.576465 0.641151 0.018373
Si Si6 0.901430 0.641860 0.201657
Si Si7 0.950775 0.532305 0.629389
O O1 0.669090 0.250000 0.803452
O O2 0.748285 0.417933 0.779947
O O3 0.473876 0.384267 0.685510
O O4 0.714131 0.384295 0.976165
O O5 0.261428 0.750000 0.864150
O O6 0.101055 0.595196 0.725937
O O7 0.407306 0.598934 0.903438
O O8 0.002413 0.370576 0.846512
O O9 0.894251 0.526214 0.721736
O O10 0.000000 0.500000 0.000000
O O11 0.721067 0.750000 0.406891
O O12 0.624233 0.857654 0.182551
O O13 0.814335 0.928166 0.464116
O O14 0.561420 0.750000 0.968892
O O15 0.729771 0.603617 0.065484
O O16 0.893256 0.750000 0.232197
O O17 0.990205 0.574541 0.349586
#
# Coordination Sequence:
#
# PCOD9158657 Si02
#       7
#     4   4   4   4   4   4   4
#     4   9  16  30  51  68  93 133 166 195 242 295
#     4   9  16  29  50  75  99 128 162 205 248 288
#     4  10  19  32  47  72  99 125 166 207 240 288
#     4   9  18  32  50  75 100 124 160 210 253 288
#     4   8  16  32  52  71  98 132 168 198 239 302
#     4   9  19  33  49  71  98 135 169 198 239 301
#     4  10  20  29  47  77 100 126 161 210 248 293
#
# _framework density 18.900796
#
# number of rings (size 3 to 8) (size 9 to 14) (size 15 to 20)
#    0.857    2.000    1.429    2.571    0.000    1.714 
#    0.000    0.000    0.000    0.000    0.000   10.000 
#    0.000    0.000    0.000    0.000    0.000    0.000 
#
# Total GULP energy -155909.494884 kJ/mol
# GULP energy per Si atom -5568.196246 kJ/mol
# Density = 1.885778 g / cm^3
# Si number density = 18.900796 Si / 1000 Ang^3
#
#
#
# Elastic Constant Matrix: (Units=GPa)
#
#
# Indices 1 2 3 4 5 6 
#
# 1 86.8960 23.3975 20.0316 0.0000 26.4897 0.0000
# 2 23.3975 65.8787 26.4168 0.0000 20.1418 0.0000
# 3 20.0316 26.4168 61.9595 0.0000 25.8884 0.0000
# 4 0.0000 0.0000 0.0000 24.6261 0.0000 10.3971
# 5 26.4897 20.1418 25.8884 0.0000 29.5447 0.0000
# 6 0.0000 0.0000 0.0000 10.3971 0.0000 23.3631
#
#
#
# Elastic Compliance Matrix: (Units=1/GPa)
#
#
# Indices 1 2 3 4 5 6 
#
# 1 0.016088 -0.001939 0.001735 0.000000 -0.014623 0.000000
# 2 -0.001939 0.020158 -0.004657 0.000000 -0.007924 0.000000
# 3 0.001735 -0.004657 0.026642 0.000000 -0.021726 0.000000
# 4 0.000000 0.000000 0.000000 0.050002 0.000000 -0.022252
# 5 -0.014623 -0.007924 -0.021726 0.000000 0.071397 0.000000
# 6 0.000000 0.000000 0.000000 -0.022252 0.000000 0.052705
#
#
# Mechanical properties :
#
#
# Convention : Reuss Voigt Hill
#
# Bulk Modulus (GPa) = 18.80882 39.38065 29.09474
# Shear Modulus (GPa) = 18.90829 25.16600 22.03714
#
# Velocity S-wave (km/s) = 3.16634 3.65290 3.41829
# Velocity P-wave (km/s) = 4.83120 6.21870 5.56834
#
# Compressibility (1/GPa) = 0.05316654
#
# Stress axis : x y z
#
# Youngs Moduli (GPa) = 62.15911 49.60830 37.53519
#
# Poissons Ratio (x) = 0.09618 -0.06514
# Poissons Ratio (y) = 0.12051 0.17480
# Poissons Ratio (z) = -0.10787 0.23102
#
# Static dielectric constant tensor:
#      x y z
#    x 1.703370 0.000000 0.017400 
#    y 0.000000 1.702130 0.000000 
#    z 0.017400 0.000000 1.624620 
# 
# From -- ./inp_files/44328.got.cif
#   From: 2010.05.17/outbox.cif.g08.bks.cpg/sg11_23_cif.got.tgz:44328.got - 2010.06.03 12:22:45.
