data_PCOD9158506
_publ_section_title
;
Structure prediction by ZEFSAII (Michael W. Deem and Ramdas Pophale) SiO2 
 PCOD9158506
Probable space group: P 21/M
;
_chemical_formula_sum "Si O2"
_cell_formula_units_Z 28
_cell_length_a 17.467179
_cell_length_b 7.578382
_cell_length_c 21.983124
_cell_angle_alpha 90.000000
_cell_angle_beta 154.870612
_cell_angle_gamma 90.000000
_cell_volume 1235.759520
_symmetry_space_group_name_H-M "P 21/M"
_symmetry_group_IT_number 11
_symmetry_cell_setting 'monoclinic'
loop_
_space_group_symop_operation_xyz
x,y,z
-x,1/2+y,-z
-x,-y,-z
x,1/2-y,z
loop_
_atom_site_type_symbol
_atom_site_label
_atom_site_fract_x
_atom_site_fract_y
_atom_site_fract_z
Si Si1 0.169723 0.452159 0.697426
Si Si2 0.761799 0.963664 0.380549
Si Si3 0.029810 0.532101 0.783792
Si Si4 0.007646 0.959610 0.906395
Si Si5 0.677861 0.535028 0.454121
Si Si6 0.712896 0.462985 0.791157
Si Si7 0.341827 0.560080 0.931890
O O1 0.211470 0.250000 0.743564
O O2 0.290723 0.512542 0.726614
O O3 0.188305 0.569393 0.769673
O O4 0.961642 0.460343 0.530566
O O5 0.770846 0.750000 0.385433
O O6 0.666027 0.015880 0.374068
O O7 0.033954 0.750000 0.784712
O O8 0.003807 0.474786 0.834695
O O9 0.860544 0.476333 0.619747
O O10 0.226267 0.467967 0.901228
O O11 0.036725 0.750000 0.922761
O O12 0.822187 0.988893 0.809295
O O13 0.166862 0.028589 0.065081
O O14 0.682792 0.750000 0.458605
O O15 0.493316 0.476679 0.353442
O O16 0.710338 0.250000 0.792604
O O17 0.396086 0.750000 0.995375
O O18 0.500000 0.500000 0.000000
#
# Coordination Sequence:
#
# PCOD9158506 Si02
#       7
#     4   4   4   4   4   4   4
#     4  10  19  31  50  76 103 134 176 218 261 310
#     4   9  17  31  52  74 100 137 175 216 259 307
#     4   9  18  33  55  76  99 135 176 215 256 311
#     4   9  18  34  54  76 102 134 171 209 255 312
#     4   9  16  30  53  78 101 134 178 216 254 306
#     4   9  18  32  53  78 103 131 167 212 259 310
#     4  11  22  37  55  75 104 140 179 221 268 315
#
# _framework density 22.65813
#
# number of rings (size 3 to 8) (size 9 to 14) (size 15 to 20)
#    0.000    2.571    1.429    0.857    0.000    2.286 
#    0.000    6.429    0.000    3.429    0.000    0.000 
#    0.000    0.000    0.000    0.000    0.000    0.000 
#
# Total GULP energy -155964.985222 kJ/mol
# GULP energy per Si atom -5570.178044 kJ/mol
# Density = 2.260656 g / cm^3
# Si number density = 22.658130 Si / 1000 Ang^3
#
#
#
# Elastic Constant Matrix: (Units=GPa)
#
#
# Indices 1 2 3 4 5 6 
#
# 1 190.4158 0.2187 49.5236 0.0000 16.3746 0.0000
# 2 0.2187 38.0457 -5.8808 0.0000 -3.2573 0.0000
# 3 49.5236 -5.8808 49.3873 0.0000 31.4919 0.0000
# 4 0.0000 0.0000 0.0000 14.3295 0.0000 2.7737
# 5 16.3746 -3.2573 31.4919 0.0000 36.3564 0.0000
# 6 0.0000 0.0000 0.0000 2.7737 0.0000 13.2242
#
#
#
# Elastic Compliance Matrix: (Units=1/GPa)
#
#
# Indices 1 2 3 4 5 6 
#
# 1 0.007975 -0.001405 -0.012942 0.000000 0.007492 0.000000
# 2 -0.001405 0.027035 0.005987 0.000000 -0.002131 0.000000
# 3 -0.012942 0.005987 0.066745 0.000000 -0.051449 0.000000
# 4 0.000000 0.000000 0.000000 0.072739 0.000000 -0.015257
# 5 0.007492 -0.002131 -0.051449 0.000000 0.068505 0.000000
# 6 0.000000 0.000000 0.000000 -0.015257 0.000000 0.078819
#
#
# Mechanical properties :
#
#
# Convention : Reuss Voigt Hill
#
# Bulk Modulus (GPa) = 11.75985 40.61907 26.18946
# Shear Modulus (GPa) = 13.62830 28.38118 21.00474
#
# Velocity S-wave (km/s) = 2.45516 3.54302 3.04802
# Velocity P-wave (km/s) = 3.63847 5.89094 4.89600
#
# Compressibility (1/GPa) = 0.08503507
#
# Stress axis : x y z
#
# Youngs Moduli (GPa) = 125.39392 36.98881 14.98241
#
# Poissons Ratio (x) = 0.05196 0.19390
# Poissons Ratio (y) = 0.17615 -0.08969
# Poissons Ratio (z) = 1.62281 -0.22143
#
# Static dielectric constant tensor:
#      x y z
#    x 1.865580 0.000000 -0.011640 
#    y 0.000000 1.108800 0.000000 
#    z -0.011640 0.000000 1.918050 
# 
# From -- ./inp_files/54468.got.cif
#   From: 2010.05.17/outbox.cif.g08.bks.cpg/sg11_28_cif.got.tgz:54468.got - 2010.06.03 12:22:45.
