data_PCOD9158862
_publ_section_title
;
Structure prediction by ZEFSAII (Michael W. Deem and Ramdas Pophale) SiO2 
 PCOD9158862
Probable space group: P 21/M
;
_chemical_formula_sum "Si O2"
_cell_formula_units_Z 24
_cell_length_a 19.386971
_cell_length_b 8.738496
_cell_length_c 9.530368
_cell_angle_alpha 90.000000
_cell_angle_beta 117.477681
_cell_angle_gamma 90.000000
_cell_volume 1432.429551
_symmetry_space_group_name_H-M "P 21/M"
_symmetry_group_IT_number 11
_symmetry_cell_setting 'monoclinic'
loop_
_space_group_symop_operation_xyz
x,y,z
-x,1/2+y,-z
-x,-y,-z
x,1/2-y,z
loop_
_atom_site_type_symbol
_atom_site_label
_atom_site_fract_x
_atom_site_fract_y
_atom_site_fract_z
Si Si1 0.416625 0.430435 0.891265
Si Si2 0.718180 0.069196 0.395082
Si Si3 0.261162 0.068097 0.872343
Si Si4 0.134877 0.435701 0.973005
Si Si5 0.151771 0.066363 0.308082
Si Si6 0.988395 0.434076 0.644365
O O1 0.423156 0.250000 0.872243
O O2 0.368832 0.508304 0.718827
O O3 0.500000 0.500000 0.000000
O O4 0.354594 0.452883 0.961065
O O5 0.718903 0.250000 0.413074
O O6 0.763281 0.986742 0.561960
O O7 0.762004 0.020771 0.291104
O O8 0.247133 0.250000 0.836384
O O9 0.212047 0.018317 0.959599
O O10 0.134736 0.250000 0.977498
O O11 0.134513 0.487575 0.133248
O O12 0.060334 0.482106 0.812012
O O13 0.146818 0.250000 0.309368
O O14 0.089277 0.994816 0.355017
O O15 0.986998 0.250000 0.636090
O O16 0.000000 0.500000 0.500000
#
# Coordination Sequence:
#
# PCOD9158862 Si02
#       6
#     4   4   4   4   4   4
#     4   9  17  30  54  81 108 134 169 215 261 310
#     4  10  19  32  51  77 106 135 174 216 257 306
#     4   8  16  32  53  76 101 133 173 215 260 306
#     4   9  19  35  54  74 101 138 178 216 260 310
#     4  11  21  35  53  74 104 141 176 215 262 311
#     4  11  22  36  55  78 104 136 177 222 262 306
#
# _framework density 16.754750999999999
#
# number of rings (size 3 to 8) (size 9 to 14) (size 15 to 20)
#    1.000    1.333    0.000    4.000    0.000    1.333 
#    0.000    5.000    0.000    1.000    0.000    0.000 
#    0.000    0.000    0.000    0.000    0.000    0.000 
#
# Total GULP energy -133621.093253 kJ/mol
# GULP energy per Si atom -5567.545552 kJ/mol
# Density = 1.671662 g / cm^3
# Si number density = 16.754751 Si / 1000 Ang^3
#
#
#
# Elastic Constant Matrix: (Units=GPa)
#
#
# Indices 1 2 3 4 5 6 
#
# 1 67.9646 31.4702 57.4627 0.0000 19.8201 0.0000
# 2 31.4702 67.0747 38.8923 0.0000 5.4699 0.0000
# 3 57.4627 38.8923 136.0064 0.0000 7.9177 0.0000
# 4 0.0000 0.0000 0.0000 22.6304 0.0000 5.8434
# 5 19.8201 5.4699 7.9177 0.0000 23.2429 0.0000
# 6 0.0000 0.0000 0.0000 5.8434 0.0000 25.0243
#
#
#
# Elastic Compliance Matrix: (Units=1/GPa)
#
#
# Indices 1 2 3 4 5 6 
#
# 1 0.034653 -0.007942 -0.010976 0.000000 -0.023942 0.000000
# 2 -0.007942 0.019837 -0.002489 0.000000 0.002952 0.000000
# 3 -0.010976 -0.002489 0.012368 0.000000 0.005732 0.000000
# 4 0.000000 0.000000 0.000000 0.047024 0.000000 -0.010981
# 5 -0.023942 0.002952 0.005732 0.000000 0.060793 0.000000
# 6 0.000000 0.000000 0.000000 -0.010981 0.000000 0.042525
#
#
# Mechanical properties :
#
#
# Convention : Reuss Voigt Hill
#
# Bulk Modulus (GPa) = 41.58941 58.52178 50.05560
# Shear Modulus (GPa) = 18.65469 23.72756 21.19113
#
# Velocity S-wave (km/s) = 3.34038 3.76728 3.56024
# Velocity P-wave (km/s) = 6.30507 7.34354 6.84403
#
# Compressibility (1/GPa) = 0.02404458
#
# Stress axis : x y z
#
# Youngs Moduli (GPa) = 28.85748 50.40969 80.85330
#
# Poissons Ratio (x) = 0.40034 0.88745
# Poissons Ratio (y) = 0.22918 0.20126
# Poissons Ratio (z) = 0.31674 0.12548
#
# Static dielectric constant tensor:
#      x y z
#    x 1.571050 0.000000 0.010430 
#    y 0.000000 1.561830 0.000000 
#    z 0.010430 0.000000 1.563640 
# 
# From -- ./inp_files/25617.got.cif
#   From: 2010.05.17/outbox.cif.g08.bks.cpg/sg11_13_cif.got.tgz:25617.got - 2010.06.03 12:22:45.
