data_PCOD9158766
_publ_section_title
;
Structure prediction by ZEFSAII (Michael W. Deem and Ramdas Pophale) SiO2 
 PCOD9158766
Probable space group: P 21/M
;
_chemical_formula_sum "Si O2"
_cell_formula_units_Z 28
_cell_length_a 14.609088
_cell_length_b 8.757174
_cell_length_c 19.500530
_cell_angle_alpha 90.000000
_cell_angle_beta 140.194779
_cell_angle_gamma 90.000000
_cell_volume 1597.112106
_symmetry_space_group_name_H-M "P 21/M"
_symmetry_group_IT_number 11
_symmetry_cell_setting 'monoclinic'
loop_
_space_group_symop_operation_xyz
x,y,z
-x,1/2+y,-z
-x,-y,-z
x,1/2-y,z
loop_
_atom_site_type_symbol
_atom_site_label
_atom_site_fract_x
_atom_site_fract_y
_atom_site_fract_z
Si Si1 0.673783 0.066852 0.376393
Si Si2 0.397655 0.433767 0.000912
Si Si3 0.081563 0.930034 0.982609
Si Si4 0.084890 0.433216 0.384797
Si Si5 0.933990 0.932218 0.174730
Si Si6 0.581653 0.429706 0.836404
Si Si7 0.119416 0.566891 0.618514
O O1 0.674222 0.250000 0.382275
O O2 0.737413 0.020590 0.337703
O O3 0.780276 0.000387 0.495515
O O4 0.515990 0.001019 0.279470
O O5 0.407401 0.250000 0.004765
O O6 0.229098 0.478630 0.897227
O O7 0.500000 0.500000 0.000000
O O8 0.439432 0.491569 0.101180
O O9 0.051142 0.750000 0.959312
O O10 0.043451 0.012995 0.889753
O O11 0.252495 0.948725 0.087561
O O12 0.000000 0.000000 0.000000
O O13 0.096279 0.250000 0.391941
O O14 0.054989 0.495692 0.292571
O O15 0.938484 0.480654 0.341159
O O16 0.940095 0.750000 0.182683
O O17 0.550651 0.250000 0.825541
O O18 0.116769 0.750000 0.616028
O O19 0.000000 0.500000 0.500000
#
# Coordination Sequence:
#
# PCOD9158766 Si02
#       7
#     4   4   4   4   4   4   4
#     4  10  19  32  50  75 107 146 187 227 267 314
#     4  10  21  35  51  74 106 145 184 225 270 317
#     4  10  21  39  63  86 108 135 172 222 275 330
#     4  10  19  32  50  74 107 147 186 227 269 315
#     4  10  21  36  54  80 109 141 182 224 269 324
#     4  10  21  36  54  80 109 141 180 221 269 324
#     4   8  16  28  42  64  94 136 183 221 255 295
#
# _framework density 17.531642999999999
#
# number of rings (size 3 to 8) (size 9 to 14) (size 15 to 20)
#    0.000    2.286    0.000    2.571    2.000    4.571 
#    0.000    0.000    0.000    0.857    0.000    0.000 
#    0.000    0.000    0.000    0.000    0.000    0.000 
#
# Total GULP energy -156008.253614 kJ/mol
# GULP energy per Si atom -5571.723343 kJ/mol
# Density = 1.749174 g / cm^3
# Si number density = 17.531643 Si / 1000 Ang^3
#
#
#
# Elastic Constant Matrix: (Units=GPa)
#
#
# Indices 1 2 3 4 5 6 
#
# 1 77.1698 36.1697 34.3741 0.0000 -15.8684 0.0000
# 2 36.1697 61.1905 52.0996 0.0000 -1.1101 0.0000
# 3 34.3741 52.0996 134.3917 0.0000 -9.2492 0.0000
# 4 0.0000 0.0000 0.0000 30.1954 0.0000 -2.1601
# 5 -15.8684 -1.1101 -9.2492 0.0000 13.1591 0.0000
# 6 0.0000 0.0000 0.0000 -2.1601 0.0000 25.6761
#
#
#
# Elastic Compliance Matrix: (Units=1/GPa)
#
#
# Indices 1 2 3 4 5 6 
#
# 1 0.026492 -0.016687 0.001886 0.000000 0.031864 0.000000
# 2 -0.016687 0.035200 -0.011095 0.000000 -0.024952 0.000000
# 3 0.001886 -0.011095 0.011929 0.000000 0.009723 0.000000
# 4 0.000000 0.000000 0.000000 0.033318 0.000000 0.002803
# 5 0.031864 -0.024952 0.009723 0.000000 0.119147 0.000000
# 6 0.000000 0.000000 0.000000 0.002803 0.000000 0.039183
#
#
# Mechanical properties :
#
#
# Convention : Reuss Voigt Hill
#
# Bulk Modulus (GPa) = 45.81136 57.55987 51.68562
# Shear Modulus (GPa) = 15.41601 23.81336 19.61469
#
# Velocity S-wave (km/s) = 2.96856 3.68952 3.34850
# Velocity P-wave (km/s) = 6.15932 7.14516 6.67048
#
# Compressibility (1/GPa) = 0.02182865
#
# Stress axis : x y z
#
# Youngs Moduli (GPa) = 37.74729 28.40875 83.82975
#
# Poissons Ratio (x) = 0.47407 -0.15812
# Poissons Ratio (y) = 0.62990 0.93011
# Poissons Ratio (z) = -0.07120 0.31520
#
# Static dielectric constant tensor:
#      x y z
#    x 1.616040 0.000000 0.015450 
#    y 0.000000 1.589560 0.000000 
#    z 0.015450 0.000000 1.596220 
# 
# From -- ./inp_files/37205.got.cif
#   From: 2010.05.17/outbox.cif.g08.bks.cpg/sg11_19_cif.got.tgz:37205.got - 2010.06.03 12:22:45.
