data_PCOD9158955
_publ_section_title
;
Structure prediction by ZEFSAII (Michael W. Deem and Ramdas Pophale) SiO2 
 PCOD9158955
Probable space group: P 21/M
;
_chemical_formula_sum "Si O2"
_cell_formula_units_Z 32
_cell_length_a 25.886667
_cell_length_b 8.869490
_cell_length_c 21.096243
_cell_angle_alpha 90.000000
_cell_angle_beta 157.560388
_cell_angle_gamma 90.000000
_cell_volume 1848.897563
_symmetry_space_group_name_H-M "P 21/M"
_symmetry_group_IT_number 11
_symmetry_cell_setting 'monoclinic'
loop_
_space_group_symop_operation_xyz
x,y,z
-x,1/2+y,-z
-x,-y,-z
x,1/2-y,z
loop_
_atom_site_type_symbol
_atom_site_label
_atom_site_fract_x
_atom_site_fract_y
_atom_site_fract_z
Si Si1 0.923265 0.931564 0.598157
Si Si2 0.653702 0.570323 0.746887
Si Si3 0.917906 0.931872 0.848241
Si Si4 0.086409 0.569471 0.655589
Si Si5 0.631976 0.569067 0.573750
Si Si6 0.658503 0.429979 0.245812
Si Si7 0.073095 0.931871 0.896961
Si Si8 0.349250 0.070007 0.902973
O O1 0.905695 0.750000 0.578984
O O2 0.013659 0.969507 0.639101
O O3 0.999950 0.977123 0.749117
O O4 0.777671 0.008023 0.424673
O O5 0.658264 0.750000 0.756758
O O6 0.664945 0.529568 0.684635
O O7 0.508000 0.509248 0.602901
O O8 0.778110 0.498919 0.925320
O O9 0.924748 0.750000 0.860376
O O10 0.760874 0.974637 0.678055
O O11 0.984608 0.978354 0.857710
O O12 0.000000 0.000000 0.000000
O O13 0.088199 0.750000 0.651388
O O14 0.237862 0.505754 0.821164
O O15 0.000000 0.500000 0.500000
O O16 0.614416 0.750000 0.551169
O O17 0.669895 0.250000 0.250971
O O18 0.673480 0.507455 0.193942
O O19 0.506088 0.463430 0.096673
O O20 0.082695 0.750000 0.908159
O O21 0.330417 0.250000 0.881215
#
# Coordination Sequence:
#
# PCOD9158955 Si02
#       8
#     4   4   4   4   4   4   4   4
#     4  10  22  38  55  78 110 145 181 219 266 326
#     4  10  19  32  52  79 108 140 177 219 266 314
#     4  10  19  33  55  81 107 136 177 223 268 315
#     4  11  21  34  55  82 109 140 182 228 271 318
#     4   9  18  32  51  78 109 138 174 221 267 315
#     4  10  20  34  55  81 108 142 180 221 272 319
#     4  10  21  37  56  78 108 146 179 216 270 326
#     4  10  20  34  54  82 112 140 176 224 271 323
#
# _framework density 17.307613
#
# number of rings (size 3 to 8) (size 9 to 14) (size 15 to 20)
#    0.000    2.000    2.500    1.500    0.000    3.500 
#    0.000    1.250    0.000    6.000    0.000    0.000 
#    0.000    0.000    0.000    0.000    0.000    0.000 
#
# Total GULP energy -178619.958653 kJ/mol
# GULP energy per Si atom -5581.873708 kJ/mol
# Density = 1.726822 g / cm^3
# Si number density = 17.307613 Si / 1000 Ang^3
#
#
#
# Elastic Constant Matrix: (Units=GPa)
#
#
# Indices 1 2 3 4 5 6 
#
# 1 102.8156 37.4893 82.8528 0.0000 3.6442 0.0000
# 2 37.4893 32.5442 51.7066 0.0000 2.9309 0.0000
# 3 82.8528 51.7066 177.7506 0.0000 6.7024 0.0000
# 4 0.0000 0.0000 0.0000 33.4542 0.0000 3.2612
# 5 3.6442 2.9309 6.7024 0.0000 28.7937 0.0000
# 6 0.0000 0.0000 0.0000 3.2612 0.0000 19.9079
#
#
#
# Elastic Compliance Matrix: (Units=1/GPa)
#
#
# Indices 1 2 3 4 5 6 
#
# 1 0.018534 -0.014185 -0.004518 0.000000 0.000150 0.000000
# 2 -0.014185 0.068099 -0.013119 0.000000 -0.002083 0.000000
# 3 -0.004518 -0.013119 0.011578 0.000000 -0.000788 0.000000
# 4 0.000000 0.000000 0.000000 0.030377 0.000000 -0.004976
# 5 0.000150 -0.002083 -0.000788 0.000000 0.035106 0.000000
# 6 0.000000 0.000000 0.000000 -0.004976 0.000000 0.051047
#
#
# Mechanical properties :
#
#
# Convention : Reuss Voigt Hill
#
# Bulk Modulus (GPa) = 28.93003 73.02309 50.97656
# Shear Modulus (GPa) = 17.24680 25.83528 21.54104
#
# Velocity S-wave (km/s) = 3.16014 3.86775 3.53172
# Velocity P-wave (km/s) = 5.48332 7.88853 6.79322
#
# Compressibility (1/GPa) = 0.03456616
#
# Stress axis : x y z
#
# Youngs Moduli (GPa) = 53.95427 14.68440 86.37053
#
# Poissons Ratio (x) = 0.20830 0.39026
# Poissons Ratio (y) = 0.76534 1.13312
# Poissons Ratio (z) = 0.24379 0.19265
#
# Static dielectric constant tensor:
#      x y z
#    x 1.579110 0.000000 0.017080 
#    y 0.000000 1.576470 0.000000 
#    z 0.017080 0.000000 1.574290 
# 
# From -- ./inp_files/67271.got.cif
#   From: 2010.05.17/outbox.cif.g08.bks.cpg/sg11_34_cif.got.tgz:67271.got - 2010.06.03 12:22:45.
