data_PCOD9158831
_publ_section_title
;
Structure prediction by ZEFSAII (Michael W. Deem and Ramdas Pophale) SiO2 
 PCOD9158831
Probable space group: P 21/M
;
_chemical_formula_sum "Si O2"
_cell_formula_units_Z 28
_cell_length_a 25.288317
_cell_length_b 8.939773
_cell_length_c 20.035129
_cell_angle_alpha 90.000000
_cell_angle_beta 158.902920
_cell_angle_gamma 90.000000
_cell_volume 1630.346245
_symmetry_space_group_name_H-M "P 21/M"
_symmetry_group_IT_number 11
_symmetry_cell_setting 'monoclinic'
loop_
_space_group_symop_operation_xyz
x,y,z
-x,1/2+y,-z
-x,-y,-z
x,1/2-y,z
loop_
_atom_site_type_symbol
_atom_site_label
_atom_site_fract_x
_atom_site_fract_y
_atom_site_fract_z
Si Si1 0.182893 0.576373 0.771639
Si Si2 0.844485 0.929823 0.838086
Si Si3 0.371045 0.430016 0.302700
Si Si4 0.849894 0.576344 0.406933
Si Si5 0.443796 0.069299 0.588257
Si Si6 0.406290 0.574294 0.829794
Si Si7 0.506009 0.427017 0.810379
O O1 0.190546 0.750000 0.756816
O O2 0.191913 0.470731 0.717845
O O3 0.024291 0.555906 0.617374
O O4 0.317926 0.552699 0.979832
O O5 0.859165 0.750000 0.852977
O O6 0.780283 0.969202 0.836523
O O7 0.709629 0.971144 0.629177
O O8 0.000000 0.000000 0.000000
O O9 0.500000 0.500000 0.500000
O O10 0.381746 0.250000 0.314782
O O11 0.416527 0.495765 0.284649
O O12 0.813122 0.750000 0.374764
O O13 0.759931 0.471923 0.349944
O O14 0.458341 0.250000 0.600663
O O15 0.443037 0.025998 0.664954
O O16 0.428844 0.750000 0.859080
O O17 0.448379 0.511207 0.807400
O O18 0.500000 0.500000 0.000000
O O19 0.476228 0.250000 0.783722
#
# Coordination Sequence:
#
# PCOD9158831 Si02
#       7
#     4   4   4   4   4   4   4
#     4   9  18  32  52  75  98 129 170 212 262 317
#     4   9  18  32  52  80 109 139 175 213 254 305
#     4   9  17  31  52  77 104 134 172 212 251 301
#     4  10  19  32  51  75 101 129 166 217 266 311
#     4   9  19  35  54  78 107 138 175 217 265 314
#     4  12  23  35  52  76 103 138 181 223 268 320
#     4  10  20  36  56  77 104 137 174 222 269 317
#
# _framework density 17.174264999999998
#
# number of rings (size 3 to 8) (size 9 to 14) (size 15 to 20)
#    0.000    2.286    1.429    3.000    0.000    4.000 
#    0.000    1.429    0.000    6.857    0.000    0.000 
#    0.000    0.000    0.000    0.000    0.000    0.000 
#
# Total GULP energy -156036.421914 kJ/mol
# GULP energy per Si atom -5572.729354 kJ/mol
# Density = 1.713518 g / cm^3
# Si number density = 17.174265 Si / 1000 Ang^3
#
#
#
# Elastic Constant Matrix: (Units=GPa)
#
#
# Indices 1 2 3 4 5 6 
#
# 1 136.5059 56.4109 56.3639 0.0000 3.8110 0.0000
# 2 56.4109 55.7414 32.1874 0.0000 1.5753 0.0000
# 3 56.3639 32.1874 70.9982 0.0000 8.2549 0.0000
# 4 0.0000 0.0000 0.0000 21.8381 0.0000 6.0655
# 5 3.8110 1.5753 8.2549 0.0000 25.9728 0.0000
# 6 0.0000 0.0000 0.0000 6.0655 0.0000 32.4766
#
#
#
# Elastic Compliance Matrix: (Units=1/GPa)
#
#
# Indices 1 2 3 4 5 6 
#
# 1 0.014584 -0.010902 -0.006711 0.000000 0.000654 0.000000
# 2 -0.010902 0.032563 -0.006297 0.000000 0.001626 0.000000
# 3 -0.006711 -0.006297 0.022957 0.000000 -0.005930 0.000000
# 4 0.000000 0.000000 0.000000 0.048297 0.000000 -0.009020
# 5 0.000654 0.001626 -0.005930 0.000000 0.040192 0.000000
# 6 0.000000 0.000000 0.000000 -0.009020 0.000000 0.032476
#
#
# Mechanical properties :
#
#
# Convention : Reuss Voigt Hill
#
# Bulk Modulus (GPa) = 44.87630 61.46333 53.16981
# Shear Modulus (GPa) = 20.29904 23.94303 22.12104
#
# Velocity S-wave (km/s) = 3.44167 3.73785 3.59281
# Velocity P-wave (km/s) = 6.47921 7.38203 6.94531
#
# Compressibility (1/GPa) = 0.02228348
#
# Stress axis : x y z
#
# Youngs Moduli (GPa) = 68.56905 30.70961 43.55969
#
# Poissons Ratio (x) = 0.33480 0.29234
# Poissons Ratio (y) = 0.74754 0.27429
# Poissons Ratio (z) = 0.46019 0.19337
#
# Static dielectric constant tensor:
#      x y z
#    x 1.606580 0.000000 0.012640 
#    y 0.000000 1.585000 0.000000 
#    z 0.012640 0.000000 1.591340 
# 
# From -- ./inp_files/66897.got.cif
#   From: 2010.05.17/outbox.cif.g08.bks.cpg/sg11_34_cif.got.tgz:66897.got - 2010.06.03 12:22:45.
