data_PCOD9158880
_publ_section_title
;
Structure prediction by ZEFSAII (Michael W. Deem and Ramdas Pophale) SiO2 
 PCOD9158880
Probable space group: P 21/M
;
_chemical_formula_sum "Si O2"
_cell_formula_units_Z 28
_cell_length_a 10.486905
_cell_length_b 8.656746
_cell_length_c 30.608766
_cell_angle_alpha 90.000000
_cell_angle_beta 145.705921
_cell_angle_gamma 90.000000
_cell_volume 1565.654846
_symmetry_space_group_name_H-M "P 21/M"
_symmetry_group_IT_number 11
_symmetry_cell_setting 'monoclinic'
loop_
_space_group_symop_operation_xyz
x,y,z
-x,1/2+y,-z
-x,-y,-z
x,1/2-y,z
loop_
_atom_site_type_symbol
_atom_site_label
_atom_site_fract_x
_atom_site_fract_y
_atom_site_fract_z
Si Si1 0.504057 0.562076 0.405620
Si Si2 0.614616 0.935569 0.338370
Si Si3 0.055542 0.435577 0.416647
Si Si4 0.888090 0.935477 0.012716
Si Si5 0.442083 0.564558 0.843102
Si Si6 0.299151 0.065030 0.174328
Si Si7 0.970521 0.434944 0.688379
O O1 0.502584 0.750000 0.405239
O O2 0.559880 0.513271 0.372149
O O3 0.704979 0.514005 0.495019
O O4 0.258462 0.510944 0.352606
O O5 0.626797 0.750000 0.340813
O O6 0.422339 0.992002 0.250545
O O7 0.851314 0.003599 0.388591
O O8 0.046956 0.250000 0.413281
O O9 0.025916 0.497908 0.359464
O O10 0.905177 0.750000 0.018008
O O11 0.623973 0.976960 0.932145
O O12 0.043928 0.005323 0.094618
O O13 0.000000 0.000000 0.000000
O O14 0.416943 0.750000 0.836001
O O15 0.556037 0.522926 0.828390
O O16 0.198633 0.487744 0.776942
O O17 0.299936 0.250000 0.177561
O O18 0.966930 0.250000 0.684771
#
# Coordination Sequence:
#
# PCOD9158880 Si02
#       7
#     4   4   4   4   4   4   4
#     4   9  22  39  54  77 108 142 180 226 271 316
#     4  11  21  36  57  79 106 141 182 223 269 321
#     4  11  21  37  57  78 108 139 177 228 274 316
#     4   9  17  29  48  75 108 140 175 217 266 314
#     4   9  18  32  50  76 110 140 171 217 268 310
#     4  10  19  32  51  78 111 139 173 218 270 318
#     4  11  21  35  56  80 107 142 183 220 264 321
#
# _framework density 17.883890999999998
#
# number of rings (size 3 to 8) (size 9 to 14) (size 15 to 20)
#    0.000    2.000    1.429    3.857    0.000    2.857 
#    0.000    7.143    0.000    0.857    0.000    0.000 
#    0.000    0.000    0.000    0.000    0.000    0.000 
#
# Total GULP energy -156261.554936 kJ/mol
# GULP energy per Si atom -5580.769819 kJ/mol
# Density = 1.784319 g / cm^3
# Si number density = 17.883891 Si / 1000 Ang^3
#
#
#
# Elastic Constant Matrix: (Units=GPa)
#
#
# Indices 1 2 3 4 5 6 
#
# 1 86.0171 19.8139 43.5214 0.0000 28.9606 0.0000
# 2 19.8139 40.0247 31.2823 0.0000 14.5694 0.0000
# 3 43.5214 31.2823 142.3909 0.0000 43.0576 0.0000
# 4 0.0000 0.0000 0.0000 30.3533 0.0000 8.6657
# 5 28.9606 14.5694 43.0576 0.0000 15.3915 0.0000
# 6 0.0000 0.0000 0.0000 8.6657 0.0000 1.6105
#
#
#
# Elastic Compliance Matrix: (Units=1/GPa)
#
#
# Indices 1 2 3 4 5 6 
#
# 1 -0.017202 -0.018487 -0.037386 0.000000 0.154454 0.000000
# 2 -0.018487 0.025297 -0.020671 0.000000 0.068665 0.000000
# 3 -0.037386 -0.020671 -0.027243 0.000000 0.166124 0.000000
# 4 0.000000 0.000000 0.000000 -0.061449 0.000000 0.330633
# 5 0.154454 0.068665 0.166124 0.000000 -0.755376 0.000000
# 6 0.000000 0.000000 0.000000 0.330633 0.000000 -1.158106
#
#
# Mechanical properties :
#
#
# Convention : Reuss Voigt Hill
#
# Bulk Modulus (GPa) = -5.80599 50.85198 22.52300
# Shear Modulus (GPa) = -2.63379 21.05875 9.21248
#
# Velocity S-wave (km/s) = -1.21487 3.43523 2.27210
# Velocity P-wave (km/s) = 2.28504 6.65061 4.41640
#
# Compressibility (1/GPa) = -0.17223596
#
# Stress axis : x y z
#
# Youngs Moduli (GPa) = -58.13185 39.52985 -36.70635
#
# Poissons Ratio (x) = 0.73079 -1.37230
# Poissons Ratio (y) = -1.07469 -0.75875
# Poissons Ratio (z) = -2.17332 0.81712
#
# Static dielectric constant tensor:
#      x y z
#    x 1.577530 0.000000 0.018240 
#    y 0.000000 1.603090 0.000000 
#    z 0.018240 0.000000 1.626540 
# 
# From -- ./inp_files/70888.got.cif
#   From: 2010.05.17/outbox.cif.g08.bks.cpg/sg11_36_cif.got.tgz:70888.got - 2010.06.03 12:22:45.
