data_PCOD9158140
_publ_section_title
;
Structure prediction by ZEFSAII (Michael W. Deem and Ramdas Pophale) SiO2 
 PCOD9158140
Probable space group: P 21/M
;
_chemical_formula_sum "Si O2"
_cell_formula_units_Z 24
_cell_length_a 10.823051
_cell_length_b 24.126490
_cell_length_c 4.995645
_cell_angle_alpha 90.000000
_cell_angle_beta 91.007991
_cell_angle_gamma 90.000000
_cell_volume 1304.272106
_symmetry_space_group_name_H-M "P 21/M"
_symmetry_group_IT_number 11
_symmetry_cell_setting 'monoclinic'
loop_
_space_group_symop_operation_xyz
x,y,z
-x,1/2+y,-z
-x,-y,-z
x,1/2-y,z
loop_
_atom_site_type_symbol
_atom_site_label
_atom_site_fract_x
_atom_site_fract_y
_atom_site_fract_z
Si Si1 0.192562 0.134644 0.346232
Si Si2 0.023372 0.551806 0.692514
Si Si3 0.406010 0.938859 0.269679
Si Si4 0.929264 0.686262 0.140555
Si Si5 0.859292 0.400638 0.810223
Si Si6 0.570320 0.567667 0.775818
O O1 0.151984 0.154858 0.637404
O O2 0.330435 0.113344 0.306394
O O3 0.106699 0.081905 0.273826
O O4 0.147947 0.180632 0.134975
O O5 0.108003 0.588765 0.498586
O O6 0.000000 0.500000 0.500000
O O7 0.089597 0.551726 0.983111
O O8 0.287809 0.903084 0.181956
O O9 0.454044 0.929277 0.570727
O O10 0.376814 0.004828 0.247745
O O11 0.519393 0.927062 0.073610
O O12 0.949623 0.750000 0.213204
O O13 0.059236 0.653305 0.112636
#
# Coordination Sequence:
#
# PCOD9158140 Si02
#       6
#     4   4   4   4   4   4
#     4  10  20  34  54  79 104 135 175 216 264 318
#     4  10  19  30  49  76 107 134 164 213 263 313
#     4  10  20  33  51  76 112 147 172 201 246 311
#     4  10  21  37  57  77  99 132 175 230 279 307
#     4  10  20  33  51  76 102 136 176 212 259 313
#     4  10  20  33  51  77 109 145 173 201 247 313
#
# _framework density 18.401069
#
# number of rings (size 3 to 8) (size 9 to 14) (size 15 to 20)
#    0.000    2.000    0.000    4.000    0.000    5.333 
#    0.000    0.000    0.000    6.000    0.000    0.000 
#    0.000    0.000    0.000    0.000    0.000    0.000 
#
# Total GULP energy -133784.487426 kJ/mol
# GULP energy per Si atom -5574.353643 kJ/mol
# Density = 1.835919 g / cm^3
# Si number density = 18.401069 Si / 1000 Ang^3
#
#
#
# Elastic Constant Matrix: (Units=GPa)
#
#
# Indices 1 2 3 4 5 6 
#
# 1 71.9879 32.6410 -2.8950 0.0000 -0.4648 0.0000
# 2 32.6410 68.4642 -5.4574 0.0000 0.2083 0.0000
# 3 -2.8950 -5.4574 74.0117 0.0000 1.2420 0.0000
# 4 0.0000 0.0000 0.0000 19.1552 0.0000 -0.1072
# 5 -0.4648 0.2083 1.2420 0.0000 13.7753 0.0000
# 6 0.0000 0.0000 0.0000 -0.1072 0.0000 10.7763
#
#
#
# Elastic Compliance Matrix: (Units=1/GPa)
#
#
# Indices 1 2 3 4 5 6 
#
# 1 0.017730 -0.008450 0.000058 0.000000 0.000721 0.000000
# 2 -0.008450 0.018722 0.001061 0.000000 -0.000664 0.000000
# 3 0.000058 0.001061 0.013613 0.000000 -0.001241 0.000000
# 4 0.000000 0.000000 0.000000 0.052208 0.000000 0.000520
# 5 0.000721 -0.000664 -0.001241 0.000000 0.072740 0.000000
# 6 0.000000 0.000000 0.000000 0.000520 0.000000 0.092801
#
#
# Mechanical properties :
#
#
# Convention : Reuss Voigt Hill
#
# Bulk Modulus (GPa) = 28.24693 29.22678 28.73685
# Shear Modulus (GPa) = 16.99085 21.41972 19.20529
#
# Velocity S-wave (km/s) = 3.04198 3.41552 3.23415
# Velocity P-wave (km/s) = 5.26519 5.60999 5.44032
#
# Compressibility (1/GPa) = 0.03540208
#
# Stress axis : x y z
#
# Youngs Moduli (GPa) = 56.40210 53.41422 73.46062
#
# Poissons Ratio (x) = 0.45137 -0.00428
# Poissons Ratio (y) = 0.47662 -0.07795
# Poissons Ratio (z) = -0.00329 -0.05668
#
# Static dielectric constant tensor:
#      x y z
#    x 1.628720 0.000000 0.004770 
#    y 0.000000 1.666170 0.000000 
#    z 0.004770 0.000000 1.654110 
# 
# From -- ./inp_files/2737.got.cif
#   From: 2010.05.17/outbox.cif.g08.bks.cpg/sg11_2_cif.got.tgz:2737.got - 2010.06.03 12:22:45.
