data_PCOD9158875
_publ_section_title
;
Structure prediction by ZEFSAII (Michael W. Deem and Ramdas Pophale) SiO2 
 PCOD9158875
Probable space group: P 21/M
;
_chemical_formula_sum "Si O2"
_cell_formula_units_Z 32
_cell_length_a 23.944358
_cell_length_b 8.413709
_cell_length_c 21.724592
_cell_angle_alpha 90.000000
_cell_angle_beta 24.215764
_cell_angle_gamma 90.000000
_cell_volume 1795.189970
_symmetry_space_group_name_H-M "P 21/M"
_symmetry_group_IT_number 11
_symmetry_cell_setting 'monoclinic'
loop_
_space_group_symop_operation_xyz
x,y,z
-x,1/2+y,-z
-x,-y,-z
x,1/2-y,z
loop_
_atom_site_type_symbol
_atom_site_label
_atom_site_fract_x
_atom_site_fract_y
_atom_site_fract_z
Si Si1 0.971472 0.941274 0.663836
Si Si2 0.170236 0.443781 0.955411
Si Si3 0.655248 0.559723 0.339406
Si Si4 0.259671 0.058736 0.341169
Si Si5 0.751778 0.557707 0.788148
Si Si6 0.910643 0.059500 0.147672
Si Si7 0.756727 0.941800 0.982259
Si Si8 0.452813 0.559786 0.902529
O O1 0.976181 0.750000 0.659824
O O2 0.891071 0.990481 0.682580
O O3 0.880043 0.993588 0.813526
O O4 0.121707 0.007438 0.512044
O O5 0.173173 0.250000 0.951890
O O6 0.268949 0.495342 0.800061
O O7 0.222298 0.498876 0.969354
O O8 0.012088 0.488340 0.101386
O O9 0.500000 0.500000 0.500000
O O10 0.652494 0.750000 0.341448
O O11 0.758805 0.506559 0.289862
O O12 0.264454 0.250000 0.333797
O O13 0.259178 0.000906 0.270742
O O14 0.393620 0.002839 0.241925
O O15 0.746090 0.750000 0.794195
O O16 0.632748 0.495706 0.951938
O O17 0.902000 0.250000 0.155516
O O18 0.000000 0.000000 0.000000
O O19 0.757609 0.750000 0.982246
O O20 0.620847 0.995617 0.084134
O O21 0.450239 0.750000 0.903123
#
# Coordination Sequence:
#
# PCOD9158875 Si02
#       8
#     4   4   4   4   4   4   4   4
#     4   9  18  30  48  71  92 116 155 201 242 281
#     4   8  16  32  55  75  94 127 169 202 234 282
#     4  10  19  32  51  78 108 136 164 201 249 294
#     4  10  20  32  47  68  97 125 153 193 245 297
#     4   9  18  33  50  69  91 122 160 197 238 292
#     4   9  16  29  50  76 103 131 163 201 241 287
#     4   9  18  36  55  70  91 125 168 206 234 278
#     4  10  20  32  47  71  98 126 158 197 243 291
#
# _framework density 17.825410999999999
#
# number of rings (size 3 to 8) (size 9 to 14) (size 15 to 20)
#    0.000    2.750    0.000    3.375    0.000    3.500 
#    0.000    5.000    0.000    6.000    0.000    0.000 
#    0.000    0.000    0.000    0.000    0.000    0.000 
#
# Total GULP energy -178312.844270 kJ/mol
# GULP energy per Si atom -5572.276383 kJ/mol
# Density = 1.778484 g / cm^3
# Si number density = 17.825411 Si / 1000 Ang^3
#
#
#
# Elastic Constant Matrix: (Units=GPa)
#
#
# Indices 1 2 3 4 5 6 
#
# 1 162.5394 31.7246 75.4527 0.0000 -35.8895 0.0000
# 2 31.7246 20.3603 19.5725 0.0000 -13.1224 0.0000
# 3 75.4527 19.5725 143.7568 0.0000 -40.3645 0.0000
# 4 0.0000 0.0000 0.0000 23.4014 0.0000 -6.5696
# 5 -35.8895 -13.1224 -40.3645 0.0000 31.6035 0.0000
# 6 0.0000 0.0000 0.0000 -6.5696 0.0000 18.6523
#
#
#
# Elastic Compliance Matrix: (Units=1/GPa)
#
#
# Indices 1 2 3 4 5 6 
#
# 1 0.010507 -0.011282 -0.003030 0.000000 0.003377 0.000000
# 2 -0.011282 0.079563 0.001197 0.000000 0.021753 0.000000
# 3 -0.003030 0.001197 0.011783 0.000000 0.012104 0.000000
# 4 0.000000 0.000000 0.000000 0.047422 0.000000 0.016702
# 5 0.003377 0.021753 0.012104 0.000000 0.059969 0.000000
# 6 0.000000 0.000000 0.000000 0.016702 0.000000 0.059496
#
#
# Mechanical properties :
#
#
# Convention : Reuss Voigt Hill
#
# Bulk Modulus (GPa) = 13.22371 64.46178 38.84275
# Shear Modulus (GPa) = 15.61639 28.05855 21.83747
#
# Velocity S-wave (km/s) = 2.96307 3.97177 3.50390
# Velocity P-wave (km/s) = 4.37503 7.56800 6.18124
#
# Compressibility (1/GPa) = 0.07562172
#
# Stress axis : x y z
#
# Youngs Moduli (GPa) = 95.17786 12.56860 84.87158
#
# Poissons Ratio (x) = 0.14179 0.25720
# Poissons Ratio (y) = 1.07375 -0.10155
# Poissons Ratio (z) = 0.28843 -0.01504
#
# Static dielectric constant tensor:
#      x y z
#    x 1.625540 0.000000 -0.021550 
#    y 0.000000 1.611880 0.000000 
#    z -0.021550 0.000000 1.598620 
# 
# From -- ./inp_files/69937.got.cif
#   From: 2010.05.17/outbox.cif.g08.bks.cpg/sg11_35_cif.got.tgz:69937.got - 2010.06.03 12:22:45.
