data_PCOD9158205
_publ_section_title
;
Structure prediction by ZEFSAII (Michael W. Deem and Ramdas Pophale) SiO2 
 PCOD9158205
Probable space group: P 21/M
;
_chemical_formula_sum "Si O2"
_cell_formula_units_Z 28
_cell_length_a 13.437096
_cell_length_b 8.843044
_cell_length_c 14.860296
_cell_angle_alpha 90.000000
_cell_angle_beta 56.677672
_cell_angle_gamma 90.000000
_cell_volume 1475.467469
_symmetry_space_group_name_H-M "P 21/M"
_symmetry_group_IT_number 11
_symmetry_cell_setting 'monoclinic'
loop_
_space_group_symop_operation_xyz
x,y,z
-x,1/2+y,-z
-x,-y,-z
x,1/2-y,z
loop_
_atom_site_type_symbol
_atom_site_label
_atom_site_fract_x
_atom_site_fract_y
_atom_site_fract_z
Si Si1 0.556297 0.570305 0.318802
Si Si2 0.704280 0.567852 0.549013
Si Si3 0.285269 0.068566 0.253881
Si Si4 0.436248 0.569471 0.874974
Si Si5 0.787458 0.932115 0.317889
Si Si6 0.784566 0.430267 0.892649
Si Si7 0.002237 0.069825 0.098461
O O1 0.540033 0.750000 0.326303
O O2 0.429336 0.493052 0.398787
O O3 0.597947 0.515084 0.199723
O O4 0.657941 0.532839 0.340254
O O5 0.696772 0.750000 0.553183
O O6 0.745646 0.521867 0.628423
O O7 0.784526 0.523605 0.424358
O O8 0.271649 0.250000 0.252735
O O9 0.426281 0.032563 0.172713
O O10 0.214615 0.987813 0.209877
O O11 0.431136 0.750000 0.860774
O O12 0.344176 0.533371 0.999501
O O13 0.804930 0.750000 0.302624
O O14 0.887257 0.014617 0.210867
O O15 0.801335 0.250000 0.887554
O O16 0.883641 0.509639 0.903969
O O17 0.004689 0.250000 0.090826
O O18 0.000000 0.000000 0.000000
#
# Coordination Sequence:
#
# PCOD9158205 Si02
#       7
#     4   4   4   4   4   4   4
#     4  10  19  30  52  85 116 145 182 228 278 331
#     4   9  19  36  57  81 115 152 185 226 277 330
#     4   9  18  34  55  82 114 147 183 226 276 330
#     4   9  19  34  53  79 113 150 185 224 277 334
#     4  10  21  38  58  82 112 149 190 232 277 326
#     4  11  22  37  58  83 111 147 188 231 279 331
#     4  12  26  43  62  84 111 144 183 229 276 328
#
# _framework density 18.977038
#
# number of rings (size 3 to 8) (size 9 to 14) (size 15 to 20)
#    0.000    2.000    0.000    4.714    0.000    7.429 
#    0.000    0.714    0.000    0.000    0.000    0.000 
#    0.000    0.000    0.000    0.000    0.000    0.000 
#
# Total GULP energy -156391.122717 kJ/mol
# GULP energy per Si atom -5585.397240 kJ/mol
# Density = 1.893384 g / cm^3
# Si number density = 18.977038 Si / 1000 Ang^3
#
#
#
# Elastic Constant Matrix: (Units=GPa)
#
#
# Indices 1 2 3 4 5 6 
#
# 1 94.7179 45.1811 63.6439 0.0000 34.4963 0.0000
# 2 45.1811 45.9722 55.4546 0.0000 16.7521 0.0000
# 3 63.6439 55.4546 154.3147 0.0000 30.1303 0.0000
# 4 0.0000 0.0000 0.0000 27.4347 0.0000 0.5506
# 5 34.4963 16.7521 30.1303 0.0000 24.8835 0.0000
# 6 0.0000 0.0000 0.0000 0.5506 0.0000 30.7299
#
#
#
# Elastic Compliance Matrix: (Units=1/GPa)
#
#
# Indices 1 2 3 4 5 6 
#
# 1 0.030306 -0.019324 0.000142 0.000000 -0.029176 0.000000
# 2 -0.019324 0.053649 -0.012426 0.000000 0.005717 0.000000
# 3 0.000142 -0.012426 0.012169 0.000000 -0.006567 0.000000
# 4 0.000000 0.000000 0.000000 0.036463 0.000000 -0.000653
# 5 -0.029176 0.005717 -0.006567 0.000000 0.084736 0.000000
# 6 0.000000 0.000000 0.000000 -0.000653 0.000000 0.032553
#
#
# Mechanical properties :
#
#
# Convention : Reuss Voigt Hill
#
# Bulk Modulus (GPa) = 30.38739 69.28489 49.83614
# Shear Modulus (GPa) = 15.42912 25.32464 20.37688
#
# Velocity S-wave (km/s) = 2.85448 3.65703 3.28039
# Velocity P-wave (km/s) = 5.18764 7.37705 6.37701
#
# Compressibility (1/GPa) = 0.03290838
#
# Stress axis : x y z
#
# Youngs Moduli (GPa) = 32.99703 18.63957 82.17412
#
# Poissons Ratio (x) = 0.36019 -0.01166
# Poissons Ratio (y) = 0.63763 1.02110
# Poissons Ratio (z) = -0.00468 0.23162
#
# Static dielectric constant tensor:
#      x y z
#    x 1.640410 0.000000 0.007810 
#    y 0.000000 1.634150 0.000000 
#    z 0.007810 0.000000 1.667380 
# 
# From -- ./inp_files/49102.got.cif
#   From: 2010.05.17/outbox.cif.g08.bks.cpg/sg11_25_cif.got.tgz:49102.got - 2010.06.03 12:22:45.
