data_PCOD9158659
_publ_section_title
;
Structure prediction by ZEFSAII (Michael W. Deem and Ramdas Pophale) SiO2 
 PCOD9158659
Probable space group: P 21/M
;
_chemical_formula_sum "Si O2"
_cell_formula_units_Z 28
_cell_length_a 23.030095
_cell_length_b 9.038911
_cell_length_c 11.969474
_cell_angle_alpha 90.000000
_cell_angle_beta 133.819133
_cell_angle_gamma 90.000000
_cell_volume 1797.797331
_symmetry_space_group_name_H-M "P 21/M"
_symmetry_group_IT_number 11
_symmetry_cell_setting 'monoclinic'
loop_
_space_group_symop_operation_xyz
x,y,z
-x,1/2+y,-z
-x,-y,-z
x,1/2-y,z
loop_
_atom_site_type_symbol
_atom_site_label
_atom_site_fract_x
_atom_site_fract_y
_atom_site_fract_z
Si Si1 0.775776 0.429761 0.331317
Si Si2 0.603150 0.421378 0.035309
Si Si3 0.874301 0.424260 0.853255
Si Si4 0.724450 0.430123 0.515865
Si Si5 0.995317 0.922693 0.172634
Si Si6 0.553158 0.421686 0.231463
Si Si7 0.946308 0.926922 0.524515
O O1 0.783548 0.250000 0.336187
O O2 0.695322 0.474607 0.156434
O O3 0.759586 0.468309 0.440197
O O4 0.856033 0.508369 0.398108
O O5 0.603125 0.250000 0.003717
O O6 0.578574 0.428986 0.134091
O O7 0.532967 0.501707 0.874414
O O8 0.870948 0.250000 0.879295
O O9 0.786962 0.475701 0.694351
O O10 0.933583 0.434798 0.824845
O O11 0.915344 0.517965 0.005362
O O12 0.721965 0.250000 0.513914
O O13 0.632080 0.482884 0.399735
O O14 0.988773 0.750000 0.194943
O O15 0.018330 0.019628 0.309626
O O16 0.543928 0.250000 0.248130
O O17 0.946407 0.750000 0.516567
O O18 0.000000 0.000000 0.500000
#
# Coordination Sequence:
#
# PCOD9158659 Si02
#       7
#     4   4   4   4   4   4   4
#     4   9  16  30  46  61  84 117 152 186 226 268
#     4   8  14  23  37  55  81 114 145 178 219 261
#     4   9  16  28  47  67  91 121 153 186 223 270
#     4   8  13  24  42  62  87 121 152 181 219 263
#     4  10  19  32  48  66  90 118 150 189 230 269
#     4   8  13  21  35  55  82 115 149 178 210 255
#     4  12  24  36  50  67  88 116 153 193 233 273
#
# _framework density 15.574612999999999
#
# number of rings (size 3 to 8) (size 9 to 14) (size 15 to 20)
#    0.000    2.857    1.429    3.429    0.000    1.143 
#    0.000    2.857    0.000    0.000    0.000    0.000 
#    0.000    1.143    0.000    3.429    0.000    5.286 
#
# Total GULP energy -155877.222236 kJ/mol
# GULP energy per Si atom -5567.043651 kJ/mol
# Density = 1.553916 g / cm^3
# Si number density = 15.574613 Si / 1000 Ang^3
#
#
#
# Elastic Constant Matrix: (Units=GPa)
#
#
# Indices 1 2 3 4 5 6 
#
# 1 55.4505 34.8513 47.6158 0.0000 22.3420 0.0000
# 2 34.8513 62.2456 46.6576 0.0000 16.3136 0.0000
# 3 47.6158 46.6576 123.1621 0.0000 49.2953 0.0000
# 4 0.0000 0.0000 0.0000 26.0031 0.0000 5.4842
# 5 22.3420 16.3136 49.2953 0.0000 26.5800 0.0000
# 6 0.0000 0.0000 0.0000 5.4842 0.0000 17.6966
#
#
#
# Elastic Compliance Matrix: (Units=1/GPa)
#
#
# Indices 1 2 3 4 5 6 
#
# 1 0.035577 -0.014591 0.000613 0.000000 -0.022086 0.000000
# 2 -0.014591 0.028837 -0.012062 0.000000 0.016935 0.000000
# 3 0.000613 -0.012062 0.037621 0.000000 -0.062884 0.000000
# 4 0.000000 0.000000 0.000000 0.041146 0.000000 -0.012751
# 5 -0.022086 0.016935 -0.062884 0.000000 0.162418 0.000000
# 6 0.000000 0.000000 0.000000 -0.012751 0.000000 0.060460
#
#
# Mechanical properties :
#
#
# Convention : Reuss Voigt Hill
#
# Bulk Modulus (GPa) = 20.01752 55.45639 37.73696
# Shear Modulus (GPa) = 11.49978 21.50485 16.50231
#
# Velocity S-wave (km/s) = 2.72024 3.71989 3.25863
# Velocity P-wave (km/s) = 4.76936 7.35760 6.20005
#
# Compressibility (1/GPa) = 0.04995624
#
# Stress axis : x y z
#
# Youngs Moduli (GPa) = 28.10793 34.67714 26.58078
#
# Poissons Ratio (x) = 0.50596 -0.01628
# Poissons Ratio (y) = 0.41011 0.32061
# Poissons Ratio (z) = -0.01722 0.41827
#
# Static dielectric constant tensor:
#      x y z
#    x 1.499890 0.000000 0.029740 
#    y 0.000000 1.522060 0.000000 
#    z 0.029740 0.000000 1.548680 
# 
# From -- ./inp_files/42597.got.cif
#   From: 2010.05.17/outbox.cif.g08.bks.cpg/sg11_22_cif.got.tgz:42597.got - 2010.06.03 12:22:45.
