data_PCOD9158310
_publ_section_title
;
Structure prediction by ZEFSAII (Michael W. Deem and Ramdas Pophale) SiO2 
 PCOD9158310
Probable space group: P 21/M
;
_chemical_formula_sum "Si O2"
_cell_formula_units_Z 32
_cell_length_a 10.284274
_cell_length_b 8.907781
_cell_length_c 21.709271
_cell_angle_alpha 90.000000
_cell_angle_beta 72.754391
_cell_angle_gamma 90.000000
_cell_volume 1899.377044
_symmetry_space_group_name_H-M "P 21/M"
_symmetry_group_IT_number 11
_symmetry_cell_setting 'monoclinic'
loop_
_space_group_symop_operation_xyz
x,y,z
-x,1/2+y,-z
-x,-y,-z
x,1/2-y,z
loop_
_atom_site_type_symbol
_atom_site_label
_atom_site_fract_x
_atom_site_fract_y
_atom_site_fract_z
Si Si1 0.611890 0.924308 0.656560
Si Si2 0.579307 0.569357 0.072217
Si Si3 0.703463 0.927588 0.932654
Si Si4 0.383362 0.928708 0.474589
Si Si5 0.908972 0.929112 0.458450
Si Si6 0.813389 0.422947 0.802341
Si Si7 0.083249 0.425502 0.330544
Si Si8 0.507318 0.422689 0.787293
O O1 0.592196 0.750000 0.643384
O O2 0.767710 0.942272 0.658505
O O3 0.591884 0.026207 0.599877
O O4 0.516259 0.973133 0.726671
O O5 0.549478 0.750000 0.071930
O O6 0.447745 0.476650 0.068372
O O7 0.594369 0.536774 0.142591
O O8 0.698987 0.538349 0.006447
O O9 0.720298 0.750000 0.921818
O O10 0.804544 0.013094 0.872624
O O11 0.378425 0.750000 0.481982
O O12 0.500000 0.000000 0.500000
O O13 0.240199 0.001775 0.514000
O O14 0.905145 0.750000 0.465665
O O15 0.000000 0.000000 0.500000
O O16 0.978503 0.977284 0.384730
O O17 0.856013 0.250000 0.796052
O O18 0.900178 0.518503 0.741706
O O19 0.658067 0.428183 0.797467
O O20 0.047246 0.250000 0.338217
O O21 0.483776 0.250000 0.772018
#
# Coordination Sequence:
#
# PCOD9158310 Si02
#       8
#     4   4   4   4   4   4   4   4
#     4  10  19  31  48  70  96 124 161 204 250 300
#     4   8  14  22  31  46  71 105 147 190 233 283
#     4   9  14  20  31  47  71 106 147 190 234 283
#     4  12  25  41  59  78 104 135 169 210 258 310
#     4  12  23  37  57  81 106 134 169 210 255 303
#     4   9  16  25  36  54  82 115 152 194 241 290
#     4  10  19  31  49  72  97 125 163 207 249 294
#     4   8  14  24  37  54  79 112 152 194 240 287
#
# _framework density 16.847629000000001
#
# number of rings (size 3 to 8) (size 9 to 14) (size 15 to 20)
#    0.000    2.250    1.250    4.500    0.000    4.500 
#    0.000    0.000    0.000    0.000    0.000    0.000 
#    0.000    0.000    0.000    1.125    0.000   14.750 
#
# Total GULP energy -178334.157905 kJ/mol
# GULP energy per Si atom -5572.942435 kJ/mol
# Density = 1.680928 g / cm^3
# Si number density = 16.847629 Si / 1000 Ang^3
#
#
#
# Elastic Constant Matrix: (Units=GPa)
#
#
# Indices 1 2 3 4 5 6 
#
# 1 45.0120 34.3878 29.7773 0.0000 -3.8024 0.0000
# 2 34.3878 120.7333 58.8442 0.0000 -3.2654 0.0000
# 3 29.7773 58.8442 126.5860 0.0000 -17.0018 0.0000
# 4 0.0000 0.0000 0.0000 33.3491 0.0000 -3.3999
# 5 -3.8024 -3.2654 -17.0018 0.0000 6.0839 0.0000
# 6 0.0000 0.0000 0.0000 -3.3999 0.0000 14.0146
#
#
#
# Elastic Compliance Matrix: (Units=1/GPa)
#
#
# Indices 1 2 3 4 5 6 
#
# 1 0.030033 -0.006952 -0.002903 0.000000 0.006927 0.000000
# 2 -0.006952 0.013009 -0.006496 0.000000 -0.015516 0.000000
# 3 -0.002903 -0.006496 0.017434 0.000000 0.043420 0.000000
# 4 0.000000 0.000000 0.000000 0.030746 0.000000 0.007459
# 5 0.006927 -0.015516 0.043420 0.000000 0.281709 0.000000
# 6 0.000000 0.000000 0.000000 0.007459 0.000000 0.073163
#
#
# Mechanical properties :
#
#
# Convention : Reuss Voigt Hill
#
# Bulk Modulus (GPa) = 36.00398 59.81666 47.91032
# Shear Modulus (GPa) = 10.24475 21.97765 16.11120
#
# Velocity S-wave (km/s) = 2.46861 3.61570 3.09575
# Velocity P-wave (km/s) = 5.43527 7.28098 6.42475
#
# Compressibility (1/GPa) = 0.02777471
#
# Stress axis : x y z
#
# Youngs Moduli (GPa) = 33.29687 76.86808 57.35903
#
# Poissons Ratio (x) = 0.53439 0.16649
# Poissons Ratio (y) = 0.23148 0.37261
# Poissons Ratio (z) = 0.09665 0.49934
#
# Static dielectric constant tensor:
#      x y z
#    x 1.545320 0.000000 -0.010160 
#    y 0.000000 1.563950 0.000000 
#    z -0.010160 0.000000 1.618910 
# 
# From -- ./inp_files/63192.got.cif
#   From: 2010.05.17/outbox.cif.g08.bks.cpg/sg11_32_cif.got.tgz:63192.got - 2010.06.03 12:22:45.
