data_PCOD9158972
_publ_section_title
;
Structure prediction by ZEFSAII (Michael W. Deem and Ramdas Pophale) SiO2 
 PCOD9158972
Probable space group: P 21/M
;
_chemical_formula_sum "Si O2"
_cell_formula_units_Z 24
_cell_length_a 15.148471
_cell_length_b 7.634399
_cell_length_c 13.845741
_cell_angle_alpha 90.000000
_cell_angle_beta 141.536175
_cell_angle_gamma 90.000000
_cell_volume 996.011796
_symmetry_space_group_name_H-M "P 21/M"
_symmetry_group_IT_number 11
_symmetry_cell_setting 'monoclinic'
loop_
_space_group_symop_operation_xyz
x,y,z
-x,1/2+y,-z
-x,-y,-z
x,1/2-y,z
loop_
_atom_site_type_symbol
_atom_site_label
_atom_site_fract_x
_atom_site_fract_y
_atom_site_fract_z
Si Si1 0.719709 0.036626 0.151300
Si Si2 0.179077 0.449815 0.080885
Si Si3 0.786493 0.534392 0.679178
Si Si4 0.497162 0.550818 0.357101
Si Si5 0.431541 0.955338 0.789942
Si Si6 0.029832 0.949473 0.761390
O O1 0.719950 0.250000 0.148355
O O2 0.682795 0.982919 0.228785
O O3 0.866504 0.971887 0.230353
O O4 0.586064 0.977522 0.972262
O O5 0.130516 0.250000 0.029477
O O6 0.148224 0.518873 0.162136
O O7 0.350413 0.449984 0.225009
O O8 0.120731 0.552236 0.939058
O O9 0.786907 0.750000 0.679083
O O10 0.623708 0.478722 0.531319
O O11 0.882028 0.471634 0.671672
O O12 0.464150 0.750000 0.355976
O O13 0.564561 0.551217 0.307821
O O14 0.408695 0.750000 0.752235
O O15 0.000285 0.750000 0.706073
#
# Coordination Sequence:
#
# PCOD9158972 Si02
#       6
#     4   4   4   4   4   4
#     4   9  18  32  54  80 106 137 173 214 266 319
#     4  11  21  35  55  81 107 137 179 227 267 308
#     4   9  21  37  54  77 109 143 178 218 265 318
#     4  11  21  36  55  77 106 145 183 217 262 317
#     4  10  19  32  52  80 109 135 172 224 266 307
#     4  10  19  36  58  80 106 140 177 215 264 324
#
# _framework density 24.0961
#
# number of rings (size 3 to 8) (size 9 to 14) (size 15 to 20)
#    0.000    2.000    1.667    2.500    0.000    0.667 
#    0.000    5.833    0.000    0.000    0.000    0.000 
#    0.000    0.000    0.000    0.000    0.000    0.000 
#
# Total GULP energy -134167.775470 kJ/mol
# GULP energy per Si atom -5590.323978 kJ/mol
# Density = 2.404126 g / cm^3
# Si number density = 24.096100 Si / 1000 Ang^3
#
#
#
# Elastic Constant Matrix: (Units=GPa)
#
#
# Indices 1 2 3 4 5 6 
#
# 1 143.1413 11.9631 -7.3105 0.0000 18.6422 0.0000
# 2 11.9631 76.4494 1.7920 0.0000 -0.2890 0.0000
# 3 -7.3105 1.7920 42.4865 0.0000 15.6628 0.0000
# 4 0.0000 0.0000 0.0000 9.4133 0.0000 -0.0516
# 5 18.6422 -0.2890 15.6628 0.0000 42.7436 0.0000
# 6 0.0000 0.0000 0.0000 -0.0516 0.0000 20.9156
#
#
#
# Elastic Compliance Matrix: (Units=1/GPa)
#
#
# Indices 1 2 3 4 5 6 
#
# 1 0.007848 -0.001318 0.003088 0.000000 -0.004564 0.000000
# 2 -0.001318 0.013319 -0.001195 0.000000 0.001103 0.000000
# 3 0.003088 -0.001195 0.028463 0.000000 -0.011785 0.000000
# 4 0.000000 0.000000 0.000000 0.106234 0.000000 0.000262
# 5 -0.004564 0.001103 -0.011785 0.000000 0.029712 0.000000
# 6 0.000000 0.000000 0.000000 0.000262 0.000000 0.047812
#
#
# Mechanical properties :
#
#
# Convention : Reuss Voigt Hill
#
# Bulk Modulus (GPa) = 19.69215 30.55183 25.12199
# Shear Modulus (GPa) = 20.06710 31.65669 25.86190
#
# Velocity S-wave (km/s) = 2.88895 3.62853 3.27965
# Velocity P-wave (km/s) = 4.39524 5.50106 4.97894
#
# Compressibility (1/GPa) = 0.05078165
#
# Stress axis : x y z
#
# Youngs Moduli (GPa) = 127.41597 75.08105 35.13303
#
# Poissons Ratio (x) = 0.09894 -0.10850
# Poissons Ratio (y) = 0.16791 0.04198
# Poissons Ratio (z) = -0.39351 0.08972
#
# Static dielectric constant tensor:
#      x y z
#    x 1.980230 0.000000 0.023740 
#    y 0.000000 1.890840 0.000000 
#    z 0.023740 0.000000 1.893250 
# 
# From -- ./inp_files/20406.got.cif
#   From: 2010.05.17/outbox.cif.g08.bks.cpg/sg11_11_cif.got.tgz:20406.got - 2010.06.03 12:22:45.
