data_PCOD9158432
_publ_section_title
;
Structure prediction by ZEFSAII (Michael W. Deem and Ramdas Pophale) SiO2 
 PCOD9158432
Probable space group: P 21/M
;
_chemical_formula_sum "Si O2"
_cell_formula_units_Z 24
_cell_length_a 15.701055
_cell_length_b 8.829788
_cell_length_c 30.901464
_cell_angle_alpha 90.000000
_cell_angle_beta 160.847578
_cell_angle_gamma 90.000000
_cell_volume 1405.532873
_symmetry_space_group_name_H-M "P 21/M"
_symmetry_group_IT_number 11
_symmetry_cell_setting 'monoclinic'
loop_
_space_group_symop_operation_xyz
x,y,z
-x,1/2+y,-z
-x,-y,-z
x,1/2-y,z
loop_
_atom_site_type_symbol
_atom_site_label
_atom_site_fract_x
_atom_site_fract_y
_atom_site_fract_z
Si Si1 0.215129 0.430118 0.635305
Si Si2 0.747929 0.570478 0.856868
Si Si3 0.709813 0.068841 0.652848
Si Si4 0.036170 0.072155 0.403510
Si Si5 0.853858 0.428246 0.630914
Si Si6 0.350377 0.572272 0.280767
O O1 0.217019 0.250000 0.631272
O O2 0.491326 0.497786 0.754649
O O3 0.000000 0.500000 0.500000
O O4 0.133884 0.477869 0.644570
O O5 0.743500 0.750000 0.860367
O O6 0.740154 0.527794 0.802428
O O7 0.000000 0.500000 0.000000
O O8 0.642578 0.250000 0.618101
O O9 0.900288 0.037504 0.704049
O O10 0.790759 0.041593 0.741157
O O11 0.449873 0.971473 0.520942
O O12 0.982074 0.250000 0.382212
O O13 0.340963 0.049156 0.562337
O O14 0.003770 0.020331 0.338334
O O15 0.891398 0.250000 0.641710
O O16 0.316492 0.750000 0.253608
#
# Coordination Sequence:
#
# PCOD9158432 Si02
#       6
#     4   4   4   4   4   4
#     4  12  23  37  57  81 107 140 180 222 268 321
#     4  12  25  40  57  78 107 142 181 225 270 319
#     4   8  15  26  41  63  97 136 171 210 259 312
#     4  10  19  31  49  74 106 140 174 216 264 313
#     4   9  15  24  40  66  99 134 171 212 258 309
#     4   9  17  31  50  72 102 138 178 219 263 313
#
# _framework density 17.075375000000001
#
# number of rings (size 3 to 8) (size 9 to 14) (size 15 to 20)
#    0.000    2.000    1.667    5.000    0.000    3.333 
#    0.000    0.000    0.000    0.000    0.000    1.167 
#    0.000    0.000    0.000    0.000    0.000    0.000 
#
# Total GULP energy -133824.386675 kJ/mol
# GULP energy per Si atom -5576.016111 kJ/mol
# Density = 1.703651 g / cm^3
# Si number density = 17.075375 Si / 1000 Ang^3
#
#
#
# Elastic Constant Matrix: (Units=GPa)
#
#
# Indices 1 2 3 4 5 6 
#
# 1 138.5756 66.0066 42.9199 0.0000 -4.3267 0.0000
# 2 66.0066 120.6064 47.0713 0.0000 -3.8486 0.0000
# 3 42.9199 47.0713 63.3828 0.0000 4.9427 0.0000
# 4 0.0000 0.0000 0.0000 18.9686 0.0000 -1.2873
# 5 -4.3267 -3.8486 4.9427 0.0000 9.5188 0.0000
# 6 0.0000 0.0000 0.0000 -1.2873 0.0000 33.7663
#
#
#
# Elastic Compliance Matrix: (Units=1/GPa)
#
#
# Indices 1 2 3 4 5 6 
#
# 1 0.010715 -0.003751 -0.004931 0.000000 0.005915 0.000000
# 2 -0.003751 0.013898 -0.008428 0.000000 0.008291 0.000000
# 3 -0.004931 -0.008428 0.026906 0.000000 -0.019620 0.000000
# 4 0.000000 0.000000 0.000000 0.052856 0.000000 0.002015
# 5 0.005915 0.008291 -0.019620 0.000000 0.121284 0.000000
# 6 0.000000 0.000000 0.000000 0.002015 0.000000 0.029692
#
#
# Mechanical properties :
#
#
# Convention : Reuss Voigt Hill
#
# Bulk Modulus (GPa) = 57.80971 70.50671 64.15821
# Shear Modulus (GPa) = 16.92979 23.55518 20.24249
#
# Velocity S-wave (km/s) = 3.15218 3.71817 3.44681
# Velocity P-wave (km/s) = 6.86858 7.73396 7.31408
#
# Compressibility (1/GPa) = 0.01729813
#
# Stress axis : x y z
#
# Youngs Moduli (GPa) = 93.32843 71.95188 37.16689
#
# Poissons Ratio (x) = 0.26987 0.18328
# Poissons Ratio (y) = 0.35005 0.31325
# Poissons Ratio (z) = 0.46023 0.60643
#
# Static dielectric constant tensor:
#      x y z
#    x 1.635610 0.000000 -0.012730 
#    y 0.000000 1.572480 0.000000 
#    z -0.012730 0.000000 1.537490 
# 
# From -- ./inp_files/46503.got.cif
#   From: 2010.05.17/outbox.cif.g08.bks.cpg/sg11_24_cif.got.tgz:46503.got - 2010.06.03 12:22:45.
