data_PCOD9158746
_publ_section_title
;
Structure prediction by ZEFSAII (Michael W. Deem and Ramdas Pophale) SiO2 
 PCOD9158746
Probable space group: P 21/M
;
_chemical_formula_sum "Si O2"
_cell_formula_units_Z 32
_cell_length_a 11.345679
_cell_length_b 7.838125
_cell_length_c 20.239089
_cell_angle_alpha 90.000000
_cell_angle_beta 59.373488
_cell_angle_gamma 90.000000
_cell_volume 1548.772887
_symmetry_space_group_name_H-M "P 21/M"
_symmetry_group_IT_number 11
_symmetry_cell_setting 'monoclinic'
loop_
_space_group_symop_operation_xyz
x,y,z
-x,1/2+y,-z
-x,-y,-z
x,1/2-y,z
loop_
_atom_site_type_symbol
_atom_site_label
_atom_site_fract_x
_atom_site_fract_y
_atom_site_fract_z
Si Si1 0.225250 0.051146 0.966021
Si Si2 0.433806 0.543478 0.417062
Si Si3 0.459849 0.959419 0.121004
Si Si4 0.712520 0.455322 0.411433
Si Si5 0.230590 0.551645 0.824635
Si Si6 0.945375 0.043282 0.250523
Si Si7 0.789782 0.449377 0.889538
Si Si8 0.542460 0.051942 0.733996
O O1 0.229314 0.250000 0.948871
O O2 0.382349 0.988142 0.931968
O O3 0.169616 0.963794 0.915876
O O4 0.159269 0.029184 0.056417
O O5 0.426609 0.750000 0.417040
O O6 0.585996 0.498739 0.399156
O O7 0.330481 0.481465 0.503638
O O8 0.411484 0.476710 0.349295
O O9 0.457836 0.750000 0.120862
O O10 0.354712 0.020436 0.095586
O O11 0.414267 0.019143 0.207204
O O12 0.719404 0.250000 0.412815
O O13 0.853503 0.515274 0.338415
O O14 0.260125 0.750000 0.803170
O O15 0.135080 0.488836 0.793057
O O16 0.376667 0.457885 0.782201
O O17 0.951177 0.250000 0.249351
O O18 0.097959 0.975955 0.199206
O O19 0.773828 0.250000 0.907052
O O20 0.583627 0.250000 0.722319
#
# Coordination Sequence:
#
# PCOD9158746 Si02
#       8
#     4   4   4   4   4   4   4   4
#     4  10  20  36  56  75  98 123 154 204 255 296
#     4   9  16  26  48  77 101 127 161 197 240 290
#     4   8  17  33  52  74  98 124 158 204 248 286
#     4   9  17  30  46  70 103 134 161 196 238 285
#     4  10  19  32  50  73 100 131 163 197 241 290
#     4  10  21  35  49  67 101 139 166 197 239 288
#     4  11  22  35  52  72  94 127 170 206 241 289
#     4   9  16  29  50  76 103 127 157 200 249 294
#
# _framework density 20.661519999999999
#
# number of rings (size 3 to 8) (size 9 to 14) (size 15 to 20)
#    0.000    2.500    1.250    2.250    0.000    2.000 
#    0.000    5.625    0.000    0.750    0.000    0.000 
#    0.000    0.000    0.000    0.000    0.000    0.125 
#
# Total GULP energy -178508.497149 kJ/mol
# GULP energy per Si atom -5578.390536 kJ/mol
# Density = 2.061449 g / cm^3
# Si number density = 20.661520 Si / 1000 Ang^3
#
#
#
# Elastic Constant Matrix: (Units=GPa)
#
#
# Indices 1 2 3 4 5 6 
#
# 1 24.9333 -1.6112 1.7675 0.0000 4.3573 0.0000
# 2 -1.6112 29.5146 -2.6942 0.0000 0.5244 0.0000
# 3 1.7675 -2.6942 116.8233 0.0000 9.4852 0.0000
# 4 0.0000 0.0000 0.0000 16.4105 0.0000 -1.6480
# 5 4.3573 0.5244 9.4852 0.0000 28.6253 0.0000
# 6 0.0000 0.0000 0.0000 -1.6480 0.0000 11.6005
#
#
#
# Elastic Compliance Matrix: (Units=1/GPa)
#
#
# Indices 1 2 3 4 5 6 
#
# 1 0.041369 0.002365 -0.000058 0.000000 -0.006321 0.000000
# 2 0.002365 0.034111 0.000854 0.000000 -0.001268 0.000000
# 3 -0.000058 0.000854 0.008818 0.000000 -0.002929 0.000000
# 4 0.000000 0.000000 0.000000 0.061819 0.000000 0.008782
# 5 -0.006321 -0.001268 -0.002929 0.000000 0.036890 0.000000
# 6 0.000000 0.000000 0.000000 0.008782 0.000000 0.087451
#
#
# Mechanical properties :
#
#
# Convention : Reuss Voigt Hill
#
# Bulk Modulus (GPa) = 11.03505 18.46614 14.75059
# Shear Modulus (GPa) = 16.98702 22.91453 19.95078
#
# Velocity S-wave (km/s) = 2.87044 3.33384 3.11078
# Velocity P-wave (km/s) = 4.04207 4.87609 4.47854
#
# Compressibility (1/GPa) = 0.09062033
#
# Stress axis : x y z
#
# Youngs Moduli (GPa) = 24.17288 29.31591 113.40049
#
# Poissons Ratio (x) = -0.06934 0.00659
# Poissons Ratio (y) = -0.05718 -0.09683
# Poissons Ratio (z) = 0.00140 -0.02503
#
# Static dielectric constant tensor:
#      x y z
#    x 1.715340 0.000000 0.009080 
#    y 0.000000 1.756160 0.000000 
#    z 0.009080 0.000000 1.801800 
# 
# From -- ./inp_files/58691.got.cif
#   From: 2010.05.17/outbox.cif.g08.bks.cpg/sg11_30_cif.got.tgz:58691.got - 2010.06.03 12:22:45.
