data_PCOD9158886
_publ_section_title
;
Structure prediction by ZEFSAII (Michael W. Deem and Ramdas Pophale) SiO2 
 PCOD9158886
Probable space group: P 21/M
;
_chemical_formula_sum "Si O2"
_cell_formula_units_Z 32
_cell_length_a 8.218310
_cell_length_b 13.765359
_cell_length_c 14.366367
_cell_angle_alpha 90.000000
_cell_angle_beta 121.197083
_cell_angle_gamma 90.000000
_cell_volume 1390.213520
_symmetry_space_group_name_H-M "P 21/M"
_symmetry_group_IT_number 11
_symmetry_cell_setting 'monoclinic'
loop_
_space_group_symop_operation_xyz
x,y,z
-x,1/2+y,-z
-x,-y,-z
x,1/2-y,z
loop_
_atom_site_type_symbol
_atom_site_label
_atom_site_fract_x
_atom_site_fract_y
_atom_site_fract_z
Si Si1 0.537825 0.868252 0.049419
Si Si2 0.897096 0.639122 0.901675
Si Si3 0.032190 0.134491 0.866932
Si Si4 0.449566 0.361168 0.741795
Si Si5 0.103764 0.054237 0.398876
Si Si6 0.027851 0.144430 0.566878
Si Si7 0.796361 0.363334 0.173370
Si Si8 0.693788 0.501138 0.712221
O O1 0.530097 0.750000 0.043682
O O2 0.756413 0.894755 0.100038
O O3 0.469971 0.891702 0.133630
O O4 0.403934 0.901256 0.925268
O O5 0.829145 0.750000 0.891093
O O6 0.732647 0.574123 0.808840
O O7 0.065562 0.636114 0.875931
O O8 0.975208 0.611378 0.025472
O O9 0.008638 0.250000 0.846430
O O10 0.869465 0.075213 0.767466
O O11 0.512764 0.250000 0.740322
O O12 0.222340 0.358045 0.683227
O O13 0.511650 0.436943 0.681627
O O14 0.908600 0.077298 0.284657
O O15 0.099681 0.129016 0.482562
O O16 0.097109 0.947029 0.441326
O O17 0.275291 0.057446 0.375374
O O18 0.936837 0.250000 0.551285
O O19 0.777852 0.250000 0.197577
#
# Coordination Sequence:
#
# PCOD9158886 Si02
#       8
#     4   4   4   4   4   4   4   4
#     4   9  18  32  53  83 119 153 183 219 268 328
#     4   9  19  34  50  72 108 153 193 225 264 319
#     4  10  19  32  51  79 116 154 188 223 269 325
#     4  10  21  37  58  84 114 149 184 223 274 329
#     4  10  22  38  60  86 108 141 187 230 277 331
#     4  10  22  42  63  82 110 144 182 229 278 330
#     4   9  17  33  56  82 114 149 185 226 271 322
#     4  11  21  34  55  82 111 143 186 232 275 324
#
# _framework density 23.018046999999999
#
# number of rings (size 3 to 8) (size 9 to 14) (size 15 to 20)
#    0.000    2.250    0.000    2.625    0.000    7.000 
#    0.000    3.750    0.000    3.000    0.000    0.000 
#    0.000    0.000    0.000    0.000    0.000    0.000 
#
# Total GULP energy -178929.872726 kJ/mol
# GULP energy per Si atom -5591.558523 kJ/mol
# Density = 2.296566 g / cm^3
# Si number density = 23.018047 Si / 1000 Ang^3
#
#
#
# Elastic Constant Matrix: (Units=GPa)
#
#
# Indices 1 2 3 4 5 6 
#
# 1 21.5098 1.9557 -3.4943 0.0000 -1.6317 0.0000
# 2 1.9557 68.6991 6.2572 0.0000 -6.8078 0.0000
# 3 -3.4943 6.2572 59.0778 0.0000 -14.0971 0.0000
# 4 0.0000 0.0000 0.0000 20.8724 0.0000 0.9181
# 5 -1.6317 -6.8078 -14.0971 0.0000 24.2181 0.0000
# 6 0.0000 0.0000 0.0000 0.9181 0.0000 26.7490
#
#
#
# Elastic Compliance Matrix: (Units=1/GPa)
#
#
# Indices 1 2 3 4 5 6 
#
# 1 0.047691 -0.001214 0.004221 0.000000 0.005329 0.000000
# 2 -0.001214 0.015027 -0.000784 0.000000 0.003686 0.000000
# 3 0.004221 -0.000784 0.020061 0.000000 0.011741 0.000000
# 4 0.000000 0.000000 0.000000 0.047983 0.000000 -0.001647
# 5 0.005329 0.003686 0.011741 0.000000 0.049521 0.000000
# 6 0.000000 0.000000 0.000000 -0.001647 0.000000 0.037441
#
#
# Mechanical properties :
#
#
# Convention : Reuss Voigt Hill
#
# Bulk Modulus (GPa) = 11.46451 17.63598 14.55025
# Shear Modulus (GPa) = 20.63103 24.00578 22.31840
#
# Velocity S-wave (km/s) = 2.99707 3.23292 3.11723
# Velocity P-wave (km/s) = 4.11923 4.64910 4.39216
#
# Compressibility (1/GPa) = 0.08722571
#
# Stress axis : x y z
#
# Youngs Moduli (GPa) = 20.96841 66.54477 49.84734
#
# Poissons Ratio (x) = 0.08079 -0.21040
# Poissons Ratio (y) = 0.02546 0.03907
# Poissons Ratio (z) = -0.08851 0.05216
#
# Static dielectric constant tensor:
#      x y z
#    x 1.846880 0.000000 -0.010100 
#    y 0.000000 1.895620 0.000000 
#    z -0.010100 0.000000 1.871150 
# 
# From -- ./inp_files/26852.got.cif
#   From: 2010.05.17/outbox.cif.g08.bks.cpg/sg11_14_cif.got.tgz:26852.got - 2010.06.03 12:22:45.
