data_PCOD9158527
_publ_section_title
;
Structure prediction by ZEFSAII (Michael W. Deem and Ramdas Pophale) SiO2 
 PCOD9158527
Probable space group: P 21/M
;
_chemical_formula_sum "Si O2"
_cell_formula_units_Z 32
_cell_length_a 13.239391
_cell_length_b 11.491071
_cell_length_c 26.326672
_cell_angle_alpha 90.000000
_cell_angle_beta 154.513039
_cell_angle_gamma 90.000000
_cell_volume 1723.461392
_symmetry_space_group_name_H-M "P 21/M"
_symmetry_group_IT_number 11
_symmetry_cell_setting 'monoclinic'
loop_
_space_group_symop_operation_xyz
x,y,z
-x,1/2+y,-z
-x,-y,-z
x,1/2-y,z
loop_
_atom_site_type_symbol
_atom_site_label
_atom_site_fract_x
_atom_site_fract_y
_atom_site_fract_z
Si Si1 0.564471 0.375518 0.971978
Si Si2 0.719135 0.121978 0.612166
Si Si3 0.593172 0.003574 0.454673
Si Si4 0.805433 0.385550 0.972149
Si Si5 0.147269 0.551811 0.805143
Si Si6 0.655322 0.616520 0.750613
Si Si7 0.059243 0.878524 0.653078
Si Si8 0.461345 0.388236 0.190927
O O1 0.449546 0.250000 0.926274
O O2 0.773391 0.384880 0.107775
O O3 0.668167 0.384821 0.963115
O O4 0.369052 0.470979 0.892594
O O5 0.818515 0.250000 0.662338
O O6 0.517308 0.100411 0.561989
O O7 0.620922 0.102114 0.510712
O O8 0.917999 0.025466 0.710643
O O9 0.849660 0.969533 0.550682
O O10 0.427377 0.037386 0.333070
O O11 0.780549 0.250000 0.939658
O O12 0.708640 0.501858 0.899892
O O13 0.079062 0.402282 0.109586
O O14 0.104690 0.622163 0.734320
O O15 0.639248 0.750000 0.725755
O O16 0.500509 0.603706 0.731263
O O17 0.982354 0.750000 0.601710
O O18 0.300599 0.904739 0.733224
O O19 0.383032 0.250000 0.146264
#
# Coordination Sequence:
#
# PCOD9158527 Si02
#       8
#     4   4   4   4   4   4   4   4
#     4  10  19  31  50  77 109 141 180 224 272 331
#     4  10  20  35  54  78 108 140 179 226 273 331
#     4  10  21  36  56  81 108 144 186 223 278 335
#     4  10  20  37  58  84 114 147 187 234 289 341
#     4  10  19  32  51  77 109 143 184 219 275 330
#     4  10  21  38  60  82 111 145 186 236 282 335
#     4  10  20  36  56  78 113 151 187 231 280 332
#     4  10  21  39  60  84 112 149 192 236 286 337
#
# _framework density 18.567284999999998
#
# number of rings (size 3 to 8) (size 9 to 14) (size 15 to 20)
#    0.000    2.000    1.250    2.625    0.000    0.500 
#    0.000    8.750    0.000    0.000    0.000    0.000 
#    0.000    0.000    0.000    0.000    0.000    0.000 
#
# Total GULP energy -178250.011208 kJ/mol
# GULP energy per Si atom -5570.312850 kJ/mol
# Density = 1.852503 g / cm^3
# Si number density = 18.567285 Si / 1000 Ang^3
#
#
#
# Elastic Constant Matrix: (Units=GPa)
#
#
# Indices 1 2 3 4 5 6 
#
# 1 44.9586 32.3159 28.6714 0.0000 -6.0452 0.0000
# 2 32.3159 100.3121 33.8785 0.0000 -5.8007 0.0000
# 3 28.6714 33.8785 56.5292 0.0000 0.7309 0.0000
# 4 0.0000 0.0000 0.0000 -57.9711 0.0000 -50.0619
# 5 -6.0452 -5.8007 0.7309 0.0000 20.6036 0.0000
# 6 0.0000 0.0000 0.0000 -50.0619 0.0000 -27.6595
#
#
#
# Elastic Compliance Matrix: (Units=1/GPa)
#
#
# Indices 1 2 3 4 5 6 
#
# 1 0.038181 -0.006446 -0.015631 0.000000 0.009942 0.000000
# 2 -0.006446 0.013889 -0.005083 0.000000 0.002199 0.000000
# 3 -0.015631 -0.005083 0.028755 0.000000 -0.007037 0.000000
# 4 0.000000 0.000000 0.000000 0.030639 0.000000 -0.055455
# 5 0.009942 0.002199 -0.007037 0.000000 0.052321 0.000000
# 6 0.000000 0.000000 0.000000 -0.055455 0.000000 0.064217
#
#
# Mechanical properties :
#
#
# Convention : Reuss Voigt Hill
#
# Bulk Modulus (GPa) = 37.72743 43.50350 40.61546
# Shear Modulus (GPa) = 17.17281 -5.87648 5.64817
#
# Velocity S-wave (km/s) = 3.04451 -1.78096 1.74602
# Velocity P-wave (km/s) = 5.72033 4.38770 5.09775
#
# Compressibility (1/GPa) = 0.02650592
#
# Stress axis : x y z
#
# Youngs Moduli (GPa) = 26.19084 71.99700 34.77653
#
# Poissons Ratio (x) = 0.46412 0.54358
# Poissons Ratio (y) = 0.16884 0.17677
# Poissons Ratio (z) = 0.40938 0.36596
#
# Static dielectric constant tensor:
#      x y z
#    x 1.634820 0.000000 0.013570 
#    y 0.000000 1.687110 0.000000 
#    z 0.013570 0.000000 1.634430 
# 
# From -- ./inp_files/68601.got.cif
#   From: 2010.05.17/outbox.cif.g08.bks.cpg/sg11_35_cif.got.tgz:68601.got - 2010.06.03 12:22:45.
