data_PCOD9158750
_publ_section_title
;
Structure prediction by ZEFSAII (Michael W. Deem and Ramdas Pophale) SiO2 
 PCOD9158750
Probable space group: P 21/M
;
_chemical_formula_sum "Si O2"
_cell_formula_units_Z 28
_cell_length_a 16.193602
_cell_length_b 11.901331
_cell_length_c 14.344724
_cell_angle_alpha 90.000000
_cell_angle_beta 26.807903
_cell_angle_gamma 90.000000
_cell_volume 1246.833215
_symmetry_space_group_name_H-M "P 21/M"
_symmetry_group_IT_number 11
_symmetry_cell_setting 'monoclinic'
loop_
_space_group_symop_operation_xyz
x,y,z
-x,1/2+y,-z
-x,-y,-z
x,1/2-y,z
loop_
_atom_site_type_symbol
_atom_site_label
_atom_site_fract_x
_atom_site_fract_y
_atom_site_fract_z
Si Si1 0.406704 0.549982 0.378032
Si Si2 0.719255 0.377777 0.014440
Si Si3 0.519884 0.367255 0.889994
Si Si4 0.793225 0.493201 0.742891
Si Si5 0.817282 0.875609 0.163145
Si Si6 0.124179 0.371769 0.674643
Si Si7 0.247403 0.621559 0.730534
O O1 0.450787 0.631640 0.249506
O O2 0.227269 0.478164 0.530927
O O3 0.368569 0.606652 0.515544
O O4 0.568758 0.458907 0.209776
O O5 0.653057 0.250000 0.081988
O O6 0.767437 0.415000 0.860167
O O7 0.908041 0.383609 0.881156
O O8 0.570569 0.250000 0.882949
O O9 0.660074 0.453953 0.794147
O O10 0.307803 0.393318 0.123066
O O11 0.000000 0.500000 0.500000
O O12 0.747767 0.750000 0.201479
O O13 0.821072 0.869520 0.271978
O O14 0.732137 0.001508 0.234316
O O15 0.031836 0.880298 0.918809
O O16 0.174441 0.250000 0.582321
O O17 0.279403 0.750000 0.737838
#
# Coordination Sequence:
#
# PCOD9158750 Si02
#       7
#     4   4   4   4   4   4   4
#     4  10  19  32  50  73 102 133 167 206 252 302
#     4  10  20  33  51  75 100 129 169 212 253 304
#     4  10  21  35  52  75 101 130 166 206 252 309
#     4  10  21  37  54  74 100 130 166 210 258 309
#     4   8  15  28  48  75 103 133 172 213 252 300
#     4   9  17  31  51  73 100 133 168 209 253 294
#     4   9  16  28  49  74 102 137 171 207 255 306
#
# _framework density 22.456893000000001
#
# number of rings (size 3 to 8) (size 9 to 14) (size 15 to 20)
#    0.000    2.571    0.000    2.143    0.000    1.714 
#    0.000    4.286    0.000   12.000    0.000    0.000 
#    0.000    0.000    0.000    0.000    0.000    0.000 
#
# Total GULP energy -156073.495688 kJ/mol
# GULP energy per Si atom -5574.053417 kJ/mol
# Density = 2.240578 g / cm^3
# Si number density = 22.456893 Si / 1000 Ang^3
#
#
#
# Elastic Constant Matrix: (Units=GPa)
#
#
# Indices 1 2 3 4 5 6 
#
# 1 37.7368 21.4028 16.3958 0.0000 10.9927 0.0000
# 2 21.4028 167.6063 43.4714 0.0000 6.2614 0.0000
# 3 16.3958 43.4714 137.4676 0.0000 11.6173 0.0000
# 4 0.0000 0.0000 0.0000 -36.4859 0.0000 -16.8237
# 5 10.9927 6.2614 11.6173 0.0000 28.4321 0.0000
# 6 0.0000 0.0000 0.0000 -16.8237 0.0000 -5.5517
#
#
#
# Elastic Compliance Matrix: (Units=1/GPa)
#
#
# Indices 1 2 3 4 5 6 
#
# 1 0.032370 -0.003227 -0.001909 0.000000 -0.011025 0.000000
# 2 -0.003227 0.006831 -0.001816 0.000000 0.000485 0.000000
# 3 -0.001909 -0.001816 0.008266 0.000000 -0.002239 0.000000
# 4 0.000000 0.000000 0.000000 0.068984 0.000000 -0.209047
# 5 -0.011025 0.000485 -0.002239 0.000000 0.040242 0.000000
# 6 0.000000 0.000000 0.000000 -0.209047 0.000000 0.453364
#
#
# Mechanical properties :
#
#
# Convention : Reuss Voigt Hill
#
# Bulk Modulus (GPa) = 29.79418 56.15009 42.97213
# Shear Modulus (GPa) = 7.87217 14.71494 11.29355
#
# Velocity S-wave (km/s) = 1.87432 2.56257 2.24497
# Velocity P-wave (km/s) = 4.24030 5.81493 5.08889
#
# Compressibility (1/GPa) = 0.03356360
#
# Stress axis : x y z
#
# Youngs Moduli (GPa) = 30.89268 146.38297 120.98101
#
# Poissons Ratio (x) = 0.47233 0.23092
# Poissons Ratio (y) = 0.09968 0.21976
# Poissons Ratio (z) = 0.05897 0.26590
#
# Static dielectric constant tensor:
#      x y z
#    x 1.811210 0.000000 0.013430 
#    y 0.000000 1.914450 0.000000 
#    z 0.013430 0.000000 1.828020 
# 
# From -- ./inp_files/61473.got.cif
#   From: 2010.05.17/outbox.cif.g08.bks.cpg/sg11_31_cif.got.tgz:61473.got - 2010.06.03 12:22:45.
