data_PCOD9158398
_publ_section_title
;
Structure prediction by ZEFSAII (Michael W. Deem and Ramdas Pophale) SiO2 
 PCOD9158398
Probable space group: P 21/M
;
_chemical_formula_sum "Si O2"
_cell_formula_units_Z 28
_cell_length_a 18.936154
_cell_length_b 8.975346
_cell_length_c 11.828532
_cell_angle_alpha 90.000000
_cell_angle_beta 128.263994
_cell_angle_gamma 90.000000
_cell_volume 1578.465682
_symmetry_space_group_name_H-M "P 21/M"
_symmetry_group_IT_number 11
_symmetry_cell_setting 'monoclinic'
loop_
_space_group_symop_operation_xyz
x,y,z
-x,1/2+y,-z
-x,-y,-z
x,1/2-y,z
loop_
_atom_site_type_symbol
_atom_site_label
_atom_site_fract_x
_atom_site_fract_y
_atom_site_fract_z
Si Si1 0.251125 0.070974 0.119763
Si Si2 0.383988 0.420201 0.442344
Si Si3 0.096353 0.572145 0.118968
Si Si4 0.692630 0.075024 0.292686
Si Si5 0.202302 0.080117 0.415537
Si Si6 0.512825 0.076313 0.265761
Si Si7 0.665153 0.428082 0.004584
O O1 0.241829 0.250000 0.114901
O O2 0.342201 0.032893 0.281022
O O3 0.168209 0.994445 0.101096
O O4 0.264861 0.009914 0.008218
O O5 0.417141 0.250000 0.469125
O O6 0.294118 0.419532 0.431962
O O7 0.454174 0.522563 0.577983
O O8 0.093232 0.750000 0.108003
O O9 0.133016 0.521244 0.278020
O O10 0.000000 0.500000 0.000000
O O11 0.716254 0.250000 0.320451
O O12 0.598767 0.059784 0.267827
O O13 0.767459 0.982496 0.433895
O O14 0.679095 0.031225 0.149409
O O15 0.169913 0.250000 0.388986
O O16 0.486760 0.250000 0.243916
O O17 0.432606 0.980605 0.134538
O O18 0.672898 0.250000 0.001285
#
# Coordination Sequence:
#
# PCOD9158398 Si02
#       7
#     4   4   4   4   4   4   4
#     4  10  21  37  54  76 105 136 173 213 260 316
#     4   8  16  31  49  69  97 131 168 214 261 308
#     4  11  21  36  60  87 112 135 163 203 252 307
#     4   9  19  34  51  73 102 139 183 223 259 304
#     4   9  17  31  53  80 106 134 170 211 256 303
#     4  10  19  31  49  72  98 133 180 228 266 303
#     4  11  22  34  49  71 103 142 180 220 265 310
#
# _framework density 17.738745000000002
#
# number of rings (size 3 to 8) (size 9 to 14) (size 15 to 20)
#    0.000    2.286    0.000    4.286    0.000    6.286 
#    0.000    0.000    0.000    0.857    0.000    0.000 
#    0.000    0.000    0.000    0.000    0.000    0.000 
#
# Total GULP energy -156324.891713 kJ/mol
# GULP energy per Si atom -5583.031847 kJ/mol
# Density = 1.769837 g / cm^3
# Si number density = 17.738745 Si / 1000 Ang^3
#
#
#
# Elastic Constant Matrix: (Units=GPa)
#
#
# Indices 1 2 3 4 5 6 
#
# 1 59.3053 46.3669 49.1802 0.0000 -5.4991 0.0000
# 2 46.3669 105.9301 64.0665 0.0000 1.1452 0.0000
# 3 49.1802 64.0665 108.4434 0.0000 -9.1033 0.0000
# 4 0.0000 0.0000 0.0000 32.3638 0.0000 1.2375
# 5 -5.4991 1.1452 -9.1033 0.0000 32.3966 0.0000
# 6 0.0000 0.0000 0.0000 1.2375 0.0000 24.5933
#
#
#
# Elastic Compliance Matrix: (Units=1/GPa)
#
#
# Indices 1 2 3 4 5 6 
#
# 1 0.030957 -0.008162 -0.008963 0.000000 0.003024 0.000000
# 2 -0.008162 0.017136 -0.006749 0.000000 -0.003888 0.000000
# 3 -0.008963 -0.006749 0.017581 0.000000 0.003657 0.000000
# 4 0.000000 0.000000 0.000000 0.030958 0.000000 -0.001558
# 5 0.003024 -0.003888 0.003657 0.000000 0.032546 0.000000
# 6 0.000000 0.000000 0.000000 -0.001558 0.000000 0.040740
#
#
# Mechanical properties :
#
#
# Convention : Reuss Voigt Hill
#
# Bulk Modulus (GPa) = 55.78631 65.87846 60.83239
# Shear Modulus (GPa) = 22.35732 25.47509 23.91620
#
# Velocity S-wave (km/s) = 3.55402 3.79374 3.67583
# Velocity P-wave (km/s) = 6.95403 7.51057 7.23765
#
# Compressibility (1/GPa) = 0.01792554
#
# Stress axis : x y z
#
# Youngs Moduli (GPa) = 32.30336 58.35541 56.88116
#
# Poissons Ratio (x) = 0.47628 0.50985
# Poissons Ratio (y) = 0.26365 0.38388
# Poissons Ratio (z) = 0.28955 0.39383
#
# Static dielectric constant tensor:
#      x y z
#    x 1.621450 0.000000 -0.015510 
#    y 0.000000 1.595340 0.000000 
#    z -0.015510 0.000000 1.593060 
# 
# From -- ./inp_files/42621.got.cif
#   From: 2010.05.17/outbox.cif.g08.bks.cpg/sg11_22_cif.got.tgz:42621.got - 2010.06.03 12:22:45.
