data_PCOD9158239
_publ_section_title
;
Structure prediction by ZEFSAII (Michael W. Deem and Ramdas Pophale) SiO2 
 PCOD9158239
Probable space group: P 21/M
;
_chemical_formula_sum "Si O2"
_cell_formula_units_Z 32
_cell_length_a 21.563415
_cell_length_b 19.218748
_cell_length_c 5.137673
_cell_angle_alpha 90.000000
_cell_angle_beta 120.861033
_cell_angle_gamma 90.000000
_cell_volume 1827.704025
_symmetry_space_group_name_H-M "P 21/M"
_symmetry_group_IT_number 11
_symmetry_cell_setting 'monoclinic'
loop_
_space_group_symop_operation_xyz
x,y,z
-x,1/2+y,-z
-x,-y,-z
x,1/2-y,z
loop_
_atom_site_type_symbol
_atom_site_label
_atom_site_fract_x
_atom_site_fract_y
_atom_site_fract_z
Si Si1 0.484600 0.827902 0.426668
Si Si2 0.418828 0.970404 0.282905
Si Si3 0.969428 0.669673 0.423904
Si Si4 0.416112 0.171870 0.861602
Si Si5 0.966380 0.576794 0.904987
Si Si6 0.342569 0.471850 0.617266
Si Si7 0.205344 0.413479 0.482121
Si Si8 0.203781 0.172908 0.966549
O O1 0.455921 0.750000 0.399120
O O2 0.426630 0.887994 0.332618
O O3 0.546912 0.837597 0.777964
O O4 0.521746 0.833300 0.224416
O O5 0.500000 0.000000 0.500000
O O6 0.366633 0.002399 0.387613
O O7 0.390295 0.989449 0.936790
O O8 0.996613 0.750000 0.476534
O O9 0.993548 0.621641 0.716522
O O10 0.882444 0.676134 0.267277
O O11 0.981368 0.625417 0.187800
O O12 0.385339 0.250000 0.780318
O O13 0.362569 0.109526 0.688492
O O14 0.879267 0.567616 0.690465
O O15 0.000000 0.500000 0.000000
O O16 0.258098 0.474898 0.503623
O O17 0.231054 0.382332 0.813644
O O18 0.211246 0.353795 0.275070
O O19 0.234753 0.250000 0.995848
#
# Coordination Sequence:
#
# PCOD9158239 Si02
#       8
#     4   4   4   4   4   4   4   4
#     4  10  20  34  51  72  94 121 161 206 245 292
#     4  12  21  35  56  73  97 132 168 209 252 301
#     4   9  17  30  50  77 105 135 176 217 251 306
#     4  10  19  31  46  69 100 128 154 192 240 290
#     4  10  19  33  53  77 106 144 177 219 263 309
#     4  12  22  34  50  75 101 134 170 208 252 297
#     4  10  21  33  47  74 106 135 177 212 252 307
#     4   9  17  31  49  68 100 142 174 200 238 297
#
# _framework density 17.508305
#
# number of rings (size 3 to 8) (size 9 to 14) (size 15 to 20)
#    0.000    1.750    2.500    3.000    0.000    4.000 
#    0.000    1.250    0.000    0.000    0.000    5.250 
#    0.000    0.000    0.000    0.000    0.000    0.000 
#
# Total GULP energy -178560.598546 kJ/mol
# GULP energy per Si atom -5580.018705 kJ/mol
# Density = 1.746846 g / cm^3
# Si number density = 17.508305 Si / 1000 Ang^3
#
#
#
# Elastic Constant Matrix: (Units=GPa)
#
#
# Indices 1 2 3 4 5 6 
#
# 1 43.7203 16.4524 9.1658 0.0000 -4.5079 0.0000
# 2 16.4524 113.8974 16.9951 0.0000 10.6165 0.0000
# 3 9.1658 16.9951 32.4410 0.0000 -6.6882 0.0000
# 4 0.0000 0.0000 0.0000 15.6253 0.0000 -5.2507
# 5 -4.5079 10.6165 -6.6882 0.0000 23.5119 0.0000
# 6 0.0000 0.0000 0.0000 -5.2507 0.0000 19.9179
#
#
#
# Elastic Compliance Matrix: (Units=1/GPa)
#
#
# Indices 1 2 3 4 5 6 
#
# 1 0.025659 -0.003561 -0.004290 0.000000 0.005307 0.000000
# 2 -0.003561 0.010912 -0.006233 0.000000 -0.007383 0.000000
# 3 -0.004290 -0.006233 0.037938 0.000000 0.012784 0.000000
# 4 0.000000 0.000000 0.000000 0.070219 0.000000 0.018511
# 5 0.005307 -0.007383 0.012784 0.000000 0.050519 0.000000
# 6 0.000000 0.000000 0.000000 0.018511 0.000000 0.055086
#
#
# Mechanical properties :
#
#
# Convention : Reuss Voigt Hill
#
# Bulk Modulus (GPa) = 21.57862 30.58726 26.08294
# Shear Modulus (GPa) = 17.00974 21.64072 19.32523
#
# Velocity S-wave (km/s) = 3.12031 3.51953 3.32592
# Velocity P-wave (km/s) = 5.03322 5.83303 5.44782
#
# Compressibility (1/GPa) = 0.04634216
#
# Stress axis : x y z
#
# Youngs Moduli (GPa) = 38.97219 91.63865 26.35881
#
# Poissons Ratio (x) = 0.32633 0.11308
# Poissons Ratio (y) = 0.13878 0.16429
# Poissons Ratio (z) = 0.16719 0.57116
#
# Static dielectric constant tensor:
#      x y z
#    x 1.605850 0.000000 -0.005760 
#    y 0.000000 1.607610 0.000000 
#    z -0.005760 0.000000 1.627440 
# 
# From -- ./inp_files/9157.got.cif
#   From: 2010.05.17/outbox.cif.g08.bks.cpg/sg11_5_cif.got.tgz:9157.got - 2010.06.03 12:22:45.
