data_PCOD9158446
_publ_section_title
;
Structure prediction by ZEFSAII (Michael W. Deem and Ramdas Pophale) SiO2 
 PCOD9158446
Probable space group: P 21/M
;
_chemical_formula_sum "Si O2"
_cell_formula_units_Z 32
_cell_length_a 29.226214
_cell_length_b 8.456395
_cell_length_c 16.343554
_cell_angle_alpha 90.000000
_cell_angle_beta 153.404569
_cell_angle_gamma 90.000000
_cell_volume 1808.337823
_symmetry_space_group_name_H-M "P 21/M"
_symmetry_group_IT_number 11
_symmetry_cell_setting 'monoclinic'
loop_
_space_group_symop_operation_xyz
x,y,z
-x,1/2+y,-z
-x,-y,-z
x,1/2-y,z
loop_
_atom_site_type_symbol
_atom_site_label
_atom_site_fract_x
_atom_site_fract_y
_atom_site_fract_z
Si Si1 0.771475 0.441379 0.791136
Si Si2 0.697269 0.560255 0.500058
Si Si3 0.519662 0.558619 0.791115
Si Si4 0.268385 0.058560 0.790045
Si Si5 0.021674 0.941439 0.790031
Si Si6 0.948414 0.438061 0.500019
Si Si7 0.448638 0.940217 0.500029
Si Si8 0.198297 0.057651 0.500037
O O1 0.772049 0.250000 0.789553
O O2 0.757624 0.501376 0.676661
O O3 0.669227 0.491140 0.676442
O O4 0.874848 0.494899 0.000501
O O5 0.697280 0.750000 0.500069
O O6 0.581006 0.501387 0.323468
O O7 0.749597 0.502411 0.500016
O O8 0.517500 0.750000 0.789528
O O9 0.507278 0.508871 0.676525
O O10 0.625639 0.505096 0.000484
O O11 0.266010 0.250000 0.788323
O O12 0.256666 0.009314 0.676369
O O13 0.167869 0.998542 0.675875
O O14 0.022330 0.750000 0.788302
O O15 0.919679 0.990669 0.676272
O O16 0.008067 0.001484 0.675950
O O17 0.948582 0.250000 0.499996
O O18 0.000000 0.500000 0.500000
O O19 0.449560 0.750000 0.500019
O O20 0.500000 0.000000 0.500000
O O21 0.199426 0.250000 0.500048
#
# Coordination Sequence:
#
# PCOD9158446 Si02
#       8
#     4   4   4   4   4   4   4   4
#     4   9  19  35  53  73  99 133 171 210 253 304
#     4  10  19  31  49  75 106 136 168 208 252 305
#     4   9  19  35  53  73  99 133 171 210 253 304
#     4   9  18  36  57  74  99 135 172 213 260 303
#     4   9  18  36  57  74  99 135 172 213 260 303
#     4  11  22  36  54  78 107 136 170 210 253 304
#     4   9  18  32  48  70  97 124 160 202 247 296
#     4   8  16  31  51  75 102 132 166 208 260 307
#
# _framework density 17.695809000000001
#
# number of rings (size 3 to 8) (size 9 to 14) (size 15 to 20)
#    0.000    2.750    0.000    3.000    0.000    5.000 
#    0.000    7.500    0.000    0.000    0.000    0.000 
#    0.000    0.000    0.000    0.000    0.000    0.000 
#
# Total GULP energy -178446.237862 kJ/mol
# GULP energy per Si atom -5576.444933 kJ/mol
# Density = 1.765553 g / cm^3
# Si number density = 17.695809 Si / 1000 Ang^3
#
#
#
# Elastic Constant Matrix: (Units=GPa)
#
#
# Indices 1 2 3 4 5 6 
#
# 1 202.8540 23.7613 113.2569 0.0000 -2.9035 0.0000
# 2 23.7613 15.9677 29.9032 0.0000 0.2029 0.0000
# 3 113.2569 29.9032 207.3976 0.0000 2.8686 0.0000
# 4 0.0000 0.0000 0.0000 21.0577 0.0000 -0.1903
# 5 -2.9035 0.2029 2.8686 0.0000 5.7923 0.0000
# 6 0.0000 0.0000 0.0000 -0.1903 0.0000 26.2800
#
#
#
# Elastic Compliance Matrix: (Units=1/GPa)
#
#
# Indices 1 2 3 4 5 6 
#
# 1 0.007519 -0.004691 -0.003508 0.000000 0.005671 0.000000
# 2 -0.004691 0.088776 -0.010233 0.000000 -0.000393 0.000000
# 3 -0.003508 -0.010233 0.008289 0.000000 -0.005505 0.000000
# 4 0.000000 0.000000 0.000000 0.047492 0.000000 0.000344
# 5 0.005671 -0.000393 -0.005505 0.000000 0.178226 0.000000
# 6 0.000000 0.000000 0.000000 0.000344 0.000000 0.038054
#
#
# Mechanical properties :
#
#
# Convention : Reuss Voigt Hill
#
# Bulk Modulus (GPa) = 14.76678 84.45136 49.60907
# Shear Modulus (GPa) = 11.68790 27.91253 19.80021
#
# Velocity S-wave (km/s) = 2.57279 3.97590 3.34866
# Velocity P-wave (km/s) = 4.14591 8.30088 6.56099
#
# Compressibility (1/GPa) = 0.06771957
#
# Stress axis : x y z
#
# Youngs Moduli (GPa) = 132.99805 11.26434 120.64393
#
# Poissons Ratio (x) = 0.05284 0.42322
# Poissons Ratio (y) = 0.62393 1.23451
# Poissons Ratio (z) = 0.46656 0.11526
#
# Static dielectric constant tensor:
#      x y z
#    x 1.579990 0.000000 0.000600 
#    y 0.000000 1.604580 0.000000 
#    z 0.000600 0.000000 1.597350 
# 
# From -- ./inp_files/56186.got.cif
#   From: 2010.05.17/outbox.cif.g08.bks.cpg/sg11_29_cif.got.tgz:56186.got - 2010.06.03 12:22:45.
