data_PCOD9158407
_publ_section_title
;
Structure prediction by ZEFSAII (Michael W. Deem and Ramdas Pophale) SiO2 
 PCOD9158407
Probable space group: P 21/M
;
_chemical_formula_sum "Si O2"
_cell_formula_units_Z 32
_cell_length_a 28.291389
_cell_length_b 8.654012
_cell_length_c 20.796190
_cell_angle_alpha 90.000000
_cell_angle_beta 158.718556
_cell_angle_gamma 90.000000
_cell_volume 1847.998896
_symmetry_space_group_name_H-M "P 21/M"
_symmetry_group_IT_number 11
_symmetry_cell_setting 'monoclinic'
loop_
_space_group_symop_operation_xyz
x,y,z
-x,1/2+y,-z
-x,-y,-z
x,1/2-y,z
loop_
_atom_site_type_symbol
_atom_site_label
_atom_site_fract_x
_atom_site_fract_y
_atom_site_fract_z
Si Si1 0.606407 0.066204 0.086275
Si Si2 0.859499 0.935441 0.474156
Si Si3 0.982456 0.932315 0.082153
Si Si4 0.928328 0.564493 0.345640
Si Si5 0.829548 0.933744 0.584405
Si Si6 0.381104 0.565560 0.583022
Si Si7 0.806674 0.565473 0.749454
Si Si8 0.373220 0.063901 0.026389
O O1 0.607084 0.250000 0.090279
O O2 0.745385 0.000174 0.284477
O O3 0.579618 0.011395 0.980097
O O4 0.500000 0.000000 0.000000
O O5 0.860321 0.750000 0.471317
O O6 0.830813 0.980071 0.511510
O O7 0.993737 0.001211 0.616800
O O8 0.985705 0.750000 0.099714
O O9 0.032586 0.023426 0.207640
O O10 0.091543 0.973988 0.166820
O O11 0.847400 0.970376 0.874457
O O12 0.935395 0.750000 0.356223
O O13 0.776632 0.518483 0.152492
O O14 0.000000 0.500000 0.500000
O O15 0.809068 0.750000 0.562765
O O16 0.717348 0.015328 0.484252
O O17 0.372247 0.750000 0.564028
O O18 0.330905 0.483968 0.454480
O O19 0.525943 0.523458 0.789477
O O20 0.825581 0.750000 0.764541
O O21 0.376901 0.250000 0.023416
#
# Coordination Sequence:
#
# PCOD9158407 Si02
#       8
#     4   4   4   4   4   4   4   4
#     4  12  24  36  54  76 101 135 169 204 253 306
#     4  11  23  38  54  75 103 132 170 214 256 305
#     4   9  16  26  43  67  97 133 168 201 240 292
#     4  11  22  38  59  78  98 129 170 217 262 303
#     4  10  20  32  48  72 103 136 166 206 251 296
#     4  10  19  31  49  73 102 136 167 203 249 299
#     4   9  16  26  42  67  99 133 166 201 241 290
#     4  10  22  38  54  74 102 131 168 213 254 302
#
# _framework density 17.316029
#
# number of rings (size 3 to 8) (size 9 to 14) (size 15 to 20)
#    0.000    1.750    1.250    5.625    0.000    7.000 
#    0.000    0.000    0.000    0.000    0.000    0.875 
#    0.000    0.000    0.000    0.000    0.000    0.000 
#
# Total GULP energy -178549.308286 kJ/mol
# GULP energy per Si atom -5579.665884 kJ/mol
# Density = 1.727662 g / cm^3
# Si number density = 17.316029 Si / 1000 Ang^3
#
#
#
# Elastic Constant Matrix: (Units=GPa)
#
#
# Indices 1 2 3 4 5 6 
#
# 1 8.5493 0.9782 16.3226 0.0000 -0.3196 0.0000
# 2 0.9782 28.7989 19.6754 0.0000 1.0797 0.0000
# 3 16.3226 19.6754 113.0894 0.0000 -9.9847 0.0000
# 4 0.0000 0.0000 0.0000 24.2889 0.0000 -3.6954
# 5 -0.3196 1.0797 -9.9847 0.0000 30.9756 0.0000
# 6 0.0000 0.0000 0.0000 -3.6954 0.0000 24.2573
#
#
#
# Elastic Compliance Matrix: (Units=1/GPa)
#
#
# Indices 1 2 3 4 5 6 
#
# 1 0.166734 0.013057 -0.026994 0.000000 -0.007436 0.000000
# 2 0.013057 0.040844 -0.009371 0.000000 -0.004310 0.000000
# 3 -0.026994 -0.009371 0.014794 0.000000 0.004817 0.000000
# 4 0.000000 0.000000 0.000000 0.042148 0.000000 0.006421
# 5 -0.007436 -0.004310 0.004817 0.000000 0.033910 0.000000
# 6 0.000000 0.000000 0.000000 0.006421 0.000000 0.042203
#
#
# Mechanical properties :
#
#
# Convention : Reuss Voigt Hill
#
# Bulk Modulus (GPa) = 5.68965 24.93222 15.31093
# Shear Modulus (GPa) = 11.21494 23.46846 17.34170
#
# Velocity S-wave (km/s) = 2.54768 3.68544 3.16805
# Velocity P-wave (km/s) = 3.45646 5.70434 4.71628
#
# Compressibility (1/GPa) = 0.17575776
#
# Stress axis : x y z
#
# Youngs Moduli (GPa) = 5.99756 24.48346 67.59349
#
# Poissons Ratio (x) = -0.31969 1.82459
# Poissons Ratio (y) = -0.07831 0.63343
# Poissons Ratio (z) = 0.16190 0.22944
#
# Static dielectric constant tensor:
#      x y z
#    x 1.566080 0.000000 -0.027520 
#    y 0.000000 1.581300 0.000000 
#    z -0.027520 0.000000 1.634950 
# 
# From -- ./inp_files/67144.got.cif
#   From: 2010.05.17/outbox.cif.g08.bks.cpg/sg11_34_cif.got.tgz:67144.got - 2010.06.03 12:22:45.
