data_PCOD9158584
_publ_section_title
;
Structure prediction by ZEFSAII (Michael W. Deem and Ramdas Pophale) SiO2 
 PCOD9158584
Probable space group: P 21/M
;
_chemical_formula_sum "Si O2"
_cell_formula_units_Z 28
_cell_length_a 15.730012
_cell_length_b 7.826101
_cell_length_c 11.574090
_cell_angle_alpha 90.000000
_cell_angle_beta 116.691126
_cell_angle_gamma 90.000000
_cell_volume 1272.996532
_symmetry_space_group_name_H-M "P 21/M"
_symmetry_group_IT_number 11
_symmetry_cell_setting 'monoclinic'
loop_
_space_group_symop_operation_xyz
x,y,z
-x,1/2+y,-z
-x,-y,-z
x,1/2-y,z
loop_
_atom_site_type_symbol
_atom_site_label
_atom_site_fract_x
_atom_site_fract_y
_atom_site_fract_z
Si Si1 0.548023 0.454083 0.908510
Si Si2 0.293133 0.458596 0.352546
Si Si3 0.738929 0.950666 0.921391
Si Si4 0.599697 0.949695 0.364298
Si Si5 0.891843 0.047142 0.183964
Si Si6 0.787128 0.450150 0.344302
Si Si7 0.898644 0.957136 0.630472
O O1 0.549057 0.250000 0.901691
O O2 0.655241 0.516358 0.961300
O O3 0.485522 0.525629 0.763316
O O4 0.500000 0.500000 0.000000
O O5 0.300200 0.250000 0.357191
O O6 0.296181 0.521495 0.223392
O O7 0.371029 0.522842 0.492738
O O8 0.189481 0.502687 0.340588
O O9 0.752128 0.750000 0.914484
O O10 0.837564 0.019684 0.031262
O O11 0.578078 0.750000 0.368598
O O12 0.694802 0.962229 0.343493
O O13 0.897328 0.250000 0.207319
O O14 0.825800 0.977961 0.247406
O O15 0.999489 0.982915 0.260950
O O16 0.762550 0.250000 0.316079
O O17 0.871733 0.469743 0.489008
O O18 0.898723 0.750000 0.621554
#
# Coordination Sequence:
#
# PCOD9158584 Si02
#       7
#     4   4   4   4   4   4   4
#     4  11  23  39  60  85 111 141 177 218 267 323
#     4   8  17  36  57  78 105 139 182 224 265 317
#     4  11  23  37  55  79 109 144 180 224 271 317
#     4   9  19  37  59  78 103 143 181 216 266 324
#     4  10  21  35  52  77 110 147 184 225 272 319
#     4  10  19  31  51  82 113 137 172 224 273 320
#     4   9  18  35  57  77 105 146 184 222 270 322
#
# _framework density 21.995346000000001
#
# number of rings (size 3 to 8) (size 9 to 14) (size 15 to 20)
#    0.000    2.286    0.000    3.429    0.000    6.286 
#    0.000    5.714    0.000    0.000    0.000    0.000 
#    0.000    0.000    0.000    0.000    0.000    0.000 
#
# Total GULP energy -156372.251108 kJ/mol
# GULP energy per Si atom -5584.723254 kJ/mol
# Density = 2.194528 g / cm^3
# Si number density = 21.995346 Si / 1000 Ang^3
#
#
#
# Elastic Constant Matrix: (Units=GPa)
#
#
# Indices 1 2 3 4 5 6 
#
# 1 30.9666 -7.4816 30.7978 0.0000 7.8114 0.0000
# 2 -7.4816 15.2233 -10.3666 0.0000 -1.0116 0.0000
# 3 30.7978 -10.3666 111.2778 0.0000 16.9403 0.0000
# 4 0.0000 0.0000 0.0000 23.7564 0.0000 3.6772
# 5 7.8114 -1.0116 16.9403 0.0000 40.6132 0.0000
# 6 0.0000 0.0000 0.0000 3.6772 0.0000 11.9140
#
#
#
# Elastic Compliance Matrix: (Units=1/GPa)
#
#
# Indices 1 2 3 4 5 6 
#
# 1 0.048396 0.015824 -0.011279 0.000000 -0.004209 0.000000
# 2 0.015824 0.075353 0.003009 0.000000 -0.002422 0.000000
# 3 -0.011279 0.003009 0.012864 0.000000 -0.003121 0.000000
# 4 0.000000 0.000000 0.000000 0.044206 0.000000 -0.013644
# 5 -0.004209 -0.002422 -0.003121 0.000000 0.026674 0.000000
# 6 0.000000 0.000000 0.000000 -0.013644 0.000000 0.088146
#
#
# Mechanical properties :
#
#
# Convention : Reuss Voigt Hill
#
# Bulk Modulus (GPa) = 6.59110 20.37412 13.48261
# Shear Modulus (GPa) = 15.10098 24.89126 19.99612
#
# Velocity S-wave (km/s) = 2.62306 3.36767 3.01841
# Velocity P-wave (km/s) = 3.48956 4.94010 4.27678
#
# Compressibility (1/GPa) = 0.15171963
#
# Stress axis : x y z
#
# Youngs Moduli (GPa) = 20.66306 13.27079 77.73803
#
# Poissons Ratio (x) = -0.20999 0.87683
# Poissons Ratio (y) = -0.32697 -0.23392
# Poissons Ratio (z) = 0.23306 -0.03993
#
# Static dielectric constant tensor:
#      x y z
#    x 1.778610 0.000000 -0.010180 
#    y 0.000000 1.807310 0.000000 
#    z -0.010180 0.000000 1.835450 
# 
# From -- ./inp_files/38449.got.cif
#   From: 2010.05.17/outbox.cif.g08.bks.cpg/sg11_20_cif.got.tgz:38449.got - 2010.06.03 12:22:45.
