data_PCOD9158708
_publ_section_title
;
Structure prediction by ZEFSAII (Michael W. Deem and Ramdas Pophale) SiO2 
 PCOD9158708
Probable space group: P 21/M
;
_chemical_formula_sum "Si O2"
_cell_formula_units_Z 32
_cell_length_a 21.739605
_cell_length_b 8.672938
_cell_length_c 16.109279
_cell_angle_alpha 90.000000
_cell_angle_beta 42.170954
_cell_angle_gamma 90.000000
_cell_volume 2039.105624
_symmetry_space_group_name_H-M "P 21/M"
_symmetry_group_IT_number 11
_symmetry_cell_setting 'monoclinic'
loop_
_space_group_symop_operation_xyz
x,y,z
-x,1/2+y,-z
-x,-y,-z
x,1/2-y,z
loop_
_atom_site_type_symbol
_atom_site_label
_atom_site_fract_x
_atom_site_fract_y
_atom_site_fract_z
Si Si1 0.396168 0.064351 0.421479
Si Si2 0.099204 0.065356 0.303634
Si Si3 0.397764 0.564150 0.102306
Si Si4 0.284326 0.564893 0.379093
Si Si5 0.099184 0.065357 0.497979
Si Si6 0.602763 0.564722 0.397176
Si Si7 0.284403 0.935107 0.052305
Si Si8 0.603651 0.935650 0.213869
O O1 0.399893 0.250000 0.412536
O O2 0.359180 0.019077 0.550613
O O3 0.333354 0.999055 0.411661
O O4 0.499905 0.999994 0.309308
O O5 0.098549 0.250000 0.299244
O O6 0.114066 0.021350 0.385933
O O7 0.182211 0.997591 0.167703
O O8 0.000023 0.999971 0.378570
O O9 0.401648 0.750000 0.098427
O O10 0.343275 0.515414 0.239301
O O11 0.343218 0.515435 0.074394
O O12 0.500000 0.500000 0.000000
O O13 0.283100 0.750000 0.382580
O O14 0.182147 0.502462 0.467946
O O15 0.098568 0.250000 0.503645
O O16 0.500000 0.500000 0.500000
O O17 0.599406 0.750000 0.400534
O O18 0.640729 0.519081 0.268897
O O19 0.283154 0.750000 0.051293
O O20 0.333586 0.999035 0.921578
O O21 0.599929 0.750000 0.212369
#
# Coordination Sequence:
#
# PCOD9158708 Si02
#       8
#     4   4   4   4   4   4   4   4
#     4  10  19  32  49  72  99 131 167 205 247 293
#     4  10  20  34  53  74  96 126 162 205 249 291
#     4  10  22  34  45  62  93 132 167 198 234 278
#     4  11  21  34  49  70  98 132 167 204 243 289
#     4  10  20  34  53  74  96 126 162 205 249 291
#     4   8  16  30  48  68  95 126 161 204 248 290
#     4  11  21  34  49  70  98 132 167 204 243 289
#     4  10  19  32  49  72  99 131 167 205 247 293
#
# _framework density 15.693154
#
# number of rings (size 3 to 8) (size 9 to 14) (size 15 to 20)
#    0.000    2.000    1.250    3.000    0.000    6.000 
#    0.000    0.000    0.000    0.000    0.000    0.875 
#    0.000    0.000    0.000    0.000    0.000    0.000 
#
# Total GULP energy -178499.309714 kJ/mol
# GULP energy per Si atom -5578.103429 kJ/mol
# Density = 1.565744 g / cm^3
# Si number density = 15.693154 Si / 1000 Ang^3
#
#
#
# Elastic Constant Matrix: (Units=GPa)
#
#
# Indices 1 2 3 4 5 6 
#
# 1 118.3421 40.1397 103.2568 0.0000 10.7932 0.0000
# 2 40.1397 44.0183 39.4010 0.0000 2.9160 0.0000
# 3 103.2568 39.4010 114.0485 0.0000 6.2996 0.0000
# 4 0.0000 0.0000 0.0000 25.0377 0.0000 -4.7894
# 5 10.7932 2.9160 6.2996 0.0000 29.5392 0.0000
# 6 0.0000 0.0000 0.0000 -4.7894 0.0000 24.1658
#
#
#
# Elastic Compliance Matrix: (Units=1/GPa)
#
#
# Indices 1 2 3 4 5 6 
#
# 1 0.042828 -0.006114 -0.036260 0.000000 -0.007313 0.000000
# 2 -0.006114 0.033781 -0.006147 0.000000 0.000210 0.000000
# 3 -0.036260 -0.006147 0.043467 0.000000 0.004586 0.000000
# 4 0.000000 0.000000 0.000000 0.041514 0.000000 0.008228
# 5 -0.007313 0.000210 0.004586 0.000000 0.035527 0.000000
# 6 0.000000 0.000000 0.000000 0.008228 0.000000 0.043011
#
#
# Mechanical properties :
#
#
# Convention : Reuss Voigt Hill
#
# Bulk Modulus (GPa) = 43.41058 71.33378 57.37218
# Shear Modulus (GPa) = 14.49919 21.98928 18.24423
#
# Velocity S-wave (km/s) = 3.04290 3.74732 3.41333
# Velocity P-wave (km/s) = 6.32991 8.01731 7.22306
#
# Compressibility (1/GPa) = 0.02303586
#
# Stress axis : x y z
#
# Youngs Moduli (GPa) = 23.34910 29.60238 23.00597
#
# Poissons Ratio (x) = 0.18099 0.83419
# Poissons Ratio (y) = 0.14276 0.14141
# Poissons Ratio (z) = 0.84663 0.18196
#
# Static dielectric constant tensor:
#      x y z
#    x 1.518000 0.000000 0.029030 
#    y 0.000000 1.525890 0.000000 
#    z 0.029030 0.000000 1.512430 
# 
# From -- ./inp_files/54238.got.cif
#   From: 2010.05.17/outbox.cif.g08.bks.cpg/sg11_28_cif.got.tgz:54238.got - 2010.06.03 12:22:45.
