data_PCOD9158937
_publ_section_title
;
Structure prediction by ZEFSAII (Michael W. Deem and Ramdas Pophale) SiO2 
 PCOD9158937
Probable space group: P 21/M
;
_chemical_formula_sum "Si O2"
_cell_formula_units_Z 32
_cell_length_a 22.731806
_cell_length_b 8.768766
_cell_length_c 28.974576
_cell_angle_alpha 90.000000
_cell_angle_beta 18.660088
_cell_angle_gamma 90.000000
_cell_volume 1847.888745
_symmetry_space_group_name_H-M "P 21/M"
_symmetry_group_IT_number 11
_symmetry_cell_setting 'monoclinic'
loop_
_space_group_symop_operation_xyz
x,y,z
-x,1/2+y,-z
-x,-y,-z
x,1/2-y,z
loop_
_atom_site_type_symbol
_atom_site_label
_atom_site_fract_x
_atom_site_fract_y
_atom_site_fract_z
Si Si1 0.187806 0.934668 0.985800
Si Si2 0.583177 0.931884 0.009182
Si Si3 0.906185 0.934389 0.523843
Si Si4 0.777648 0.566835 0.313123
Si Si5 0.547751 0.566856 0.393074
Si Si6 0.217572 0.933289 0.223067
Si Si7 0.815917 0.933440 0.113618
Si Si8 0.482498 0.565953 0.842887
O O1 0.188125 0.750000 0.981360
O O2 0.351231 0.980926 0.898481
O O3 0.204302 0.004693 0.922864
O O4 0.989789 0.979784 0.154103
O O5 0.590763 0.750000 0.006541
O O6 0.387165 0.974204 0.131158
O O7 0.589362 0.003099 0.055091
O O8 0.737535 0.991804 0.859252
O O9 0.911674 0.750000 0.522466
O O10 0.694131 0.983030 0.678764
O O11 0.030029 0.979430 0.387834
O O12 0.000000 0.000000 0.500000
O O13 0.770545 0.750000 0.320764
O O14 0.682084 0.520182 0.335631
O O15 0.650978 0.500365 0.447582
O O16 0.536067 0.750000 0.402638
O O17 0.644736 0.520969 0.273514
O O18 0.219233 0.750000 0.216480
O O19 0.828132 0.750000 0.104546
O O20 0.000000 0.000000 0.000000
O O21 0.480297 0.750000 0.846555
#
# Coordination Sequence:
#
# PCOD9158937 Si02
#       8
#     4   4   4   4   4   4   4   4
#     4  10  21  38  55  78 110 144 182 221 265 326
#     4  10  19  32  52  78 106 137 176 221 265 316
#     4  10  19  33  54  81 107 139 179 224 272 320
#     4   9  17  32  52  75 104 136 172 215 260 310
#     4   9  18  32  51  78 107 132 169 219 264 308
#     4   9  18  32  51  77 108 137 172 220 268 315
#     4  11  21  35  56  82 110 142 178 224 271 318
#     4  10  21  36  56  78 108 146 180 219 272 327
#
# _framework density 17.317060000000001
#
# number of rings (size 3 to 8) (size 9 to 14) (size 15 to 20)
#    0.000    2.250    2.500    0.750    0.000    3.000 
#    0.000    1.250    0.000    6.000    0.000    0.000 
#    0.000    0.000    0.000    0.000    0.000    0.000 
#
# Total GULP energy -178519.438011 kJ/mol
# GULP energy per Si atom -5578.732438 kJ/mol
# Density = 1.727765 g / cm^3
# Si number density = 17.317060 Si / 1000 Ang^3
#
#
#
# Elastic Constant Matrix: (Units=GPa)
#
#
# Indices 1 2 3 4 5 6 
#
# 1 136.6003 34.1609 97.3162 0.0000 11.1137 0.0000
# 2 34.1609 12.8450 35.3979 0.0000 3.3868 0.0000
# 3 97.3162 35.3979 173.6517 0.0000 17.9160 0.0000
# 4 0.0000 0.0000 0.0000 23.5662 0.0000 6.3309
# 5 11.1137 3.3868 17.9160 0.0000 29.3457 0.0000
# 6 0.0000 0.0000 0.0000 6.3309 0.0000 26.6431
#
#
#
# Elastic Compliance Matrix: (Units=1/GPa)
#
#
# Indices 1 2 3 4 5 6 
#
# 1 0.021975 -0.055981 -0.000759 0.000000 -0.001398 0.000000
# 2 -0.055981 0.320331 -0.034470 0.000000 0.005275 0.000000
# 3 -0.000759 -0.034470 0.013629 0.000000 -0.004055 0.000000
# 4 0.000000 0.000000 0.000000 0.045327 0.000000 -0.010771
# 5 -0.001398 0.005275 -0.004055 0.000000 0.036473 0.000000
# 6 0.000000 0.000000 0.000000 -0.010771 0.000000 0.040093
#
#
# Mechanical properties :
#
#
# Convention : Reuss Voigt Hill
#
# Bulk Modulus (GPa) = 5.76317 72.98300 39.37309
# Shear Modulus (GPa) = 6.96295 26.32578 16.64436
#
# Velocity S-wave (km/s) = 2.00738 3.90323 3.10361
# Velocity P-wave (km/s) = 2.95094 7.90887 5.96902
#
# Compressibility (1/GPa) = 0.17351554
#
# Stress axis : x y z
#
# Youngs Moduli (GPa) = 45.50615 3.12177 73.37227
#
# Poissons Ratio (x) = 0.17476 0.05573
# Poissons Ratio (y) = 2.54746 2.52913
# Poissons Ratio (z) = 0.03456 0.10761
#
# Static dielectric constant tensor:
#      x y z
#    x 1.558470 0.000000 0.001020 
#    y 0.000000 1.581350 0.000000 
#    z 0.001020 0.000000 1.595980 
# 
# From -- ./inp_files/72059.got.cif
#   From: 2010.05.17/outbox.cif.g08.bks.cpg/sg11_37_cif.got.tgz:72059.got - 2010.06.03 12:22:45.
