data_PCOD9158491
_publ_section_title
;
Structure prediction by ZEFSAII (Michael W. Deem and Ramdas Pophale) SiO2 
 PCOD9158491
Probable space group: P 21/M
;
_chemical_formula_sum "Si O2"
_cell_formula_units_Z 32
_cell_length_a 17.144669
_cell_length_b 7.423348
_cell_length_c 21.868664
_cell_angle_alpha 90.000000
_cell_angle_beta 27.728682
_cell_angle_gamma 90.000000
_cell_volume 1295.001962
_symmetry_space_group_name_H-M "P 21/M"
_symmetry_group_IT_number 11
_symmetry_cell_setting 'monoclinic'
loop_
_space_group_symop_operation_xyz
x,y,z
-x,1/2+y,-z
-x,-y,-z
x,1/2-y,z
loop_
_atom_site_type_symbol
_atom_site_label
_atom_site_fract_x
_atom_site_fract_y
_atom_site_fract_z
Si Si1 0.154320 0.534738 0.110214
Si Si2 0.998136 0.457567 0.347822
Si Si3 0.697240 0.464891 0.362225
Si Si4 0.499675 0.533313 0.817538
Si Si5 0.002297 0.457477 0.083693
Si Si6 0.658046 0.958068 0.203823
Si Si7 0.677366 0.471760 0.510322
Si Si8 0.169946 0.035452 0.345917
O O1 0.133364 0.750000 0.123499
O O2 0.078504 0.462600 0.225140
O O3 0.074055 0.461509 0.103370
O O4 0.351229 0.493949 0.968236
O O5 0.972251 0.250000 0.384132
O O6 0.125047 0.536246 0.309497
O O7 0.810231 0.533625 0.469241
O O8 0.500000 0.500000 0.500000
O O9 0.719290 0.250000 0.345068
O O10 0.746226 0.528708 0.396330
O O11 0.816676 0.536894 0.225043
O O12 0.507372 0.750000 0.803966
O O13 0.436145 0.461247 0.796643
O O14 0.673356 0.463967 0.724337
O O15 0.986214 0.250000 0.076156
O O16 0.154807 0.536768 0.937053
O O17 0.681350 0.750000 0.204125
O O18 0.512920 0.036718 0.347773
O O19 0.673573 0.250000 0.513582
O O20 0.202619 0.250000 0.318445
O O21 0.000000 0.000000 0.500000
#
# Coordination Sequence:
#
# PCOD9158491 Si02
#       8
#     4   4   4   4   4   4   4   4
#     4  10  19  31  50  75 102 133 169 210 257 305
#     4  10  19  33  52  72  98 135 175 213 255 301
#     4  10  20  35  54  76 105 136 164 206 256 303
#     4   9  19  34  48  71 108 138 163 210 269 304
#     4   9  17  33  55  77 103 133 170 209 249 298
#     4   9  17  31  56  81  97 132 181 213 242 299
#     4   9  17  32  53  76 102 128 167 215 254 293
#     4  10  21  35  51  70  99 137 174 215 263 310
#
# _framework density 24.710387999999998
#
# number of rings (size 3 to 8) (size 9 to 14) (size 15 to 20)
#    0.000    2.500    1.250    1.125    0.000    3.500 
#    0.000    1.875    0.000    0.000    0.000    0.000 
#    0.000    0.000    0.000    0.000    0.000    0.000 
#
# Total GULP energy -178737.489330 kJ/mol
# GULP energy per Si atom -5585.546542 kJ/mol
# Density = 2.465415 g / cm^3
# Si number density = 24.710388 Si / 1000 Ang^3
#
#
#
# Elastic Constant Matrix: (Units=GPa)
#
#
# Indices 1 2 3 4 5 6 
#
# 1 99.5117 16.9993 35.5788 0.0000 -14.2622 0.0000
# 2 16.9993 88.1824 13.1658 0.0000 -6.6407 0.0000
# 3 35.5788 13.1658 187.7184 0.0000 -8.9768 0.0000
# 4 0.0000 0.0000 0.0000 15.2922 0.0000 0.0980
# 5 -14.2622 -6.6407 -8.9768 0.0000 49.6081 0.0000
# 6 0.0000 0.0000 0.0000 0.0980 0.0000 13.2991
#
#
#
# Elastic Compliance Matrix: (Units=1/GPa)
#
#
# Indices 1 2 3 4 5 6 
#
# 1 0.011413 -0.001711 -0.001914 0.000000 0.002706 0.000000
# 2 -0.001711 0.011814 -0.000456 0.000000 0.001007 0.000000
# 3 -0.001914 -0.000456 0.005742 0.000000 0.000428 0.000000
# 4 0.000000 0.000000 0.000000 0.065396 0.000000 -0.000482
# 5 0.002706 0.001007 0.000428 0.000000 0.021148 0.000000
# 6 0.000000 0.000000 0.000000 -0.000482 0.000000 0.075197
#
#
# Mechanical properties :
#
#
# Convention : Reuss Voigt Hill
#
# Bulk Modulus (GPa) = 48.05811 56.32227 52.19019
# Shear Modulus (GPa) = 24.29451 36.28446 30.28948
#
# Velocity S-wave (km/s) = 3.13896 3.83611 3.50491
# Velocity P-wave (km/s) = 5.71211 6.51640 6.12746
#
# Compressibility (1/GPa) = 0.02080814
#
# Stress axis : x y z
#
# Youngs Moduli (GPa) = 87.61641 84.64639 174.14579
#
# Poissons Ratio (x) = 0.14480 0.33329
# Poissons Ratio (y) = 0.14988 0.07944
# Poissons Ratio (z) = 0.16768 0.03861
#
# Static dielectric constant tensor:
#      x y z
#    x 1.988910 0.000000 -0.034130 
#    y 0.000000 1.943340 0.000000 
#    z -0.034130 0.000000 2.005240 
# 
# From -- ./inp_files/72062.got.cif
#   From: 2010.05.17/outbox.cif.g08.bks.cpg/sg11_37_cif.got.tgz:72062.got - 2010.06.03 12:22:45.
