data_PCOD9158716
_publ_section_title
;
Structure prediction by ZEFSAII (Michael W. Deem and Ramdas Pophale) SiO2 
 PCOD9158716
Probable space group: P 21/M
;
_chemical_formula_sum "Si O2"
_cell_formula_units_Z 32
_cell_length_a 12.498645
_cell_length_b 8.811740
_cell_length_c 20.750691
_cell_angle_alpha 90.000000
_cell_angle_beta 56.175044
_cell_angle_gamma 90.000000
_cell_volume 1898.555880
_symmetry_space_group_name_H-M "P 21/M"
_symmetry_group_IT_number 11
_symmetry_cell_setting 'monoclinic'
loop_
_space_group_symop_operation_xyz
x,y,z
-x,1/2+y,-z
-x,-y,-z
x,1/2-y,z
loop_
_atom_site_type_symbol
_atom_site_label
_atom_site_fract_x
_atom_site_fract_y
_atom_site_fract_z
Si Si1 0.808421 0.568880 0.602929
Si Si2 0.904832 0.432646 0.443522
Si Si3 0.826626 0.566611 0.952907
Si Si4 0.606304 0.068317 0.769217
Si Si5 0.105839 0.431882 0.831755
Si Si6 0.688692 0.934808 0.130726
Si Si7 0.237323 0.431199 0.167887
Si Si8 0.064922 0.568075 0.710076
O O1 0.797879 0.750000 0.607324
O O2 0.816882 0.508401 0.527207
O O3 0.695284 0.498104 0.682965
O O4 0.946715 0.528295 0.588698
O O5 0.893793 0.250000 0.451702
O O6 0.880997 0.478023 0.377650
O O7 0.839395 0.750000 0.949073
O O8 0.754711 0.527017 0.910192
O O9 0.969308 0.497587 0.901669
O O10 0.751025 0.517629 0.041863
O O11 0.609064 0.250000 0.764857
O O12 0.458630 0.015464 0.813377
O O13 0.667190 0.015668 0.816485
O O14 0.099215 0.250000 0.834739
O O15 0.219282 0.482354 0.841565
O O16 0.123808 0.488953 0.752751
O O17 0.687951 0.750000 0.130562
O O18 0.256450 0.250000 0.168133
O O19 0.088918 0.463224 0.237407
O O20 0.078189 0.750000 0.712326
#
# Coordination Sequence:
#
# PCOD9158716 Si02
#       8
#     4   4   4   4   4   4   4   4
#     4  10  19  32  49  74 105 132 161 201 245 289
#     4   9  17  31  51  75 102 132 162 194 242 299
#     4   9  18  35  55  71  96 131 165 207 260 303
#     4  11  21  33  50  70 100 139 172 199 240 301
#     4  10  19  32  52  77 101 124 165 217 253 286
#     4   9  20  36  51  70  98 135 171 207 251 295
#     4   9  17  31  49  72 100 131 162 202 252 297
#     4   9  17  32  52  74 104 134 160 196 250 303
#
# _framework density 16.854915999999999
#
# number of rings (size 3 to 8) (size 9 to 14) (size 15 to 20)
#    0.000    2.500    1.250    2.250    0.000    3.500 
#    0.000    4.375    0.000    0.750    0.000    0.000 
#    0.000    0.000    0.000    0.000    0.000    0.000 
#
# Total GULP energy -178470.734234 kJ/mol
# GULP energy per Si atom -5577.210445 kJ/mol
# Density = 1.681655 g / cm^3
# Si number density = 16.854916 Si / 1000 Ang^3
#
#
#
# Elastic Constant Matrix: (Units=GPa)
#
#
# Indices 1 2 3 4 5 6 
#
# 1 115.8646 37.5935 110.4797 0.0000 8.1950 0.0000
# 2 37.5935 27.0401 42.6710 0.0000 4.0439 0.0000
# 3 110.4797 42.6710 134.4936 0.0000 25.8478 0.0000
# 4 0.0000 0.0000 0.0000 25.5689 0.0000 4.8040
# 5 8.1950 4.0439 25.8478 0.0000 19.7105 0.0000
# 6 0.0000 0.0000 0.0000 4.8040 0.0000 20.5827
#
#
#
# Elastic Compliance Matrix: (Units=1/GPa)
#
#
# Indices 1 2 3 4 5 6 
#
# 1 0.074200 0.006828 -0.076099 0.000000 0.067543 0.000000
# 2 0.006828 0.081733 -0.037130 0.000000 0.029083 0.000000
# 3 -0.076099 -0.037130 0.099178 0.000000 -0.090802 0.000000
# 4 0.000000 0.000000 0.000000 0.040904 0.000000 -0.009547
# 5 0.067543 0.029083 -0.090802 0.000000 0.135760 0.000000
# 6 0.000000 0.000000 0.000000 -0.009547 0.000000 0.050813
#
#
# Mechanical properties :
#
#
# Convention : Reuss Voigt Hill
#
# Bulk Modulus (GPa) = 23.63543 73.20961 48.42252
# Shear Modulus (GPa) = 7.04731 18.94936 12.99833
#
# Velocity S-wave (km/s) = 2.04701 3.35664 2.78004
# Velocity P-wave (km/s) = 4.43174 7.65194 6.25270
#
# Compressibility (1/GPa) = 0.04230937
#
# Stress axis : x y z
#
# Youngs Moduli (GPa) = 13.47707 12.23503 10.08292
#
# Poissons Ratio (x) = -0.08354 0.76730
# Poissons Ratio (y) = -0.09202 0.37438
# Poissons Ratio (z) = 1.02559 0.45428
#
# Static dielectric constant tensor:
#      x y z
#    x 1.554690 0.000000 0.019780 
#    y 0.000000 1.567740 0.000000 
#    z 0.019780 0.000000 1.565640 
# 
# From -- ./inp_files/64396.got.cif
#   From: 2010.05.17/outbox.cif.g08.bks.cpg/sg11_33_cif.got.tgz:64396.got - 2010.06.03 12:22:45.
