data_PCOD9158977
_publ_section_title
;
Structure prediction by ZEFSAII (Michael W. Deem and Ramdas Pophale) SiO2 
 PCOD9158977
Probable space group: P 21/M
;
_chemical_formula_sum "Si O2"
_cell_formula_units_Z 28
_cell_length_a 15.186406
_cell_length_b 8.819362
_cell_length_c 12.853244
_cell_angle_alpha 90.000000
_cell_angle_beta 74.906926
_cell_angle_gamma 90.000000
_cell_volume 1662.107297
_symmetry_space_group_name_H-M "P 21/M"
_symmetry_group_IT_number 11
_symmetry_cell_setting 'monoclinic'
loop_
_space_group_symop_operation_xyz
x,y,z
-x,1/2+y,-z
-x,-y,-z
x,1/2-y,z
loop_
_atom_site_type_symbol
_atom_site_label
_atom_site_fract_x
_atom_site_fract_y
_atom_site_fract_z
Si Si1 0.228588 0.930030 0.296046
Si Si2 0.804417 0.067974 0.090459
Si Si3 0.883651 0.929756 0.859006
Si Si4 0.906160 0.430866 0.268139
Si Si5 0.595293 0.929953 0.839905
Si Si6 0.903469 0.930374 0.493262
Si Si7 0.608981 0.431125 0.063864
O O1 0.223331 0.750000 0.305783
O O2 0.178349 0.984174 0.205881
O O3 0.332608 0.984682 0.254047
O O4 0.174619 0.006120 0.407296
O O5 0.817015 0.250000 0.076115
O O6 0.841798 0.024594 0.191853
O O7 0.697748 0.034646 0.104623
O O8 0.859595 0.987739 0.981118
O O9 0.865955 0.750000 0.856536
O O10 0.989206 0.956644 0.798642
O O11 0.895865 0.250000 0.290127
O O12 0.887536 0.519042 0.379806
O O13 0.608794 0.750000 0.826439
O O14 0.488612 0.965588 0.854326
O O15 0.613766 0.980904 0.953299
O O16 0.908387 0.750000 0.501022
O O17 0.000000 0.000000 0.500000
O O18 0.609574 0.250000 0.040576
#
# Coordination Sequence:
#
# PCOD9158977 Si02
#       7
#     4   4   4   4   4   4   4
#     4  12  23  36  56  80 110 145 181 227 277 325
#     4  10  20  35  55  80 113 151 185 221 268 327
#     4  11  21  33  52  80 113 148 183 222 268 324
#     4  10  22  38  55  78 112 150 187 224 267 321
#     4  10  19  32  52  80 111 143 180 227 274 324
#     4  12  24  39  59  81 107 142 184 229 273 321
#     4   9  18  32  52  79 112 146 180 220 273 327
#
# _framework density 16.846084999999999
#
# number of rings (size 3 to 8) (size 9 to 14) (size 15 to 20)
#    0.000    1.429    2.857    3.857    0.000    1.714 
#    0.000    0.000    0.000    0.857    0.000    0.000 
#    0.000    0.000    0.000    0.000    0.000    0.000 
#
# Total GULP energy -156433.848572 kJ/mol
# GULP energy per Si atom -5586.923163 kJ/mol
# Density = 1.680774 g / cm^3
# Si number density = 16.846085 Si / 1000 Ang^3
#
#
#
# Elastic Constant Matrix: (Units=GPa)
#
#
# Indices 1 2 3 4 5 6 
#
# 1 65.9577 50.4955 55.7267 0.0000 -15.2309 0.0000
# 2 50.4955 91.8224 67.0201 0.0000 -9.8648 0.0000
# 3 55.7267 67.0201 129.5460 0.0000 -10.0471 0.0000
# 4 0.0000 0.0000 0.0000 30.7365 0.0000 -3.6407
# 5 -15.2309 -9.8648 -10.0471 0.0000 26.0062 0.0000
# 6 0.0000 0.0000 0.0000 -3.6407 0.0000 19.7665
#
#
#
# Elastic Compliance Matrix: (Units=1/GPa)
#
#
# Indices 1 2 3 4 5 6 
#
# 1 0.032884 -0.011478 -0.007269 0.000000 0.012097 0.000000
# 2 -0.011478 0.021773 -0.006399 0.000000 -0.000936 0.000000
# 3 -0.007269 -0.006399 0.014060 0.000000 -0.001253 0.000000
# 4 0.000000 0.000000 0.000000 0.033260 0.000000 0.006126
# 5 0.012097 -0.000936 -0.001253 0.000000 0.044698 0.000000
# 6 0.000000 0.000000 0.000000 0.006126 0.000000 0.051719
#
#
# Mechanical properties :
#
#
# Convention : Reuss Voigt Hill
#
# Bulk Modulus (GPa) = 54.27969 70.42339 62.35154
# Shear Modulus (GPa) = 19.62113 22.90743 21.26428
#
# Velocity S-wave (km/s) = 3.41652 3.69156 3.55670
# Velocity P-wave (km/s) = 6.91768 7.75015 7.34572
#
# Compressibility (1/GPa) = 0.01842310
#
# Stress axis : x y z
#
# Youngs Moduli (GPa) = 30.41023 45.92862 71.12603
#
# Poissons Ratio (x) = 0.52719 0.51702
# Poissons Ratio (y) = 0.34906 0.45514
# Poissons Ratio (z) = 0.22105 0.29390
#
# Static dielectric constant tensor:
#      x y z
#    x 1.575420 0.000000 -0.011200 
#    y 0.000000 1.565250 0.000000 
#    z -0.011200 0.000000 1.537440 
# 
# From -- ./inp_files/37500.got.cif
#   From: 2010.05.17/outbox.cif.g08.bks.cpg/sg11_19_cif.got.tgz:37500.got - 2010.06.03 12:22:45.
