data_PCOD9158431
_publ_section_title
;
Structure prediction by ZEFSAII (Michael W. Deem and Ramdas Pophale) SiO2 
 PCOD9158431
Probable space group: P 21/M
;
_chemical_formula_sum "Si O2"
_cell_formula_units_Z 24
_cell_length_a 20.465140
_cell_length_b 8.763073
_cell_length_c 9.920049
_cell_angle_alpha 90.000000
_cell_angle_beta 49.868946
_cell_angle_gamma 90.000000
_cell_volume 1360.202149
_symmetry_space_group_name_H-M "P 21/M"
_symmetry_group_IT_number 11
_symmetry_cell_setting 'monoclinic'
loop_
_space_group_symop_operation_xyz
x,y,z
-x,1/2+y,-z
-x,-y,-z
x,1/2-y,z
loop_
_atom_site_type_symbol
_atom_site_label
_atom_site_fract_x
_atom_site_fract_y
_atom_site_fract_z
Si Si1 0.774892 0.434414 0.614001
Si Si2 0.713858 0.567731 0.971458
Si Si3 0.741960 0.066371 0.356852
Si Si4 0.864452 0.567000 0.981241
Si Si5 0.971851 0.434247 0.393701
Si Si6 0.593041 0.066875 0.349937
O O1 0.769979 0.250000 0.629656
O O2 0.726371 0.505421 0.805123
O O3 0.740355 0.482970 0.513957
O O4 0.874910 0.478373 0.490400
O O5 0.705548 0.750000 0.981701
O O6 0.798782 0.528664 0.946470
O O7 0.635076 0.494475 0.156456
O O8 0.745317 0.250000 0.350706
O O9 0.659225 0.018856 0.380319
O O10 0.824813 0.006045 0.167296
O O11 0.863937 0.750000 0.997076
O O12 0.958591 0.517087 0.810372
O O13 0.975410 0.250000 0.396305
O O14 0.000000 0.500000 0.500000
O O15 0.589787 0.250000 0.351403
O O16 0.500000 0.000000 0.500000
#
# Coordination Sequence:
#
# PCOD9158431 Si02
#       6
#     4   4   4   4   4   4
#     4  10  20  34  52  76 108 142 175 215 261 305
#     4  10  19  33  54  79 107 138 175 213 257 310
#     4   9  20  36  53  76 106 138 171 212 264 315
#     4   9  18  32  49  73 104 139 179 219 254 297
#     4  10  19  31  49  74 105 140 181 221 254 296
#     4  10  20  37  60  82 104 132 170 213 260 315
#
# _framework density 17.644437
#
# number of rings (size 3 to 8) (size 9 to 14) (size 15 to 20)
#    0.000    2.333    1.667    1.000    0.000    3.333 
#    0.000    0.833    0.000    0.000    0.000    0.000 
#    0.000    0.000    0.000    0.000    0.000    0.000 
#
# Total GULP energy -133918.049739 kJ/mol
# GULP energy per Si atom -5579.918739 kJ/mol
# Density = 1.760428 g / cm^3
# Si number density = 17.644437 Si / 1000 Ang^3
#
#
#
# Elastic Constant Matrix: (Units=GPa)
#
#
# Indices 1 2 3 4 5 6 
#
# 1 77.2998 27.7329 86.8950 0.0000 1.2057 0.0000
# 2 27.7329 19.5286 44.3674 0.0000 -0.5968 0.0000
# 3 86.8950 44.3674 185.3042 0.0000 0.7516 0.0000
# 4 0.0000 0.0000 0.0000 35.4485 0.0000 0.0095
# 5 1.2057 -0.5968 0.7516 0.0000 37.0701 0.0000
# 6 0.0000 0.0000 0.0000 0.0095 0.0000 17.3640
#
#
#
# Elastic Compliance Matrix: (Units=1/GPa)
#
#
# Indices 1 2 3 4 5 6 
#
# 1 0.032149 -0.025119 -0.009056 0.000000 -0.001266 0.000000
# 2 -0.025119 0.132119 -0.019868 0.000000 0.003347 0.000000
# 3 -0.009056 -0.019868 0.014402 0.000000 -0.000317 0.000000
# 4 0.000000 0.000000 0.000000 0.028210 0.000000 -0.000015
# 5 -0.001266 0.003347 -0.000317 0.000000 0.027077 0.000000
# 6 0.000000 0.000000 0.000000 -0.000015 0.000000 0.057590
#
#
# Mechanical properties :
#
#
# Convention : Reuss Voigt Hill
#
# Bulk Modulus (GPa) = 14.16756 66.68036 40.42396
# Shear Modulus (GPa) = 11.81585 26.18567 19.00076
#
# Velocity S-wave (km/s) = 2.59059 3.85655 3.28513
# Velocity P-wave (km/s) = 4.12252 7.59630 6.11142
#
# Compressibility (1/GPa) = 0.07058378
#
# Stress axis : x y z
#
# Youngs Moduli (GPa) = 31.10564 7.56893 69.43705
#
# Poissons Ratio (x) = 0.19012 0.62883
# Poissons Ratio (y) = 0.78133 1.37957
# Poissons Ratio (z) = 0.28170 0.15038
#
# Static dielectric constant tensor:
#      x y z
#    x 1.596400 0.000000 0.000350 
#    y 0.000000 1.591570 0.000000 
#    z 0.000350 0.000000 1.581290 
# 
# From -- ./inp_files/20365.got.cif
#   From: 2010.05.17/outbox.cif.g08.bks.cpg/sg11_11_cif.got.tgz:20365.got - 2010.06.03 12:22:45.
