data_PCOD9158920
_publ_section_title
;
Structure prediction by ZEFSAII (Michael W. Deem and Ramdas Pophale) SiO2 
 PCOD9158920
Probable space group: P 21/M
;
_chemical_formula_sum "Si O2"
_cell_formula_units_Z 32
_cell_length_a 22.026820
_cell_length_b 8.977366
_cell_length_c 28.444266
_cell_angle_alpha 90.000000
_cell_angle_beta 19.369488
_cell_angle_gamma 90.000000
_cell_volume 1865.464428
_symmetry_space_group_name_H-M "P 21/M"
_symmetry_group_IT_number 11
_symmetry_cell_setting 'monoclinic'
loop_
_space_group_symop_operation_xyz
x,y,z
-x,1/2+y,-z
-x,-y,-z
x,1/2-y,z
loop_
_atom_site_type_symbol
_atom_site_label
_atom_site_fract_x
_atom_site_fract_y
_atom_site_fract_z
Si Si1 0.062556 0.571440 0.379016
Si Si2 0.195891 0.917223 0.915938
Si Si3 0.690070 0.570566 0.879759
Si Si4 0.920263 0.928884 0.906057
Si Si5 0.685025 0.423097 0.351015
Si Si6 0.341321 0.427613 0.987310
Si Si7 0.768715 0.585092 0.199005
Si Si8 0.275001 0.428194 0.312052
O O1 0.084360 0.750000 0.359619
O O2 0.144255 0.495594 0.272591
O O3 0.182857 0.509059 0.334565
O O4 0.853581 0.539583 0.548542
O O5 0.273344 0.750000 0.859032
O O6 0.280524 0.032127 0.817090
O O7 0.986824 0.904752 0.049299
O O8 0.186023 0.985935 0.974883
O O9 0.685093 0.750000 0.878010
O O10 0.500000 0.500000 0.000000
O O11 0.699707 0.535042 0.928355
O O12 0.913934 0.750000 0.919790
O O13 0.131617 0.977734 0.756601
O O14 0.828675 0.957267 0.922928
O O15 0.500000 0.500000 0.500000
O O16 0.671036 0.250000 0.370142
O O17 0.709600 0.459220 0.278342
O O18 0.380267 0.250000 0.957251
O O19 0.518207 0.513512 0.838357
O O20 0.693531 0.750000 0.264319
O O21 0.270627 0.250000 0.308077
#
# Coordination Sequence:
#
# PCOD9158920 Si02
#       8
#     4   4   4   4   4   4   4   4
#     4  10  20  34  52  77 108 139 176 224 272 321
#     4   9  16  27  46  73 100 124 156 201 248 295
#     4  11  21  33  53  81 109 141 183 230 273 321
#     4   9  19  35  53  74 102 138 175 214 260 316
#     4  10  19  32  52  76 103 135 175 219 262 312
#     4  10  21  36  55  78 107 141 182 226 273 329
#     4   9  16  27  46  72  99 126 158 198 246 298
#     4  10  20  33  53  79 105 138 178 222 273 323
#
# _framework density 17.153904000000001
#
# number of rings (size 3 to 8) (size 9 to 14) (size 15 to 20)
#    0.000    2.250    1.250    2.250    0.000    6.000 
#    0.000    0.000    2.750    0.000    0.000    0.000 
#    0.000    0.000    0.000    0.000    0.000    0.000 
#
# Total GULP energy -178271.869610 kJ/mol
# GULP energy per Si atom -5570.995925 kJ/mol
# Density = 1.711486 g / cm^3
# Si number density = 17.153904 Si / 1000 Ang^3
#
#
#
# Elastic Constant Matrix: (Units=GPa)
#
#
# Indices 1 2 3 4 5 6 
#
# 1 113.5738 38.8667 46.7881 0.0000 10.0647 0.0000
# 2 38.8667 53.9991 34.8155 0.0000 4.2186 0.0000
# 3 46.7881 34.8155 94.5709 0.0000 11.6442 0.0000
# 4 0.0000 0.0000 0.0000 29.9813 0.0000 5.8720
# 5 10.0647 4.2186 11.6442 0.0000 14.8206 0.0000
# 6 0.0000 0.0000 0.0000 5.8720 0.0000 21.1325
#
#
#
# Elastic Compliance Matrix: (Units=1/GPa)
#
#
# Indices 1 2 3 4 5 6 
#
# 1 0.012879 -0.006775 -0.003364 0.000000 -0.004175 0.000000
# 2 -0.006775 0.027847 -0.007185 0.000000 0.002320 0.000000
# 3 -0.003364 -0.007185 0.015887 0.000000 -0.008153 0.000000
# 4 0.000000 0.000000 0.000000 0.035274 0.000000 -0.009801
# 5 -0.004175 0.002320 -0.008153 0.000000 0.076054 0.000000
# 6 0.000000 0.000000 0.000000 -0.009801 0.000000 0.050044
#
#
# Mechanical properties :
#
#
# Convention : Reuss Voigt Hill
#
# Bulk Modulus (GPa) = 45.52666 55.89826 50.71246
# Shear Modulus (GPa) = 19.23415 22.63177 20.93296
#
# Velocity S-wave (km/s) = 3.35217 3.63621 3.49707
# Velocity P-wave (km/s) = 6.44829 7.09129 6.77742
#
# Compressibility (1/GPa) = 0.02196515
#
# Stress axis : x y z
#
# Youngs Moduli (GPa) = 77.64559 35.91088 62.94391
#
# Poissons Ratio (x) = 0.24330 0.21171
# Poissons Ratio (y) = 0.52606 0.45227
# Poissons Ratio (z) = 0.26116 0.25803
#
# Static dielectric constant tensor:
#      x y z
#    x 1.590330 0.000000 0.034110 
#    y 0.000000 1.587350 0.000000 
#    z 0.034110 0.000000 1.617650 
# 
# From -- ./inp_files/72091.got.cif
#   From: 2010.05.17/outbox.cif.g08.bks.cpg/sg11_37_cif.got.tgz:72091.got - 2010.06.03 12:22:45.
