data_PCOD9158737
_publ_section_title
;
Structure prediction by ZEFSAII (Michael W. Deem and Ramdas Pophale) SiO2 
 PCOD9158737
Probable space group: P 21/M
;
_chemical_formula_sum "Si O2"
_cell_formula_units_Z 32
_cell_length_a 18.430794
_cell_length_b 7.559925
_cell_length_c 12.428790
_cell_angle_alpha 90.000000
_cell_angle_beta 120.591763
_cell_angle_gamma 90.000000
_cell_volume 1490.734522
_symmetry_space_group_name_H-M "P 21/M"
_symmetry_group_IT_number 11
_symmetry_cell_setting 'monoclinic'
loop_
_space_group_symop_operation_xyz
x,y,z
-x,1/2+y,-z
-x,-y,-z
x,1/2-y,z
loop_
_atom_site_type_symbol
_atom_site_label
_atom_site_fract_x
_atom_site_fract_y
_atom_site_fract_z
Si Si1 0.578002 0.465725 0.831423
Si Si2 0.163752 0.538253 0.884435
Si Si3 0.911833 0.549143 0.381302
Si Si4 0.247818 0.966812 0.156511
Si Si5 0.556301 0.961132 0.438762
Si Si6 0.660064 0.035464 0.102841
Si Si7 0.253787 0.547832 0.629093
Si Si8 0.746112 0.450112 0.602127
O O1 0.578714 0.250000 0.832815
O O2 0.660613 0.518483 0.823299
O O3 0.495014 0.521777 0.705271
O O4 0.589476 0.524391 0.964234
O O5 0.157292 0.750000 0.880780
O O6 0.091845 0.470816 0.750616
O O7 0.252662 0.493307 0.893739
O O8 0.177142 0.478479 0.016732
O O9 0.892532 0.750000 0.393456
O O10 0.833708 0.443865 0.372102
O O11 0.000000 0.500000 0.500000
O O12 0.249809 0.750000 0.161250
O O13 0.232363 0.030827 0.265767
O O14 0.570092 0.750000 0.441107
O O15 0.500000 0.000000 0.500000
O O16 0.644837 0.052916 0.523430
O O17 0.654777 0.250000 0.105815
O O18 0.676342 0.968871 0.236423
O O19 0.280873 0.750000 0.627335
O O20 0.234987 0.463879 0.499143
O O21 0.781649 0.250000 0.628755
#
# Coordination Sequence:
#
# PCOD9158737 Si02
#       8
#     4   4   4   4   4   4   4   4
#     4   8  13  23  42  64  88 122 166 208 248 292
#     4   8  14  27  49  74  98 125 161 199 238 288
#     4  11  21  34  55  80 106 129 156 197 241 288
#     4   8  13  25  47  71  95 128 166 201 243 295
#     4  11  20  30  45  66  95 130 172 220 260 299
#     4   7  11  23  44  66  87 120 162 201 239 287
#     4   9  18  33  53  75 100 130 166 202 240 296
#     4  10  19  32  50  72 100 134 169 204 248 301
#
# _framework density 21.465928000000002
#
# number of rings (size 3 to 8) (size 9 to 14) (size 15 to 20)
#    0.000    3.000    1.250    3.750    0.000    0.500 
#    0.000    1.250    0.000    1.500    0.000    0.000 
#    0.000    0.000    0.000    0.000    0.000    0.000 
#
# Total GULP energy -178283.038318 kJ/mol
# GULP energy per Si atom -5571.344947 kJ/mol
# Density = 2.141707 g / cm^3
# Si number density = 21.465928 Si / 1000 Ang^3
#
#
#
# Elastic Constant Matrix: (Units=GPa)
#
#
# Indices 1 2 3 4 5 6 
#
# 1 18.6207 -6.0005 33.7342 0.0000 -10.8349 0.0000
# 2 -6.0005 61.6962 8.4032 0.0000 -2.5239 0.0000
# 3 33.7342 8.4032 220.5695 0.0000 -16.8805 0.0000
# 4 0.0000 0.0000 0.0000 8.6137 0.0000 3.9897
# 5 -10.8349 -2.5239 -16.8805 0.0000 33.8273 0.0000
# 6 0.0000 0.0000 0.0000 3.9897 0.0000 3.4464
#
#
#
# Elastic Compliance Matrix: (Units=1/GPa)
#
#
# Indices 1 2 3 4 5 6 
#
# 1 0.096300 0.012202 -0.013270 0.000000 0.025133 0.000000
# 2 0.012202 0.017868 -0.002231 0.000000 0.004128 0.000000
# 3 -0.013270 -0.002231 0.006561 0.000000 -0.001143 0.000000
# 4 0.000000 0.000000 0.000000 0.250311 0.000000 -0.289774
# 5 0.025133 0.004128 -0.001143 0.000000 0.037350 0.000000
# 6 0.000000 0.000000 0.000000 -0.289774 0.000000 0.625620
#
#
# Mechanical properties :
#
#
# Convention : Reuss Voigt Hill
#
# Bulk Modulus (GPa) = 8.76189 41.46223 25.11206
# Shear Modulus (GPa) = 4.63542 26.82745 15.73143
#
# Velocity S-wave (km/s) = 1.47109 3.53904 2.71007
# Velocity P-wave (km/s) = 2.64123 6.00475 4.63860
#
# Compressibility (1/GPa) = 0.11413067
#
# Stress axis : x y z
#
# Youngs Moduli (GPa) = 10.38423 55.96626 152.42232
#
# Poissons Ratio (x) = -0.68288 2.02258
# Poissons Ratio (y) = -0.12670 0.34004
# Poissons Ratio (z) = 0.13779 0.12486
#
# Static dielectric constant tensor:
#      x y z
#    x 1.089000 0.000000 -0.025280 
#    y 0.000000 1.795090 0.000000 
#    z -0.025280 0.000000 1.873330 
# 
# From -- ./inp_files/42523.got.cif
#   From: 2010.05.17/outbox.cif.g08.bks.cpg/sg11_22_cif.got.tgz:42523.got - 2010.06.03 12:22:45.
