data_PCOD9158797
_publ_section_title
;
Structure prediction by ZEFSAII (Michael W. Deem and Ramdas Pophale) SiO2 
 PCOD9158797
Probable space group: P 21/M
;
_chemical_formula_sum "Si O2"
_cell_formula_units_Z 24
_cell_length_a 7.914670
_cell_length_b 16.911576
_cell_length_c 7.590915
_cell_angle_alpha 90.000000
_cell_angle_beta 105.957795
_cell_angle_gamma 90.000000
_cell_volume 976.886850
_symmetry_space_group_name_H-M "P 21/M"
_symmetry_group_IT_number 11
_symmetry_cell_setting 'monoclinic'
loop_
_space_group_symop_operation_xyz
x,y,z
-x,1/2+y,-z
-x,-y,-z
x,1/2-y,z
loop_
_atom_site_type_symbol
_atom_site_label
_atom_site_fract_x
_atom_site_fract_y
_atom_site_fract_z
Si Si1 0.107439 0.750000 0.140864
Si Si2 0.375682 0.584938 0.794056
Si Si3 0.532716 0.250000 0.704888
Si Si4 0.986094 0.914333 0.185875
Si Si5 0.340877 0.750000 0.647360
Si Si6 0.409418 0.083417 0.784612
Si Si7 0.045856 0.250000 0.289094
Si Si8 0.962855 0.580391 0.754438
O O1 0.302353 0.750000 0.113579
O O2 0.070849 0.829389 0.238598
O O3 0.985844 0.750000 0.931567
O O4 0.431623 0.668998 0.734891
O O5 0.433167 0.504585 0.710871
O O6 0.164606 0.585111 0.748118
O O7 0.455864 0.582110 0.012739
O O8 0.635103 0.250000 0.552486
O O9 0.437263 0.166847 0.698278
O O10 0.789813 0.915834 0.202799
O O11 0.091557 0.989312 0.296443
O O12 0.970331 0.918959 0.969234
O O13 0.140982 0.750000 0.662461
O O14 0.125319 0.161505 0.341216
#
# Coordination Sequence:
#
# PCOD9158797 Si02
#       8
#     2   4   2   4   2   4   2   4
#     4  10  19  32  51  72  95 130 176 218 250 302
#     4   9  18  34  56  80 106 133 169 217 261 308
#     4  12  23  33  50  73 102 143 183 210 250 310
#     4   9  16  27  48  76 103 124 158 214 263 297
#     4  10  20  34  52  72 104 142 172 208 253 310
#     4  10  19  32  55  83 105 131 171 217 263 309
#     4   8  14  29  51  69  91 123 165 208 247 294
#     4   8  14  26  48  76 101 125 156 201 258 305
#
# _framework density 24.567837999999998
#
# number of rings (size 3 to 8) (size 9 to 14) (size 15 to 20)
#    0.000    2.667    0.000    4.000    0.000    2.000 
#    0.000    0.000    0.000   21.000    0.000    0.000 
#    0.000    0.000    0.000    0.000    0.000    0.000 
#
# Total GULP energy -133857.805101 kJ/mol
# GULP energy per Si atom -5577.408546 kJ/mol
# Density = 2.451192 g / cm^3
# Si number density = 24.567838 Si / 1000 Ang^3
#
#
#
# Elastic Constant Matrix: (Units=GPa)
#
#
# Indices 1 2 3 4 5 6 
#
# 1 201.0333 81.2190 82.8782 0.0000 -59.2951 0.0000
# 2 81.2190 326.3505 55.8536 0.0000 -26.6312 0.0000
# 3 82.8782 55.8536 72.2507 0.0000 -24.7677 0.0000
# 4 0.0000 0.0000 0.0000 -80.2091 0.0000 36.6322
# 5 -59.2951 -26.6312 -24.7677 0.0000 42.9329 0.0000
# 6 0.0000 0.0000 0.0000 36.6322 0.0000 7.8980
#
#
#
# Elastic Compliance Matrix: (Units=1/GPa)
#
#
# Indices 1 2 3 4 5 6 
#
# 1 0.012840 -0.000476 -0.010449 0.000000 0.011410 0.000000
# 2 -0.000476 0.003569 -0.002094 0.000000 0.000349 0.000000
# 3 -0.010449 -0.002094 0.027489 0.000000 0.000128 0.000000
# 4 0.000000 0.000000 0.000000 -0.003998 0.000000 0.018544
# 5 0.011410 0.000349 0.000128 0.000000 0.039341 0.000000
# 6 0.000000 0.000000 0.000000 0.018544 0.000000 0.040604
#
#
# Mechanical properties :
#
#
# Convention : Reuss Voigt Hill
#
# Bulk Modulus (GPa) = 55.98852 115.50401 85.74626
# Shear Modulus (GPa) = 32.93028 19.43661 26.18344
#
# Velocity S-wave (km/s) = 3.66509 2.81577 3.26814
# Velocity P-wave (km/s) = 6.38352 7.59525 7.01560
#
# Compressibility (1/GPa) = 0.01786081
#
# Stress axis : x y z
#
# Youngs Moduli (GPa) = 77.88369 280.15417 36.37791
#
# Poissons Ratio (x) = 0.13336 0.38011
# Poissons Ratio (y) = 0.03708 0.07617
# Poissons Ratio (z) = 0.81380 0.58657
#
# Static dielectric constant tensor:
#      x y z
#    x 1.924460 0.000000 0.049300 
#    y 0.000000 2.080480 0.000000 
#    z 0.049300 0.000000 1.953280 
# 
# From -- ./inp_files/13237.got.cif
#   From: 2010.05.17/outbox.cif.g08.bks.cpg/sg11_7_cif.got.tgz:13237.got - 2010.06.03 12:22:45.
