data_PCOD9158785
_publ_section_title
;
Structure prediction by ZEFSAII (Michael W. Deem and Ramdas Pophale) SiO2 
 PCOD9158785
Probable space group: P 21/M
;
_chemical_formula_sum "Si O2"
_cell_formula_units_Z 24
_cell_length_a 8.102845
_cell_length_b 7.734340
_cell_length_c 15.096113
_cell_angle_alpha 90.000000
_cell_angle_beta 75.921671
_cell_angle_gamma 90.000000
_cell_volume 917.659541
_symmetry_space_group_name_H-M "P 21/M"
_symmetry_group_IT_number 11
_symmetry_cell_setting 'monoclinic'
loop_
_space_group_symop_operation_xyz
x,y,z
-x,1/2+y,-z
-x,-y,-z
x,1/2-y,z
loop_
_atom_site_type_symbol
_atom_site_label
_atom_site_fract_x
_atom_site_fract_y
_atom_site_fract_z
Si Si1 0.311450 0.956550 0.057393
Si Si2 0.693021 0.042449 0.444432
Si Si3 0.171271 0.551972 0.395724
Si Si4 0.805522 0.461141 0.110529
Si Si5 0.546421 0.040939 0.285404
Si Si6 0.943697 0.945912 0.775546
O O1 0.297923 0.750000 0.068938
O O2 0.243938 0.039155 0.156786
O O3 0.195045 0.022733 0.990120
O O4 0.500000 0.000000 0.000000
O O5 0.713547 0.250000 0.441936
O O6 0.813721 0.970742 0.507346
O O7 0.683861 0.986902 0.343384
O O8 0.500000 0.000000 0.500000
O O9 0.130025 0.750000 0.413368
O O10 0.365173 0.536462 0.333682
O O11 0.060778 0.490696 0.327117
O O12 0.814267 0.250000 0.104011
O O13 0.625851 0.504341 0.180933
O O14 0.941839 0.532745 0.163125
O O15 0.528724 0.250000 0.292618
O O16 0.002209 0.750000 0.768162
#
# Coordination Sequence:
#
# PCOD9158785 Si02
#       6
#     4   4   4   4   4   4
#     4  11  22  38  59  84 108 134 169 214 261 311
#     4   8  15  27  48  75 104 134 170 215 264 309
#     4  10  19  32  50  78 109 138 174 220 265 310
#     4   9  20  36  55  77 104 136 174 214 259 312
#     4   9  16  32  56  79 102 136 177 219 263 314
#     4  11  22  37  54  75 104 142 179 214 256 308
#
# _framework density 26.153487999999999
#
# number of rings (size 3 to 8) (size 9 to 14) (size 15 to 20)
#    0.000    2.333    0.000    3.000    0.000    2.000 
#    0.000    5.833    0.000    0.000    0.000    0.000 
#    0.000    0.000    0.000    0.000    0.000    0.000 
#
# Total GULP energy -134130.192853 kJ/mol
# GULP energy per Si atom -5588.758036 kJ/mol
# Density = 2.609396 g / cm^3
# Si number density = 26.153488 Si / 1000 Ang^3
#
#
#
# Elastic Constant Matrix: (Units=GPa)
#
#
# Indices 1 2 3 4 5 6 
#
# 1 87.5202 -0.7027 21.2169 0.0000 14.8507 0.0000
# 2 -0.7027 56.6101 14.0013 0.0000 3.2395 0.0000
# 3 21.2169 14.0013 202.0087 0.0000 6.5049 0.0000
# 4 0.0000 0.0000 0.0000 23.7030 0.0000 1.0415
# 5 14.8507 3.2395 6.5049 0.0000 54.9663 0.0000
# 6 0.0000 0.0000 0.0000 1.0415 0.0000 17.7776
#
#
#
# Elastic Compliance Matrix: (Units=1/GPa)
#
#
# Indices 1 2 3 4 5 6 
#
# 1 0.012274 0.000640 -0.001230 0.000000 -0.003208 0.000000
# 2 0.000640 0.018052 -0.001284 0.000000 -0.001085 0.000000
# 3 -0.001230 -0.001284 0.005175 0.000000 -0.000204 0.000000
# 4 0.000000 0.000000 0.000000 0.042298 0.000000 -0.002478
# 5 -0.003208 -0.001085 -0.000204 0.000000 0.019148 0.000000
# 6 0.000000 0.000000 0.000000 -0.002478 0.000000 0.056396
#
#
# Mechanical properties :
#
#
# Convention : Reuss Voigt Hill
#
# Bulk Modulus (GPa) = 31.49216 46.13001 38.81108
# Shear Modulus (GPa) = 29.81978 40.06426 34.94202
#
# Velocity S-wave (km/s) = 3.38032 3.91818 3.65915
# Velocity P-wave (km/s) = 5.22522 6.17625 5.72053
#
# Compressibility (1/GPa) = 0.03175394
#
# Stress axis : x y z
#
# Youngs Moduli (GPa) = 81.47516 55.39501 193.23565
#
# Poissons Ratio (x) = -0.03546 0.23771
# Poissons Ratio (y) = -0.05216 0.24802
# Poissons Ratio (z) = 0.10023 0.07110
#
# Static dielectric constant tensor:
#      x y z
#    x 2.197540 0.000000 0.082530 
#    y 0.000000 1.951800 0.000000 
#    z 0.082530 0.000000 2.093230 
# 
# From -- ./inp_files/20640.got.cif
#   From: 2010.05.17/outbox.cif.g08.bks.cpg/sg11_11_cif.got.tgz:20640.got - 2010.06.03 12:22:45.
