data_PCOD9158896
_publ_section_title
;
Structure prediction by ZEFSAII (Michael W. Deem and Ramdas Pophale) SiO2 
 PCOD9158896
Probable space group: P 21/M
;
_chemical_formula_sum "Si O2"
_cell_formula_units_Z 28
_cell_length_a 9.786327
_cell_length_b 8.799664
_cell_length_c 28.782934
_cell_angle_alpha 90.000000
_cell_angle_beta 40.389401
_cell_angle_gamma 90.000000
_cell_volume 1606.134149
_symmetry_space_group_name_H-M "P 21/M"
_symmetry_group_IT_number 11
_symmetry_cell_setting 'monoclinic'
loop_
_space_group_symop_operation_xyz
x,y,z
-x,1/2+y,-z
-x,-y,-z
x,1/2-y,z
loop_
_atom_site_type_symbol
_atom_site_label
_atom_site_fract_x
_atom_site_fract_y
_atom_site_fract_z
Si Si1 0.001577 0.932044 0.853571
Si Si2 0.144962 0.930920 0.422359
Si Si3 0.201027 0.070315 0.559838
Si Si4 0.375624 0.928449 0.604239
Si Si5 0.623207 0.930660 0.299370
Si Si6 0.442803 0.066921 0.065424
Si Si7 0.855054 0.933426 0.996106
O O1 0.016197 0.750000 0.849674
O O2 0.806831 0.971466 0.869073
O O3 0.948459 0.976246 0.920732
O O4 0.216117 0.001548 0.779210
O O5 0.153766 0.750000 0.428443
O O6 0.382698 0.989689 0.358027
O O7 0.021046 0.955875 0.406703
O O8 0.000000 0.000000 0.500000
O O9 0.226180 0.250000 0.564204
O O10 0.386496 0.033373 0.474722
O O11 0.236089 0.971810 0.596169
O O12 0.367069 0.750000 0.616792
O O13 0.311004 0.022160 0.665826
O O14 0.621154 0.750000 0.294940
O O15 0.463614 0.250000 0.060243
O O16 0.500000 0.000000 0.000000
O O17 0.613829 0.996703 0.056545
O O18 0.850314 0.750000 0.000457
O O19 0.000000 0.000000 0.000000
#
# Coordination Sequence:
#
# PCOD9158896 Si02
#       7
#     4   4   4   4   4   4   4
#     4   9  20  37  55  78 110 145 181 219 266 323
#     4  10  20  34  52  76 103 136 178 224 273 324
#     4   9  18  33  51  72  99 129 169 221 268 316
#     4  10  19  32  52  74  98 133 171 214 269 322
#     4  11  22  34  53  79 107 139 179 225 273 324
#     4   9  17  32  55  81 108 140 178 220 262 316
#     4  10  20  35  58  87 115 147 184 223 267 319
#
# _framework density 17.433164000000001
#
# number of rings (size 3 to 8) (size 9 to 14) (size 15 to 20)
#    0.000    2.286    1.429    2.571    0.000    5.143 
#    0.000    1.429    0.000    3.429    0.000    0.000 
#    0.000    0.000    0.000    0.000    0.000    0.000 
#
# Total GULP energy -156043.314407 kJ/mol
# GULP energy per Si atom -5572.975515 kJ/mol
# Density = 1.739349 g / cm^3
# Si number density = 17.433164 Si / 1000 Ang^3
#
#
#
# Elastic Constant Matrix: (Units=GPa)
#
#
# Indices 1 2 3 4 5 6 
#
# 1 106.5882 37.4052 49.4761 0.0000 -16.3806 0.0000
# 2 37.4052 27.5928 29.8327 0.0000 -7.6658 0.0000
# 3 49.4761 29.8327 96.6262 0.0000 -15.8037 0.0000
# 4 0.0000 0.0000 0.0000 28.5560 0.0000 0.4605
# 5 -16.3806 -7.6658 -15.8037 0.0000 21.1615 0.0000
# 6 0.0000 0.0000 0.0000 0.4605 0.0000 28.7697
#
#
#
# Elastic Compliance Matrix: (Units=1/GPa)
#
#
# Indices 1 2 3 4 5 6 
#
# 1 0.018771 -0.021825 -0.002039 0.000000 0.005102 0.000000
# 2 -0.021825 0.081042 -0.013450 0.000000 0.002418 0.000000
# 3 -0.002039 -0.013450 0.016507 0.000000 0.005877 0.000000
# 4 0.000000 0.000000 0.000000 0.035028 0.000000 -0.000561
# 5 0.005102 0.002418 0.005877 0.000000 0.056470 0.000000
# 6 0.000000 0.000000 0.000000 -0.000561 0.000000 0.034768
#
#
# Mechanical properties :
#
#
# Convention : Reuss Voigt Hill
#
# Bulk Modulus (GPa) = 23.98559 51.58169 37.78364
# Shear Modulus (GPa) = 15.10062 23.30365 19.20214
#
# Velocity S-wave (km/s) = 2.94632 3.66012 3.32244
# Velocity P-wave (km/s) = 5.03616 6.89307 6.03644
#
# Compressibility (1/GPa) = 0.04169170
#
# Stress axis : x y z
#
# Youngs Moduli (GPa) = 53.27231 12.33928 60.57997
#
# Poissons Ratio (x) = 0.26931 0.12352
# Poissons Ratio (y) = 1.16267 0.81483
# Poissons Ratio (z) = 0.10862 0.16597
#
# Static dielectric constant tensor:
#      x y z
#    x 1.608910 0.000000 -0.028010 
#    y 0.000000 1.582860 0.000000 
#    z -0.028010 0.000000 1.589910 
# 
# From -- ./inp_files/29105.got.cif
#   From: 2010.05.17/outbox.cif.g08.bks.cpg/sg11_15_cif.got.tgz:29105.got - 2010.06.03 12:22:45.
