data_PCOD9158417
_publ_section_title
;
Structure prediction by ZEFSAII (Michael W. Deem and Ramdas Pophale) SiO2 
 PCOD9158417
Probable space group: P 21/M
;
_chemical_formula_sum "Si O2"
_cell_formula_units_Z 28
_cell_length_a 13.944830
_cell_length_b 14.743682
_cell_length_c 8.982652
_cell_angle_alpha 90.000000
_cell_angle_beta 139.995142
_cell_angle_gamma 90.000000
_cell_volume 1187.230735
_symmetry_space_group_name_H-M "P 21/M"
_symmetry_group_IT_number 11
_symmetry_cell_setting 'monoclinic'
loop_
_space_group_symop_operation_xyz
x,y,z
-x,1/2+y,-z
-x,-y,-z
x,1/2-y,z
loop_
_atom_site_type_symbol
_atom_site_label
_atom_site_fract_x
_atom_site_fract_y
_atom_site_fract_z
Si Si1 0.149732 0.643465 0.121780
Si Si2 0.315769 0.852921 0.607587
Si Si3 0.380606 0.103543 0.183838
Si Si4 0.991019 0.057085 0.310253
Si Si5 0.668848 0.079556 0.055006
Si Si6 0.082439 0.353655 0.686084
Si Si7 0.481613 0.648891 0.377644
O O1 0.108011 0.750000 0.065587
O O2 0.187772 0.620495 0.337500
O O3 0.312349 0.635261 0.236086
O O4 0.032766 0.584439 0.889109
O O5 0.286803 0.750000 0.624803
O O6 0.469692 0.851365 0.699352
O O7 0.335237 0.915643 0.773552
O O8 0.407106 0.088148 0.391695
O O9 0.229604 0.152868 0.962082
O O10 0.367405 0.012900 0.072231
O O11 0.839825 0.098067 0.209622
O O12 0.113356 0.111616 0.552267
O O13 0.991068 0.948686 0.338328
O O14 0.543023 0.141381 0.827796
O O15 0.019719 0.250000 0.608530
O O16 0.530914 0.750000 0.473863
#
# Coordination Sequence:
#
# PCOD9158417 Si02
#       7
#     4   4   4   4   4   4   4
#     4   8  15  29  49  72  99 129 162 203 244 288
#     4  10  19  31  49  74 101 129 162 201 249 296
#     4  10  19  32  47  69 101 135 166 192 238 303
#     4   9  19  33  52  78  98 124 170 210 245 289
#     4  10  19  31  50  75 100 125 160 209 251 283
#     4  10  19  32  52  74 100 132 166 206 244 289
#     4   9  16  28  47  71  97 125 160 201 243 287
#
# _framework density 23.584295000000001
#
# number of rings (size 3 to 8) (size 9 to 14) (size 15 to 20)
#    0.000    2.571    0.000    3.857    0.000    2.857 
#    0.000    0.000    0.000    9.429    0.000   13.000 
#    0.000    0.000    0.000    0.000    0.000    0.000 
#
# Total GULP energy -155962.779797 kJ/mol
# GULP energy per Si atom -5570.099278 kJ/mol
# Density = 2.353062 g / cm^3
# Si number density = 23.584295 Si / 1000 Ang^3
#
#
#
# Elastic Constant Matrix: (Units=GPa)
#
#
# Indices 1 2 3 4 5 6 
#
# 1 15.8617 -9.1604 5.3124 0.0000 -3.1761 0.0000
# 2 -9.1604 128.1642 56.0045 0.0000 -14.5589 0.0000
# 3 5.3124 56.0045 198.8182 0.0000 -31.5781 0.0000
# 4 0.0000 0.0000 0.0000 42.0789 0.0000 -5.4773
# 5 -3.1761 -14.5589 -31.5781 0.0000 31.2786 0.0000
# 6 0.0000 0.0000 0.0000 -5.4773 0.0000 -3.6235
#
#
#
# Elastic Compliance Matrix: (Units=1/GPa)
#
#
# Indices 1 2 3 4 5 6 
#
# 1 0.069482 0.006975 -0.002602 0.000000 0.007675 0.000000
# 2 0.006975 0.009696 -0.002487 0.000000 0.002710 0.000000
# 3 -0.002602 -0.002487 0.006638 0.000000 0.005280 0.000000
# 4 0.000000 0.000000 0.000000 0.019858 0.000000 -0.030017
# 5 0.007675 0.002710 0.005280 0.000000 0.039342 0.000000
# 6 0.000000 0.000000 0.000000 -0.030017 0.000000 -0.230602
#
#
# Mechanical properties :
#
#
# Convention : Reuss Voigt Hill
#
# Bulk Modulus (GPa) = 11.16232 49.68410 30.42321
# Shear Modulus (GPa) = -84.04093 33.32596 -25.35748
#
# Velocity S-wave (km/s) = -5.97592 3.76314 -3.28256
# Velocity P-wave (km/s) = 6.54769 6.32408 1.19964
#
# Compressibility (1/GPa) = 0.08958709
#
# Stress axis : x y z
#
# Youngs Moduli (GPa) = 14.39229 103.13872 150.63710
#
# Poissons Ratio (x) = -0.71940 0.39201
# Poissons Ratio (y) = -0.10039 0.37464
# Poissons Ratio (z) = 0.03745 0.25651
#
# Static dielectric constant tensor:
#      x y z
#    x 1.931560 0.000000 -0.016100 
#    y 0.000000 2.005020 0.000000 
#    z -0.016100 0.000000 1.994730 
# 
# From -- ./inp_files/17926.got.cif
#   From: 2010.05.17/outbox.cif.g08.bks.cpg/sg11_9_cif.got.tgz:17926.got - 2010.06.03 12:22:45.
