data_PCOD9158724
_publ_section_title
;
Structure prediction by ZEFSAII (Michael W. Deem and Ramdas Pophale) SiO2 
 PCOD9158724
Probable space group: P 21/M
;
_chemical_formula_sum "Si O2"
_cell_formula_units_Z 32
_cell_length_a 12.828027
_cell_length_b 8.806003
_cell_length_c 29.305299
_cell_angle_alpha 90.000000
_cell_angle_beta 29.813467
_cell_angle_gamma 90.000000
_cell_volume 1645.874344
_symmetry_space_group_name_H-M "P 21/M"
_symmetry_group_IT_number 11
_symmetry_cell_setting 'monoclinic'
loop_
_space_group_symop_operation_xyz
x,y,z
-x,1/2+y,-z
-x,-y,-z
x,1/2-y,z
loop_
_atom_site_type_symbol
_atom_site_label
_atom_site_fract_x
_atom_site_fract_y
_atom_site_fract_z
Si Si1 0.308192 0.435666 0.012457
Si Si2 0.710506 0.931722 0.734691
Si Si3 0.590495 0.422796 0.229539
Si Si4 0.958019 0.431823 0.218753
Si Si5 0.939676 0.432987 0.473507
Si Si6 0.238690 0.568298 0.184718
Si Si7 0.059194 0.078440 0.023928
Si Si8 0.526377 0.928918 0.347529
O O1 0.301268 0.250000 0.014604
O O2 0.228393 0.492105 0.993329
O O3 0.136699 0.485065 0.114585
O O4 0.550703 0.480313 0.923208
O O5 0.718092 0.750000 0.740293
O O6 0.498802 0.964289 0.786245
O O7 0.893490 0.972441 0.629059
O O8 0.732917 0.016557 0.773882
O O9 0.513201 0.250000 0.268496
O O10 0.521424 0.534113 0.295436
O O11 0.840866 0.417450 0.134448
O O12 0.957026 0.250000 0.218957
O O13 0.728429 0.489310 0.291903
O O14 0.039290 0.493684 0.236199
O O15 0.940274 0.250000 0.477807
O O16 0.704104 0.479350 0.548584
O O17 0.000000 0.500000 0.500000
O O18 0.223792 0.750000 0.188223
O O19 0.125391 0.250000 0.988387
O O20 0.000000 0.000000 0.000000
O O21 0.549697 0.750000 0.346269
#
# Coordination Sequence:
#
# PCOD9158724 Si02
#       8
#     4   4   4   4   4   4   4   4
#     4   9  19  36  58  82 114 152 194 239 287 344
#     4  10  21  38  59  86 119 158 196 233 286 357
#     4  10  19  34  57  81 115 156 193 231 281 346
#     4  11  22  41  64  83 113 159 201 239 289 351
#     4  10  21  37  61  90 121 153 191 237 288 349
#     4  11  23  39  59  87 119 151 194 251 297 337
#     4  10  19  32  49  77 114 153 192 230 279 341
#     4  11  22  36  58  91 120 145 188 244 292 336
#
# _framework density 19.442553
#
# number of rings (size 3 to 8) (size 9 to 14) (size 15 to 20)
#    0.000    1.750    2.500    2.250    0.000    2.000 
#    0.000    3.125    0.000    0.000    0.000    0.000 
#    0.000    0.000    0.000    0.000    0.000    0.000 
#
# Total GULP energy -178603.683359 kJ/mol
# GULP energy per Si atom -5581.365105 kJ/mol
# Density = 1.939830 g / cm^3
# Si number density = 19.442553 Si / 1000 Ang^3
#
#
#
# Elastic Constant Matrix: (Units=GPa)
#
#
# Indices 1 2 3 4 5 6 
#
# 1 118.4726 24.9571 34.3378 0.0000 -26.6634 0.0000
# 2 24.9571 33.6075 18.4852 0.0000 -9.9943 0.0000
# 3 34.3378 18.4852 82.8767 0.0000 -19.0687 0.0000
# 4 0.0000 0.0000 0.0000 19.8927 0.0000 -0.0717
# 5 -26.6634 -9.9943 -19.0687 0.0000 29.3087 0.0000
# 6 0.0000 0.0000 0.0000 -0.0717 0.0000 33.7975
#
#
#
# Elastic Compliance Matrix: (Units=1/GPa)
#
#
# Indices 1 2 3 4 5 6 
#
# 1 0.011885 -0.005476 -0.001934 0.000000 0.007686 0.000000
# 2 -0.005476 0.038032 -0.005147 0.000000 0.004639 0.000000
# 3 -0.001934 -0.005147 0.015532 0.000000 0.006591 0.000000
# 4 0.000000 0.000000 0.000000 0.050270 0.000000 0.000107
# 5 0.007686 0.004639 0.006591 0.000000 0.046982 0.000000
# 6 0.000000 0.000000 0.000000 0.000107 0.000000 0.029588
#
#
# Mechanical properties :
#
#
# Convention : Reuss Voigt Hill
#
# Bulk Modulus (GPa) = 24.79249 43.39078 34.09164
# Shear Modulus (GPa) = 21.65928 27.07824 24.36876
#
# Velocity S-wave (km/s) = 3.34131 3.73598 3.54414
# Velocity P-wave (km/s) = 5.25976 6.40124 5.85837
#
# Compressibility (1/GPa) = 0.04033480
#
# Stress axis : x y z
#
# Youngs Moduli (GPa) = 84.14063 26.29359 64.38382
#
# Poissons Ratio (x) = 0.14398 0.12453
# Poissons Ratio (y) = 0.46076 0.33136
# Poissons Ratio (z) = 0.16275 0.13533
#
# Static dielectric constant tensor:
#      x y z
#    x 1.671910 0.000000 -0.005610 
#    y 0.000000 1.669030 0.000000 
#    z -0.005610 0.000000 1.708820 
# 
# From -- ./inp_files/42916.got.cif
#   From: 2010.05.17/outbox.cif.g08.bks.cpg/sg11_22_cif.got.tgz:42916.got - 2010.06.03 12:22:45.
