data_PCOD9158245
_publ_section_title
;
Structure prediction by ZEFSAII (Michael W. Deem and Ramdas Pophale) SiO2 
 PCOD9158245
Probable space group: P 21/M
;
_chemical_formula_sum "Si O2"
_cell_formula_units_Z 24
_cell_length_a 5.526993
_cell_length_b 21.314605
_cell_length_c 10.394685
_cell_angle_alpha 90.000000
_cell_angle_beta 58.431706
_cell_angle_gamma 90.000000
_cell_volume 1043.339564
_symmetry_space_group_name_H-M "P 21/M"
_symmetry_group_IT_number 11
_symmetry_cell_setting 'monoclinic'
loop_
_space_group_symop_operation_xyz
x,y,z
-x,1/2+y,-z
-x,-y,-z
x,1/2-y,z
loop_
_atom_site_type_symbol
_atom_site_label
_atom_site_fract_x
_atom_site_fract_y
_atom_site_fract_z
Si Si1 0.834560 0.014225 0.410340
Si Si2 0.477028 0.343778 0.190217
Si Si3 0.414688 0.006392 0.169408
Si Si4 0.066045 0.858482 0.765057
Si Si5 0.287969 0.386692 0.866207
Si Si6 0.824008 0.178520 0.835255
O O1 0.088338 0.983668 0.256920
O O2 0.500000 0.000000 0.500000
O O3 0.848175 0.084410 0.350564
O O4 0.000000 0.000000 0.500000
O O5 0.456072 0.421026 0.198877
O O6 0.653342 0.325248 0.264473
O O7 0.162107 0.321164 0.253414
O O8 0.653388 0.322719 0.017858
O O9 0.621894 0.958530 0.184060
O O10 0.500000 0.000000 0.000000
O O11 0.896063 0.879976 0.946631
O O12 0.591471 0.352664 0.805815
O O13 0.111147 0.356809 0.798878
O O14 0.883103 0.250000 0.780823
#
# Coordination Sequence:
#
# PCOD9158245 Si02
#       6
#     4   4   4   4   4   4
#     4  11  22  34  47  75 113 144 172 216 265 314
#     4   9  18  29  49  74  98 139 173 210 255 317
#     4  11  19  37  56  80 108 149 180 216 258 341
#     4   9  17  32  46  68  99 135 174 205 252 303
#     4  10  20  32  53  76  99 144 182 211 260 326
#     4  10  19  31  46  74 113 135 165 224 280 308
#
# _framework density 23.003057999999999
#
# number of rings (size 3 to 8) (size 9 to 14) (size 15 to 20)
#    0.000    2.000    5.000    2.500    0.000    6.667 
#    0.000    0.000    0.000    0.000    0.000    0.000 
#    0.000  168.000    0.000    0.000    0.000    0.000 
#
# Total GULP energy -133637.331230 kJ/mol
# GULP energy per Si atom -5568.222135 kJ/mol
# Density = 2.295070 g / cm^3
# Si number density = 23.003058 Si / 1000 Ang^3
#
#
#
# Elastic Constant Matrix: (Units=GPa)
#
#
# Indices 1 2 3 4 5 6 
#
# 1 233.9993 40.7615 46.0437 0.0000 -30.3820 0.0000
# 2 40.7615 123.8661 9.0465 0.0000 -9.0785 0.0000
# 3 46.0437 9.0465 60.2232 0.0000 -23.2400 0.0000
# 4 0.0000 0.0000 0.0000 -10.0119 0.0000 -4.1307
# 5 -30.3820 -9.0785 -23.2400 0.0000 32.8971 0.0000
# 6 0.0000 0.0000 0.0000 -4.1307 0.0000 8.3444
#
#
#
# Elastic Compliance Matrix: (Units=1/GPa)
#
#
# Indices 1 2 3 4 5 6 
#
# 1 0.005427 -0.001384 -0.002962 0.000000 0.002538 0.000000
# 2 -0.001384 0.008603 0.000259 0.000000 0.001280 0.000000
# 3 -0.002962 0.000259 0.024475 0.000000 0.014626 0.000000
# 4 0.000000 0.000000 0.000000 -0.082941 0.000000 -0.041059
# 5 0.002538 0.001280 0.014626 0.000000 0.043427 0.000000
# 6 0.000000 0.000000 0.000000 -0.041059 0.000000 0.099516
#
#
# Mechanical properties :
#
#
# Convention : Reuss Voigt Hill
#
# Bulk Modulus (GPa) = 32.96818 67.75468 50.36143
# Shear Modulus (GPa) = 42.81173 27.72836 35.27004
#
# Velocity S-wave (km/s) = 4.31876 3.47568 3.91996
# Velocity P-wave (km/s) = 6.26356 6.75468 6.51375
#
# Compressibility (1/GPa) = 0.03033228
#
# Stress axis : x y z
#
# Youngs Moduli (GPa) = 184.26955 116.23348 40.85851
#
# Poissons Ratio (x) = 0.16081 0.12102
# Poissons Ratio (y) = 0.25494 -0.01059
# Poissons Ratio (z) = 0.54581 -0.03013
#
# Static dielectric constant tensor:
#      x y z
#    x 1.970900 0.000000 0.018780 
#    y 0.000000 1.896060 0.000000 
#    z 0.018780 0.000000 1.976950 
# 
# From -- ./inp_files/30149.got.cif
#   From: 2010.05.17/outbox.cif.g08.bks.cpg/sg11_16_cif.got.tgz:30149.got - 2010.06.03 12:22:45.
