data_PCOD9158829
_publ_section_title
;
Structure prediction by ZEFSAII (Michael W. Deem and Ramdas Pophale) SiO2 
 PCOD9158829
Probable space group: P 21/M
;
_chemical_formula_sum "Si O2"
_cell_formula_units_Z 32
_cell_length_a 26.519477
_cell_length_b 8.197814
_cell_length_c 14.667061
_cell_angle_alpha 90.000000
_cell_angle_beta 146.403579
_cell_angle_gamma 90.000000
_cell_volume 1764.403059
_symmetry_space_group_name_H-M "P 21/M"
_symmetry_group_IT_number 11
_symmetry_cell_setting 'monoclinic'
loop_
_space_group_symop_operation_xyz
x,y,z
-x,1/2+y,-z
-x,-y,-z
x,1/2-y,z
loop_
_atom_site_type_symbol
_atom_site_label
_atom_site_fract_x
_atom_site_fract_y
_atom_site_fract_z
Si Si1 0.749839 0.445104 0.768965
Si Si2 0.750913 0.446520 0.272080
Si Si3 0.749833 0.050841 0.976740
Si Si4 0.896152 0.446532 0.344135
Si Si5 0.603200 0.449240 0.903640
Si Si6 0.603926 0.553417 0.403494
Si Si7 0.896062 0.945113 0.845657
Si Si8 0.249620 0.053414 0.520806
O O1 0.745331 0.250000 0.764082
O O2 0.750018 0.506393 0.873122
O O3 0.663923 0.508072 0.581641
O O4 0.840115 0.494826 0.849358
O O5 0.751152 0.250000 0.270797
O O6 0.839046 0.502432 0.346850
O O7 0.751168 0.500402 0.376351
O O8 0.662225 0.499957 0.080673
O O9 0.750337 0.250000 0.976056
O O10 0.661235 0.001694 0.902012
O O11 0.838062 0.999406 0.168253
O O12 0.894154 0.250000 0.341301
O O13 0.000000 0.500000 0.500000
O O14 0.601621 0.250000 0.901308
O O15 0.499469 0.507801 0.748607
O O16 0.600382 0.750000 0.393737
O O17 0.661707 0.496390 0.402521
O O18 0.893357 0.750000 0.842126
O O19 0.838110 0.002353 0.670025
O O20 0.000000 0.000000 0.000000
O O21 0.249865 0.250000 0.519294
#
# Coordination Sequence:
#
# PCOD9158829 Si02
#       8
#     4   4   4   4   4   4   4   4
#     4  10  19  32  51  75 101 129 163 202 243 289
#     4   9  18  32  51  73  95 125 166 204 237 285
#     4   8  16  31  50  71  97 129 162 198 243 294
#     4   9  18  33  50  70  96 125 159 196 238 289
#     4   8  15  31  52  71  96 131 166 200 244 295
#     4   9  18  33  51  71  98 132 166 201 244 293
#     4  10  21  37  54  73  99 131 165 201 244 292
#     4   9  19  33  48  70 100 129 157 195 245 293
#
# _framework density 18.136445999999999
#
# number of rings (size 3 to 8) (size 9 to 14) (size 15 to 20)
#    0.000    3.000    0.000    3.000    0.000    5.000 
#    0.000    5.625    0.000    3.000    0.000    0.000 
#    0.000    0.000    0.000    0.000    0.000    0.000 
#
# Total GULP energy -178374.045101 kJ/mol
# GULP energy per Si atom -5574.188909 kJ/mol
# Density = 1.809517 g / cm^3
# Si number density = 18.136446 Si / 1000 Ang^3
#
#
#
# Elastic Constant Matrix: (Units=GPa)
#
#
# Indices 1 2 3 4 5 6 
#
# 1 182.1437 12.4697 144.2304 0.0000 -13.2745 0.0000
# 2 12.4697 5.7688 10.4210 0.0000 1.7778 0.0000
# 3 144.2304 10.4210 164.7829 0.0000 17.5859 0.0000
# 4 0.0000 0.0000 0.0000 25.1041 0.0000 -0.9160
# 5 -13.2745 1.7778 17.5859 0.0000 38.0920 0.0000
# 6 0.0000 0.0000 0.0000 -0.9160 0.0000 22.2426
#
#
#
# Elastic Compliance Matrix: (Units=1/GPa)
#
#
# Indices 1 2 3 4 5 6 
#
# 1 0.033042 -0.025120 -0.030173 0.000000 0.026617 0.000000
# 2 -0.025120 0.215271 0.010917 0.000000 -0.023841 0.000000
# 3 -0.030173 0.010917 0.034673 0.000000 -0.027032 0.000000
# 4 0.000000 0.000000 0.000000 0.039894 0.000000 0.001643
# 5 0.026617 -0.023841 -0.027032 0.000000 0.049120 0.000000
# 6 0.000000 0.000000 0.000000 0.001643 0.000000 0.045026
#
#
# Mechanical properties :
#
#
# Convention : Reuss Voigt Hill
#
# Bulk Modulus (GPa) = 5.14843 76.32640 40.73741
# Shear Modulus (GPa) = 8.76390 29.45937 19.11163
#
# Velocity S-wave (km/s) = 2.20061 4.03466 3.24970
# Velocity P-wave (km/s) = 3.04989 7.99253 6.04906
#
# Compressibility (1/GPa) = 0.19423414
#
# Stress axis : x y z
#
# Youngs Moduli (GPa) = 30.26429 4.64532 28.84112
#
# Poissons Ratio (x) = 0.11669 0.87022
# Poissons Ratio (y) = 0.76024 -0.31487
# Poissons Ratio (z) = 0.91317 -0.05071
#
# Static dielectric constant tensor:
#      x y z
#    x 1.609230 0.000000 -0.002670 
#    y 0.000000 1.643150 0.000000 
#    z -0.002670 0.000000 1.595230 
# 
# From -- ./inp_files/56192.got.cif
#   From: 2010.05.17/outbox.cif.g08.bks.cpg/sg11_29_cif.got.tgz:56192.got - 2010.06.03 12:22:45.
