data_PCOD9158179
_publ_section_title
;
Structure prediction by ZEFSAII (Michael W. Deem and Ramdas Pophale) SiO2 
 PCOD9158179
Probable space group: P 21/M
;
_chemical_formula_sum "Si O2"
_cell_formula_units_Z 32
_cell_length_a 27.759314
_cell_length_b 8.162534
_cell_length_c 21.594860
_cell_angle_alpha 90.000000
_cell_angle_beta 19.777524
_cell_angle_gamma 90.000000
_cell_volume 1655.672531
_symmetry_space_group_name_H-M "P 21/M"
_symmetry_group_IT_number 11
_symmetry_cell_setting 'monoclinic'
loop_
_space_group_symop_operation_xyz
x,y,z
-x,1/2+y,-z
-x,-y,-z
x,1/2-y,z
loop_
_atom_site_type_symbol
_atom_site_label
_atom_site_fract_x
_atom_site_fract_y
_atom_site_fract_z
Si Si1 0.294627 0.448432 0.913170
Si Si2 0.274602 0.947786 0.286938
Si Si3 0.481777 0.946951 0.256460
Si Si4 0.345700 0.945821 0.710167
Si Si5 0.461055 0.946449 0.949019
Si Si6 0.058709 0.945424 0.995072
Si Si7 0.159794 0.552126 0.635084
Si Si8 0.020974 0.950047 0.673408
O O1 0.294173 0.250000 0.914787
O O2 0.420594 0.507893 0.805585
O O3 0.316424 0.499600 0.815953
O O4 0.141817 0.504878 0.124384
O O5 0.272470 0.750000 0.288097
O O6 0.119724 0.004718 0.496899
O O7 0.392112 0.997639 0.195932
O O8 0.335615 0.004608 0.147055
O O9 0.475513 0.750000 0.269322
O O10 0.319521 0.009217 0.453945
O O11 0.546092 0.987845 0.111645
O O12 0.342566 0.750000 0.712450
O O13 0.215998 0.008231 0.823746
O O14 0.500000 0.000000 0.500000
O O15 0.459611 0.750000 0.949005
O O16 0.065784 0.750000 0.986007
O O17 0.000000 0.000000 0.000000
O O18 0.949056 0.999902 0.180509
O O19 0.164373 0.750000 0.628305
O O20 0.100949 0.498665 0.639631
O O21 0.018888 0.750000 0.674931
#
# Coordination Sequence:
#
# PCOD9158179 Si02
#       8
#     4   4   4   4   4   4   4   4
#     4  10  21  38  60  83 109 146 189 231 276 334
#     4   9  17  32  53  78 109 146 186 228 279 333
#     4  10  21  36  55  80 113 148 184 228 279 335
#     4  11  25  43  62  85 116 152 188 230 280 338
#     4  10  19  30  50  80 112 144 184 233 279 327
#     4  11  25  42  61  88 119 149 185 233 282 335
#     4  10  19  35  59  82 109 146 186 232 279 328
#     4   9  16  32  58  81 103 142 187 225 272 328
#
# _framework density 19.327494000000002
#
# number of rings (size 3 to 8) (size 9 to 14) (size 15 to 20)
#    0.000    2.000    2.500    1.125    1.750    3.000 
#    0.000    1.250    0.000    0.000    0.000    0.000 
#    0.000    0.000    0.000    0.000    0.000    0.000 
#
# Total GULP energy -178627.916668 kJ/mol
# GULP energy per Si atom -5582.122396 kJ/mol
# Density = 1.928350 g / cm^3
# Si number density = 19.327494 Si / 1000 Ang^3
#
#
#
# Elastic Constant Matrix: (Units=GPa)
#
#
# Indices 1 2 3 4 5 6 
#
# 1 102.5629 5.8568 61.8016 0.0000 -18.4075 0.0000
# 2 5.8568 8.0739 10.2436 0.0000 -8.5228 0.0000
# 3 61.8016 10.2436 159.4116 0.0000 -8.9167 0.0000
# 4 0.0000 0.0000 0.0000 22.0831 0.0000 8.0861
# 5 -18.4075 -8.5228 -8.9167 0.0000 29.7367 0.0000
# 6 0.0000 0.0000 0.0000 8.0861 0.0000 22.8680
#
#
#
# Elastic Compliance Matrix: (Units=1/GPa)
#
#
# Indices 1 2 3 4 5 6 
#
# 1 0.014275 0.005922 -0.005416 0.000000 0.008909 0.000000
# 2 0.005922 0.192784 -0.011582 0.000000 0.055446 0.000000
# 3 -0.005416 -0.011582 0.008893 0.000000 -0.004006 0.000000
# 4 0.000000 0.000000 0.000000 0.052019 0.000000 -0.018394
# 5 0.008909 0.055446 -0.004006 0.000000 0.053834 0.000000
# 6 0.000000 0.000000 0.000000 -0.018394 0.000000 0.050233
#
#
# Mechanical properties :
#
#
# Convention : Reuss Voigt Hill
#
# Bulk Modulus (GPa) = 5.16003 47.31696 26.23849
# Shear Modulus (GPa) = 10.89822 27.74733 19.32278
#
# Velocity S-wave (km/s) = 2.37717 3.79310 3.16532
# Velocity P-wave (km/s) = 3.19534 6.61198 5.19271
#
# Compressibility (1/GPa) = 0.19379740
#
# Stress axis : x y z
#
# Youngs Moduli (GPa) = 70.05431 5.18716 112.44691
#
# Poissons Ratio (x) = -0.03072 0.60904
# Poissons Ratio (y) = -0.41483 1.30241
# Poissons Ratio (z) = 0.37943 0.06008
#
# Static dielectric constant tensor:
#      x y z
#    x 1.649510 0.000000 -0.008130 
#    y 0.000000 1.670480 0.000000 
#    z -0.008130 0.000000 1.687310 
# 
# From -- ./inp_files/66932.got.cif
#   From: 2010.05.17/outbox.cif.g08.bks.cpg/sg11_34_cif.got.tgz:66932.got - 2010.06.03 12:22:45.
