data_PCOD9158391
_publ_section_title
;
Structure prediction by ZEFSAII (Michael W. Deem and Ramdas Pophale) SiO2 
 PCOD9158391
Probable space group: P 21/M
;
_chemical_formula_sum "Si O2"
_cell_formula_units_Z 28
_cell_length_a 19.708052
_cell_length_b 8.757660
_cell_length_c 19.192385
_cell_angle_alpha 90.000000
_cell_angle_beta 158.880606
_cell_angle_gamma 90.000000
_cell_volume 1193.548730
_symmetry_space_group_name_H-M "P 21/M"
_symmetry_group_IT_number 11
_symmetry_cell_setting 'monoclinic'
loop_
_space_group_symop_operation_xyz
x,y,z
-x,1/2+y,-z
-x,-y,-z
x,1/2-y,z
loop_
_atom_site_type_symbol
_atom_site_label
_atom_site_fract_x
_atom_site_fract_y
_atom_site_fract_z
Si Si1 0.581603 0.932472 0.278099
Si Si2 0.854865 0.923517 0.270162
Si Si3 0.719716 0.077624 0.270332
Si Si4 0.289672 0.566527 0.308523
Si Si5 0.319388 0.072399 0.480227
Si Si6 0.778191 0.071870 0.904266
Si Si7 0.177827 0.071609 0.911529
O O1 0.539229 0.750000 0.243408
O O2 0.717738 0.970457 0.474494
O O3 0.646915 0.971711 0.263017
O O4 0.400421 0.038008 0.116818
O O5 0.786156 0.750000 0.194608
O O6 0.057622 0.912363 0.499702
O O7 0.714496 0.011228 0.187191
O O8 0.889264 0.994272 0.226927
O O9 0.644403 0.250000 0.202042
O O10 0.500000 0.500000 0.500000
O O11 0.295740 0.750000 0.311352
O O12 0.234182 0.515873 0.332878
O O13 0.183156 0.510150 0.136458
O O14 0.273398 0.250000 0.427083
O O15 0.549349 0.058771 0.694175
O O16 0.823650 0.250000 0.948710
O O17 0.871500 0.999969 0.061604
O O18 0.132072 0.250000 0.870868
#
# Coordination Sequence:
#
# PCOD9158391 Si02
#       7
#     4   4   4   4   4   4   4
#     4  10  20  33  48  70 101 129 155 194 238 278
#     4   9  20  37  53  72  97 121 153 197 237 278
#     4  10  20  35  55  74  92 121 159 194 233 283
#     4   9  15  22  35  56  85 120 154 188 226 268
#     4   8  15  26  39  58  87 121 153 187 228 271
#     4   8  15  26  38  59  92 124 153 189 232 275
#     4  10  19  31  49  72  97 126 158 193 235 280
#
# _framework density 23.459451999999999
#
# number of rings (size 3 to 8) (size 9 to 14) (size 15 to 20)
#    0.000    2.857    0.000    3.429    0.000    8.571 
#    0.000    0.000    0.000    0.000    0.000    1.000 
#    0.000    0.000    0.000    0.000    0.000    0.000 
#
# Total GULP energy -156208.261665 kJ/mol
# GULP energy per Si atom -5578.866488 kJ/mol
# Density = 2.340606 g / cm^3
# Si number density = 23.459452 Si / 1000 Ang^3
#
#
#
# Elastic Constant Matrix: (Units=GPa)
#
#
# Indices 1 2 3 4 5 6 
#
# 1 161.7547 32.4057 49.8224 0.0000 -42.9691 0.0000
# 2 32.4057 39.5343 11.0055 0.0000 -33.3268 0.0000
# 3 49.8224 11.0055 74.7490 0.0000 -40.7467 0.0000
# 4 0.0000 0.0000 0.0000 12.6395 0.0000 -19.3505
# 5 -42.9691 -33.3268 -40.7467 0.0000 60.0649 0.0000
# 6 0.0000 0.0000 0.0000 -19.3505 0.0000 22.2920
#
#
#
# Elastic Compliance Matrix: (Units=1/GPa)
#
#
# Indices 1 2 3 4 5 6 
#
# 1 0.008954 -0.006724 -0.005585 0.000000 -0.001114 0.000000
# 2 -0.006724 0.060039 0.017738 0.000000 0.040536 0.000000
# 3 -0.005585 0.017738 0.028048 0.000000 0.024874 0.000000
# 4 0.000000 0.000000 0.000000 -0.240517 0.000000 -0.208780
# 5 -0.001114 0.040536 0.024874 0.000000 0.055216 0.000000
# 6 0.000000 0.000000 0.000000 -0.208780 0.000000 -0.136372
#
#
# Mechanical properties :
#
#
# Convention : Reuss Voigt Hill
#
# Bulk Modulus (GPa) = 9.26790 51.38945 30.32868
# Shear Modulus (GPa) = -25.05960 31.18624 3.06332
#
# Velocity S-wave (km/s) = -3.27189 3.65000 1.14395
# Velocity P-wave (km/s) = 3.21162 6.30211 3.83419
#
# Compressibility (1/GPa) = 0.10789930
#
# Stress axis : x y z
#
# Youngs Moduli (GPa) = 111.68788 16.65594 35.65279
#
# Poissons Ratio (x) = 0.11199 0.19913
# Poissons Ratio (y) = 0.75095 -0.63242
# Poissons Ratio (z) = 0.62381 -0.29545
#
# Static dielectric constant tensor:
#      x y z
#    x 1.954780 0.000000 -0.014600 
#    y 0.000000 1.808100 0.000000 
#    z -0.014600 0.000000 1.960780 
# 
# From -- ./inp_files/61285.got.cif
#   From: 2010.05.17/outbox.cif.g08.bks.cpg/sg11_31_cif.got.tgz:61285.got - 2010.06.03 12:22:45.
