data_PCOD9158626
_publ_section_title
;
Structure prediction by ZEFSAII (Michael W. Deem and Ramdas Pophale) SiO2 
 PCOD9158626
Probable space group: P 21/M
;
_chemical_formula_sum "Si O2"
_cell_formula_units_Z 32
_cell_length_a 19.837882
_cell_length_b 13.339699
_cell_length_c 5.488726
_cell_angle_alpha 90.000000
_cell_angle_beta 85.892568
_cell_angle_gamma 90.000000
_cell_volume 1448.758389
_symmetry_space_group_name_H-M "P 21/M"
_symmetry_group_IT_number 11
_symmetry_cell_setting 'monoclinic'
loop_
_space_group_symop_operation_xyz
x,y,z
-x,1/2+y,-z
-x,-y,-z
x,1/2-y,z
loop_
_atom_site_type_symbol
_atom_site_label
_atom_site_fract_x
_atom_site_fract_y
_atom_site_fract_z
Si Si1 0.459215 0.366276 0.004488
Si Si2 0.270278 0.359766 0.668015
Si Si3 0.353115 0.489592 0.303466
Si Si4 0.767650 0.019625 0.951923
Si Si5 0.456465 0.634006 0.516524
Si Si6 0.858923 0.585931 0.561910
Si Si7 0.102567 0.556980 0.829092
Si Si8 0.040187 0.142369 0.093204
O O1 0.436267 0.250000 0.020127
O O2 0.401149 0.445712 0.080145
O O3 0.509647 0.378244 0.225867
O O4 0.492336 0.379721 0.728414
O O5 0.287511 0.250000 0.761924
O O6 0.320385 0.391518 0.438567
O O7 0.191406 0.358817 0.606873
O O8 0.271462 0.457611 0.834115
O O9 0.290452 0.555142 0.215195
O O10 0.397305 0.555970 0.474513
O O11 0.809964 0.934208 0.800793
O O12 0.827933 0.085005 0.051705
O O13 0.433396 0.750000 0.508286
O O14 0.877441 0.477204 0.446873
O O15 0.925853 0.635422 0.648355
O O16 0.040236 0.630948 0.866179
O O17 0.071049 0.451905 0.941197
O O18 0.057920 0.250000 0.979823
#
# Coordination Sequence:
#
# PCOD9158626 Si02
#       8
#     4   4   4   4   4   4   4   4
#     4  10  22  39  61  91 122 154 194 246 299 353
#     4  10  21  34  52  82 117 148 185 235 290 351
#     4  11  22  36  60  84 114 153 195 229 294 347
#     4   9  21  35  53  77 109 149 187 230 281 345
#     4  10  23  41  62  88 121 157 201 248 292 347
#     4   9  18  34  52  74 107 146 182 228 286 343
#     4   9  19  36  52  76 114 143 180 232 284 334
#     4  10  19  31  54  81 105 142 187 229 280 338
#
# _framework density 22.087878
#
# number of rings (size 3 to 8) (size 9 to 14) (size 15 to 20)
#    0.000    2.250    0.000    1.875    3.500    7.500 
#    0.000    0.625    0.000    6.750    0.000    0.000 
#    0.000    0.000    0.000    0.000    0.000    0.000 
#
# Total GULP energy -178359.020128 kJ/mol
# GULP energy per Si atom -5573.719379 kJ/mol
# Density = 2.203761 g / cm^3
# Si number density = 22.087878 Si / 1000 Ang^3
#
#
#
# Elastic Constant Matrix: (Units=GPa)
#
#
# Indices 1 2 3 4 5 6 
#
# 1 124.5106 24.3019 23.7320 0.0000 25.6308 0.0000
# 2 24.3019 52.9396 -7.8036 0.0000 7.3606 0.0000
# 3 23.7320 -7.8036 58.0238 0.0000 5.0824 0.0000
# 4 0.0000 0.0000 0.0000 9.3884 0.0000 -4.1570
# 5 25.6308 7.3606 5.0824 0.0000 35.7970 0.0000
# 6 0.0000 0.0000 0.0000 -4.1570 0.0000 9.7107
#
#
#
# Elastic Compliance Matrix: (Units=1/GPa)
#
#
# Indices 1 2 3 4 5 6 
#
# 1 0.011195 -0.004950 -0.004690 0.000000 -0.006332 0.000000
# 2 -0.004950 0.022165 0.005158 0.000000 -0.001746 0.000000
# 3 -0.004690 0.005158 0.019892 0.000000 -0.000527 0.000000
# 4 0.000000 0.000000 0.000000 0.131426 0.000000 0.056261
# 5 -0.006332 -0.001746 -0.000527 0.000000 0.032903 0.000000
# 6 0.000000 0.000000 0.000000 0.056261 0.000000 0.127063
#
#
# Mechanical properties :
#
#
# Convention : Reuss Voigt Hill
#
# Bulk Modulus (GPa) = 22.57878 35.10384 28.84131
# Shear Modulus (GPa) = 13.57330 23.99546 18.78438
#
# Velocity S-wave (km/s) = 2.48163 3.29958 2.91939
# Velocity P-wave (km/s) = 4.29601 5.51757 4.94466
#
# Compressibility (1/GPa) = 0.04428937
#
# Stress axis : x y z
#
# Youngs Moduli (GPa) = 89.32626 45.11650 50.27040
#
# Poissons Ratio (x) = 0.22332 0.23576
# Poissons Ratio (y) = 0.44216 -0.25932
# Poissons Ratio (z) = 0.41893 -0.23273
#
# Static dielectric constant tensor:
#      x y z
#    x 1.834130 0.000000 0.025490 
#    y 0.000000 1.821720 0.000000 
#    z 0.025490 0.000000 1.929160 
# 
# From -- ./inp_files/8099.got.cif
#   From: 2010.05.17/outbox.cif.g08.bks.cpg/sg11_5_cif.got.tgz:8099.got - 2010.06.03 12:22:45.
