data_PCOD9158728
_publ_section_title
;
Structure prediction by ZEFSAII (Michael W. Deem and Ramdas Pophale) SiO2 
 PCOD9158728
Probable space group: P 21/M
;
_chemical_formula_sum "Si O2"
_cell_formula_units_Z 32
_cell_length_a 21.304985
_cell_length_b 7.578399
_cell_length_c 11.126208
_cell_angle_alpha 90.000000
_cell_angle_beta 54.616497
_cell_angle_gamma 90.000000
_cell_volume 1464.604671
_symmetry_space_group_name_H-M "P 21/M"
_symmetry_group_IT_number 11
_symmetry_cell_setting 'monoclinic'
loop_
_space_group_symop_operation_xyz
x,y,z
-x,1/2+y,-z
-x,-y,-z
x,1/2-y,z
loop_
_atom_site_type_symbol
_atom_site_label
_atom_site_fract_x
_atom_site_fract_y
_atom_site_fract_z
Si Si1 0.914855 0.962465 0.456639
Si Si2 0.338516 0.464470 0.132751
Si Si3 0.756025 0.537720 0.533004
Si Si4 0.087394 0.460416 0.264799
Si Si5 0.605575 0.046004 0.293314
Si Si6 0.755200 0.962501 0.005221
Si Si7 0.484080 0.048415 0.843745
Si Si8 0.616962 0.038994 0.543896
O O1 0.910890 0.750000 0.466185
O O2 0.843186 0.024972 0.456099
O O3 0.906540 0.028306 0.604057
O O4 0.000551 0.007296 0.318952
O O5 0.342903 0.250000 0.133625
O O6 0.295435 0.529594 0.298221
O O7 0.284618 0.505174 0.078643
O O8 0.424550 0.530380 0.006320
O O9 0.758023 0.750000 0.538218
O O10 0.706258 0.492492 0.471950
O O11 0.098325 0.250000 0.260956
O O12 0.156971 0.525248 0.104343
O O13 0.581597 0.250000 0.314018
O O14 0.591284 0.972071 0.441969
O O15 0.697273 0.037742 0.167698
O O16 0.564619 0.950821 0.227695
O O17 0.753867 0.750000 0.021247
O O18 0.498290 0.250000 0.863735
O O19 0.564032 0.964834 0.711021
O O20 0.605069 0.250000 0.554720
#
# Coordination Sequence:
#
# PCOD9158728 Si02
#       8
#     4   4   4   4   4   4   4   4
#     4   9  17  29  46  72 104 131 157 194 237 284
#     4   8  14  28  49  71  95 126 159 194 238 283
#     4  10  19  32  50  70  98 135 167 195 233 289
#     4   9  16  28  49  75 101 129 159 192 237 290
#     4  10  20  33  50  73 100 124 158 211 254 282
#     4   9  16  30  52  74  99 129 161 197 241 294
#     4   9  18  34  55  72  93 127 163 202 249 296
#     4  10  22  36  48  69  99 131 165 204 248 287
#
# _framework density 21.848901000000001
#
# number of rings (size 3 to 8) (size 9 to 14) (size 15 to 20)
#    0.000    2.750    1.250    1.500    0.000    3.000 
#    0.000    2.500    0.000    0.750    0.000    0.000 
#    0.000    0.000    0.000    0.000    0.000    0.000 
#
# Total GULP energy -178577.614359 kJ/mol
# GULP energy per Si atom -5580.550449 kJ/mol
# Density = 2.179917 g / cm^3
# Si number density = 21.848901 Si / 1000 Ang^3
#
#
#
# Elastic Constant Matrix: (Units=GPa)
#
#
# Indices 1 2 3 4 5 6 
#
# 1 107.6688 3.5265 24.2692 0.0000 -29.7368 0.0000
# 2 3.5265 59.2749 7.5537 0.0000 0.3597 0.0000
# 3 24.2692 7.5537 52.4660 0.0000 -20.9093 0.0000
# 4 0.0000 0.0000 0.0000 11.8582 0.0000 -4.1905
# 5 -29.7368 0.3597 -20.9093 0.0000 39.4210 0.0000
# 6 0.0000 0.0000 0.0000 -4.1905 0.0000 20.2540
#
#
#
# Elastic Compliance Matrix: (Units=1/GPa)
#
#
# Indices 1 2 3 4 5 6 
#
# 1 0.011989 -0.000458 -0.002376 0.000000 0.007788 0.000000
# 2 -0.000458 0.017312 -0.003146 0.000000 -0.002172 0.000000
# 3 -0.002376 -0.003146 0.025246 0.000000 0.011627 0.000000
# 4 0.000000 0.000000 0.000000 0.090982 0.000000 0.018824
# 5 0.007788 -0.002172 0.011627 0.000000 0.037429 0.000000
# 6 0.000000 0.000000 0.000000 0.018824 0.000000 0.053268
#
#
# Mechanical properties :
#
#
# Convention : Reuss Voigt Hill
#
# Bulk Modulus (GPa) = 23.48182 32.23426 27.85804
# Shear Modulus (GPa) = 19.05623 26.57732 22.81677
#
# Velocity S-wave (km/s) = 2.95648 3.49150 3.23507
# Velocity P-wave (km/s) = 4.73551 5.57130 5.17032
#
# Compressibility (1/GPa) = 0.04258614
#
# Stress axis : x y z
#
# Youngs Moduli (GPa) = 83.40809 57.76362 39.61049
#
# Poissons Ratio (x) = 0.02644 0.09413
# Poissons Ratio (y) = 0.03818 0.12463
# Poissons Ratio (z) = 0.19820 0.18175
#
# Static dielectric constant tensor:
#      x y z
#    x 1.816970 0.000000 -0.032210 
#    y 0.000000 1.826010 0.000000 
#    z -0.032210 0.000000 1.825230 
# 
# From -- ./inp_files/42490.got.cif
#   From: 2010.05.17/outbox.cif.g08.bks.cpg/sg11_22_cif.got.tgz:42490.got - 2010.06.03 12:22:45.
