data_PCOD9158224
_publ_section_title
;
Structure prediction by ZEFSAII (Michael W. Deem and Ramdas Pophale) SiO2 
 PCOD9158224
Probable space group: P 21/M
;
_chemical_formula_sum "Si O2"
_cell_formula_units_Z 32
_cell_length_a 19.122286
_cell_length_b 9.040052
_cell_length_c 12.364344
_cell_angle_alpha 90.000000
_cell_angle_beta 107.847746
_cell_angle_gamma 90.000000
_cell_volume 2034.517488
_symmetry_space_group_name_H-M "P 21/M"
_symmetry_group_IT_number 11
_symmetry_cell_setting 'monoclinic'
loop_
_space_group_symop_operation_xyz
x,y,z
-x,1/2+y,-z
-x,-y,-z
x,1/2-y,z
loop_
_atom_site_type_symbol
_atom_site_label
_atom_site_fract_x
_atom_site_fract_y
_atom_site_fract_z
Si Si1 0.681187 0.926328 0.276847
Si Si2 0.146809 0.928038 0.016662
Si Si3 0.033899 0.072316 0.808025
Si Si4 0.427974 0.922930 0.921026
Si Si5 0.137502 0.927936 0.259437
Si Si6 0.792832 0.928032 0.503152
Si Si7 0.071622 0.428368 0.587048
Si Si8 0.730107 0.075938 0.096262
O O1 0.673673 0.750000 0.269504
O O2 0.717025 0.970172 0.407548
O O3 0.605724 0.003497 0.203653
O O4 0.737049 0.978507 0.207842
O O5 0.139637 0.750000 0.011839
O O6 0.155624 0.973075 0.145250
O O7 0.216296 0.968308 0.974397
O O8 0.075367 0.997622 0.927135
O O9 0.037986 0.250000 0.821524
O O10 0.072821 0.028247 0.713817
O O11 0.947976 0.031849 0.760424
O O12 0.441215 0.750000 0.910447
O O13 0.357440 0.938361 0.968205
O O14 0.500000 0.000000 0.000000
O O15 0.142886 0.750000 0.269986
O O16 0.188822 0.999910 0.373943
O O17 0.793709 0.750000 0.513671
O O18 0.858216 0.970172 0.451144
O O19 0.064965 0.250000 0.581086
O O20 0.000000 0.500000 0.500000
O O21 0.742913 0.250000 0.127275
#
# Coordination Sequence:
#
# PCOD9158224 Si02
#       8
#     4   4   4   4   4   4   4   4
#     4   9  17  30  49  72  98 126 153 186 229 279
#     4  10  20  34  49  67  90 123 164 203 241 284
#     4  10  20  33  47  67  90 119 160 207 252 290
#     4   9  17  30  49  76 105 130 151 181 225 278
#     4  10  21  34  48  64  89 125 166 207 244 281
#     4  10  20  32  46  66  93 123 158 197 239 284
#     4  10  19  31  46  65  89 118 155 198 244 289
#     4   8  17  31  47  70  98 124 154 187 231 282
#
# _framework density 15.728543999999999
#
# number of rings (size 3 to 8) (size 9 to 14) (size 15 to 20)
#    0.750    1.750    1.250    1.500    0.000    4.000 
#    0.000    0.000    0.000    0.000    0.000    0.875 
#    0.000    0.000    0.000    0.000    0.000    0.000 
#
# Total GULP energy -178155.895632 kJ/mol
# GULP energy per Si atom -5567.371739 kJ/mol
# Density = 1.569274 g / cm^3
# Si number density = 15.728544 Si / 1000 Ang^3
#
#
#
# Elastic Constant Matrix: (Units=GPa)
#
#
# Indices 1 2 3 4 5 6 
#
# 1 33.6962 20.6335 42.8033 0.0000 16.3669 0.0000
# 2 20.6335 29.9287 43.9873 0.0000 11.3498 0.0000
# 3 42.8033 43.9873 151.5714 0.0000 16.6130 0.0000
# 4 0.0000 0.0000 0.0000 28.4368 0.0000 4.0197
# 5 16.3669 11.3498 16.6130 0.0000 28.0882 0.0000
# 6 0.0000 0.0000 0.0000 4.0197 0.0000 16.0473
#
#
#
# Elastic Compliance Matrix: (Units=1/GPa)
#
#
# Indices 1 2 3 4 5 6 
#
# 1 0.068470 -0.023394 -0.009848 0.000000 -0.024619 0.000000
# 2 -0.023394 0.072341 -0.013556 0.000000 -0.007581 0.000000
# 3 -0.009848 -0.013556 0.012921 0.000000 0.003574 0.000000
# 4 0.000000 0.000000 0.000000 0.036457 0.000000 -0.009132
# 5 -0.024619 -0.007581 0.003574 0.000000 0.050897 0.000000
# 6 0.000000 0.000000 0.000000 -0.009132 0.000000 0.064603
#
#
# Mechanical properties :
#
#
# Convention : Reuss Voigt Hill
#
# Bulk Modulus (GPa) = 16.62945 47.78273 32.20609
# Shear Modulus (GPa) = 11.92373 21.69928 16.81150
#
# Velocity S-wave (km/s) = 2.75634 3.71834 3.27288
# Velocity P-wave (km/s) = 4.55254 6.99145 5.89940
#
# Compressibility (1/GPa) = 0.06013427
#
# Stress axis : x y z
#
# Youngs Moduli (GPa) = 14.60490 13.82344 77.39275
#
# Poissons Ratio (x) = 0.32339 0.76217
# Poissons Ratio (y) = 0.34167 1.04917
# Poissons Ratio (z) = 0.14383 0.18740
#
# Static dielectric constant tensor:
#      x y z
#    x 1.529160 0.000000 -0.002370 
#    y 0.000000 1.522520 0.000000 
#    z -0.002370 0.000000 1.521680 
# 
# From -- ./inp_files/43672.got.cif
#   From: 2010.05.17/outbox.cif.g08.bks.cpg/sg11_22_cif.got.tgz:43672.got - 2010.06.03 12:22:45.
