data_PCOD9158133
_publ_section_title
;
Structure prediction by ZEFSAII (Michael W. Deem and Ramdas Pophale) SiO2 
 PCOD9158133
Probable space group: P 21/M
;
_chemical_formula_sum "Si O2"
_cell_formula_units_Z 32
_cell_length_a 21.711815
_cell_length_b 7.219474
_cell_length_c 22.241773
_cell_angle_alpha 90.000000
_cell_angle_beta 19.657597
_cell_angle_gamma 90.000000
_cell_volume 1172.802884
_symmetry_space_group_name_H-M "P 21/M"
_symmetry_group_IT_number 11
_symmetry_cell_setting 'monoclinic'
loop_
_space_group_symop_operation_xyz
x,y,z
-x,1/2+y,-z
-x,-y,-z
x,1/2-y,z
loop_
_atom_site_type_symbol
_atom_site_label
_atom_site_fract_x
_atom_site_fract_y
_atom_site_fract_z
Si Si1 0.078557 0.539082 0.199680
Si Si2 0.038858 0.459442 0.862447
Si Si3 0.238991 0.023116 0.427998
Si Si4 0.252942 0.461286 0.286438
Si Si5 0.587750 0.475273 0.175617
Si Si6 0.382170 0.024298 0.485649
Si Si7 0.270751 0.524971 0.767266
Si Si8 0.684483 0.526001 0.900633
O O1 0.033353 0.750000 0.224428
O O2 0.208756 0.541099 0.139154
O O3 0.893319 0.458122 0.397086
O O4 0.208215 0.460319 0.028192
O O5 0.991869 0.250000 0.887939
O O6 0.175047 0.540265 0.687251
O O7 0.173834 0.454216 0.796659
O O8 0.854322 0.537551 0.060912
O O9 0.232272 0.250000 0.433430
O O10 0.182537 0.956979 0.413808
O O11 0.445649 0.970918 0.254130
O O12 0.188353 0.250000 0.343231
O O13 0.225850 0.539491 0.244836
O O14 0.473861 0.462400 0.092238
O O15 0.596998 0.250000 0.168109
O O16 0.486550 0.531408 0.329425
O O17 0.373266 0.250000 0.493326
O O18 0.521855 0.969410 0.410310
O O19 0.261762 0.750000 0.773641
O O20 0.683891 0.750000 0.901587
#
# Coordination Sequence:
#
# PCOD9158133 Si02
#       8
#     4   4   4   4   4   4   4   4
#     4  10  19  32  52  72  94 127 161 196 241 289
#     4   9  17  29  46  69  97 126 154 189 232 277
#     4   9  17  30  50  73  94 122 160 199 239 286
#     4   9  17  32  51  72  99 126 157 198 241 290
#     4   9  17  30  48  71  96 121 158 204 239 274
#     4   9  17  28  45  70  97 123 155 197 236 270
#     4   9  17  29  46  70  98 124 153 191 233 278
#     4  10  19  30  49  74  99 127 157 195 244 292
#
# _framework density 27.285063000000001
#
# number of rings (size 3 to 8) (size 9 to 14) (size 15 to 20)
#    0.000    2.750    1.250    0.750    0.000    2.000 
#    0.000    5.625    0.000    1.500    0.000    1.750 
#    0.000    0.000    0.000    0.000    0.000    0.000 
#
# Total GULP energy -179018.976544 kJ/mol
# GULP energy per Si atom -5594.343017 kJ/mol
# Density = 2.722296 g / cm^3
# Si number density = 27.285063 Si / 1000 Ang^3
#
#
#
# Elastic Constant Matrix: (Units=GPa)
#
#
# Indices 1 2 3 4 5 6 
#
# 1 95.4655 -7.6241 23.8897 0.0000 18.4984 0.0000
# 2 -7.6241 146.8579 -0.2733 0.0000 4.8952 0.0000
# 3 23.8897 -0.2733 192.3273 0.0000 19.7878 0.0000
# 4 0.0000 0.0000 0.0000 -21.0155 0.0000 -3.7847
# 5 18.4984 4.8952 19.7878 0.0000 63.7243 0.0000
# 6 0.0000 0.0000 0.0000 -3.7847 0.0000 -0.2086
#
#
#
# Elastic Compliance Matrix: (Units=1/GPa)
#
#
# Indices 1 2 3 4 5 6 
#
# 1 0.011391 0.000690 -0.001104 0.000000 -0.003017 0.000000
# 2 0.000690 0.006869 -0.000001 0.000000 -0.000728 0.000000
# 3 -0.001104 -0.000001 0.005479 0.000000 -0.001381 0.000000
# 4 0.000000 0.000000 0.000000 0.020989 0.000000 -0.380764
# 5 -0.003017 -0.000728 -0.001381 0.000000 0.017053 0.000000
# 6 0.000000 0.000000 0.000000 -0.380764 0.000000 2.114271
#
#
# Mechanical properties :
#
#
# Convention : Reuss Voigt Hill
#
# Bulk Modulus (GPa) = 43.65029 51.84838 47.74933
# Shear Modulus (GPa) = 2.28883 36.41060 19.34972
#
# Velocity S-wave (km/s) = 0.91689 3.65698 2.66591
# Velocity P-wave (km/s) = 4.14168 6.07248 5.19753
#
# Compressibility (1/GPa) = 0.02290936
#
# Stress axis : x y z
#
# Youngs Moduli (GPa) = 87.78995 145.57381 182.52819
#
# Poissons Ratio (x) = -0.10043 0.20142
# Poissons Ratio (y) = -0.06056 0.00019
# Poissons Ratio (z) = 0.09688 0.00016
#
# Static dielectric constant tensor:
#      x y z
#    x 2.118030 0.000000 0.052430 
#    y 0.000000 1.487910 0.000000 
#    z 0.052430 0.000000 2.098210 
# 
# From -- ./inp_files/69918.got.cif
#   From: 2010.05.17/outbox.cif.g08.bks.cpg/sg11_35_cif.got.tgz:69918.got - 2010.06.03 12:22:45.
