data_PCOD9158774
_publ_section_title
;
Structure prediction by ZEFSAII (Michael W. Deem and Ramdas Pophale) SiO2 
 PCOD9158774
Probable space group: P 21/M
;
_chemical_formula_sum "Si O2"
_cell_formula_units_Z 24
_cell_length_a 9.952594
_cell_length_b 8.653412
_cell_length_c 20.610365
_cell_angle_alpha 90.000000
_cell_angle_beta 49.780898
_cell_angle_gamma 90.000000
_cell_volume 1355.390226
_symmetry_space_group_name_H-M "P 21/M"
_symmetry_group_IT_number 11
_symmetry_cell_setting 'monoclinic'
loop_
_space_group_symop_operation_xyz
x,y,z
-x,1/2+y,-z
-x,-y,-z
x,1/2-y,z
loop_
_atom_site_type_symbol
_atom_site_label
_atom_site_fract_x
_atom_site_fract_y
_atom_site_fract_z
Si Si1 0.133774 0.435720 0.760932
Si Si2 0.470861 0.064513 0.217017
Si Si3 0.149082 0.435194 0.906716
Si Si4 0.101231 0.436240 0.277741
Si Si5 0.895441 0.436687 0.470514
Si Si6 0.471500 0.936729 0.361840
O O1 0.124974 0.250000 0.760701
O O2 0.114902 0.481454 0.842268
O O3 0.332132 0.483522 0.678133
O O4 0.988114 0.504074 0.759433
O O5 0.479621 0.250000 0.214958
O O6 0.302822 0.015696 0.226961
O O7 0.657188 0.997397 0.136363
O O8 0.440876 0.005764 0.299862
O O9 0.151166 0.250000 0.908587
O O10 0.000000 0.500000 0.000000
O O11 0.097877 0.250000 0.278307
O O12 0.986698 0.489295 0.375673
O O13 0.904871 0.250000 0.469278
O O14 0.690907 0.481966 0.541981
O O15 0.000000 0.500000 0.500000
O O16 0.471663 0.750000 0.355769
#
# Coordination Sequence:
#
# PCOD9158774 Si02
#       6
#     4   4   4   4   4   4
#     4   9  20  36  53  77 108 140 175 216 267 322
#     4  10  19  33  54  80 109 140 178 219 263 316
#     4  10  21  39  62  86 107 133 173 216 263 322
#     4  10  21  34  50  78 112 144 180 223 267 312
#     4  10  19  32  50  75 107 142 186 231 266 307
#     4   9  18  33  52  74 104 143 186 229 267 310
#
# _framework density 17.707076000000001
#
# number of rings (size 3 to 8) (size 9 to 14) (size 15 to 20)
#    0.000    2.333    1.667    2.000    0.000    6.000 
#    0.000    0.833    0.000    0.000    0.000    0.000 
#    0.000    0.000    0.000    0.000    0.000    0.000 
#
# Total GULP energy -133888.044295 kJ/mol
# GULP energy per Si atom -5578.668512 kJ/mol
# Density = 1.766677 g / cm^3
# Si number density = 17.707076 Si / 1000 Ang^3
#
#
#
# Elastic Constant Matrix: (Units=GPa)
#
#
# Indices 1 2 3 4 5 6 
#
# 1 164.4629 30.5968 77.2344 0.0000 -22.2285 0.0000
# 2 30.5968 16.9866 30.6984 0.0000 -8.3982 0.0000
# 3 77.2344 30.6984 139.8309 0.0000 -27.7398 0.0000
# 4 0.0000 0.0000 0.0000 24.9557 0.0000 -0.2415
# 5 -22.2285 -8.3982 -27.7398 0.0000 20.8841 0.0000
# 6 0.0000 0.0000 0.0000 -0.2415 0.0000 31.2173
#
#
#
# Elastic Compliance Matrix: (Units=1/GPa)
#
#
# Indices 1 2 3 4 5 6 
#
# 1 0.009741 -0.012401 -0.002159 0.000000 0.002513 0.000000
# 2 -0.012401 0.116790 -0.016418 0.000000 0.011958 0.000000
# 3 -0.002159 -0.016418 0.013826 0.000000 0.009464 0.000000
# 4 0.000000 0.000000 0.000000 0.040074 0.000000 0.000310
# 5 0.002513 0.011958 0.009464 0.000000 0.067938 0.000000
# 6 0.000000 0.000000 0.000000 0.000310 0.000000 0.032036
#
#
# Mechanical properties :
#
#
# Convention : Reuss Voigt Hill
#
# Bulk Modulus (GPa) = 12.75508 66.48219 39.61863
# Shear Modulus (GPa) = 13.56864 27.59480 20.58172
#
# Velocity S-wave (km/s) = 2.77119 3.95195 3.41302
# Velocity P-wave (km/s) = 4.17831 7.64532 6.16073
#
# Compressibility (1/GPa) = 0.07840014
#
# Stress axis : x y z
#
# Youngs Moduli (GPa) = 102.65561 8.56236 72.32666
#
# Poissons Ratio (x) = 0.10619 0.15618
# Poissons Ratio (y) = 1.27307 1.18746
# Poissons Ratio (z) = 0.22167 0.14058
#
# Static dielectric constant tensor:
#      x y z
#    x 1.588060 0.000000 -0.023090 
#    y 0.000000 1.597870 0.000000 
#    z -0.023090 0.000000 1.601930 
# 
# From -- ./inp_files/20417.got.cif
#   From: 2010.05.17/outbox.cif.g08.bks.cpg/sg11_11_cif.got.tgz:20417.got - 2010.06.03 12:22:45.
