data_PCOD9158590
_publ_section_title
;
Structure prediction by ZEFSAII (Michael W. Deem and Ramdas Pophale) SiO2 
 PCOD9158590
Probable space group: P 21/M
;
_chemical_formula_sum "Si O2"
_cell_formula_units_Z 24
_cell_length_a 11.958482
_cell_length_b 10.220748
_cell_length_c 22.179631
_cell_angle_alpha 90.000000
_cell_angle_beta 156.238148
_cell_angle_gamma 90.000000
_cell_volume 1092.318132
_symmetry_space_group_name_H-M "P 21/M"
_symmetry_group_IT_number 11
_symmetry_cell_setting 'monoclinic'
loop_
_space_group_symop_operation_xyz
x,y,z
-x,1/2+y,-z
-x,-y,-z
x,1/2-y,z
loop_
_atom_site_type_symbol
_atom_site_label
_atom_site_fract_x
_atom_site_fract_y
_atom_site_fract_z
Si Si1 0.219596 0.096697 0.191792
Si Si2 0.503639 0.892441 0.918141
Si Si3 0.155545 0.598405 0.267854
Si Si4 0.981854 0.905242 0.307131
Si Si5 0.606696 0.484827 0.848208
Si Si6 0.977602 0.608505 0.438742
O O1 0.274157 0.250000 0.229813
O O2 0.380426 0.040159 0.213002
O O3 0.259376 0.004458 0.269714
O O4 0.897979 0.078272 0.011711
O O5 0.394498 0.750000 0.882184
O O6 0.292003 0.005085 0.833069
O O7 0.538832 0.902764 0.863229
O O8 0.817802 0.905371 0.096121
O O9 0.240438 0.750000 0.297324
O O10 0.193230 0.566483 0.357082
O O11 0.915061 0.750000 0.270413
O O12 0.093525 0.927065 0.430042
O O13 0.355176 0.386097 0.733238
O O14 0.085080 0.750000 0.510426
O O15 0.000000 0.500000 0.500000
#
# Coordination Sequence:
#
# PCOD9158590 Si02
#       6
#     4   4   4   4   4   4
#     4  10  19  31  52  79 106 136 169 204 243 298
#     4   9  16  26  44  70  97 128 164 202 243 291
#     4   9  18  30  44  67 101 135 163 195 245 303
#     4   9  18  32  47  66  96 131 163 201 251 302
#     4   9  19  33  50  74 107 137 165 203 254 301
#     4  10  21  36  55  76  99 131 171 213 255 297
#
# _framework density 21.971622
#
# number of rings (size 3 to 8) (size 9 to 14) (size 15 to 20)
#    0.000    2.667    0.000    1.500    0.000   12.667 
#    0.000    0.000    0.000    1.000    0.000    0.000 
#    0.000    0.000    0.000    0.000    0.000    0.000 
#
# Total GULP energy -133920.117025 kJ/mol
# GULP energy per Si atom -5580.004876 kJ/mol
# Density = 2.192161 g / cm^3
# Si number density = 21.971622 Si / 1000 Ang^3
#
#
#
# Elastic Constant Matrix: (Units=GPa)
#
#
# Indices 1 2 3 4 5 6 
#
# 1 196.2077 85.0857 25.0080 0.0000 -27.0505 0.0000
# 2 85.0857 121.7954 22.3527 0.0000 -9.7916 0.0000
# 3 25.0080 22.3527 39.7219 0.0000 4.3562 0.0000
# 4 0.0000 0.0000 0.0000 13.0853 0.0000 -6.9293
# 5 -27.0505 -9.7916 4.3562 0.0000 35.4939 0.0000
# 6 0.0000 0.0000 0.0000 -6.9293 0.0000 22.5702
#
#
#
# Elastic Compliance Matrix: (Units=1/GPa)
#
#
# Indices 1 2 3 4 5 6 
#
# 1 0.008325 -0.004807 -0.003128 0.000000 0.005402 0.000000
# 2 -0.004807 0.012306 -0.003921 0.000000 0.000212 0.000000
# 3 -0.003128 -0.003921 0.030137 0.000000 -0.007165 0.000000
# 4 0.000000 0.000000 0.000000 0.091259 0.000000 0.028018
# 5 0.005402 0.000212 -0.007165 0.000000 0.033229 0.000000
# 6 0.000000 0.000000 0.000000 0.028018 0.000000 0.052908
#
#
# Mechanical properties :
#
#
# Convention : Reuss Voigt Hill
#
# Bulk Modulus (GPa) = 36.96415 69.17978 53.07196
# Shear Modulus (GPa) = 19.16481 29.24845 24.20663
#
# Velocity S-wave (km/s) = 2.95660 3.65251 3.32282
# Velocity P-wave (km/s) = 5.33998 7.02439 6.23929
#
# Compressibility (1/GPa) = 0.02705324
#
# Stress axis : x y z
#
# Youngs Moduli (GPa) = 120.12242 81.26406 33.18173
#
# Poissons Ratio (x) = 0.39066 0.10381
# Poissons Ratio (y) = 0.57746 0.13012
# Poissons Ratio (z) = 0.37579 0.31867
#
# Static dielectric constant tensor:
#      x y z
#    x 1.809300 0.000000 -0.048660 
#    y 0.000000 1.784590 0.000000 
#    z -0.048660 0.000000 1.878770 
# 
# From -- ./inp_files/34186.got.cif
#   From: 2010.05.17/outbox.cif.g08.bks.cpg/sg11_18_cif.got.tgz:34186.got - 2010.06.03 12:22:45.
