data_PCOD9158760
_publ_section_title
;
Structure prediction by ZEFSAII (Michael W. Deem and Ramdas Pophale) SiO2 
 PCOD9158760
Probable space group: P 21/M
;
_chemical_formula_sum "Si O2"
_cell_formula_units_Z 32
_cell_length_a 22.153931
_cell_length_b 8.602951
_cell_length_c 22.037089
_cell_angle_alpha 90.000000
_cell_angle_beta 154.080292
_cell_angle_gamma 90.000000
_cell_volume 1835.880425
_symmetry_space_group_name_H-M "P 21/M"
_symmetry_group_IT_number 11
_symmetry_cell_setting 'monoclinic'
loop_
_space_group_symop_operation_xyz
x,y,z
-x,1/2+y,-z
-x,-y,-z
x,1/2-y,z
loop_
_atom_site_type_symbol
_atom_site_label
_atom_site_fract_x
_atom_site_fract_y
_atom_site_fract_z
Si Si1 0.686053 0.065220 0.496604
Si Si2 0.449878 0.435502 0.747276
Si Si3 0.621766 0.434007 0.193738
Si Si4 0.381555 0.436454 0.436215
Si Si5 0.070015 0.436713 0.123434
Si Si6 0.238004 0.938346 0.936401
Si Si7 0.010851 0.438591 0.204096
Si Si8 0.676843 0.061839 0.114420
O O1 0.690550 0.250000 0.504007
O O2 0.611039 0.011388 0.367789
O O3 0.610281 0.999773 0.487971
O O4 0.841722 0.998831 0.639607
O O5 0.449771 0.250000 0.740714
O O6 0.362225 0.480545 0.727896
O O7 0.608959 0.486780 0.903205
O O8 0.633106 0.250000 0.213882
O O9 0.712280 0.477389 0.216133
O O10 0.466481 0.477874 0.032052
O O11 0.500000 0.500000 0.500000
O O12 0.386289 0.250000 0.442363
O O13 0.230398 0.484004 0.274554
O O14 0.066090 0.250000 0.117655
O O15 0.998279 0.485202 0.121964
O O16 0.000000 0.500000 0.000000
O O17 0.236981 0.750000 0.938833
O O18 0.223950 0.977762 0.852196
O O19 0.115150 0.994531 0.868173
O O20 0.014681 0.250000 0.209265
O O21 0.653549 0.250000 0.091691
#
# Coordination Sequence:
#
# PCOD9158760 Si02
#       8
#     4   4   4   4   4   4   4   4
#     4  11  22  36  53  75 102 134 169 205 247 296
#     4  10  19  32  50  74 102 133 169 209 252 298
#     4   9  15  24  41  67  98 129 162 204 251 299
#     4  10  21  38  57  79 104 133 168 205 246 294
#     4   9  19  33  51  75 101 129 164 203 245 294
#     4   8  15  29  51  75  97 125 165 208 250 298
#     4   9  18  35  54  72  97 131 167 202 245 299
#     4   8  14  25  42  66  96 129 163 202 252 304
#
# _framework density 17.430329
#
# number of rings (size 3 to 8) (size 9 to 14) (size 15 to 20)
#    0.000    2.750    0.000    3.750    0.000    4.000 
#    0.000    4.375    0.000    0.750    0.000    0.000 
#    0.000    0.000    0.000    0.000    0.000    0.000 
#
# Total GULP energy -178251.411788 kJ/mol
# GULP energy per Si atom -5570.356618 kJ/mol
# Density = 1.739066 g / cm^3
# Si number density = 17.430329 Si / 1000 Ang^3
#
#
#
# Elastic Constant Matrix: (Units=GPa)
#
#
# Indices 1 2 3 4 5 6 
#
# 1 193.6947 33.5189 79.2820 0.0000 -8.5058 0.0000
# 2 33.5189 35.2298 18.3406 0.0000 -4.5886 0.0000
# 3 79.2820 18.3406 56.4001 0.0000 -15.4186 0.0000
# 4 0.0000 0.0000 0.0000 23.0359 0.0000 -5.7889
# 5 -8.5058 -4.5886 -15.4186 0.0000 22.4365 0.0000
# 6 0.0000 0.0000 0.0000 -5.7889 0.0000 27.7225
#
#
#
# Elastic Compliance Matrix: (Units=1/GPa)
#
#
# Indices 1 2 3 4 5 6 
#
# 1 0.014116 -0.003585 -0.021442 0.000000 -0.010117 0.000000
# 2 -0.003585 0.035092 -0.005888 0.000000 0.001772 0.000000
# 3 -0.021442 -0.005888 0.058162 0.000000 0.030637 0.000000
# 4 0.000000 0.000000 0.000000 0.045815 0.000000 0.009567
# 5 -0.010117 0.001772 0.030637 0.000000 0.062151 0.000000
# 6 0.000000 0.000000 0.000000 0.009567 0.000000 0.038070
#
#
# Mechanical properties :
#
#
# Convention : Reuss Voigt Hill
#
# Bulk Modulus (GPa) = 21.95903 60.84530 41.40216
# Shear Modulus (GPa) = 15.13252 24.91785 20.02518
#
# Velocity S-wave (km/s) = 2.94967 3.78507 3.39318
# Velocity P-wave (km/s) = 4.92202 7.35430 6.25748
#
# Compressibility (1/GPa) = 0.04553936
#
# Stress axis : x y z
#
# Youngs Moduli (GPa) = 70.84410 28.49673 17.19330
#
# Poissons Ratio (x) = 0.10216 0.36866
# Poissons Ratio (y) = 0.25397 0.10123
# Poissons Ratio (z) = 1.51906 0.16778
#
# Static dielectric constant tensor:
#      x y z
#    x 1.631200 0.000000 -0.002590 
#    y 0.000000 1.590090 0.000000 
#    z -0.002590 0.000000 1.566980 
# 
# From -- ./inp_files/66474.got.cif
#   From: 2010.05.17/outbox.cif.g08.bks.cpg/sg11_34_cif.got.tgz:66474.got - 2010.06.03 12:22:45.
