data_PCOD9158292
_publ_section_title
;
Structure prediction by ZEFSAII (Michael W. Deem and Ramdas Pophale) SiO2 
 PCOD9158292
Probable space group: P 21/M
;
_chemical_formula_sum "Si O2"
_cell_formula_units_Z 32
_cell_length_a 31.776778
_cell_length_b 8.716474
_cell_length_c 15.550763
_cell_angle_alpha 90.000000
_cell_angle_beta 28.441685
_cell_angle_gamma 90.000000
_cell_volume 2051.399353
_symmetry_space_group_name_H-M "P 21/M"
_symmetry_group_IT_number 11
_symmetry_cell_setting 'monoclinic'
loop_
_space_group_symop_operation_xyz
x,y,z
-x,1/2+y,-z
-x,-y,-z
x,1/2-y,z
loop_
_atom_site_type_symbol
_atom_site_label
_atom_site_fract_x
_atom_site_fract_y
_atom_site_fract_z
Si Si1 0.254763 0.068048 0.234135
Si Si2 0.698639 0.564623 0.176579
Si Si3 0.890297 0.565444 0.775355
Si Si4 0.629599 0.432605 0.826780
Si Si5 0.621555 0.065609 0.138648
Si Si6 0.421873 0.063263 0.449800
Si Si7 0.087244 0.932914 0.454819
Si Si8 0.429096 0.434641 0.243071
O O1 0.258976 0.250000 0.220021
O O2 0.296420 0.012149 0.248595
O O3 0.155212 0.011641 0.397087
O O4 0.314254 0.996143 0.051000
O O5 0.692072 0.750000 0.183985
O O6 0.652481 0.496783 0.174976
O O7 0.648430 0.512605 0.352662
O O8 0.802308 0.524676 0.985464
O O9 0.890180 0.750000 0.761672
O O10 0.887943 0.486125 0.686409
O O11 0.983843 0.525937 0.650831
O O12 0.640410 0.250000 0.811561
O O13 0.624533 0.488725 0.737811
O O14 0.532988 0.470098 0.040808
O O15 0.625469 0.250000 0.131209
O O16 0.520910 0.017700 0.299320
O O17 0.421219 0.250000 0.449870
O O18 0.404132 0.014241 0.383833
O O19 0.096522 0.750000 0.444235
O O20 0.420138 0.250000 0.252917
#
# Coordination Sequence:
#
# PCOD9158292 Si02
#       8
#     4   4   4   4   4   4   4   4
#     4  12  22  32  48  71  96 127 163 199 241 291
#     4  10  19  32  49  70  96 130 166 199 233 276
#     4   9  18  31  47  70  96 124 160 198 238 284
#     4  10  19  32  50  71  96 123 156 197 241 287
#     4  11  20  32  46  67  98 133 167 199 233 274
#     4   9  18  32  49  68  97 132 165 197 231 276
#     4  10  19  31  48  68  95 126 157 198 244 287
#     4   9  17  32  49  69  96 127 160 193 233 282
#
# _framework density 15.599107999999999
#
# number of rings (size 3 to 8) (size 9 to 14) (size 15 to 20)
#    0.000    2.000    2.500    2.625    0.000    1.000 
#    0.000    1.250    0.000    0.000    0.000    0.875 
#    0.000    0.000    0.000    0.000    0.000    0.000 
#
# Total GULP energy -178553.731282 kJ/mol
# GULP energy per Si atom -5579.804103 kJ/mol
# Density = 1.556360 g / cm^3
# Si number density = 15.599108 Si / 1000 Ang^3
#
#
#
# Elastic Constant Matrix: (Units=GPa)
#
#
# Indices 1 2 3 4 5 6 
#
# 1 133.0856 37.0751 73.1566 0.0000 -4.3722 0.0000
# 2 37.0751 32.8466 30.3748 0.0000 -6.4119 0.0000
# 3 73.1566 30.3748 95.4012 0.0000 -0.0900 0.0000
# 4 0.0000 0.0000 0.0000 13.6878 0.0000 -1.9685
# 5 -4.3722 -6.4119 -0.0900 0.0000 21.4875 0.0000
# 6 0.0000 0.0000 0.0000 -1.9685 0.0000 22.2323
#
#
#
# Elastic Compliance Matrix: (Units=1/GPa)
#
#
# Indices 1 2 3 4 5 6 
#
# 1 0.014540 -0.008544 -0.008429 0.000000 0.000374 0.000000
# 2 -0.008544 0.052015 -0.009996 0.000000 0.013741 0.000000
# 3 -0.008429 -0.009996 0.020124 0.000000 -0.004614 0.000000
# 4 0.000000 0.000000 0.000000 0.074000 0.000000 0.006552
# 5 0.000374 0.013741 -0.004614 0.000000 0.050696 0.000000
# 6 0.000000 0.000000 0.000000 0.006552 0.000000 0.045560
#
#
# Mechanical properties :
#
#
# Convention : Reuss Voigt Hill
#
# Bulk Modulus (GPa) = 30.54346 60.28294 45.41320
# Shear Modulus (GPa) = 15.53831 19.52998 17.53415
#
# Velocity S-wave (km/s) = 3.15953 3.54219 3.35632
# Velocity P-wave (km/s) = 5.73873 7.44705 6.64799
#
# Compressibility (1/GPa) = 0.03274024
#
# Stress axis : x y z
#
# Youngs Moduli (GPa) = 68.77718 19.22531 49.69223
#
# Poissons Ratio (x) = 0.16426 0.41885
# Poissons Ratio (y) = 0.58763 0.49674
# Poissons Ratio (z) = 0.57971 0.19218
#
# Static dielectric constant tensor:
#      x y z
#    x 1.505530 0.000000 -0.010790 
#    y 0.000000 1.521850 0.000000 
#    z -0.010790 0.000000 1.518370 
# 
# From -- ./inp_files/51149.got.cif
#   From: 2010.05.17/outbox.cif.g08.bks.cpg/sg11_26_cif.got.tgz:51149.got - 2010.06.03 12:22:45.
