data_PCOD9158379
_publ_section_title
;
Structure prediction by ZEFSAII (Michael W. Deem and Ramdas Pophale) SiO2 
 PCOD9158379
Probable space group: P 21/M
;
_chemical_formula_sum "Si O2"
_cell_formula_units_Z 32
_cell_length_a 10.930302
_cell_length_b 21.098029
_cell_length_c 20.453014
_cell_angle_alpha 90.000000
_cell_angle_beta 157.076845
_cell_angle_gamma 90.000000
_cell_volume 1837.107562
_symmetry_space_group_name_H-M "P 21/M"
_symmetry_group_IT_number 11
_symmetry_cell_setting 'monoclinic'
loop_
_space_group_symop_operation_xyz
x,y,z
-x,1/2+y,-z
-x,-y,-z
x,1/2-y,z
loop_
_atom_site_type_symbol
_atom_site_label
_atom_site_fract_x
_atom_site_fract_y
_atom_site_fract_z
Si Si1 0.592111 0.174535 0.500280
Si Si2 0.358819 0.427594 0.127609
Si Si3 0.829427 0.988619 0.274402
Si Si4 0.790074 0.606017 0.144447
Si Si5 0.808420 0.455556 0.772496
Si Si6 0.212458 0.389824 0.428907
Si Si7 0.450824 0.576857 0.628693
Si Si8 0.396390 0.823841 0.845874
O O1 0.558295 0.250000 0.485691
O O2 0.353900 0.139355 0.432631
O O3 0.539202 0.143626 0.403294
O O4 0.939658 0.152644 0.694909
O O5 0.582403 0.478594 0.200904
O O6 0.445037 0.422521 0.245327
O O7 0.429595 0.361280 0.126174
O O8 0.003654 0.446152 0.934836
O O9 0.684452 0.940069 0.150752
O O10 0.100039 0.951441 0.447194
O O11 0.009864 0.045294 0.324577
O O12 0.962101 0.563029 0.174013
O O13 0.523835 0.645045 0.975951
O O14 0.509700 0.409034 0.619657
O O15 0.674872 0.526205 0.702401
O O16 0.971669 0.339636 0.340577
O O17 0.459851 0.750000 0.876284
#
# Coordination Sequence:
#
# PCOD9158379 Si02
#       8
#     4   4   4   4   4   4   4   4
#     4  10  19  31  49  71  97 128 159 194 236 285
#     4  10  20  32  50  73  99 131 161 196 236 284
#     4   9  18  32  51  74  98 122 156 201 248 286
#     4   9  18  32  51  74  96 121 156 202 248 285
#     4   9  18  32  50  73  98 123 158 202 247 283
#     4   9  18  32  50  72  96 122 157 202 247 284
#     4  10  19  32  49  72 100 131 161 194 235 286
#     4  10  20  33  50  71  97 128 161 197 237 286
#
# _framework density 17.418686000000001
#
# number of rings (size 3 to 8) (size 9 to 14) (size 15 to 20)
#    0.000    2.500    0.000    2.250    0.000    9.000 
#    0.000    0.625    0.000    0.000    0.000    0.000 
#    0.000    0.000    0.000    0.000    0.000    0.000 
#
# Total GULP energy -178445.960557 kJ/mol
# GULP energy per Si atom -5576.436267 kJ/mol
# Density = 1.737904 g / cm^3
# Si number density = 17.418686 Si / 1000 Ang^3
#
#
#
# Elastic Constant Matrix: (Units=GPa)
#
#
# Indices 1 2 3 4 5 6 
#
# 1 44.0313 33.2863 24.1512 0.0000 -14.4872 0.0000
# 2 33.2863 98.6329 33.6037 0.0000 -15.0722 0.0000
# 3 24.1512 33.6037 67.4152 0.0000 -11.2970 0.0000
# 4 0.0000 0.0000 0.0000 13.7549 0.0000 -2.4936
# 5 -14.4872 -15.0722 -11.2970 0.0000 27.0414 0.0000
# 6 0.0000 0.0000 0.0000 -2.4936 0.0000 9.4843
#
#
#
# Elastic Compliance Matrix: (Units=1/GPa)
#
#
# Indices 1 2 3 4 5 6 
#
# 1 0.036748 -0.008129 -0.007068 0.000000 0.012204 0.000000
# 2 -0.008129 0.014563 -0.003996 0.000000 0.002093 0.000000
# 3 -0.007068 -0.003996 0.019731 0.000000 0.002229 0.000000
# 4 0.000000 0.000000 0.000000 0.076340 0.000000 0.020071
# 5 0.012204 0.002093 0.002229 0.000000 0.045616 0.000000
# 6 0.000000 0.000000 0.000000 0.020071 0.000000 0.110715
#
#
# Mechanical properties :
#
#
# Convention : Reuss Voigt Hill
#
# Bulk Modulus (GPa) = 30.62191 43.57353 37.09772
# Shear Modulus (GPa) = 14.16490 17.99201 16.07846
#
# Velocity S-wave (km/s) = 2.85476 3.21739 3.04148
# Velocity P-wave (km/s) = 5.33707 6.23472 5.80328
#
# Compressibility (1/GPa) = 0.03265636
#
# Stress axis : x y z
#
# Youngs Moduli (GPa) = 27.21204 68.66629 50.68147
#
# Poissons Ratio (x) = 0.55817 0.35822
# Poissons Ratio (y) = 0.22120 0.20254
# Poissons Ratio (z) = 0.19234 0.27442
#
# Static dielectric constant tensor:
#      x y z
#    x 1.581780 0.000000 0.008380 
#    y 0.000000 1.582420 0.000000 
#    z 0.008380 0.000000 1.620380 
# 
# From -- ./inp_files/32645.got.cif
#   From: 2010.05.17/outbox.cif.g08.bks.cpg/sg11_17_cif.got.tgz:32645.got - 2010.06.03 12:22:45.
