data_PCOD9158798
_publ_section_title
;
Structure prediction by ZEFSAII (Michael W. Deem and Ramdas Pophale) SiO2 
 PCOD9158798
Probable space group: P 21/M
;
_chemical_formula_sum "Si O2"
_cell_formula_units_Z 32
_cell_length_a 12.506477
_cell_length_b 9.509091
_cell_length_c 16.184079
_cell_angle_alpha 90.000000
_cell_angle_beta 133.954869
_cell_angle_gamma 90.000000
_cell_volume 1385.562630
_symmetry_space_group_name_H-M "P 21/M"
_symmetry_group_IT_number 11
_symmetry_cell_setting 'monoclinic'
loop_
_space_group_symop_operation_xyz
x,y,z
-x,1/2+y,-z
-x,-y,-z
x,1/2-y,z
loop_
_atom_site_type_symbol
_atom_site_label
_atom_site_fract_x
_atom_site_fract_y
_atom_site_fract_z
Si Si1 0.759636 0.915332 0.033685
Si Si2 0.854783 0.916302 0.311531
Si Si3 0.909291 0.079723 0.767867
Si Si4 0.360522 0.407241 0.452555
Si Si5 0.850953 0.404312 0.471879
Si Si6 0.214185 0.086905 0.149280
Si Si7 0.546473 0.508134 0.328237
Si Si8 0.533649 0.587169 0.129911
O O1 0.732631 0.750000 0.033527
O O2 0.791259 0.934113 0.952445
O O3 0.609725 0.998752 0.973108
O O4 0.917405 0.950896 0.160812
O O5 0.833187 0.750000 0.294364
O O6 0.697476 0.970941 0.191850
O O7 0.031580 0.936838 0.392142
O O8 0.853949 0.975406 0.404654
O O9 0.889281 0.250000 0.753023
O O10 0.786021 0.993190 0.651277
O O11 0.878723 0.021724 0.844987
O O12 0.500000 0.500000 0.500000
O O13 0.355545 0.250000 0.414487
O O14 0.391763 0.393853 0.566793
O O15 0.894381 0.250000 0.461272
O O16 0.678808 0.395976 0.400760
O O17 0.173464 0.250000 0.143923
O O18 0.386928 0.057044 0.262798
O O19 0.534376 0.576039 0.230924
O O20 0.516337 0.750000 0.096431
#
# Coordination Sequence:
#
# PCOD9158798 Si02
#       8
#     4   4   4   4   4   4   4   4
#     4   9  20  35  50  73  99 127 164 209 253 302
#     4   8  15  27  43  71 106 136 164 198 245 296
#     4  11  23  37  52  70  97 130 168 211 257 298
#     4  12  25  39  55  72  98 133 174 215 254 297
#     4   9  16  27  46  70 101 137 169 200 239 298
#     4  10  19  32  51  72  97 127 166 209 253 301
#     4  10  20  32  50  74 102 132 171 208 251 292
#     4   9  17  30  51  76 103 133 163 200 249 303
#
# _framework density 23.095310000000001
#
# number of rings (size 3 to 8) (size 9 to 14) (size 15 to 20)
#    0.000    2.250    1.250    1.875    0.000    8.000 
#    0.000    0.000    0.000    0.000    0.000    0.875 
#    0.000    0.000    0.000    0.000    0.000    0.000 
#
# Total GULP energy -178364.913399 kJ/mol
# GULP energy per Si atom -5573.903544 kJ/mol
# Density = 2.304274 g / cm^3
# Si number density = 23.095310 Si / 1000 Ang^3
#
#
#
# Elastic Constant Matrix: (Units=GPa)
#
#
# Indices 1 2 3 4 5 6 
#
# 1 53.1370 28.9552 42.4047 0.0000 26.0218 0.0000
# 2 28.9552 92.2705 59.2860 0.0000 21.4403 0.0000
# 3 42.4047 59.2860 209.5969 0.0000 32.2894 0.0000
# 4 0.0000 0.0000 0.0000 232.0963 0.0000 58.2339
# 5 26.0218 21.4403 32.2894 0.0000 65.8238 0.0000
# 6 0.0000 0.0000 0.0000 58.2339 0.0000 22.1579
#
#
#
# Elastic Compliance Matrix: (Units=1/GPa)
#
#
# Indices 1 2 3 4 5 6 
#
# 1 0.027782 -0.004954 -0.003003 0.000000 -0.007896 0.000000
# 2 -0.004954 0.014580 -0.002912 0.000000 -0.001362 0.000000
# 3 -0.003003 -0.002912 0.006353 0.000000 -0.000981 0.000000
# 4 0.000000 0.000000 0.000000 0.012650 0.000000 -0.033247
# 5 -0.007896 -0.001362 -0.000981 0.000000 0.019239 0.000000
# 6 0.000000 0.000000 0.000000 -0.033247 0.000000 0.132507
#
#
# Mechanical properties :
#
#
# Convention : Reuss Voigt Hill
#
# Bulk Modulus (GPa) = 37.06784 68.47734 52.77259
# Shear Modulus (GPa) = 20.50513 78.97282 49.73898
#
# Velocity S-wave (km/s) = 2.98291 5.85393 4.64577
# Velocity P-wave (km/s) = 5.28663 8.68364 7.18868
#
# Compressibility (1/GPa) = 0.02697756
#
# Stress axis : x y z
#
# Youngs Moduli (GPa) = 35.99437 68.58828 157.39616
#
# Poissons Ratio (x) = 0.33978 0.47267
# Poissons Ratio (y) = 0.17831 0.45832
# Poissons Ratio (z) = 0.10809 0.19972
#
# Static dielectric constant tensor:
#      x y z
#    x 1.999950 0.000000 -0.020510 
#    y 0.000000 1.855740 0.000000 
#    z -0.020510 0.000000 1.898430 
# 
# From -- ./inp_files/69460.got.cif
#   From: 2010.05.17/outbox.cif.g08.bks.cpg/sg11_35_cif.got.tgz:69460.got - 2010.06.03 12:22:45.
