data_PCOD9158378
_publ_section_title
;
Structure prediction by ZEFSAII (Michael W. Deem and Ramdas Pophale) SiO2 
 PCOD9158378
Probable space group: P 21/M
;
_chemical_formula_sum "Si O2"
_cell_formula_units_Z 32
_cell_length_a 36.803127
_cell_length_b 7.473479
_cell_length_c 5.399108
_cell_angle_alpha 90.000000
_cell_angle_beta 81.564084
_cell_angle_gamma 90.000000
_cell_volume 1468.943626
_symmetry_space_group_name_H-M "P 21/M"
_symmetry_group_IT_number 11
_symmetry_cell_setting 'monoclinic'
loop_
_space_group_symop_operation_xyz
x,y,z
-x,1/2+y,-z
-x,-y,-z
x,1/2-y,z
loop_
_atom_site_type_symbol
_atom_site_label
_atom_site_fract_x
_atom_site_fract_y
_atom_site_fract_z
Si Si1 0.543243 0.535996 0.956758
Si Si2 0.205529 0.963579 0.294486
Si Si3 0.708010 0.535224 0.791995
Si Si4 0.167945 0.535727 0.832071
Si Si5 0.918555 0.535319 0.081435
Si Si6 0.331973 0.468857 0.668022
Si Si7 0.956748 0.964408 0.543242
Si Si8 0.417131 0.469019 0.582869
O O1 0.548196 0.750000 0.951805
O O2 0.562360 0.469571 0.686357
O O3 0.500000 0.500000 0.000000
O O4 0.562360 0.469571 0.188924
O O5 0.199445 0.750000 0.300572
O O6 0.186863 0.034926 0.563342
O O7 0.248950 0.994236 0.251052
O O8 0.186860 0.034927 0.062973
O O9 0.704105 0.750000 0.795900
O O10 0.688540 0.470384 0.560476
O O11 0.688541 0.470384 0.062457
O O12 0.173349 0.750000 0.826668
O O13 0.124643 0.501689 0.875361
O O14 0.923278 0.750000 0.076710
O O15 0.937702 0.466147 0.812369
O O16 0.937703 0.466147 0.312200
O O17 0.331210 0.250000 0.668784
O O18 0.374548 0.521854 0.625451
O O19 0.951741 0.750000 0.548247
O O20 0.000000 0.000000 0.500000
O O21 0.417963 0.250000 0.582036
#
# Coordination Sequence:
#
# PCOD9158378 Si02
#       8
#     4   4   4   4   4   4   4   4
#     4  10  19  31  49  71  95 126 161 197 241 289
#     4  10  21  36  52  73 103 134 165 202 243 294
#     4  10  19  31  51  76  98 124 160 202 245 286
#     4  10  21  36  54  75  99 133 172 204 241 292
#     4  10  21  36  54  78 106 133 166 211 255 291
#     4   9  17  30  49  74  99 122 159 206 241 282
#     4  10  21  36  54  78 106 136 169 205 249 297
#     4   9  17  30  49  71  95 126 161 197 241 289
#
# _framework density 21.784362000000002
#
# number of rings (size 3 to 8) (size 9 to 14) (size 15 to 20)
#    0.000    2.250    0.000    3.000    0.000    5.000 
#    0.000    0.000    0.000    4.500    0.000    0.000 
#    0.000    0.000    0.000    0.000    0.000    0.000 
#
# Total GULP energy -178913.060910 kJ/mol
# GULP energy per Si atom -5591.033153 kJ/mol
# Density = 2.173478 g / cm^3
# Si number density = 21.784362 Si / 1000 Ang^3
#
#
#
# Elastic Constant Matrix: (Units=GPa)
#
#
# Indices 1 2 3 4 5 6 
#
# 1 233.9697 -13.1547 171.3360 0.0000 3.7442 0.0000
# 2 -13.1547 63.4281 14.7366 0.0000 2.3927 0.0000
# 3 171.3360 14.7366 298.2156 0.0000 1.7727 0.0000
# 4 0.0000 0.0000 0.0000 -14.5259 0.0000 -3.5167
# 5 3.7442 2.3927 1.7727 0.0000 52.9555 0.0000
# 6 0.0000 0.0000 0.0000 -3.5167 0.0000 26.4685
#
#
#
# Elastic Compliance Matrix: (Units=1/GPa)
#
#
# Indices 1 2 3 4 5 6 
#
# 1 0.007822 0.002717 -0.004625 0.000000 -0.000521 0.000000
# 2 0.002717 0.016918 -0.002392 0.000000 -0.000876 0.000000
# 3 -0.004625 -0.002392 0.006128 0.000000 0.000230 0.000000
# 4 0.000000 0.000000 0.000000 -0.066697 0.000000 -0.008862
# 5 -0.000521 -0.000876 0.000230 0.000000 0.018953 0.000000
# 6 0.000000 0.000000 0.000000 -0.008862 0.000000 0.036603
#
#
# Mechanical properties :
#
#
# Convention : Reuss Voigt Hill
#
# Bulk Modulus (GPa) = 44.90929 104.60546 74.75738
# Shear Modulus (GPa) = 139.86263 41.15934 90.51099
#
# Velocity S-wave (km/s) = 8.02138 4.35144 6.45281
# Velocity P-wave (km/s) = 10.31747 8.56560 9.48208
#
# Compressibility (1/GPa) = 0.02226711
#
# Stress axis : x y z
#
# Youngs Moduli (GPa) = 127.84041 59.10867 163.19835
#
# Poissons Ratio (x) = -0.16057 0.75484
# Poissons Ratio (y) = -0.34729 0.39030
# Poissons Ratio (z) = 0.59130 0.14136
#
# Static dielectric constant tensor:
#      x y z
#    x 1.705700 0.000000 0.006750 
#    y 0.000000 1.824460 0.000000 
#    z 0.006750 0.000000 1.784430 
# 
# From -- ./inp_files/9684.got.cif
#   From: 2010.05.17/outbox.cif.g08.bks.cpg/sg11_5_cif.got.tgz:9684.got - 2010.06.03 12:22:45.
