data_PCOD9158441
_publ_section_title
;
Structure prediction by ZEFSAII (Michael W. Deem and Ramdas Pophale) SiO2 
 PCOD9158441
Probable space group: P 21/M
;
_chemical_formula_sum "Si O2"
_cell_formula_units_Z 24
_cell_length_a 21.378376
_cell_length_b 7.727396
_cell_length_c 9.243635
_cell_angle_alpha 90.000000
_cell_angle_beta 50.631631
_cell_angle_gamma 90.000000
_cell_volume 1180.530683
_symmetry_space_group_name_H-M "P 21/M"
_symmetry_group_IT_number 11
_symmetry_cell_setting 'monoclinic'
loop_
_space_group_symop_operation_xyz
x,y,z
-x,1/2+y,-z
-x,-y,-z
x,1/2-y,z
loop_
_atom_site_type_symbol
_atom_site_label
_atom_site_fract_x
_atom_site_fract_y
_atom_site_fract_z
Si Si1 0.739938 0.452612 0.073823
Si Si2 0.581312 0.456262 0.794987
Si Si3 0.911332 0.549129 0.448789
Si Si4 0.581429 0.458931 0.466706
Si Si5 0.739447 0.954524 0.741538
Si Si6 0.915582 0.037436 0.782342
O O1 0.742492 0.250000 0.106832
O O2 0.662058 0.527366 0.268820
O O3 0.728684 0.467437 0.917164
O O4 0.830323 0.520056 0.975459
O O5 0.587560 0.250000 0.779568
O O6 0.577065 0.523579 0.637421
O O7 0.660482 0.520240 0.762030
O O8 0.500000 0.500000 0.000000
O O9 0.911177 0.750000 0.405173
O O10 0.822324 0.475309 0.545993
O O11 0.913896 0.532266 0.620265
O O12 0.999268 0.478765 0.273159
O O13 0.500000 0.500000 0.500000
O O14 0.586505 0.250000 0.462975
O O15 0.751624 0.750000 0.746720
O O16 0.916263 0.250000 0.773332
#
# Coordination Sequence:
#
# PCOD9158441 Si02
#       6
#     4   4   4   4   4   4
#     4   9  17  31  51  74  99 128 163 202 244 287
#     4  11  23  38  54  73  97 126 161 199 241 289
#     4   8  14  24  40  66  98 127 157 194 233 274
#     4  10  22  37  53  73  96 123 157 198 243 291
#     4  10  19  31  49  75 104 132 162 197 238 283
#     4   8  13  23  42  67  94 125 159 195 235 277
#
# _framework density 20.329839
#
# number of rings (size 3 to 8) (size 9 to 14) (size 15 to 20)
#    0.000    2.667    0.000    2.000    0.000    5.333 
#    0.000    0.000    0.000    1.000    0.000    0.000 
#    0.000    0.000    0.000    0.000    0.000    1.333 
#
# Total GULP energy -133713.353717 kJ/mol
# GULP energy per Si atom -5571.389738 kJ/mol
# Density = 2.028357 g / cm^3
# Si number density = 20.329839 Si / 1000 Ang^3
#
#
#
# Elastic Constant Matrix: (Units=GPa)
#
#
# Indices 1 2 3 4 5 6 
#
# 1 145.1547 -10.0697 93.2419 0.0000 -50.1343 0.0000
# 2 -10.0697 37.0220 -1.2951 0.0000 -2.4921 0.0000
# 3 93.2419 -1.2951 150.1742 0.0000 -45.9349 0.0000
# 4 0.0000 0.0000 0.0000 13.3969 0.0000 -1.7097
# 5 -50.1343 -2.4921 -45.9349 0.0000 40.6223 0.0000
# 6 0.0000 0.0000 0.0000 -1.7097 0.0000 14.8540
#
#
#
# Elastic Compliance Matrix: (Units=1/GPa)
#
#
# Indices 1 2 3 4 5 6 
#
# 1 0.015150 0.004795 -0.005437 0.000000 0.012845 0.000000
# 2 0.004795 0.028768 -0.000580 0.000000 0.007027 0.000000
# 3 -0.005437 -0.000580 0.012179 0.000000 0.007026 0.000000
# 4 0.000000 0.000000 0.000000 0.075757 0.000000 0.008719
# 5 0.012845 0.007027 0.007026 0.000000 0.048846 0.000000
# 6 0.000000 0.000000 0.000000 0.008719 0.000000 0.068326
#
#
# Mechanical properties :
#
#
# Convention : Reuss Voigt Hill
#
# Bulk Modulus (GPa) = 18.63755 55.12276 36.88016
# Shear Modulus (GPa) = 18.56308 30.47291 24.51800
#
# Velocity S-wave (km/s) = 3.02503 3.87580 3.47653
# Velocity P-wave (km/s) = 4.62477 6.87038 5.85622
#
# Compressibility (1/GPa) = 0.05365512
#
# Stress axis : x y z
#
# Youngs Moduli (GPa) = 66.00467 34.76082 82.11125
#
# Poissons Ratio (x) = -0.16669 0.44640
# Poissons Ratio (y) = -0.31651 0.04760
# Poissons Ratio (z) = 0.35884 0.02015
#
# Static dielectric constant tensor:
#      x y z
#    x 1.724390 0.000000 -0.057970 
#    y 0.000000 1.791040 0.000000 
#    z -0.057970 0.000000 1.744680 
# 
# From -- ./inp_files/25709.got.cif
#   From: 2010.05.17/outbox.cif.g08.bks.cpg/sg11_13_cif.got.tgz:25709.got - 2010.06.03 12:22:45.
