data_PCOD9158394
_publ_section_title
;
Structure prediction by ZEFSAII (Michael W. Deem and Ramdas Pophale) SiO2 
 PCOD9158394
Probable space group: P 21/M
;
_chemical_formula_sum "Si O2"
_cell_formula_units_Z 32
_cell_length_a 31.856337
_cell_length_b 8.723902
_cell_length_c 15.519562
_cell_angle_alpha 90.000000
_cell_angle_beta 151.635253
_cell_angle_gamma 90.000000
_cell_volume 2049.063718
_symmetry_space_group_name_H-M "P 21/M"
_symmetry_group_IT_number 11
_symmetry_cell_setting 'monoclinic'
loop_
_space_group_symop_operation_xyz
x,y,z
-x,1/2+y,-z
-x,-y,-z
x,1/2-y,z
loop_
_atom_site_type_symbol
_atom_site_label
_atom_site_fract_x
_atom_site_fract_y
_atom_site_fract_z
Si Si1 0.618903 0.434201 0.650437
Si Si2 0.383629 0.065554 0.642410
Si Si3 0.107729 0.434792 0.279870
Si Si4 0.432791 0.932767 0.254441
Si Si5 0.078659 0.432898 0.026814
Si Si6 0.750653 0.066701 0.741786
Si Si7 0.424313 0.066109 0.056437
Si Si8 0.697510 0.936405 0.321055
O O1 0.605199 0.250000 0.619821
O O2 0.619620 0.474295 0.752768
O O3 0.533510 0.514156 0.454242
O O4 0.704947 0.472950 0.750322
O O5 0.384748 0.250000 0.640243
O O6 0.353939 0.018170 0.684872
O O7 0.312234 0.003796 0.445508
O O8 0.479660 0.001231 0.793047
O O9 0.102187 0.250000 0.275321
O O10 0.105772 0.474847 0.174443
O O11 0.200729 0.486343 0.487634
O O12 0.020480 0.506193 0.164017
O O13 0.430978 0.750000 0.240632
O O14 0.400368 0.011323 0.108876
O O15 0.080542 0.250000 0.023893
O O16 0.151360 0.504077 0.095522
O O17 0.750632 0.250000 0.733059
O O18 0.429828 0.250000 0.064783
O O19 0.354562 0.014245 0.858002
O O20 0.698810 0.750000 0.323237
#
# Coordination Sequence:
#
# PCOD9158394 Si02
#       8
#     4   4   4   4   4   4   4   4
#     4   9  19  33  49  69  95 124 160 200 242 290
#     4  11  20  33  48  68  97 131 168 204 235 274
#     4   9  17  33  50  67  93 127 163 198 237 282
#     4  10  19  32  49  69  94 126 160 201 245 283
#     4  10  19  31  49  72  98 124 156 198 241 287
#     4  11  20  31  49  73  98 128 160 194 239 293
#     4  11  21  33  48  69  97 132 168 201 237 284
#     4   9  19  34  50  67  95 132 168 202 237 279
#
# _framework density 15.616889
#
# number of rings (size 3 to 8) (size 9 to 14) (size 15 to 20)
#    0.000    2.000    2.500    2.250    0.000    1.500 
#    0.000    3.125    0.000    0.000    0.000    0.875 
#    0.000    0.000    0.000    0.000    0.000    0.000 
#
# Total GULP energy -178549.745794 kJ/mol
# GULP energy per Si atom -5579.679556 kJ/mol
# Density = 1.558134 g / cm^3
# Si number density = 15.616889 Si / 1000 Ang^3
#
#
#
# Elastic Constant Matrix: (Units=GPa)
#
#
# Indices 1 2 3 4 5 6 
#
# 1 136.8366 39.5779 63.1366 0.0000 5.8635 0.0000
# 2 39.5779 32.9895 23.4999 0.0000 2.9525 0.0000
# 3 63.1366 23.4999 78.9612 0.0000 0.1713 0.0000
# 4 0.0000 0.0000 0.0000 17.7989 0.0000 -0.0761
# 5 5.8635 2.9525 0.1713 0.0000 21.4145 0.0000
# 6 0.0000 0.0000 0.0000 -0.0761 0.0000 20.5648
#
#
#
# Elastic Compliance Matrix: (Units=1/GPa)
#
#
# Indices 1 2 3 4 5 6 
#
# 1 0.014455 -0.011299 -0.008190 0.000000 -0.002335 0.000000
# 2 -0.011299 0.047890 -0.005211 0.000000 -0.003468 0.000000
# 3 -0.008190 -0.005211 0.020758 0.000000 0.002795 0.000000
# 4 0.000000 0.000000 0.000000 0.056184 0.000000 0.000208
# 5 -0.002335 -0.003468 0.002795 0.000000 0.047792 0.000000
# 6 0.000000 0.000000 0.000000 0.000208 0.000000 0.048628
#
#
# Mechanical properties :
#
#
# Convention : Reuss Voigt Hill
#
# Bulk Modulus (GPa) = 29.67057 55.69067 42.68062
# Shear Modulus (GPa) = 16.87240 20.12715 18.49977
#
# Velocity S-wave (km/s) = 3.29050 3.59389 3.44554
# Velocity P-wave (km/s) = 5.78591 7.27732 6.57405
#
# Compressibility (1/GPa) = 0.03370343
#
# Stress axis : x y z
#
# Youngs Moduli (GPa) = 69.17989 20.88113 48.17356
#
# Poissons Ratio (x) = 0.23593 0.39456
# Poissons Ratio (y) = 0.78163 0.25103
# Poissons Ratio (z) = 0.56662 0.10881
#
# Static dielectric constant tensor:
#      x y z
#    x 1.528750 0.000000 -0.001850 
#    y 0.000000 1.523860 0.000000 
#    z -0.001850 0.000000 1.496600 
# 
# From -- ./inp_files/56467.got.cif
#   From: 2010.05.17/outbox.cif.g08.bks.cpg/sg11_29_cif.got.tgz:56467.got - 2010.06.03 12:22:45.
