data_PCOD9158679
_publ_section_title
;
Structure prediction by ZEFSAII (Michael W. Deem and Ramdas Pophale) SiO2 
 PCOD9158679
Probable space group: P 21/M
;
_chemical_formula_sum "Si O2"
_cell_formula_units_Z 32
_cell_length_a 21.815963
_cell_length_b 8.681600
_cell_length_c 16.165397
_cell_angle_alpha 90.000000
_cell_angle_beta 137.992677
_cell_angle_gamma 90.000000
_cell_volume 2048.958063
_symmetry_space_group_name_H-M "P 21/M"
_symmetry_group_IT_number 11
_symmetry_cell_setting 'monoclinic'
loop_
_space_group_symop_operation_xyz
x,y,z
-x,1/2+y,-z
-x,-y,-z
x,1/2-y,z
loop_
_atom_site_type_symbol
_atom_site_label
_atom_site_fract_x
_atom_site_fract_y
_atom_site_fract_z
Si Si1 0.605504 0.066097 0.699593
Si Si2 0.894367 0.437097 0.573099
Si Si3 0.102403 0.565198 0.099963
Si Si4 0.107472 0.435845 0.782542
Si Si5 0.212255 0.434521 0.053355
Si Si6 0.103261 0.934675 0.606101
Si Si7 0.396777 0.065839 0.487173
Si Si8 0.217452 0.563691 0.379023
O O1 0.616346 0.250000 0.712454
O O2 0.500743 0.026998 0.617678
O O3 0.683494 0.989166 0.832751
O O4 0.618615 0.009378 0.618370
O O5 0.895559 0.250000 0.577429
O O6 0.857889 0.479981 0.445125
O O7 0.833808 0.489611 0.589333
O O8 0.001021 0.485617 0.687348
O O9 0.099231 0.750000 0.093816
O O10 0.155700 0.503403 0.073427
O O11 0.157374 0.520538 0.238248
O O12 0.000000 0.500000 0.000000
O O13 0.107254 0.250000 0.777495
O O14 0.143620 0.500266 0.731530
O O15 0.166234 0.482949 0.920815
O O16 0.207638 0.250000 0.053905
O O17 0.100784 0.750000 0.607755
O O18 0.000000 0.000000 0.500000
O O19 0.390798 0.250000 0.472501
O O20 0.318044 0.005085 0.468044
O O21 0.223484 0.750000 0.386401
#
# Coordination Sequence:
#
# PCOD9158679 Si02
#       8
#     4   4   4   4   4   4   4   4
#     4  10  20  34  50  69  93 123 158 199 245 291
#     4   8  15  29  47  67  94 127 158 190 231 281
#     4  11  22  33  46  66  96 134 168 196 230 277
#     4   9  18  32  48  68  96 128 161 197 239 283
#     4  11  21  33  50  71  96 127 162 202 243 285
#     4   9  16  28  47  69  94 125 159 197 239 279
#     4  10  20  33  50  70  93 121 158 202 244 285
#     4  10  19  32  49  68  94 128 162 195 236 284
#
# _framework density 15.617694
#
# number of rings (size 3 to 8) (size 9 to 14) (size 15 to 20)
#    0.000    2.250    1.250    3.375    0.000    5.000 
#    0.000    3.125    0.000    0.000    0.000    0.875 
#    0.000    0.000    0.000    0.000    0.000    0.000 
#
# Total GULP energy -178428.214552 kJ/mol
# GULP energy per Si atom -5575.881705 kJ/mol
# Density = 1.558215 g / cm^3
# Si number density = 15.617694 Si / 1000 Ang^3
#
#
#
# Elastic Constant Matrix: (Units=GPa)
#
#
# Indices 1 2 3 4 5 6 
#
# 1 111.1953 30.1036 90.1583 0.0000 -14.1373 0.0000
# 2 30.1036 27.2442 30.4169 0.0000 -4.4945 0.0000
# 3 90.1583 30.4169 106.3270 0.0000 -12.1959 0.0000
# 4 0.0000 0.0000 0.0000 24.8354 0.0000 1.2238
# 5 -14.1373 -4.4945 -12.1959 0.0000 28.2575 0.0000
# 6 0.0000 0.0000 0.0000 1.2238 0.0000 24.4494
#
#
#
# Elastic Compliance Matrix: (Units=1/GPa)
#
#
# Indices 1 2 3 4 5 6 
#
# 1 0.030056 -0.006773 -0.023090 0.000000 0.003994 0.000000
# 2 -0.006773 0.055565 -0.010024 0.000000 0.001123 0.000000
# 3 -0.023090 -0.010024 0.031924 0.000000 0.000632 0.000000
# 4 0.000000 0.000000 0.000000 0.040365 0.000000 -0.002020
# 5 0.003994 0.001123 0.000632 0.000000 0.037839 0.000000
# 6 0.000000 0.000000 0.000000 -0.002020 0.000000 0.041002
#
#
# Mechanical properties :
#
#
# Convention : Reuss Voigt Hill
#
# Bulk Modulus (GPa) = 26.47475 60.68046 43.57761
# Shear Modulus (GPa) = 15.19228 21.78098 18.48663
#
# Velocity S-wave (km/s) = 3.12229 3.73853 3.44422
# Velocity P-wave (km/s) = 5.47603 7.58772 6.61666
#
# Compressibility (1/GPa) = 0.03777184
#
# Stress axis : x y z
#
# Youngs Moduli (GPa) = 33.27079 17.99693 31.32451
#
# Poissons Ratio (x) = 0.12189 0.72329
# Poissons Ratio (y) = 0.22534 0.31399
# Poissons Ratio (z) = 0.76823 0.18040
#
# Static dielectric constant tensor:
#      x y z
#    x 1.518210 0.000000 -0.008590 
#    y 0.000000 1.522240 0.000000 
#    z -0.008590 0.000000 1.524760 
# 
# From -- ./inp_files/51359.got.cif
#   From: 2010.05.17/outbox.cif.g08.bks.cpg/sg11_26_cif.got.tgz:51359.got - 2010.06.03 12:22:45.
