data_PCOD9158311
_publ_section_title
;
Structure prediction by ZEFSAII (Michael W. Deem and Ramdas Pophale) SiO2 
 PCOD9158311
Probable space group: P 21/M
;
_chemical_formula_sum "Si O2"
_cell_formula_units_Z 24
_cell_length_a 19.214031
_cell_length_b 7.656054
_cell_length_c 15.241701
_cell_angle_alpha 90.000000
_cell_angle_beta 23.059915
_cell_angle_gamma 90.000000
_cell_volume 878.219906
_symmetry_space_group_name_H-M "P 21/M"
_symmetry_group_IT_number 11
_symmetry_cell_setting 'monoclinic'
loop_
_space_group_symop_operation_xyz
x,y,z
-x,1/2+y,-z
-x,-y,-z
x,1/2-y,z
loop_
_atom_site_type_symbol
_atom_site_label
_atom_site_fract_x
_atom_site_fract_y
_atom_site_fract_z
Si Si1 0.412641 0.035997 0.775494
Si Si2 0.968685 0.959506 0.165579
Si Si3 0.296565 0.955073 0.687864
Si Si4 0.125875 0.035472 0.235266
Si Si5 0.334797 0.954493 0.361868
Si Si6 0.270424 0.448635 0.247779
O O1 0.413658 0.250000 0.771252
O O2 0.515867 0.973700 0.568237
O O3 0.539306 0.971641 0.708605
O O4 0.221809 0.980797 0.034145
O O5 0.976025 0.750000 0.150019
O O6 0.167170 0.030910 0.913843
O O7 0.837147 0.028603 0.241482
O O8 0.865246 0.005052 0.374271
O O9 0.320198 0.750000 0.675401
O O10 0.115012 0.250000 0.248891
O O11 0.247905 0.975016 0.176497
O O12 0.932766 0.964071 0.480728
O O13 0.355479 0.750000 0.345160
O O14 0.373862 0.995482 0.215439
O O15 0.318930 0.250000 0.177333
#
# Coordination Sequence:
#
# PCOD9158311 Si02
#       6
#     4   4   4   4   4   4
#     4   8  15  29  49  72  95 121 155 190 227 274
#     4   9  15  24  41  66  95 124 153 187 226 269
#     4   8  14  25  42  65  94 125 153 184 225 273
#     4   9  18  34  53  69  90 123 157 189 230 280
#     4  10  19  31  48  70  96 125 156 192 233 274
#     4  10  20  33  49  70  94 121 156 194 231 276
#
# _framework density 27.328006999999999
#
# number of rings (size 3 to 8) (size 9 to 14) (size 15 to 20)
#    0.000    3.000    0.000    2.500    0.000    2.000 
#    0.000    4.167    0.000    1.000    0.000    0.000 
#    0.000    0.000    0.000    0.000    0.000    0.000 
#
# Total GULP energy -134117.172873 kJ/mol
# GULP energy per Si atom -5588.215536 kJ/mol
# Density = 2.726581 g / cm^3
# Si number density = 27.328007 Si / 1000 Ang^3
#
#
#
# Elastic Constant Matrix: (Units=GPa)
#
#
# Indices 1 2 3 4 5 6 
#
# 1 103.2890 8.6509 23.5411 0.0000 42.5690 0.0000
# 2 8.6509 75.1070 -9.6504 0.0000 5.4710 0.0000
# 3 23.5411 -9.6504 180.0843 0.0000 44.9691 0.0000
# 4 0.0000 0.0000 0.0000 12.0256 0.0000 -10.7367
# 5 42.5690 5.4710 44.9691 0.0000 68.3245 0.0000
# 6 0.0000 0.0000 0.0000 -10.7367 0.0000 26.4340
#
#
#
# Elastic Compliance Matrix: (Units=1/GPa)
#
#
# Indices 1 2 3 4 5 6 
#
# 1 0.013104 -0.000864 0.000314 0.000000 -0.008301 0.000000
# 2 -0.000864 0.013662 0.001177 0.000000 -0.001330 0.000000
# 3 0.000314 0.001177 0.006758 0.000000 -0.004738 0.000000
# 4 0.000000 0.000000 0.000000 0.130470 0.000000 0.052993
# 5 -0.008301 -0.001330 -0.004738 0.000000 0.023033 0.000000
# 6 0.000000 0.000000 0.000000 0.052993 0.000000 0.059354
#
#
# Mechanical properties :
#
#
# Convention : Reuss Voigt Hill
#
# Bulk Modulus (GPa) = 28.75435 44.84040 36.79737
# Shear Modulus (GPa) = 19.47644 43.75272 31.61458
#
# Velocity S-wave (km/s) = 2.67252 4.00562 3.40495
# Velocity P-wave (km/s) = 4.47973 6.15119 5.38076
#
# Compressibility (1/GPa) = 0.03477735
#
# Stress axis : x y z
#
# Youngs Moduli (GPa) = 76.31377 73.19536 147.97075
#
# Poissons Ratio (x) = 0.06326 -0.04642
# Poissons Ratio (y) = 0.06596 -0.17421
# Poissons Ratio (z) = -0.02394 -0.08617
#
# Static dielectric constant tensor:
#      x y z
#    x 2.283240 0.000000 -0.090190 
#    y 0.000000 1.957460 0.000000 
#    z -0.090190 0.000000 2.212860 
# 
# From -- ./inp_files/40810.got.cif
#   From: 2010.05.17/outbox.cif.g08.bks.cpg/sg11_21_cif.got.tgz:40810.got - 2010.06.03 12:22:45.
