data_PCOD9158549
_publ_section_title
;
Structure prediction by ZEFSAII (Michael W. Deem and Ramdas Pophale) SiO2 
 PCOD9158549
Probable space group: P 21/M
;
_chemical_formula_sum "Si O2"
_cell_formula_units_Z 32
_cell_length_a 22.188444
_cell_length_b 8.944984
_cell_length_c 27.120441
_cell_angle_alpha 90.000000
_cell_angle_beta 160.729010
_cell_angle_gamma 90.000000
_cell_volume 1776.499609
_symmetry_space_group_name_H-M "P 21/M"
_symmetry_group_IT_number 11
_symmetry_cell_setting 'monoclinic'
loop_
_space_group_symop_operation_xyz
x,y,z
-x,1/2+y,-z
-x,-y,-z
x,1/2-y,z
loop_
_atom_site_type_symbol
_atom_site_label
_atom_site_fract_x
_atom_site_fract_y
_atom_site_fract_z
Si Si1 0.979250 0.070546 0.038339
Si Si2 0.144653 0.927728 0.812305
Si Si3 0.220042 0.926453 0.754569
Si Si4 0.228830 0.927162 0.490953
Si Si5 0.424399 0.572823 0.290654
Si Si6 0.187009 0.430824 0.565961
Si Si7 0.465129 0.070088 0.865239
Si Si8 0.345417 0.571519 0.345889
O O1 0.000646 0.250000 0.052595
O O2 0.766101 0.039285 0.885047
O O3 0.143676 0.000438 0.196990
O O4 0.000000 0.000000 0.000000
O O5 0.113953 0.750000 0.795347
O O6 0.199509 0.950334 0.797175
O O7 0.325720 0.977359 0.980817
O O8 0.958005 0.013234 0.678036
O O9 0.247765 0.750000 0.768023
O O10 0.020470 0.971380 0.579870
O O11 0.378389 0.013165 0.849123
O O12 0.223323 0.750000 0.490481
O O13 0.406422 0.981308 0.599080
O O14 0.230562 0.999428 0.546735
O O15 0.459831 0.750000 0.312160
O O16 0.395626 0.545080 0.326926
O O17 0.191118 0.250000 0.564344
O O18 0.331594 0.478703 0.718459
O O19 0.466438 0.250000 0.867856
O O20 0.500000 0.500000 0.500000
O O21 0.336541 0.750000 0.346504
#
# Coordination Sequence:
#
# PCOD9158549 Si02
#       8
#     4   4   4   4   4   4   4   4
#     4   9  17  31  53  80 108 139 174 210 251 298
#     4   9  19  35  51  70 100 135 168 205 253 309
#     4   9  17  29  47  71 101 133 161 200 254 307
#     4  11  22  35  54  76  96 129 175 217 254 294
#     4   9  19  36  57  78 103 139 175 206 249 306
#     4   9  19  35  51  70  99 132 165 205 255 308
#     4  10  19  31  51  75  97 127 165 205 254 309
#     4  10  20  34  55  84 116 146 173 208 255 301
#
# _framework density 18.01295
#
# number of rings (size 3 to 8) (size 9 to 14) (size 15 to 20)
#    0.000    2.500    0.000    4.125    0.000    6.000 
#    0.000    1.250    0.000    3.000    0.000    0.000 
#    0.000    0.000    0.000    0.000    0.000    0.000 
#
# Total GULP energy -178428.464442 kJ/mol
# GULP energy per Si atom -5575.889514 kJ/mol
# Density = 1.797195 g / cm^3
# Si number density = 18.012950 Si / 1000 Ang^3
#
#
#
# Elastic Constant Matrix: (Units=GPa)
#
#
# Indices 1 2 3 4 5 6 
#
# 1 19.4644 20.6690 25.4139 0.0000 10.8618 0.0000
# 2 20.6690 42.3647 52.7864 0.0000 10.2851 0.0000
# 3 25.4139 52.7864 161.2994 0.0000 6.5539 0.0000
# 4 0.0000 0.0000 0.0000 28.6494 0.0000 5.4800
# 5 10.8618 10.2851 6.5539 0.0000 27.3889 0.0000
# 6 0.0000 0.0000 0.0000 5.4800 0.0000 22.6731
#
#
#
# Elastic Compliance Matrix: (Units=1/GPa)
#
#
# Indices 1 2 3 4 5 6 
#
# 1 0.125082 -0.051929 -0.001505 0.000000 -0.029744 0.000000
# 2 -0.051929 0.065715 -0.013287 0.000000 -0.000904 0.000000
# 3 -0.001505 -0.013287 0.010662 0.000000 0.003035 0.000000
# 4 0.000000 0.000000 0.000000 0.036597 0.000000 -0.008845
# 5 -0.029744 -0.000904 0.003035 0.000000 0.047920 0.000000
# 6 0.000000 0.000000 0.000000 -0.008845 0.000000 0.046243
#
#
# Mechanical properties :
#
#
# Convention : Reuss Voigt Hill
#
# Bulk Modulus (GPa) = 14.70234 46.76302 30.73268
# Shear Modulus (GPa) = 10.23890 24.02621 17.13256
#
# Velocity S-wave (km/s) = 2.38674 3.65613 3.08738
# Velocity P-wave (km/s) = 3.97180 6.62119 5.45964
#
# Compressibility (1/GPa) = 0.06801639
#
# Stress axis : x y z
#
# Youngs Moduli (GPa) = 7.99477 15.21712 93.79290
#
# Poissons Ratio (x) = 0.79021 0.14114
# Poissons Ratio (y) = 0.41516 1.24625
# Poissons Ratio (z) = 0.01203 0.20219
#
# Static dielectric constant tensor:
#      x y z
#    x 1.597720 0.000000 -0.017830 
#    y 0.000000 1.595540 0.000000 
#    z -0.017830 0.000000 1.662180 
# 
# From -- ./inp_files/66920.got.cif
#   From: 2010.05.17/outbox.cif.g08.bks.cpg/sg11_34_cif.got.tgz:66920.got - 2010.06.03 12:22:45.
