data_PCOD9158138
_publ_section_title
;
Structure prediction by ZEFSAII (Michael W. Deem and Ramdas Pophale) SiO2 
 PCOD9158138
Probable space group: P 21/M
;
_chemical_formula_sum "Si O2"
_cell_formula_units_Z 28
_cell_length_a 14.625858
_cell_length_b 8.117462
_cell_length_c 16.951487
_cell_angle_alpha 90.000000
_cell_angle_beta 139.051858
_cell_angle_gamma 90.000000
_cell_volume 1318.984639
_symmetry_space_group_name_H-M "P 21/M"
_symmetry_group_IT_number 11
_symmetry_cell_setting 'monoclinic'
loop_
_space_group_symop_operation_xyz
x,y,z
-x,1/2+y,-z
-x,-y,-z
x,1/2-y,z
loop_
_atom_site_type_symbol
_atom_site_label
_atom_site_fract_x
_atom_site_fract_y
_atom_site_fract_z
Si Si1 0.321904 0.556143 0.714439
Si Si2 0.428492 0.053503 0.371048
Si Si3 0.302613 0.443911 0.533207
Si Si4 0.662007 0.051793 0.105370
Si Si5 0.643108 0.049938 0.919697
Si Si6 0.160635 0.451627 0.280987
Si Si7 0.088137 0.551629 0.981984
O O1 0.299188 0.750000 0.700478
O O2 0.257346 0.492318 0.591191
O O3 0.277159 0.488239 0.771620
O O4 0.488308 0.522088 0.816281
O O5 0.428639 0.250000 0.363993
O O6 0.270338 0.996724 0.283750
O O7 0.500000 0.000000 0.500000
O O8 0.533859 0.985705 0.374519
O O9 0.291097 0.250000 0.520007
O O10 0.215519 0.512874 0.401711
O O11 0.670387 0.250000 0.113776
O O12 0.709617 0.005223 0.048724
O O13 0.500000 0.000000 0.000000
O O14 0.628665 0.250000 0.906639
O O15 0.753387 0.992054 0.925925
O O16 0.164529 0.250000 0.285118
O O17 0.007443 0.500931 0.154568
O O18 0.095203 0.750000 0.986191
O O19 0.000000 0.500000 0.000000
#
# Coordination Sequence:
#
# PCOD9158138 Si02
#       7
#     4   4   4   4   4   4   4
#     4  10  19  30  49  76 103 127 156 201 254 300
#     4   9  16  28  45  66  91 124 160 198 240 284
#     4  10  19  31  48  70  96 127 163 203 247 292
#     4   8  15  29  48  71  97 126 158 196 245 294
#     4   9  18  33  52  73  99 130 165 201 239 292
#     4   8  17  33  49  65  92 128 163 198 237 284
#     4  10  21  36  52  72  97 130 167 202 237 282
#
# _framework density 21.228449000000001
#
# number of rings (size 3 to 8) (size 9 to 14) (size 15 to 20)
#    0.000    2.857    0.000    2.143    2.000    1.143 
#    0.000    3.571    0.000    0.857    0.000    0.000 
#    0.000    0.000    0.000    0.000    0.000    1.286 
#
# Total GULP energy -155951.665948 kJ/mol
# GULP energy per Si atom -5569.702355 kJ/mol
# Density = 2.118013 g / cm^3
# Si number density = 21.228449 Si / 1000 Ang^3
#
#
#
# Elastic Constant Matrix: (Units=GPa)
#
#
# Indices 1 2 3 4 5 6 
#
# 1 51.0265 -3.5184 4.6076 0.0000 -23.1589 0.0000
# 2 -3.5184 14.3641 -3.5526 0.0000 -4.7294 0.0000
# 3 4.6076 -3.5526 55.7883 0.0000 -16.6802 0.0000
# 4 0.0000 0.0000 0.0000 17.0894 0.0000 -8.3443
# 5 -23.1589 -4.7294 -16.6802 0.0000 39.3776 0.0000
# 6 0.0000 0.0000 0.0000 -8.3443 0.0000 17.8581
#
#
#
# Elastic Compliance Matrix: (Units=1/GPa)
#
#
# Indices 1 2 3 4 5 6 
#
# 1 0.030083 0.015755 0.005009 0.000000 0.021707 0.000000
# 2 0.015755 0.084224 0.011286 0.000000 0.024162 0.000000
# 3 0.005009 0.011286 0.022346 0.000000 0.013767 0.000000
# 4 0.000000 0.000000 0.000000 0.075812 0.000000 0.035424
# 5 0.021707 0.024162 0.013767 0.000000 0.046895 0.000000
# 6 0.000000 0.000000 0.000000 0.035424 0.000000 0.072549
#
#
# Mechanical properties :
#
#
# Convention : Reuss Voigt Hill
#
# Bulk Modulus (GPa) = 4.98125 12.91690 8.94907
# Shear Modulus (GPa) = 14.93751 23.10785 19.02268
#
# Velocity S-wave (km/s) = 2.65553 3.30287 2.99673
# Velocity P-wave (km/s) = 3.42841 4.54348 4.02475
#
# Compressibility (1/GPa) = 0.20075300
#
# Stress axis : x y z
#
# Youngs Moduli (GPa) = 33.24083 11.87311 44.75039
#
# Poissons Ratio (x) = -0.18705 -0.22414
# Poissons Ratio (y) = -0.52369 -0.50507
# Poissons Ratio (z) = -0.16649 -0.13401
#
# Static dielectric constant tensor:
#      x y z
#    x 1.811080 0.000000 -0.045260 
#    y 0.000000 1.749680 0.000000 
#    z -0.045260 0.000000 1.816240 
# 
# From -- ./inp_files/53213.got.cif
#   From: 2010.05.17/outbox.cif.g08.bks.cpg/sg11_27_cif.got.tgz:53213.got - 2010.06.03 12:22:45.
