data_PCOD9158359
_publ_section_title
;
Structure prediction by ZEFSAII (Michael W. Deem and Ramdas Pophale) SiO2 
 PCOD9158359
Probable space group: P 21/M
;
_chemical_formula_sum "Si O2"
_cell_formula_units_Z 32
_cell_length_a 25.401670
_cell_length_b 8.989688
_cell_length_c 16.483155
_cell_angle_alpha 90.000000
_cell_angle_beta 27.042182
_cell_angle_gamma 90.000000
_cell_volume 1711.279466
_symmetry_space_group_name_H-M "P 21/M"
_symmetry_group_IT_number 11
_symmetry_cell_setting 'monoclinic'
loop_
_space_group_symop_operation_xyz
x,y,z
-x,1/2+y,-z
-x,-y,-z
x,1/2-y,z
loop_
_atom_site_type_symbol
_atom_site_label
_atom_site_fract_x
_atom_site_fract_y
_atom_site_fract_z
Si Si1 0.742002 0.083174 0.999436
Si Si2 0.103181 0.072524 0.909716
Si Si3 0.930568 0.571291 0.854611
Si Si4 0.281533 0.571769 0.552004
Si Si5 0.804633 0.071282 0.508166
Si Si6 0.883409 0.417555 0.639106
Si Si7 0.449867 0.428741 0.841027
Si Si8 0.686810 0.573408 0.812042
O O1 0.713717 0.250000 0.067188
O O2 0.628491 0.997577 0.122977
O O3 0.815026 0.095806 0.816641
O O4 0.828009 0.001259 0.943337
O O5 0.096666 0.250000 0.910976
O O6 0.220903 0.011538 0.709049
O O7 0.089165 0.035942 0.023654
O O8 0.000000 0.000000 0.000000
O O9 0.925527 0.750000 0.851444
O O10 0.063165 0.524836 0.651045
O O11 0.270781 0.750000 0.578147
O O12 0.217047 0.534051 0.556206
O O13 0.416338 0.535217 0.356019
O O14 0.798656 0.250000 0.523975
O O15 0.701856 0.003250 0.704094
O O16 0.899262 0.250000 0.583408
O O17 0.807152 0.522490 0.687398
O O18 0.000000 0.500000 0.500000
O O19 0.435322 0.250000 0.858961
O O20 0.406220 0.475909 0.991564
O O21 0.677329 0.750000 0.815285
#
# Coordination Sequence:
#
# PCOD9158359 Si02
#       8
#     4   4   4   4   4   4   4   4
#     4  10  21  35  54  81 111 144 189 237 278 327
#     4  11  22  39  62  89 117 148 184 230 285 343
#     4  10  21  37  57  83 116 149 183 225 285 345
#     4  10  21  40  62  85 112 149 192 234 286 342
#     4  10  20  35  55  82 116 151 186 233 287 338
#     4  10  19  31  48  73 105 144 186 233 283 331
#     4   9  20  39  60  79 112 156 193 232 281 336
#     4  10  20  33  50  78 111 149 193 232 273 330
#
# _framework density 18.699459999999998
#
# number of rings (size 3 to 8) (size 9 to 14) (size 15 to 20)
#    0.000    2.000    1.250    2.250    0.000    7.000 
#    0.000    0.625    0.000    0.000    0.000    0.000 
#    0.000    0.000    0.000    0.000    0.000    0.000 
#
# Total GULP energy -178489.734218 kJ/mol
# GULP energy per Si atom -5577.804194 kJ/mol
# Density = 1.865690 g / cm^3
# Si number density = 18.699460 Si / 1000 Ang^3
#
#
#
# Elastic Constant Matrix: (Units=GPa)
#
#
# Indices 1 2 3 4 5 6 
#
# 1 78.3061 25.0268 38.6704 0.0000 9.7971 0.0000
# 2 25.0268 31.2131 35.1535 0.0000 7.1430 0.0000
# 3 38.6704 35.1535 115.7318 0.0000 3.3109 0.0000
# 4 0.0000 0.0000 0.0000 29.2417 0.0000 5.1249
# 5 9.7971 7.1430 3.3109 0.0000 26.1088 0.0000
# 6 0.0000 0.0000 0.0000 5.1249 0.0000 23.9968
#
#
#
# Elastic Compliance Matrix: (Units=1/GPa)
#
#
# Indices 1 2 3 4 5 6 
#
# 1 0.017897 -0.010530 -0.002682 0.000000 -0.003495 0.000000
# 2 -0.010530 0.058586 -0.013982 0.000000 -0.010304 0.000000
# 3 -0.002682 -0.013982 0.013695 0.000000 0.003095 0.000000
# 4 0.000000 0.000000 0.000000 0.035528 0.000000 -0.007587
# 5 -0.003495 -0.010304 0.003095 0.000000 0.042039 0.000000
# 6 0.000000 0.000000 0.000000 -0.007587 0.000000 0.043293
#
#
# Mechanical properties :
#
#
# Convention : Reuss Voigt Hill
#
# Bulk Modulus (GPa) = 27.94018 46.99470 37.46744
# Shear Modulus (GPa) = 18.02733 24.29616 21.16175
#
# Velocity S-wave (km/s) = 3.10829 3.60849 3.36769
# Velocity P-wave (km/s) = 5.27789 6.52286 5.93312
#
# Compressibility (1/GPa) = 0.03579075
#
# Stress axis : x y z
#
# Youngs Moduli (GPa) = 55.87401 17.06885 73.01789
#
# Poissons Ratio (x) = 0.17974 0.19581
# Poissons Ratio (y) = 0.58836 1.02095
# Poissons Ratio (z) = 0.14984 0.23866
#
# Static dielectric constant tensor:
#      x y z
#    x 1.617520 0.000000 0.033760 
#    y 0.000000 1.599600 0.000000 
#    z 0.033760 0.000000 1.652480 
# 
# From -- ./inp_files/55520.got.cif
#   From: 2010.05.17/outbox.cif.g08.bks.cpg/sg11_28_cif.got.tgz:55520.got - 2010.06.03 12:22:45.
