data_PCOD9158213
_publ_section_title
;
Structure prediction by ZEFSAII (Michael W. Deem and Ramdas Pophale) SiO2 
 PCOD9158213
Probable space group: P 21/M
;
_chemical_formula_sum "Si O2"
_cell_formula_units_Z 32
_cell_length_a 14.903562
_cell_length_b 7.554261
_cell_length_c 16.122567
_cell_angle_alpha 90.000000
_cell_angle_beta 90.142247
_cell_angle_gamma 90.000000
_cell_volume 1815.160015
_symmetry_space_group_name_H-M "P 21/M"
_symmetry_group_IT_number 11
_symmetry_cell_setting 'monoclinic'
loop_
_space_group_symop_operation_xyz
x,y,z
-x,1/2+y,-z
-x,-y,-z
x,1/2-y,z
loop_
_atom_site_type_symbol
_atom_site_label
_atom_site_fract_x
_atom_site_fract_y
_atom_site_fract_z
Si Si1 0.606218 0.959838 0.993660
Si Si2 0.903236 0.540867 0.396866
Si Si3 0.391014 0.032866 0.825780
Si Si4 0.404159 0.956617 0.188421
Si Si5 0.713504 0.966983 0.337985
Si Si6 0.605639 0.539225 0.501254
Si Si7 0.101500 0.965271 0.408544
Si Si8 0.284580 0.956308 0.334988
O O1 0.618867 0.750000 0.989387
O O2 0.634915 0.032973 0.904699
O O3 0.642293 0.023702 0.082830
O O4 0.500000 0.000000 0.000000
O O5 0.906370 0.750000 0.379437
O O6 0.815542 0.470413 0.350530
O O7 0.887590 0.517477 0.495265
O O8 0.003236 0.470714 0.379685
O O9 0.392674 0.250000 0.827519
O O10 0.494073 0.971130 0.813122
O O11 0.331205 0.977582 0.748226
O O12 0.415597 0.750000 0.209782
O O13 0.339660 0.035293 0.258189
O O14 0.713543 0.750000 0.338664
O O15 0.654127 0.023203 0.417082
O O16 0.500000 0.500000 0.500000
O O17 0.617255 0.750000 0.505085
O O18 0.654199 0.464671 0.582670
O O19 0.101132 0.750000 0.407101
O O20 0.187042 0.031423 0.357639
O O21 0.268443 0.750000 0.314887
#
# Coordination Sequence:
#
# PCOD9158213 Si02
#       8
#     4   4   4   4   4   4   4   4
#     4   9  16  27  44  64  85 109 142 180 221 260
#     4   9  16  28  45  64  84 111 146 183 221 263
#     4   8  14  25  41  60  81 108 139 175 212 251
#     4   9  17  29  44  60  84 116 147 179 220 261
#     4   9  16  27  43  62  85 114 147 176 212 262
#     4  11  21  31  43  61  88 122 154 181 212 256
#     4   9  17  28  44  64  87 111 142 186 227 259
#     4  10  19  31  45  63  88 119 150 182 222 264
#
# _framework density 17.629300000000001
#
# number of rings (size 3 to 8) (size 9 to 14) (size 15 to 20)
#    0.000    2.750    1.250    2.250    0.000    2.500 
#    0.000    0.000    0.000    6.000    0.000    0.875 
#    0.000    0.000    0.000    0.000    0.000    0.000 
#
# Total GULP energy -178331.506608 kJ/mol
# GULP energy per Si atom -5572.859581 kJ/mol
# Density = 1.758917 g / cm^3
# Si number density = 17.629300 Si / 1000 Ang^3
#
#
#
# Elastic Constant Matrix: (Units=GPa)
#
#
# Indices 1 2 3 4 5 6 
#
# 1 137.3824 -2.8335 77.8408 0.0000 3.0322 0.0000
# 2 -2.8335 37.4284 -11.4403 0.0000 -0.0057 0.0000
# 3 77.8408 -11.4403 136.4111 0.0000 6.9210 0.0000
# 4 0.0000 0.0000 0.0000 13.0392 0.0000 2.8834
# 5 3.0322 -0.0057 6.9210 0.0000 10.5968 0.0000
# 6 0.0000 0.0000 0.0000 2.8834 0.0000 5.9734
#
#
#
# Elastic Compliance Matrix: (Units=1/GPa)
#
#
# Indices 1 2 3 4 5 6 
#
# 1 0.010811 -0.001112 -0.006315 0.000000 0.001030 0.000000
# 2 -0.001112 0.027559 0.003029 0.000000 -0.001645 0.000000
# 3 -0.006315 0.003029 0.011477 0.000000 -0.005687 0.000000
# 4 0.000000 0.000000 0.000000 0.085857 0.000000 -0.041444
# 5 0.001030 -0.001645 -0.005687 0.000000 0.097787 0.000000
# 6 0.000000 0.000000 0.000000 -0.041444 0.000000 0.187413
#
#
# Mechanical properties :
#
#
# Convention : Reuss Voigt Hill
#
# Bulk Modulus (GPa) = 24.35894 48.70619 36.53256
# Shear Modulus (GPa) = 11.27695 22.43223 16.85459
#
# Velocity S-wave (km/s) = 2.53192 3.57100 3.09537
# Velocity P-wave (km/s) = 4.73231 6.68511 5.79161
#
# Compressibility (1/GPa) = 0.04105269
#
# Stress axis : x y z
#
# Youngs Moduli (GPa) = 92.49660 36.28561 87.13258
#
# Poissons Ratio (x) = 0.04033 0.55022
# Poissons Ratio (y) = 0.10281 -0.26393
# Poissons Ratio (z) = 0.58409 -0.10991
#
# Static dielectric constant tensor:
#      x y z
#    x 1.611040 0.000000 -0.009480 
#    y 0.000000 1.671140 0.000000 
#    z -0.009480 0.000000 1.603860 
# 
# From -- ./inp_files/51245.got.cif
#   From: 2010.05.17/outbox.cif.g08.bks.cpg/sg11_26_cif.got.tgz:51245.got - 2010.06.03 12:22:45.
