data_PCOD9158929
_publ_section_title
;
Structure prediction by ZEFSAII (Michael W. Deem and Ramdas Pophale) SiO2 
 PCOD9158929
Probable space group: P 21/M
;
_chemical_formula_sum "Si O2"
_cell_formula_units_Z 32
_cell_length_a 11.109146
_cell_length_b 15.452052
_cell_length_c 16.619515
_cell_angle_alpha 90.000000
_cell_angle_beta 144.562293
_cell_angle_gamma 90.000000
_cell_volume 1654.156112
_symmetry_space_group_name_H-M "P 21/M"
_symmetry_group_IT_number 11
_symmetry_cell_setting 'monoclinic'
loop_
_space_group_symop_operation_xyz
x,y,z
-x,1/2+y,-z
-x,-y,-z
x,1/2-y,z
loop_
_atom_site_type_symbol
_atom_site_label
_atom_site_fract_x
_atom_site_fract_y
_atom_site_fract_z
Si Si1 0.585562 0.486747 0.171521
Si Si2 0.081866 0.510206 0.133354
Si Si3 0.459977 0.496613 0.667622
Si Si4 0.963230 0.554900 0.629977
Si Si5 0.981441 0.111174 0.755108
Si Si6 0.431373 0.149461 0.954710
Si Si7 0.101375 0.347915 0.256216
Si Si8 0.558380 0.156134 0.457127
O O1 0.505468 0.492098 0.218689
O O2 0.533655 0.578302 0.098012
O O3 0.834114 0.469033 0.310519
O O4 0.505432 0.406630 0.072922
O O5 0.327078 0.531853 0.259373
O O6 0.981984 0.584739 0.133054
O O7 0.039747 0.420026 0.157470
O O8 0.000000 0.500000 0.000000
O O9 0.252029 0.441732 0.535884
O O10 0.418920 0.588031 0.601757
O O11 0.950773 0.477698 0.688654
O O12 0.990927 0.635311 0.705606
O O13 0.762553 0.156009 0.622429
O O14 0.182445 0.155353 0.828401
O O15 0.508563 0.250000 0.988871
O O16 0.057743 0.250000 0.206693
O O17 0.351820 0.361124 0.396566
O O18 0.529335 0.250000 0.403966
#
# Coordination Sequence:
#
# PCOD9158929 Si02
#       8
#     4   4   4   4   4   4   4   4
#     4  10  21  36  54  79 107 139 180 218 256 310
#     4  10  19  32  52  77 105 139 173 211 264 320
#     4  10  19  33  53  76 105 138 171 214 268 316
#     4   9  18  33  53  73  98 134 174 214 258 306
#     4   9  17  32  53  76 100 131 171 212 257 312
#     4  10  21  37  56  76 103 141 179 216 258 308
#     4   9  18  33  52  75 103 134 173 218 261 310
#     4   9  17  30  51  78 104 132 170 217 266 314
#
# _framework density 19.345210999999999
#
# number of rings (size 3 to 8) (size 9 to 14) (size 15 to 20)
#    0.000    2.500    0.000    2.250    0.000    5.000 
#    0.000    4.375    0.000    3.750    0.000    0.000 
#    0.000    0.000    0.000    0.000    0.000    0.000 
#
# Total GULP energy -178170.228946 kJ/mol
# GULP energy per Si atom -5567.819655 kJ/mol
# Density = 1.930118 g / cm^3
# Si number density = 19.345211 Si / 1000 Ang^3
#
#
#
# Elastic Constant Matrix: (Units=GPa)
#
#
# Indices 1 2 3 4 5 6 
#
# 1 59.3380 18.7013 -0.1265 0.0000 -15.7898 0.0000
# 2 18.7013 90.3795 14.5184 0.0000 -6.0824 0.0000
# 3 -0.1265 14.5184 55.2651 0.0000 -7.8220 0.0000
# 4 0.0000 0.0000 0.0000 12.1732 0.0000 1.0500
# 5 -15.7898 -6.0824 -7.8220 0.0000 26.1720 0.0000
# 6 0.0000 0.0000 0.0000 1.0500 0.0000 12.0502
#
#
#
# Elastic Compliance Matrix: (Units=1/GPa)
#
#
# Indices 1 2 3 4 5 6 
#
# 1 0.021591 -0.004070 0.002953 0.000000 0.012963 0.000000
# 2 -0.004070 0.012406 -0.003350 0.000000 -0.000573 0.000000
# 3 0.002953 -0.003350 0.019968 0.000000 0.006971 0.000000
# 4 0.000000 0.000000 0.000000 0.082769 0.000000 -0.007212
# 5 0.012963 -0.000573 0.006971 0.000000 0.047980 0.000000
# 6 0.000000 0.000000 0.000000 -0.007212 0.000000 0.083615
#
#
# Mechanical properties :
#
#
# Convention : Reuss Voigt Hill
#
# Bulk Modulus (GPa) = 22.20589 30.12986 26.16787
# Shear Modulus (GPa) = 17.10737 21.53837 19.32287
#
# Velocity S-wave (km/s) = 2.97698 3.34034 3.16388
# Velocity P-wave (km/s) = 4.82910 5.52140 5.18681
#
# Compressibility (1/GPa) = 0.04503310
#
# Stress axis : x y z
#
# Youngs Moduli (GPa) = 46.31574 80.60594 50.08020
#
# Poissons Ratio (x) = 0.32803 -0.14790
# Poissons Ratio (y) = 0.18849 0.16775
# Poissons Ratio (z) = -0.13678 0.26999
#
# Static dielectric constant tensor:
#      x y z
#    x 1.705280 0.000000 0.053230 
#    y 0.000000 1.711430 0.000000 
#    z 0.053230 0.000000 1.695940 
# 
# From -- ./inp_files/50420.got.cif
#   From: 2010.05.17/outbox.cif.g08.bks.cpg/sg11_26_cif.got.tgz:50420.got - 2010.06.03 12:22:45.
