data_PCOD9158023
_publ_section_title
;
Structure prediction by ZEFSAII (Michael W. Deem and Ramdas Pophale) SiO2 
 PCOD9158023
Probable space group: P 21/M
;
_chemical_formula_sum "Si O2"
_cell_formula_units_Z 32
_cell_length_a 19.426604
_cell_length_b 7.400040
_cell_length_c 12.633502
_cell_angle_alpha 90.000000
_cell_angle_beta 39.776195
_cell_angle_gamma 90.000000
_cell_volume 1161.963418
_symmetry_space_group_name_H-M "P 21/M"
_symmetry_group_IT_number 11
_symmetry_cell_setting 'monoclinic'
loop_
_space_group_symop_operation_xyz
x,y,z
-x,1/2+y,-z
-x,-y,-z
x,1/2-y,z
loop_
_atom_site_type_symbol
_atom_site_label
_atom_site_fract_x
_atom_site_fract_y
_atom_site_fract_z
Si Si1 0.822205 0.470718 0.564492
Si Si2 0.881136 0.035255 0.941690
Si Si3 0.872725 0.045087 0.725557
Si Si4 0.327163 0.970414 0.561447
Si Si5 0.634110 0.468006 0.261822
Si Si6 0.626569 0.958462 0.035041
Si Si7 0.898808 0.033831 0.242141
Si Si8 0.594745 0.030313 0.764463
O O1 0.823525 0.250000 0.563942
O O2 0.884828 0.535068 0.594312
O O3 0.868900 0.529130 0.396937
O O4 0.696173 0.525945 0.715231
O O5 0.872249 0.250000 0.939603
O O6 0.910991 0.957603 0.789928
O O7 0.760818 0.975727 0.108123
O O8 0.975314 0.008789 0.915013
O O9 0.910987 0.250000 0.676202
O O10 0.741754 0.051757 0.892572
O O11 0.327992 0.750000 0.563793
O O12 0.393526 0.030748 0.586105
O O13 0.201385 0.028805 0.710045
O O14 0.370030 0.023334 0.396351
O O15 0.626755 0.250000 0.266368
O O16 0.589935 0.537026 0.202431
O O17 0.644284 0.750000 0.987689
O O18 0.528112 0.034219 0.081555
O O19 0.892540 0.250000 0.247190
O O20 0.590713 0.250000 0.771605
#
# Coordination Sequence:
#
# PCOD9158023 Si02
#       8
#     4   4   4   4   4   4   4   4
#     4   8  15  30  50  69  90 120 157 189 221 270
#     4   9  18  30  43  64  94 123 151 187 231 271
#     4   9  18  33  50  66  90 126 159 184 219 274
#     4   8  15  30  50  69  90 120 157 189 221 270
#     4   9  18  33  50  66  90 126 159 184 219 274
#     4  10  19  30  46  71  98 119 147 192 236 267
#     4   9  17  30  50  72  90 115 155 195 226 265
#     4   8  15  28  47  71  96 119 147 190 235 267
#
# _framework density 27.539593
#
# number of rings (size 3 to 8) (size 9 to 14) (size 15 to 20)
#    0.000    3.250    0.000    2.625    0.000    4.000 
#    0.000    1.250    0.000    7.500    0.000    0.000 
#    0.000    0.000    0.000    0.000    0.000    0.000 
#
# Total GULP energy -178903.102532 kJ/mol
# GULP energy per Si atom -5590.721954 kJ/mol
# Density = 2.747691 g / cm^3
# Si number density = 27.539593 Si / 1000 Ang^3
#
#
#
# Elastic Constant Matrix: (Units=GPa)
#
#
# Indices 1 2 3 4 5 6 
#
# 1 186.2998 5.0651 7.3101 0.0000 -11.3764 0.0000
# 2 5.0651 110.2545 6.6980 0.0000 -0.3256 0.0000
# 3 7.3101 6.6980 58.1737 0.0000 -12.0862 0.0000
# 4 0.0000 0.0000 0.0000 11.5447 0.0000 -7.6678
# 5 -11.3764 -0.3256 -12.0862 0.0000 62.2880 0.0000
# 6 0.0000 0.0000 0.0000 -7.6678 0.0000 9.6693
#
#
#
# Elastic Compliance Matrix: (Units=1/GPa)
#
#
# Indices 1 2 3 4 5 6 
#
# 1 0.005447 -0.000219 -0.000472 0.000000 0.000902 0.000000
# 2 -0.000219 0.009144 -0.001067 0.000000 -0.000199 0.000000
# 3 -0.000472 -0.001067 0.018082 0.000000 0.003417 0.000000
# 4 0.000000 0.000000 0.000000 0.183016 0.000000 0.145133
# 5 0.000902 -0.000199 0.003417 0.000000 0.016881 0.000000
# 6 0.000000 0.000000 0.000000 0.145133 0.000000 0.218512
#
#
# Mechanical properties :
#
#
# Convention : Reuss Voigt Hill
#
# Bulk Modulus (GPa) = 34.29546 43.65269 38.97407
# Shear Modulus (GPa) = 10.76851 39.07738 24.92295
#
# Velocity S-wave (km/s) = 1.97957 3.77099 3.01156
# Velocity P-wave (km/s) = 4.20774 5.90303 5.12595
#
# Compressibility (1/GPa) = 0.02915838
#
# Stress axis : x y z
#
# Youngs Moduli (GPa) = 183.57879 109.35901 55.30394
#
# Poissons Ratio (x) = 0.02394 0.02610
# Poissons Ratio (y) = 0.04019 0.05899
# Poissons Ratio (z) = 0.08662 0.11665
#
# Static dielectric constant tensor:
#      x y z
#    x 2.125520 0.000000 0.033300 
#    y 0.000000 2.033830 0.000000 
#    z 0.033300 0.000000 2.285350 
# 
# From -- ./inp_files/54260.got.cif
#   From: 2010.05.17/outbox.cif.g08.bks.cpg/sg11_28_cif.got.tgz:54260.got - 2010.06.03 12:22:45.
