data_PCOD9158316
_publ_section_title
;
Structure prediction by ZEFSAII (Michael W. Deem and Ramdas Pophale) SiO2 
 PCOD9158316
Probable space group: P 21/M
;
_chemical_formula_sum "Si O2"
_cell_formula_units_Z 28
_cell_length_a 15.785533
_cell_length_b 9.568802
_cell_length_c 18.169034
_cell_angle_alpha 90.000000
_cell_angle_beta 142.744309
_cell_angle_gamma 90.000000
_cell_volume 1661.390561
_symmetry_space_group_name_H-M "P 21/M"
_symmetry_group_IT_number 11
_symmetry_cell_setting 'monoclinic'
loop_
_space_group_symop_operation_xyz
x,y,z
-x,1/2+y,-z
-x,-y,-z
x,1/2-y,z
loop_
_atom_site_type_symbol
_atom_site_label
_atom_site_fract_x
_atom_site_fract_y
_atom_site_fract_z
Si Si1 0.661124 0.580679 0.908862
Si Si2 0.395885 0.589312 0.635885
Si Si3 0.621865 0.588099 0.046793
Si Si4 0.851256 0.920486 0.901841
Si Si5 0.145904 0.413747 0.510516
Si Si6 0.417264 0.411065 0.381602
Si Si7 0.123699 0.091593 0.665075
O O1 0.665258 0.750000 0.909737
O O2 0.508101 0.539242 0.773856
O O3 0.776029 0.538716 0.927426
O O4 0.671229 0.536379 0.000433
O O5 0.356086 0.750000 0.624453
O O6 0.261754 0.492687 0.543760
O O7 0.481745 0.588032 0.619659
O O8 0.575776 0.750000 0.006141
O O9 0.751796 0.585881 0.191598
O O10 0.500000 0.500000 0.000000
O O11 0.868817 0.750000 0.912889
O O12 0.736324 0.954309 0.757576
O O13 0.000000 0.000000 0.000000
O O14 0.144898 0.250000 0.494778
O O15 0.176589 0.436117 0.618818
O O16 0.995274 0.482895 0.396052
O O17 0.500000 0.500000 0.500000
O O18 0.403129 0.250000 0.397123
O O19 0.064457 0.250000 0.623306
#
# Coordination Sequence:
#
# PCOD9158316 Si02
#       7
#     4   4   4   4   4   4   4
#     4   8  16  32  53  74  98 131 168 201 242 303
#     4   9  17  32  53  73  95 128 165 200 246 302
#     4  10  19  32  51  74 100 130 164 205 248 291
#     4   9  18  35  56  78 105 138 175 215 261 314
#     4  10  19  31  48  70  96 130 167 205 247 287
#     4   9  19  35  54  77 105 134 170 216 262 312
#     4   9  19  33  47  67  99 133 166 202 242 293
#
# _framework density 16.853352000000001
#
# number of rings (size 3 to 8) (size 9 to 14) (size 15 to 20)
#    0.000    2.857    0.000    3.000    0.000    2.286 
#    2.571    2.857    0.000    0.000    0.000    0.000 
#    0.000    0.000    0.000    0.000    0.000    0.000 
#
# Total GULP energy -155890.260059 kJ/mol
# GULP energy per Si atom -5567.509288 kJ/mol
# Density = 1.681499 g / cm^3
# Si number density = 16.853352 Si / 1000 Ang^3
#
#
#
# Elastic Constant Matrix: (Units=GPa)
#
#
# Indices 1 2 3 4 5 6 
#
# 1 61.9368 35.6389 42.9369 0.0000 13.3426 0.0000
# 2 35.6389 59.3633 44.7720 0.0000 11.7850 0.0000
# 3 42.9369 44.7720 89.1792 0.0000 -3.6667 0.0000
# 4 0.0000 0.0000 0.0000 27.0320 0.0000 5.4083
# 5 13.3426 11.7850 -3.6667 0.0000 21.6312 0.0000
# 6 0.0000 0.0000 0.0000 5.4083 0.0000 31.0334
#
#
#
# Elastic Compliance Matrix: (Units=1/GPa)
#
#
# Indices 1 2 3 4 5 6 
#
# 1 0.033421 -0.005324 -0.014246 0.000000 -0.020129 0.000000
# 2 -0.005324 0.036256 -0.016431 0.000000 -0.019254 0.000000
# 3 -0.014246 -0.016431 0.027240 0.000000 0.022356 0.000000
# 4 0.000000 0.000000 0.000000 0.038330 0.000000 -0.006680
# 5 -0.020129 -0.019254 0.022356 0.000000 0.072925 0.000000
# 6 0.000000 0.000000 0.000000 -0.006680 0.000000 0.033387
#
#
# Mechanical properties :
#
#
# Convention : Reuss Voigt Hill
#
# Bulk Modulus (GPa) = 40.13377 50.79721 45.46549
# Shear Modulus (GPa) = 15.53442 21.74809 18.64126
#
# Velocity S-wave (km/s) = 3.03931 3.59615 3.32940
# Velocity P-wave (km/s) = 6.01513 6.88834 6.46649
#
# Compressibility (1/GPa) = 0.02491667
#
# Stress axis : x y z
#
# Youngs Moduli (GPa) = 29.92132 27.58159 36.71015
#
# Poissons Ratio (x) = 0.14684 0.52297
# Poissons Ratio (y) = 0.15930 0.60317
# Poissons Ratio (z) = 0.42626 0.45318
#
# Static dielectric constant tensor:
#      x y z
#    x 1.562970 0.000000 -0.021910 
#    y 0.000000 1.575690 0.000000 
#    z -0.021910 0.000000 1.574910 
# 
# From -- ./inp_files/42587.got.cif
#   From: 2010.05.17/outbox.cif.g08.bks.cpg/sg11_22_cif.got.tgz:42587.got - 2010.06.03 12:22:45.
