data_PCOD9158976
_publ_section_title
;
Structure prediction by ZEFSAII (Michael W. Deem and Ramdas Pophale) SiO2 
 PCOD9158976
Probable space group: P 21/M
;
_chemical_formula_sum "Si O2"
_cell_formula_units_Z 28
_cell_length_a 14.599845
_cell_length_b 13.967358
_cell_length_c 8.231902
_cell_angle_alpha 90.000000
_cell_angle_beta 40.956569
_cell_angle_gamma 90.000000
_cell_volume 1100.339302
_symmetry_space_group_name_H-M "P 21/M"
_symmetry_group_IT_number 11
_symmetry_cell_setting 'monoclinic'
loop_
_space_group_symop_operation_xyz
x,y,z
-x,1/2+y,-z
-x,-y,-z
x,1/2-y,z
loop_
_atom_site_type_symbol
_atom_site_label
_atom_site_fract_x
_atom_site_fract_y
_atom_site_fract_z
Si Si1 0.774963 0.861778 0.717193
Si Si2 0.356094 0.361281 0.464735
Si Si3 0.698352 0.357774 0.311556
Si Si4 0.532894 0.537089 0.200658
Si Si5 0.116771 0.026481 0.978181
Si Si6 0.039715 0.634978 0.525847
Si Si7 0.314569 0.857590 0.300109
O O1 0.757228 0.750000 0.788434
O O2 0.715657 0.870913 0.616560
O O3 0.939712 0.884475 0.507204
O O4 0.685417 0.924537 0.962041
O O5 0.380929 0.250000 0.465845
O O6 0.494936 0.426735 0.275637
O O7 0.241060 0.408898 0.735687
O O8 0.693288 0.250000 0.255536
O O9 0.545486 0.403469 0.550510
O O10 0.753565 0.353827 0.426826
O O11 0.801075 0.429284 0.083552
O O12 0.443382 0.575393 0.165469
O O13 0.041181 0.084434 0.219797
O O14 0.000000 0.000000 0.000000
O O15 0.044957 0.750000 0.541939
O O16 0.200800 0.606076 0.326532
O O17 0.362548 0.750000 0.196124
#
# Coordination Sequence:
#
# PCOD9158976 Si02
#       7
#     4   4   4   4   4   4   4
#     4  10  20  34  54  81 110 142 179 225 275 320
#     4  10  21  34  52  80 111 140 179 230 274 314
#     4   8  15  27  48  73  95 125 177 226 251 295
#     4   9  16  32  55  75  99 140 187 218 256 323
#     4  11  19  32  53  77 103 141 180 214 260 321
#     4  10  19  32  52  80 111 140 175 220 273 325
#     4   8  14  28  50  75  98 130 178 224 254 307
#
# _framework density 25.446695999999999
#
# number of rings (size 3 to 8) (size 9 to 14) (size 15 to 20)
#    0.857    1.714    1.429    1.714    0.000    0.571 
#    0.000    5.714    0.000    2.571    0.000    0.000 
#    0.000    0.000    0.000    0.000    0.000    0.000 
#
# Total GULP energy -156662.613403 kJ/mol
# GULP energy per Si atom -5595.093336 kJ/mol
# Density = 2.538878 g / cm^3
# Si number density = 25.446696 Si / 1000 Ang^3
#
#
#
# Elastic Constant Matrix: (Units=GPa)
#
#
# Indices 1 2 3 4 5 6 
#
# 1 104.5162 43.6630 23.5887 0.0000 -17.0859 0.0000
# 2 43.6630 106.5255 45.1642 0.0000 -3.1321 0.0000
# 3 23.5887 45.1642 76.4768 0.0000 -9.0325 0.0000
# 4 0.0000 0.0000 0.0000 27.3191 0.0000 -2.8481
# 5 -17.0859 -3.1321 -9.0325 0.0000 25.0763 0.0000
# 6 0.0000 0.0000 0.0000 -2.8481 0.0000 22.0516
#
#
#
# Elastic Compliance Matrix: (Units=1/GPa)
#
#
# Indices 1 2 3 4 5 6 
#
# 1 0.013051 -0.005087 -0.000048 0.000000 0.008239 0.000000
# 2 -0.005087 0.014537 -0.007531 0.000000 -0.004363 0.000000
# 3 -0.000048 -0.007531 0.018198 0.000000 0.005581 0.000000
# 4 0.000000 0.000000 0.000000 0.037104 0.000000 0.004792
# 5 0.008239 -0.004363 0.005581 0.000000 0.046958 0.000000
# 6 0.000000 0.000000 0.000000 0.004792 0.000000 0.045967
#
#
# Mechanical properties :
#
#
# Convention : Reuss Voigt Hill
#
# Bulk Modulus (GPa) = 48.89263 56.92781 52.91022
# Shear Modulus (GPa) = 24.04251 26.56291 25.30271
#
# Velocity S-wave (km/s) = 3.07712 3.23439 3.15674
# Velocity P-wave (km/s) = 5.64627 6.03062 5.84161
#
# Compressibility (1/GPa) = 0.02045298
#
# Stress axis : x y z
#
# Youngs Moduli (GPa) = 76.62410 68.78909 54.95179
#
# Poissons Ratio (x) = 0.34990 0.00266
# Poissons Ratio (y) = 0.38975 0.41387
# Poissons Ratio (z) = 0.00371 0.51808
#
# Static dielectric constant tensor:
#      x y z
#    x 2.073960 0.000000 0.034580 
#    y 0.000000 2.001170 0.000000 
#    z 0.034580 0.000000 1.955260 
# 
# From -- ./inp_files/19111.got.cif
#   From: 2010.05.17/outbox.cif.g08.bks.cpg/sg11_10_cif.got.tgz:19111.got - 2010.06.03 12:22:45.
