data_PCOD9158619
_publ_section_title
;
Structure prediction by ZEFSAII (Michael W. Deem and Ramdas Pophale) SiO2 
 PCOD9158619
Probable space group: P 21/M
;
_chemical_formula_sum "Si O2"
_cell_formula_units_Z 32
_cell_length_a 7.380261
_cell_length_b 29.727519
_cell_length_c 10.418251
_cell_angle_alpha 90.000000
_cell_angle_beta 148.133483
_cell_angle_gamma 90.000000
_cell_volume 1206.733892
_symmetry_space_group_name_H-M "P 21/M"
_symmetry_group_IT_number 11
_symmetry_cell_setting 'monoclinic'
loop_
_space_group_symop_operation_xyz
x,y,z
-x,1/2+y,-z
-x,-y,-z
x,1/2-y,z
loop_
_atom_site_type_symbol
_atom_site_label
_atom_site_fract_x
_atom_site_fract_y
_atom_site_fract_z
Si Si1 0.318773 0.803748 0.525357
Si Si2 0.257411 0.118944 0.396523
Si Si3 0.838899 0.302236 0.107733
Si Si4 0.735371 0.456930 0.605083
Si Si5 0.392801 0.567593 0.022297
Si Si6 0.257466 0.351798 0.672870
Si Si7 0.498867 0.973572 0.821182
Si Si8 0.717943 0.695765 0.996846
O O1 0.368741 0.750000 0.542279
O O2 0.007107 0.814403 0.441281
O O3 0.612403 0.823515 0.795938
O O4 0.091672 0.819823 0.267824
O O5 0.586294 0.089971 0.566393
O O6 0.167929 0.121228 0.492228
O O7 0.200089 0.171740 0.330262
O O8 0.955106 0.091532 0.143318
O O9 0.889441 0.250000 0.124343
O O10 0.587114 0.310863 0.080048
O O11 0.606685 0.324177 0.858538
O O12 0.500000 0.500000 0.500000
O O13 0.675079 0.455698 0.413360
O O14 0.102809 0.463570 0.897217
O O15 0.316706 0.544717 0.839778
O O16 0.664383 0.608210 0.178620
O O17 0.515204 0.527764 0.187346
O O18 0.738882 0.750000 0.998705
#
# Coordination Sequence:
#
# PCOD9158619 Si02
#       8
#     4   4   4   4   4   4   4   4
#     4   9  15  25  41  67 106 145 178 231 305 354
#     4  11  22  35  63  94 131 163 220 271 323 385
#     4   9  18  31  49  84 127 165 203 267 332 374
#     4  12  25  43  67  96 131 174 213 270 329 391
#     4  10  24  40  63  92 122 171 214 267 313 393
#     4  10  19  31  53  85 125 157 205 266 317 373
#     4  11  26  45  66  89 132 174 215 256 330 392
#     4   8  13  22  36  58  94 138 173 211 281 349
#
# _framework density 26.517859000000001
#
# number of rings (size 3 to 8) (size 9 to 14) (size 15 to 20)
#    0.000    2.000    2.500    2.250    5.250    1.500 
#    0.000    0.000    0.000    0.000    0.000    8.750 
#    0.000    0.000    0.000    0.000    0.000    0.000 
#
# Total GULP energy -178601.503878 kJ/mol
# GULP energy per Si atom -5581.296996 kJ/mol
# Density = 2.645750 g / cm^3
# Si number density = 26.517859 Si / 1000 Ang^3
#
#
#
# Elastic Constant Matrix: (Units=GPa)
#
#
# Indices 1 2 3 4 5 6 
#
# 1 46.2647 -9.2130 11.0781 0.0000 -15.6224 0.0000
# 2 -9.2130 141.3229 -2.5180 0.0000 6.5987 0.0000
# 3 11.0781 -2.5180 143.8576 0.0000 -4.5852 0.0000
# 4 0.0000 0.0000 0.0000 42.9486 0.0000 5.9766
# 5 -15.6224 6.5987 -4.5852 0.0000 37.1690 0.0000
# 6 0.0000 0.0000 0.0000 5.9766 0.0000 -14.5585
#
#
#
# Elastic Compliance Matrix: (Units=1/GPa)
#
#
# Indices 1 2 3 4 5 6 
#
# 1 0.025755 0.001164 -0.001631 0.000000 0.010417 0.000000
# 2 0.001164 0.007189 0.000011 0.000000 -0.000786 0.000000
# 3 -0.001631 0.000011 0.007083 0.000000 0.000186 0.000000
# 4 0.000000 0.000000 0.000000 0.022025 0.000000 0.009042
# 5 0.010417 -0.000786 0.000186 0.000000 0.031445 0.000000
# 6 0.000000 0.000000 0.000000 0.009042 0.000000 -0.064977
#
#
# Mechanical properties :
#
#
# Convention : Reuss Voigt Hill
#
# Bulk Modulus (GPa) = 25.56639 36.68218 31.12429
# Shear Modulus (GPa) = 117.72883 35.25170 76.49026
#
# Velocity S-wave (km/s) = 6.67026 3.64999 5.37656
# Velocity P-wave (km/s) = 8.30574 5.62372 7.09266
#
# Compressibility (1/GPa) = 0.03911385
#
# Stress axis : x y z
#
# Youngs Moduli (GPa) = 38.82815 139.10653 141.18229
#
# Poissons Ratio (x) = -0.16185 0.23025
# Poissons Ratio (y) = -0.04518 -0.00158
# Poissons Ratio (z) = 0.06332 -0.00156
#
# Static dielectric constant tensor:
#      x y z
#    x 2.447630 0.000000 0.061290 
#    y 0.000000 1.984960 0.000000 
#    z 0.061290 0.000000 2.215930 
# 
# From -- ./inp_files/33219.got.cif
#   From: 2010.05.17/outbox.cif.g08.bks.cpg/sg11_17_cif.got.tgz:33219.got - 2010.06.03 12:22:45.
