data_PCOD9158462
_publ_section_title
;
Structure prediction by ZEFSAII (Michael W. Deem and Ramdas Pophale) SiO2 
 PCOD9158462
Probable space group: P 21/M
;
_chemical_formula_sum "Si O2"
_cell_formula_units_Z 32
_cell_length_a 28.081217
_cell_length_b 8.876303
_cell_length_c 14.380667
_cell_angle_alpha 90.000000
_cell_angle_beta 147.731570
_cell_angle_gamma 90.000000
_cell_volume 1913.709606
_symmetry_space_group_name_H-M "P 21/M"
_symmetry_group_IT_number 11
_symmetry_cell_setting 'monoclinic'
loop_
_space_group_symop_operation_xyz
x,y,z
-x,1/2+y,-z
-x,-y,-z
x,1/2-y,z
loop_
_atom_site_type_symbol
_atom_site_label
_atom_site_fract_x
_atom_site_fract_y
_atom_site_fract_z
Si Si1 0.990140 0.070736 0.676189
Si Si2 0.816832 0.926975 0.446641
Si Si3 0.867241 0.928164 0.329298
Si Si4 0.355398 0.427768 0.266938
Si Si5 0.509609 0.568977 0.159673
Si Si6 0.170953 0.929173 0.932389
Si Si7 0.519287 0.070299 0.675323
Si Si8 0.356996 0.929733 0.758317
O O1 0.994105 0.250000 0.684115
O O2 0.912581 0.008554 0.615823
O O3 0.953245 0.011527 0.515283
O O4 0.086599 0.998173 0.847485
O O5 0.825736 0.750000 0.479925
O O6 0.799972 0.943416 0.306723
O O7 0.737905 0.998625 0.374647
O O8 0.884465 0.750000 0.344060
O O9 0.834347 0.002629 0.180822
O O10 0.336504 0.250000 0.230531
O O11 0.404046 0.482918 0.253271
O O12 0.427238 0.454483 0.467200
O O13 0.264368 0.517974 0.128995
O O14 0.521103 0.750000 0.175867
O O15 0.491580 0.524669 0.235865
O O16 0.595752 0.492757 0.255846
O O17 0.425355 0.530936 0.955127
O O18 0.164086 0.750000 0.917108
O O19 0.538602 0.250000 0.703391
O O20 0.349583 0.750000 0.741645
#
# Coordination Sequence:
#
# PCOD9158462 Si02
#       8
#     4   4   4   4   4   4   4   4
#     4  10  19  32  48  68  97 131 167 205 247 295
#     4   9  19  32  47  67  99 134 165 199 241 292
#     4   9  19  32  45  66  95 130 167 201 243 292
#     4  10  21  35  52  74 100 129 170 215 252 297
#     4   9  19  34  52  72 100 133 166 205 251 298
#     4  12  22  32  47  68  97 131 169 208 249 295
#     4   9  19  37  55  73  98 132 169 209 256 300
#     4  10  19  31  49  77 105 131 167 205 246 296
#
# _framework density 16.721451999999999
#
# number of rings (size 3 to 8) (size 9 to 14) (size 15 to 20)
#    0.750    1.500    0.000    3.750    1.750    1.500 
#    0.000    0.000    0.000    0.000    0.000    0.875 
#    0.000    0.000    0.000    0.000    0.000    0.000 
#
# Total GULP energy -178369.844697 kJ/mol
# GULP energy per Si atom -5574.057647 kJ/mol
# Density = 1.668339 g / cm^3
# Si number density = 16.721452 Si / 1000 Ang^3
#
#
#
# Elastic Constant Matrix: (Units=GPa)
#
#
# Indices 1 2 3 4 5 6 
#
# 1 78.4127 28.6077 25.9373 0.0000 11.3228 0.0000
# 2 28.6077 88.5226 32.1101 0.0000 16.3015 0.0000
# 3 25.9373 32.1101 43.9717 0.0000 20.5842 0.0000
# 4 0.0000 0.0000 0.0000 24.9261 0.0000 7.0140
# 5 11.3228 16.3015 20.5842 0.0000 27.7814 0.0000
# 6 0.0000 0.0000 0.0000 7.0140 0.0000 26.6186
#
#
#
# Elastic Compliance Matrix: (Units=1/GPa)
#
#
# Indices 1 2 3 4 5 6 
#
# 1 0.016228 -0.002428 -0.008222 0.000000 0.000902 0.000000
# 2 -0.002428 0.015751 -0.009503 0.000000 -0.001212 0.000000
# 3 -0.008222 -0.009503 0.046470 0.000000 -0.025504 0.000000
# 4 0.000000 0.000000 0.000000 0.043331 0.000000 -0.011418
# 5 0.000902 -0.001212 -0.025504 0.000000 0.055236 0.000000
# 6 0.000000 0.000000 0.000000 -0.011418 0.000000 0.040576
#
#
# Mechanical properties :
#
#
# Convention : Reuss Voigt Hill
#
# Bulk Modulus (GPa) = 26.21614 42.69080 34.45347
# Shear Modulus (GPa) = 18.47656 24.14868 21.31262
#
# Velocity S-wave (km/s) = 3.32770 3.80435 3.57398
# Velocity P-wave (km/s) = 5.52060 6.69951 6.13842
#
# Compressibility (1/GPa) = 0.03814444
#
# Stress axis : x y z
#
# Youngs Moduli (GPa) = 61.62104 63.48627 21.51928
#
# Poissons Ratio (x) = 0.15417 0.17692
# Poissons Ratio (y) = 0.14964 0.20449
# Poissons Ratio (z) = 0.50662 0.60328
#
# Static dielectric constant tensor:
#      x y z
#    x 1.561110 0.000000 0.013280 
#    y 0.000000 1.553680 0.000000 
#    z 0.013280 0.000000 1.559930 
# 
# From -- ./inp_files/56201.got.cif
#   From: 2010.05.17/outbox.cif.g08.bks.cpg/sg11_29_cif.got.tgz:56201.got - 2010.06.03 12:22:45.
