data_PCOD9158574
_publ_section_title
;
Structure prediction by ZEFSAII (Michael W. Deem and Ramdas Pophale) SiO2 
 PCOD9158574
Probable space group: P 21/M
;
_chemical_formula_sum "Si O2"
_cell_formula_units_Z 32
_cell_length_a 19.724670
_cell_length_b 8.110527
_cell_length_c 26.897891
_cell_angle_alpha 90.000000
_cell_angle_beta 158.734825
_cell_angle_gamma 90.000000
_cell_volume 1560.653498
_symmetry_space_group_name_H-M "P 21/M"
_symmetry_group_IT_number 11
_symmetry_cell_setting 'monoclinic'
loop_
_space_group_symop_operation_xyz
x,y,z
-x,1/2+y,-z
-x,-y,-z
x,1/2-y,z
loop_
_atom_site_type_symbol
_atom_site_label
_atom_site_fract_x
_atom_site_fract_y
_atom_site_fract_z
Si Si1 0.302207 0.553201 0.715611
Si Si2 0.901856 0.950861 0.722817
Si Si3 0.737471 0.560291 0.710683
Si Si4 0.614323 0.058066 0.726820
Si Si5 0.026803 0.449668 0.439943
Si Si6 0.202017 0.451983 0.458237
Si Si7 0.297110 0.555203 0.039618
Si Si8 0.118215 0.064117 0.011128
O O1 0.316879 0.750000 0.728277
O O2 0.189180 0.505908 0.588513
O O3 0.508733 0.480663 0.854470
O O4 0.169424 0.495032 0.670177
O O5 0.890771 0.750000 0.715928
O O6 0.762979 0.007200 0.672204
O O7 0.858252 0.008024 0.637677
O O8 0.113531 0.994359 0.882915
O O9 0.677183 0.750000 0.667841
O O10 0.617049 0.465626 0.669280
O O11 0.948645 0.550391 0.877500
O O12 0.632271 0.250000 0.750948
O O13 0.416726 0.996784 0.612442
O O14 0.787125 0.971014 0.871630
O O15 0.026757 0.250000 0.440102
O O16 0.073706 0.505504 0.416339
O O17 0.200852 0.250000 0.456684
O O18 0.285221 0.750000 0.041632
O O19 0.278323 0.461584 0.079101
O O20 0.044657 0.250000 0.959644
#
# Coordination Sequence:
#
# PCOD9158574 Si02
#       8
#     4   4   4   4   4   4   4   4
#     4  10  19  31  51  80 110 136 167 208 255 307
#     4   8  17  34  54  73  95 131 175 215 253 299
#     4  10  20  35  53  74 103 136 171 210 255 306
#     4  11  21  32  51  78 105 134 170 212 259 310
#     4   9  18  33  54  78 105 137 170 210 258 306
#     4   9  18  34  54  74  98 131 173 215 256 303
#     4  10  19  33  54  77 103 136 172 207 251 307
#     4  11  21  34  53  77 106 134 167 213 260 305
#
# _framework density 20.504231000000001
#
# number of rings (size 3 to 8) (size 9 to 14) (size 15 to 20)
#    0.000    2.250    0.000    4.500    0.000    2.000 
#    0.000    1.250    0.000   12.750    0.000    0.000 
#    0.000    0.000    0.000    0.000    0.000    0.000 
#
# Total GULP energy -178688.505078 kJ/mol
# GULP energy per Si atom -5584.015784 kJ/mol
# Density = 2.045756 g / cm^3
# Si number density = 20.504231 Si / 1000 Ang^3
#
#
#
# Elastic Constant Matrix: (Units=GPa)
#
#
# Indices 1 2 3 4 5 6 
#
# 1 126.7527 -3.4332 18.9365 0.0000 -10.6025 0.0000
# 2 -3.4332 28.0429 -3.7138 0.0000 -1.8998 0.0000
# 3 18.9365 -3.7138 27.9752 0.0000 -6.0923 0.0000
# 4 0.0000 0.0000 0.0000 13.0788 0.0000 2.9524
# 5 -10.6025 -1.8998 -6.0923 0.0000 32.5931 0.0000
# 6 0.0000 0.0000 0.0000 2.9524 0.0000 23.8100
#
#
#
# Elastic Compliance Matrix: (Units=1/GPa)
#
#
# Indices 1 2 3 4 5 6 
#
# 1 0.008888 0.000482 -0.005542 0.000000 0.001883 0.000000
# 2 0.000482 0.036636 0.005250 0.000000 0.003274 0.000000
# 3 -0.005542 0.005250 0.041560 0.000000 0.006272 0.000000
# 4 0.000000 0.000000 0.000000 0.078662 0.000000 -0.009754
# 5 0.001883 0.003274 0.006272 0.000000 0.032657 0.000000
# 6 0.000000 0.000000 0.000000 -0.009754 0.000000 0.043209
#
#
# Mechanical properties :
#
#
# Convention : Reuss Voigt Hill
#
# Bulk Modulus (GPa) = 11.43332 22.92776 17.18054
# Shear Modulus (GPa) = 18.49208 25.29513 21.89360
#
# Velocity S-wave (km/s) = 3.00637 3.51615 3.27121
# Velocity P-wave (km/s) = 4.19990 5.26219 4.76077
#
# Compressibility (1/GPa) = 0.08746363
#
# Stress axis : x y z
#
# Youngs Moduli (GPa) = 112.51192 27.29580 24.06143
#
# Poissons Ratio (x) = -0.01315 0.13335
# Poissons Ratio (y) = -0.05420 -0.12633
# Poissons Ratio (z) = 0.62356 -0.14331
#
# Static dielectric constant tensor:
#      x y z
#    x 1.761550 0.000000 0.008330 
#    y 0.000000 1.718850 0.000000 
#    z 0.008330 0.000000 1.713080 
# 
# From -- ./inp_files/72176.got.cif
#   From: 2010.05.17/outbox.cif.g08.bks.cpg/sg11_37_cif.got.tgz:72176.got - 2010.06.03 12:22:45.
