data_PCOD9158302
_publ_section_title
;
Structure prediction by ZEFSAII (Michael W. Deem and Ramdas Pophale) SiO2 
 PCOD9158302
Probable space group: P 21/M
;
_chemical_formula_sum "Si O2"
_cell_formula_units_Z 32
_cell_length_a 24.479542
_cell_length_b 8.671384
_cell_length_c 34.735382
_cell_angle_alpha 90.000000
_cell_angle_beta 15.644020
_cell_angle_gamma 90.000000
_cell_volume 1988.290725
_symmetry_space_group_name_H-M "P 21/M"
_symmetry_group_IT_number 11
_symmetry_cell_setting 'monoclinic'
loop_
_space_group_symop_operation_xyz
x,y,z
-x,1/2+y,-z
-x,-y,-z
x,1/2-y,z
loop_
_atom_site_type_symbol
_atom_site_label
_atom_site_fract_x
_atom_site_fract_y
_atom_site_fract_z
Si Si1 0.780167 0.435399 0.888613
Si Si2 0.141370 0.063552 0.938056
Si Si3 0.455129 0.064583 0.451870
Si Si4 0.612355 0.565202 0.885981
Si Si5 0.007363 0.934479 0.337082
Si Si6 0.420445 0.564954 0.389067
Si Si7 0.903869 0.437445 0.174366
Si Si8 0.065053 0.934905 0.759660
O O1 0.795418 0.250000 0.881504
O O2 0.902524 0.479070 0.766411
O O3 0.885769 0.511581 0.853299
O O4 0.544029 0.475794 0.041983
O O5 0.131097 0.250000 0.943903
O O6 0.373183 0.018704 0.772689
O O7 0.052096 0.010829 0.039601
O O8 0.000000 0.000000 0.000000
O O9 0.445511 0.250000 0.457095
O O10 0.673913 0.017200 0.319970
O O11 0.431558 0.000669 0.424788
O O12 0.273056 0.002276 0.601377
O O13 0.621357 0.750000 0.882193
O O14 0.836585 0.497051 0.736866
O O15 0.500000 0.500000 0.000000
O O16 0.004283 0.750000 0.340487
O O17 0.783149 0.001374 0.492006
O O18 0.411175 0.750000 0.397072
O O19 0.907465 0.250000 0.171831
O O20 0.960238 0.487656 0.179063
O O21 0.077828 0.750000 0.750387
#
# Coordination Sequence:
#
# PCOD9158302 Si02
#       8
#     4   4   4   4   4   4   4   4
#     4   9  18  31  46  68  99 134 161 192 244 291
#     4  10  20  36  54  72  96 126 166 211 254 296
#     4  11  20  33  51  68  98 134 164 205 253 293
#     4   9  17  29  46  68  98 131 165 198 239 295
#     4  10  19  31  48  70 101 133 161 198 248 296
#     4  11  21  31  50  76  98 127 168 207 245 297
#     4   9  20  36  51  69  96 132 167 208 254 291
#     4  11  21  32  49  72  99 132 171 204 238 294
#
# _framework density 16.094225000000002
#
# number of rings (size 3 to 8) (size 9 to 14) (size 15 to 20)
#    0.000    2.000    2.500    3.000    0.000    3.000 
#    0.000    3.125    0.000    0.000    0.000    0.875 
#    0.000    0.000    0.000    0.000    0.000    0.000 
#
# Total GULP energy -178502.295446 kJ/mol
# GULP energy per Si atom -5578.196733 kJ/mol
# Density = 1.605759 g / cm^3
# Si number density = 16.094225 Si / 1000 Ang^3
#
#
#
# Elastic Constant Matrix: (Units=GPa)
#
#
# Indices 1 2 3 4 5 6 
#
# 1 102.1084 31.1588 95.5114 0.0000 -3.5188 0.0000
# 2 31.1588 36.6861 38.7302 0.0000 -7.6567 0.0000
# 3 95.5114 38.7302 135.9627 0.0000 -19.2195 0.0000
# 4 0.0000 0.0000 0.0000 15.8723 0.0000 -8.9473
# 5 -3.5188 -7.6567 -19.2195 0.0000 29.5270 0.0000
# 6 0.0000 0.0000 0.0000 -8.9473 0.0000 22.3223
#
#
#
# Elastic Compliance Matrix: (Units=1/GPa)
#
#
# Indices 1 2 3 4 5 6 
#
# 1 0.032889 -0.006150 -0.023154 0.000000 -0.012746 0.000000
# 2 -0.006150 0.040403 -0.006400 0.000000 0.005578 0.000000
# 3 -0.023154 -0.006400 0.027333 0.000000 0.013373 0.000000
# 4 0.000000 0.000000 0.000000 0.081394 0.000000 0.032625
# 5 -0.012746 0.005578 0.013373 0.000000 0.042499 0.000000
# 6 0.000000 0.000000 0.000000 0.032625 0.000000 0.057875
#
#
# Mechanical properties :
#
#
# Convention : Reuss Voigt Hill
#
# Bulk Modulus (GPa) = 34.22654 67.28423 50.75539
# Shear Modulus (GPa) = 13.75365 20.83477 17.29421
#
# Velocity S-wave (km/s) = 2.92648 3.60189 3.28160
# Velocity P-wave (km/s) = 5.72115 7.69385 6.77963
#
# Compressibility (1/GPa) = 0.02921709
#
# Stress axis : x y z
#
# Youngs Moduli (GPa) = 30.40561 24.75065 36.58524
#
# Poissons Ratio (x) = 0.15222 0.84708
# Poissons Ratio (y) = 0.18700 0.23416
# Poissons Ratio (z) = 0.70400 0.15841
#
# Static dielectric constant tensor:
#      x y z
#    x 1.529980 0.000000 -0.017860 
#    y 0.000000 1.542910 0.000000 
#    z -0.017860 0.000000 1.538270 
# 
# From -- ./inp_files/73619.got.cif
#   From: 2010.05.17/outbox.cif.g08.bks.cpg/sg11_37_cif.got.tgz:73619.got - 2010.06.03 12:22:45.
