data_PCOD9158846
_publ_section_title
;
Structure prediction by ZEFSAII (Michael W. Deem and Ramdas Pophale) SiO2 
 PCOD9158846
Probable space group: P 21/M
;
_chemical_formula_sum "Si O2"
_cell_formula_units_Z 32
_cell_length_a 8.479965
_cell_length_b 7.328247
_cell_length_c 27.771553
_cell_angle_alpha 90.000000
_cell_angle_beta 126.031708
_cell_angle_gamma 90.000000
_cell_volume 1395.652343
_symmetry_space_group_name_H-M "P 21/M"
_symmetry_group_IT_number 11
_symmetry_cell_setting 'monoclinic'
loop_
_space_group_symop_operation_xyz
x,y,z
-x,1/2+y,-z
-x,-y,-z
x,1/2-y,z
loop_
_atom_site_type_symbol
_atom_site_label
_atom_site_fract_x
_atom_site_fract_y
_atom_site_fract_z
Si Si1 0.850720 0.967007 0.430056
Si Si2 0.827129 0.034881 0.005860
Si Si3 0.953190 0.027418 0.634906
Si Si4 0.444720 0.026286 0.881596
Si Si5 0.674479 0.028074 0.749551
Si Si6 0.410874 0.528157 0.372468
Si Si7 0.667845 0.528225 0.244510
Si Si8 0.065034 0.040114 0.866866
O O1 0.824877 0.750000 0.417816
O O2 0.635625 0.034733 0.407477
O O3 0.953091 0.034095 0.399047
O O4 0.000000 0.000000 0.500000
O O5 0.801699 0.250000 0.008619
O O6 0.889114 0.960541 0.068599
O O7 0.630564 0.964099 0.945596
O O8 0.000000 0.000000 0.000000
O O9 0.947623 0.250000 0.632388
O O10 0.735637 0.967720 0.611309
O O11 0.111120 0.974535 0.704171
O O12 0.453502 0.250000 0.883436
O O13 0.426412 0.970255 0.822838
O O14 0.249782 0.961485 0.872732
O O15 0.668046 0.250000 0.749847
O O16 0.686954 0.977972 0.696147
O O17 0.472741 0.969131 0.737502
O O18 0.857189 0.963475 0.813887
O O19 0.417190 0.750000 0.376651
O O20 0.669134 0.750000 0.243715
O O21 0.057181 0.250000 0.849225
#
# Coordination Sequence:
#
# PCOD9158846 Si02
#       8
#     4   4   4   4   4   4   4   4
#     4  10  20  34  51  75 104 134 168 207 250 299
#     4  11  22  36  51  70  98 134 173 213 257 308
#     4   9  16  27  46  72 103 133 165 209 256 298
#     4   9  18  30  47  73 102 130 164 207 256 305
#     4   9  15  25  46  75 104 130 162 206 253 297
#     4   9  16  28  47  74 104 133 168 211 254 296
#     4   9  14  24  43  71 103 129 158 205 255 293
#     4  10  19  32  51  76 102 130 164 206 257 311
#
# _framework density 22.928345
#
# number of rings (size 3 to 8) (size 9 to 14) (size 15 to 20)
#    0.000    2.500    1.250    2.250    0.000    5.500 
#    0.000    0.625    0.000    0.750    0.000    2.625 
#    0.000    0.000    0.000    0.000    0.000    0.000 
#
# Total GULP energy -178686.118035 kJ/mol
# GULP energy per Si atom -5583.941189 kJ/mol
# Density = 2.287616 g / cm^3
# Si number density = 22.928345 Si / 1000 Ang^3
#
#
#
# Elastic Constant Matrix: (Units=GPa)
#
#
# Indices 1 2 3 4 5 6 
#
# 1 194.2992 1.9545 70.7158 0.0000 18.4402 0.0000
# 2 1.9545 86.0834 -7.1176 0.0000 4.6989 0.0000
# 3 70.7158 -7.1176 128.2954 0.0000 18.1029 0.0000
# 4 0.0000 0.0000 0.0000 12.2754 0.0000 0.2044
# 5 18.4402 4.6989 18.1029 0.0000 25.5107 0.0000
# 6 0.0000 0.0000 0.0000 0.2044 0.0000 -15.3532
#
#
#
# Elastic Compliance Matrix: (Units=1/GPa)
#
#
# Indices 1 2 3 4 5 6 
#
# 1 0.006578 -0.000295 -0.003310 0.000000 -0.002351 0.000000
# 2 -0.000295 0.011880 0.001223 0.000000 -0.002843 0.000000
# 3 -0.003310 0.001223 0.010425 0.000000 -0.005230 0.000000
# 4 0.000000 0.000000 0.000000 0.081445 0.000000 0.001084
# 5 -0.002351 -0.002843 -0.005230 0.000000 0.045134 0.000000
# 6 0.000000 0.000000 0.000000 0.001084 0.000000 -0.065119
#
#
# Mechanical properties :
#
#
# Convention : Reuss Voigt Hill
#
# Bulk Modulus (GPa) = 41.46335 59.97591 50.71963
# Shear Modulus (GPa) = 48.47497 27.36162 37.91830
#
# Velocity S-wave (km/s) = 4.60303 3.45824 4.07107
# Velocity P-wave (km/s) = 6.80982 6.49313 6.65336
#
# Compressibility (1/GPa) = 0.02411768
#
# Stress axis : x y z
#
# Youngs Moduli (GPa) = 152.03271 84.17793 95.92480
#
# Poissons Ratio (x) = 0.02481 0.31752
# Poissons Ratio (y) = 0.04480 -0.11728
# Poissons Ratio (z) = 0.50324 -0.10292
#
# Static dielectric constant tensor:
#      x y z
#    x 1.834240 0.000000 0.010240 
#    y 0.000000 1.919830 0.000000 
#    z 0.010240 0.000000 1.844650 
# 
# From -- ./inp_files/67961.got.cif
#   From: 2010.05.17/outbox.cif.g08.bks.cpg/sg11_34_cif.got.tgz:67961.got - 2010.06.03 12:22:45.
