data_PCOD9158554
_publ_section_title
;
Structure prediction by ZEFSAII (Michael W. Deem and Ramdas Pophale) SiO2 
 PCOD9158554
Probable space group: P 21/M
;
_chemical_formula_sum "Si O2"
_cell_formula_units_Z 32
_cell_length_a 19.603703
_cell_length_b 13.947301
_cell_length_c 23.041098
_cell_angle_alpha 90.000000
_cell_angle_beta 162.228910
_cell_angle_gamma 90.000000
_cell_volume 1922.813280
_symmetry_space_group_name_H-M "P 21/M"
_symmetry_group_IT_number 11
_symmetry_cell_setting 'monoclinic'
loop_
_space_group_symop_operation_xyz
x,y,z
-x,1/2+y,-z
-x,-y,-z
x,1/2-y,z
loop_
_atom_site_type_symbol
_atom_site_label
_atom_site_fract_x
_atom_site_fract_y
_atom_site_fract_z
Si Si1 0.099693 0.861245 0.598863
Si Si2 0.367466 0.039900 0.786212
Si Si3 0.605670 0.861940 0.609925
Si Si4 0.481275 0.955408 0.390750
Si Si5 0.457681 0.640262 0.185334
Si Si6 0.230475 0.637782 0.837037
Si Si7 0.816764 0.640508 0.581044
Si Si8 0.865421 0.363533 0.978004
O O1 0.130386 0.750000 0.609805
O O2 0.114356 0.872851 0.680591
O O3 0.856042 0.898299 0.383222
O O4 0.286831 0.930725 0.723997
O O5 0.466525 0.071626 0.804495
O O6 0.557854 0.069684 0.985560
O O7 0.568750 0.750000 0.592019
O O8 0.482058 0.894268 0.450822
O O9 0.533203 0.934409 0.601821
O O10 0.871118 0.877499 0.814509
O O11 0.706859 0.928298 0.539070
O O12 0.276728 0.923296 0.183893
O O13 0.441194 0.750000 0.149793
O O14 0.646192 0.640336 0.388228
O O15 0.230928 0.614717 0.035882
O O16 0.295900 0.750000 0.894890
O O17 0.055727 0.617204 0.747135
O O18 0.822550 0.750000 0.608934
O O19 0.816047 0.250000 0.928677
#
# Coordination Sequence:
#
# PCOD9158554 Si02
#       8
#     4   4   4   4   4   4   4   4
#     4  10  21  36  49  71 104 130 159 199 241 286
#     4  11  20  31  53  76  96 130 162 194 242 293
#     4  10  20  32  49  73  98 129 168 199 237 290
#     4  10  19  32  49  72 101 131 157 197 247 292
#     4   9  16  29  48  74 101 124 155 201 249 287
#     4  10  19  31  51  77 101 123 157 202 246 288
#     4   9  17  30  50  74 101 126 152 201 254 287
#     4   9  18  31  50  75 101 124 155 203 250 288
#
# _framework density 16.642282000000002
#
# number of rings (size 3 to 8) (size 9 to 14) (size 15 to 20)
#    0.000    2.250    1.250    3.750    1.750    0.000 
#    0.000    0.000    0.000    3.750    0.000    0.000 
#    0.000    0.000    0.000    0.000    0.000    0.000 
#
# Total GULP energy -178547.667764 kJ/mol
# GULP energy per Si atom -5579.614618 kJ/mol
# Density = 1.660440 g / cm^3
# Si number density = 16.642282 Si / 1000 Ang^3
#
#
#
# Elastic Constant Matrix: (Units=GPa)
#
#
# Indices 1 2 3 4 5 6 
#
# 1 68.5003 47.1122 -1.6963 0.0000 12.9445 0.0000
# 2 47.1122 110.3516 24.1280 0.0000 16.6760 0.0000
# 3 -1.6963 24.1280 47.8472 0.0000 13.0684 0.0000
# 4 0.0000 0.0000 0.0000 17.1629 0.0000 3.7915
# 5 12.9445 16.6760 13.0684 0.0000 21.2357 0.0000
# 6 0.0000 0.0000 0.0000 3.7915 0.0000 30.1077
#
#
#
# Elastic Compliance Matrix: (Units=1/GPa)
#
#
# Indices 1 2 3 4 5 6 
#
# 1 0.024581 -0.010721 0.009702 0.000000 -0.012535 0.000000
# 2 -0.010721 0.015496 -0.008000 0.000000 -0.000710 0.000000
# 3 0.009702 -0.008000 0.030264 0.000000 -0.018256 0.000000
# 4 0.000000 0.000000 0.000000 0.059933 0.000000 -0.007547
# 5 -0.012535 -0.000710 -0.018256 0.000000 0.066523 0.000000
# 6 0.000000 0.000000 0.000000 -0.007547 0.000000 0.034165
#
#
# Mechanical properties :
#
#
# Convention : Reuss Voigt Hill
#
# Bulk Modulus (GPa) = 19.12014 40.64300 29.88157
# Shear Modulus (GPa) = 18.76628 24.17828 21.47228
#
# Velocity S-wave (km/s) = 3.36166 3.81573 3.59587
# Velocity P-wave (km/s) = 5.15572 6.62477 5.93587
#
# Compressibility (1/GPa) = 0.05230086
#
# Stress axis : x y z
#
# Youngs Moduli (GPa) = 40.68145 64.53395 33.04229
#
# Poissons Ratio (x) = 0.69190 -0.32056
# Poissons Ratio (y) = 0.43616 0.26435
# Poissons Ratio (z) = -0.39467 0.51629
#
# Static dielectric constant tensor:
#      x y z
#    x 1.565480 0.000000 -0.011050 
#    y 0.000000 1.537260 0.000000 
#    z -0.011050 0.000000 1.591970 
# 
# From -- ./inp_files/24464.got.cif
#   From: 2010.05.17/outbox.cif.g08.bks.cpg/sg11_13_cif.got.tgz:24464.got - 2010.06.03 12:22:45.
