data_PCOD9158538
_publ_section_title
;
Structure prediction by ZEFSAII (Michael W. Deem and Ramdas Pophale) SiO2 
 PCOD9158538
Probable space group: P 21/M
;
_chemical_formula_sum "Si O2"
_cell_formula_units_Z 32
_cell_length_a 12.452799
_cell_length_b 8.192103
_cell_length_c 23.686300
_cell_angle_alpha 90.000000
_cell_angle_beta 44.341218
_cell_angle_gamma 90.000000
_cell_volume 1688.858520
_symmetry_space_group_name_H-M "P 21/M"
_symmetry_group_IT_number 11
_symmetry_cell_setting 'monoclinic'
loop_
_space_group_symop_operation_xyz
x,y,z
-x,1/2+y,-z
-x,-y,-z
x,1/2-y,z
loop_
_atom_site_type_symbol
_atom_site_label
_atom_site_fract_x
_atom_site_fract_y
_atom_site_fract_z
Si Si1 0.442939 0.052757 0.857101
Si Si2 0.104073 0.941072 0.012276
Si Si3 0.745668 0.551548 0.402268
Si Si4 0.585012 0.556477 0.258198
Si Si5 0.518534 0.554794 0.584372
Si Si6 0.905975 0.066343 0.181501
Si Si7 0.041426 0.562953 0.237706
Si Si8 0.615029 0.446929 0.906419
O O1 0.428610 0.250000 0.864289
O O2 0.483378 0.008110 0.777125
O O3 0.551361 0.006293 0.868470
O O4 0.278899 0.974097 0.931633
O O5 0.077455 0.750000 0.033627
O O6 0.048363 0.045302 0.086123
O O7 0.000000 0.000000 0.000000
O O8 0.747608 0.750000 0.400066
O O9 0.661199 0.500536 0.491731
O O10 0.633829 0.494539 0.393601
O O11 0.920564 0.491478 0.328318
O O12 0.611753 0.750000 0.246574
O O13 0.487499 0.515256 0.350447
O O14 0.750414 0.473007 0.206446
O O15 0.520659 0.750000 0.587659
O O16 0.896721 0.250000 0.207414
O O17 0.939163 0.944217 0.219695
O O18 0.071133 0.750000 0.243583
O O19 0.208032 0.491294 0.159288
O O20 0.618565 0.250000 0.909304
O O21 0.500000 0.500000 0.000000
#
# Coordination Sequence:
#
# PCOD9158538 Si02
#       8
#     4   4   4   4   4   4   4   4
#     4  10  22  39  57  78 107 143 187 231 275 327
#     4  12  23  35  52  75 105 141 178 220 272 328
#     4   9  18  32  52  78 111 148 182 222 275 334
#     4  11  21  34  53  76 109 148 180 219 274 332
#     4  10  19  31  50  80 114 145 180 224 278 333
#     4  12  23  34  51  79 111 142 180 224 273 327
#     4  10  20  36  58  81 108 144 187 229 276 330
#     4  10  22  40  60  82 107 143 188 234 277 325
#
# _framework density 18.947709
#
# number of rings (size 3 to 8) (size 9 to 14) (size 15 to 20)
#    0.000    1.500    2.500    3.750    0.000    4.000 
#    0.000    0.000    0.000    0.750    0.000    0.000 
#    0.000    0.000    0.000    0.000    0.000    0.500 
#
# Total GULP energy -178516.159141 kJ/mol
# GULP energy per Si atom -5578.629973 kJ/mol
# Density = 1.890458 g / cm^3
# Si number density = 18.947709 Si / 1000 Ang^3
#
#
#
# Elastic Constant Matrix: (Units=GPa)
#
#
# Indices 1 2 3 4 5 6 
#
# 1 81.9617 14.1686 53.9732 0.0000 2.0445 0.0000
# 2 14.1686 28.4436 10.7017 0.0000 -0.3167 0.0000
# 3 53.9732 10.7017 159.2231 0.0000 -2.4409 0.0000
# 4 0.0000 0.0000 0.0000 24.5288 0.0000 0.6806
# 5 2.0445 -0.3167 -2.4409 0.0000 31.1826 0.0000
# 6 0.0000 0.0000 0.0000 0.6806 0.0000 13.3684
#
#
#
# Elastic Compliance Matrix: (Units=1/GPa)
#
#
# Indices 1 2 3 4 5 6 
#
# 1 0.016840 -0.006411 -0.005302 0.000000 -0.001584 0.000000
# 2 -0.006411 0.038511 -0.000403 0.000000 0.000780 0.000000
# 3 -0.005302 -0.000403 0.008120 0.000000 0.000979 0.000000
# 4 0.000000 0.000000 0.000000 0.040826 0.000000 -0.002079
# 5 -0.001584 0.000780 0.000979 0.000000 0.032258 0.000000
# 6 0.000000 0.000000 0.000000 -0.002079 0.000000 0.074909
#
#
# Mechanical properties :
#
#
# Convention : Reuss Voigt Hill
#
# Bulk Modulus (GPa) = 25.48516 47.47950 36.48233
# Shear Modulus (GPa) = 20.09842 26.53496 23.31669
#
# Velocity S-wave (km/s) = 3.26042 3.74629 3.51177
# Velocity P-wave (km/s) = 5.25863 6.62008 5.97824
#
# Compressibility (1/GPa) = 0.03923852
#
# Stress axis : x y z
#
# Youngs Moduli (GPa) = 59.38255 25.96637 123.15599
#
# Poissons Ratio (x) = 0.16648 0.65294
# Poissons Ratio (y) = 0.38072 0.04965
# Poissons Ratio (z) = 0.31483 0.01047
#
# Static dielectric constant tensor:
#      x y z
#    x 1.641570 0.000000 0.002290 
#    y 0.000000 1.675790 0.000000 
#    z 0.002290 0.000000 1.716480 
# 
# From -- ./inp_files/64337.got.cif
#   From: 2010.05.17/outbox.cif.g08.bks.cpg/sg11_33_cif.got.tgz:64337.got - 2010.06.03 12:22:45.
