data_PCOD9158576
_publ_section_title
;
Structure prediction by ZEFSAII (Michael W. Deem and Ramdas Pophale) SiO2 
 PCOD9158576
Probable space group: P 21/M
;
_chemical_formula_sum "Si O2"
_cell_formula_units_Z 28
_cell_length_a 10.470393
_cell_length_b 7.892658
_cell_length_c 31.138811
_cell_angle_alpha 90.000000
_cell_angle_beta 33.669192
_cell_angle_gamma 90.000000
_cell_volume 1426.622825
_symmetry_space_group_name_H-M "P 21/M"
_symmetry_group_IT_number 11
_symmetry_cell_setting 'monoclinic'
loop_
_space_group_symop_operation_xyz
x,y,z
-x,1/2+y,-z
-x,-y,-z
x,1/2-y,z
loop_
_atom_site_type_symbol
_atom_site_label
_atom_site_fract_x
_atom_site_fract_y
_atom_site_fract_z
Si Si1 0.818586 0.042296 0.667688
Si Si2 0.864229 0.549296 0.917554
Si Si3 0.584840 0.456199 0.910320
Si Si4 0.653487 0.552333 0.244838
Si Si5 0.849262 0.545632 0.500528
Si Si6 0.135451 0.949036 0.248562
Si Si7 0.335878 0.947125 0.661208
O O1 0.824076 0.250000 0.666552
O O2 0.572952 0.991400 0.716543
O O3 0.848079 0.980440 0.708039
O O4 0.018381 0.986507 0.579107
O O5 0.893217 0.750000 0.914333
O O6 0.747905 0.513821 0.903781
O O7 0.114744 0.467491 0.847474
O O8 0.674260 0.489341 0.005197
O O9 0.588882 0.250000 0.909550
O O10 0.689221 0.519291 0.836338
O O11 0.619476 0.750000 0.264579
O O12 0.684932 0.461366 0.281554
O O13 0.838157 0.750000 0.502393
O O14 0.587523 0.482945 0.578271
O O15 0.000000 0.500000 0.500000
O O16 0.190659 0.750000 0.236617
O O17 0.879477 0.965661 0.301160
O O18 0.325333 0.750000 0.652016
#
# Coordination Sequence:
#
# PCOD9158576 Si02
#       7
#     4   4   4   4   4   4   4
#     4   9  20  37  57  79 107 144 183 223 265 320
#     4  10  19  31  51  80 111 137 176 230 272 310
#     4   9  18  32  52  78 107 143 180 218 267 323
#     4  11  20  34  56  80 106 142 186 222 265 324
#     4  10  20  36  56  80 110 141 180 224 268 315
#     4  10  20  37  58  79 107 145 184 218 265 326
#     4  11  22  34  54  83 111 139 177 228 274 315
#
# _framework density 19.626771000000002
#
# number of rings (size 3 to 8) (size 9 to 14) (size 15 to 20)
#    0.000    2.000    2.857    1.286    0.000    1.714 
#    0.000    2.857    0.000    0.000    0.000    0.000 
#    0.000    0.000    0.000    0.000    0.000    0.000 
#
# Total GULP energy -156307.236265 kJ/mol
# GULP energy per Si atom -5582.401295 kJ/mol
# Density = 1.958210 g / cm^3
# Si number density = 19.626771 Si / 1000 Ang^3
#
#
#
# Elastic Constant Matrix: (Units=GPa)
#
#
# Indices 1 2 3 4 5 6 
#
# 1 88.8211 -8.1712 60.1605 0.0000 13.0134 0.0000
# 2 -8.1712 20.3866 -2.7194 0.0000 3.1093 0.0000
# 3 60.1605 -2.7194 173.7585 0.0000 3.1491 0.0000
# 4 0.0000 0.0000 0.0000 13.9550 0.0000 6.7493
# 5 13.0134 3.1093 3.1491 0.0000 33.0699 0.0000
# 6 0.0000 0.0000 0.0000 6.7493 0.0000 -5.0296
#
#
#
# Elastic Compliance Matrix: (Units=1/GPa)
#
#
# Indices 1 2 3 4 5 6 
#
# 1 0.016614 0.006939 -0.005523 0.000000 -0.006664 0.000000
# 2 0.006939 0.052794 -0.001439 0.000000 -0.007557 0.000000
# 3 -0.005523 -0.001439 0.007616 0.000000 0.001583 0.000000
# 4 0.000000 0.000000 0.000000 0.043456 0.000000 0.058314
# 5 -0.006664 -0.007557 0.001583 0.000000 0.033421 0.000000
# 6 0.000000 0.000000 0.000000 0.058314 0.000000 -0.120571
#
#
# Mechanical properties :
#
#
# Convention : Reuss Voigt Hill
#
# Bulk Modulus (GPa) = 12.99084 42.38956 27.69020
# Shear Modulus (GPa) = 84.69462 23.97882 54.33672
#
# Velocity S-wave (km/s) = 6.57619 3.49913 5.26736
# Velocity P-wave (km/s) = 8.01842 6.16198 7.15070
#
# Compressibility (1/GPa) = 0.07697729
#
# Stress axis : x y z
#
# Youngs Moduli (GPa) = 60.18956 18.94168 131.30063
#
# Poissons Ratio (x) = -0.13143 0.72517
# Poissons Ratio (y) = -0.41765 0.18898
# Poissons Ratio (z) = 0.33242 0.02726
#
# Static dielectric constant tensor:
#      x y z
#    x 1.639440 0.000000 0.002750 
#    y 0.000000 1.717150 0.000000 
#    z 0.002750 0.000000 1.715280 
# 
# From -- ./inp_files/70845.got.cif
#   From: 2010.05.17/outbox.cif.g08.bks.cpg/sg11_36_cif.got.tgz:70845.got - 2010.06.03 12:22:45.
