data_PCOD9158821
_publ_section_title
;
Structure prediction by ZEFSAII (Michael W. Deem and Ramdas Pophale) SiO2 
 PCOD9158821
Probable space group: P 21/M
;
_chemical_formula_sum "Si O2"
_cell_formula_units_Z 32
_cell_length_a 21.323409
_cell_length_b 8.149523
_cell_length_c 14.507688
_cell_angle_alpha 90.000000
_cell_angle_beta 135.857777
_cell_angle_gamma 90.000000
_cell_volume 1755.787180
_symmetry_space_group_name_H-M "P 21/M"
_symmetry_group_IT_number 11
_symmetry_cell_setting 'monoclinic'
loop_
_space_group_symop_operation_xyz
x,y,z
-x,1/2+y,-z
-x,-y,-z
x,1/2-y,z
loop_
_atom_site_type_symbol
_atom_site_label
_atom_site_fract_x
_atom_site_fract_y
_atom_site_fract_z
Si Si1 0.484337 0.552835 0.588939
Si Si2 0.138937 0.948079 0.411518
Si Si3 0.711511 0.056270 0.561487
Si Si4 0.807072 0.551656 0.140288
Si Si5 0.807701 0.558008 0.843168
Si Si6 0.672211 0.441384 0.854703
Si Si7 0.100345 0.446406 0.577926
Si Si8 0.951362 0.949692 0.135416
O O1 0.500000 0.500000 0.500000
O O2 0.483533 0.750000 0.590094
O O3 0.387689 0.488288 0.522100
O O4 0.568673 0.490143 0.736518
O O5 0.138751 0.750000 0.404127
O O6 0.230867 0.011547 0.462924
O O7 0.052003 0.007536 0.261629
O O8 0.125613 0.991009 0.503805
O O9 0.699084 0.250000 0.532685
O O10 0.773180 0.033519 0.716900
O O11 0.800814 0.750000 0.132174
O O12 0.833036 0.497258 0.270056
O O13 0.888679 0.505589 0.156793
O O14 0.717472 0.479709 0.000420
O O15 0.817894 0.750000 0.831873
O O16 0.730774 0.539206 0.840535
O O17 0.899018 0.494821 0.988410
O O18 0.682390 0.250000 0.843407
O O19 0.102215 0.250000 0.578757
O O20 0.000000 0.500000 0.500000
O O21 0.951960 0.750000 0.132459
#
# Coordination Sequence:
#
# PCOD9158821 Si02
#       8
#     4   4   4   4   4   4   4   4
#     4  11  21  35  55  80 107 143 184 225 275 324
#     4  10  20  37  55  76 110 148 182 225 270 321
#     4  10  22  36  53  77 108 144 185 226 271 322
#     4   9  18  34  54  78 109 141 173 217 270 319
#     4  10  19  32  51  74 107 146 182 219 261 319
#     4  11  21  33  53  82 109 136 177 227 274 322
#     4  11  21  35  57  84 111 143 183 225 268 320
#     4   8  15  30  50  73 104 143 177 208 259 313
#
# _framework density 18.225442999999999
#
# number of rings (size 3 to 8) (size 9 to 14) (size 15 to 20)
#    0.000    2.000    2.500    3.000    0.000    2.500 
#    0.000    0.625    0.000    0.750    0.000    0.000 
#    0.000    0.000    0.000    0.000    0.000    0.000 
#
# Total GULP energy -178595.097626 kJ/mol
# GULP energy per Si atom -5581.096801 kJ/mol
# Density = 1.818396 g / cm^3
# Si number density = 18.225443 Si / 1000 Ang^3
#
#
#
# Elastic Constant Matrix: (Units=GPa)
#
#
# Indices 1 2 3 4 5 6 
#
# 1 112.1331 0.1344 65.9736 0.0000 13.2569 0.0000
# 2 0.1344 17.7485 4.9288 0.0000 10.3321 0.0000
# 3 65.9736 4.9288 125.4975 0.0000 12.9894 0.0000
# 4 0.0000 0.0000 0.0000 25.1415 0.0000 -5.5505
# 5 13.2569 10.3321 12.9894 0.0000 19.6811 0.0000
# 6 0.0000 0.0000 0.0000 -5.5505 0.0000 15.5373
#
#
#
# Elastic Compliance Matrix: (Units=1/GPa)
#
#
# Indices 1 2 3 4 5 6 
#
# 1 0.013819 0.006632 -0.006656 0.000000 -0.008397 0.000000
# 2 0.006632 0.084525 -0.001879 0.000000 -0.047601 0.000000
# 3 -0.006656 -0.001879 0.011780 0.000000 -0.002305 0.000000
# 4 0.000000 0.000000 0.000000 0.043180 0.000000 0.015426
# 5 -0.008397 -0.047601 -0.002305 0.000000 0.082976 0.000000
# 6 0.000000 0.000000 0.000000 0.015426 0.000000 0.069872
#
#
# Mechanical properties :
#
#
# Convention : Reuss Voigt Hill
#
# Bulk Modulus (GPa) = 9.40584 44.16140 26.78362
# Shear Modulus (GPa) = 14.47609 24.36145 19.41877
#
# Velocity S-wave (km/s) = 2.82135 3.66002 3.26770
# Velocity P-wave (km/s) = 3.97309 6.49186 5.38190
#
# Compressibility (1/GPa) = 0.10631694
#
# Stress axis : x y z
#
# Youngs Moduli (GPa) = 72.36574 11.83083 84.89284
#
# Poissons Ratio (x) = -0.07846 0.56503
# Poissons Ratio (y) = -0.47992 0.15953
# Poissons Ratio (z) = 0.48165 0.02223
#
# Static dielectric constant tensor:
#      x y z
#    x 1.670660 0.000000 0.004940 
#    y 0.000000 1.643390 0.000000 
#    z 0.004940 0.000000 1.639120 
# 
# From -- ./inp_files/54368.got.cif
#   From: 2010.05.17/outbox.cif.g08.bks.cpg/sg11_28_cif.got.tgz:54368.got - 2010.06.03 12:22:45.
