data_PCOD9158924
_publ_section_title
;
Structure prediction by ZEFSAII (Michael W. Deem and Ramdas Pophale) SiO2 
 PCOD9158924
Probable space group: P 21/M
;
_chemical_formula_sum "Si O2"
_cell_formula_units_Z 28
_cell_length_a 14.448267
_cell_length_b 7.491882
_cell_length_c 18.533268
_cell_angle_alpha 90.000000
_cell_angle_beta 137.079766
_cell_angle_gamma 90.000000
_cell_volume 1366.132259
_symmetry_space_group_name_H-M "P 21/M"
_symmetry_group_IT_number 11
_symmetry_cell_setting 'monoclinic'
loop_
_space_group_symop_operation_xyz
x,y,z
-x,1/2+y,-z
-x,-y,-z
x,1/2-y,z
loop_
_atom_site_type_symbol
_atom_site_label
_atom_site_fract_x
_atom_site_fract_y
_atom_site_fract_z
Si Si1 0.352885 0.463589 0.881934
Si Si2 0.816102 0.536260 0.659578
Si Si3 0.128711 0.035411 0.866163
Si Si4 0.667147 0.966578 0.718564
Si Si5 0.645160 0.539653 0.429260
Si Si6 0.424964 0.032864 0.766769
Si Si7 0.738091 0.958955 0.914995
O O1 0.336122 0.250000 0.868537
O O2 0.235897 0.533133 0.868048
O O3 0.356095 0.529265 0.801351
O O4 0.500000 0.500000 0.000000
O O5 0.795541 0.750000 0.647488
O O6 0.740807 0.469201 0.688593
O O7 0.747376 0.464828 0.547273
O O8 0.975370 0.502105 0.756573
O O9 0.145973 0.250000 0.879182
O O10 0.166701 0.965441 0.967745
O O11 0.671064 0.750000 0.722141
O O12 0.735912 0.032884 0.832376
O O13 0.509112 0.018841 0.630627
O O14 0.674341 0.750000 0.439282
O O15 0.643782 0.468268 0.346689
O O16 0.425995 0.250000 0.766773
O O17 0.582685 0.975481 0.854124
O O18 0.771589 0.750000 0.926888
#
# Coordination Sequence:
#
# PCOD9158924 Si02
#       7
#     4   4   4   4   4   4   4
#     4  10  19  32  52  76  99 125 159 199 243 292
#     4  10  21  35  49  69 100 135 167 201 240 285
#     4  10  21  34  48  70 101 132 161 198 245 293
#     4   9  18  32  52  75  97 126 165 205 244 286
#     4   9  18  33  52  74  99 127 163 204 243 284
#     4   9  17  30  51  76  98 123 158 201 245 288
#     4   9  17  31  49  72 101 127 157 201 246 287
#
# _framework density 20.495819000000001
#
# number of rings (size 3 to 8) (size 9 to 14) (size 15 to 20)
#    0.000    2.571    1.429    0.429    0.000    2.857 
#    0.000    0.714    0.000    0.000    0.000    0.000 
#    0.000    0.000    0.000    0.000    0.000    0.000 
#
# Total GULP energy -156252.152715 kJ/mol
# GULP energy per Si atom -5580.434026 kJ/mol
# Density = 2.044917 g / cm^3
# Si number density = 20.495819 Si / 1000 Ang^3
#
#
#
# Elastic Constant Matrix: (Units=GPa)
#
#
# Indices 1 2 3 4 5 6 
#
# 1 -10.2488 -4.2043 111.7791 0.0000 -26.1735 0.0000
# 2 -4.2043 53.2814 -6.2684 0.0000 -6.6685 0.0000
# 3 111.7791 -6.2684 209.7942 0.0000 -23.4280 0.0000
# 4 0.0000 0.0000 0.0000 14.3979 0.0000 9.5738
# 5 -26.1735 -6.6685 -23.4280 0.0000 22.4929 0.0000
# 6 0.0000 0.0000 0.0000 9.5738 0.0000 12.7749
#
#
#
# Elastic Compliance Matrix: (Units=1/GPa)
#
#
# Indices 1 2 3 4 5 6 
#
# 1 -0.012510 -0.001475 0.005598 0.000000 -0.009164 0.000000
# 2 -0.001475 0.019682 0.002076 0.000000 0.006280 0.000000
# 3 0.005598 0.002076 0.002990 0.000000 0.010243 0.000000
# 4 0.000000 0.000000 0.000000 0.138444 0.000000 -0.103753
# 5 -0.009164 0.006280 0.010243 0.000000 0.046326 0.000000
# 6 0.000000 0.000000 0.000000 -0.103753 0.000000 0.156032
#
#
# Mechanical properties :
#
#
# Convention : Reuss Voigt Hill
#
# Bulk Modulus (GPa) = 44.33042 50.60440 47.46741
# Shear Modulus (GPa) = 14.44718 20.03449 17.24084
#
# Velocity S-wave (km/s) = 2.65785 3.12988 2.90347
# Velocity P-wave (km/s) = 5.57627 6.14860 5.86941
#
# Compressibility (1/GPa) = 0.02255787
#
# Stress axis : x y z
#
# Youngs Moduli (GPa) = -79.93596 50.80780 334.46133
#
# Poissons Ratio (x) = 0.07497 -1.87230
# Poissons Ratio (y) = -0.11794 -0.69418
# Poissons Ratio (z) = 0.44748 -0.10545
#
# Static dielectric constant tensor:
#      x y z
#    x 1.711110 0.000000 -0.059380 
#    y 0.000000 1.752420 0.000000 
#    z -0.059380 0.000000 1.731740 
# 
# From -- ./inp_files/42330.got.cif
#   From: 2010.05.17/outbox.cif.g08.bks.cpg/sg11_22_cif.got.tgz:42330.got - 2010.06.03 12:22:45.
