data_PCOD9158984
_publ_section_title
;
Structure prediction by ZEFSAII (Michael W. Deem and Ramdas Pophale) SiO2 
 PCOD9158984
Probable space group: P 21/M
;
_chemical_formula_sum "Si O2"
_cell_formula_units_Z 32
_cell_length_a 29.015244
_cell_length_b 8.618633
_cell_length_c 22.518842
_cell_angle_alpha 90.000000
_cell_angle_beta 161.249849
_cell_angle_gamma 90.000000
_cell_volume 1810.144468
_symmetry_space_group_name_H-M "P 21/M"
_symmetry_group_IT_number 11
_symmetry_cell_setting 'monoclinic'
loop_
_space_group_symop_operation_xyz
x,y,z
-x,1/2+y,-z
-x,-y,-z
x,1/2-y,z
loop_
_atom_site_type_symbol
_atom_site_label
_atom_site_fract_x
_atom_site_fract_y
_atom_site_fract_z
Si Si1 0.660994 0.435683 0.200899
Si Si2 0.447838 0.936975 0.624282
Si Si3 0.839522 0.063774 0.302245
Si Si4 0.400939 0.436522 0.072285
Si Si5 0.685717 0.563859 0.357238
Si Si6 0.586931 0.062397 0.550369
Si Si7 0.834439 0.563167 0.657755
Si Si8 0.082644 0.562757 0.043518
O O1 0.654678 0.250000 0.193689
O O2 0.754357 0.484758 0.258113
O O3 0.722162 0.496106 0.337770
O O4 0.500000 0.500000 0.000000
O O5 0.444035 0.750000 0.619758
O O6 0.559839 0.984707 0.812266
O O7 0.472851 0.988156 0.587162
O O8 0.292506 0.995429 0.456454
O O9 0.841975 0.250000 0.303120
O O10 0.000000 0.000000 0.500000
O O11 0.746554 0.000881 0.133714
O O12 0.401044 0.250000 0.069256
O O13 0.531537 0.500455 0.191188
O O14 0.676806 0.750000 0.342898
O O15 0.797498 0.518586 0.545262
O O16 0.584145 0.250000 0.548424
O O17 0.752989 0.011100 0.756945
O O18 0.500000 0.000000 0.500000
O O19 0.825154 0.750000 0.649593
O O20 0.987579 0.515531 0.870667
O O21 0.083435 0.750000 0.047542
O O22 0.000000 0.500000 0.000000
#
# Coordination Sequence:
#
# PCOD9158984 Si02
#       8
#     4   4   4   4   4   4   4   4
#     4  11  22  36  57  83 111 143 181 225 275 327
#     4   9  18  33  53  79 108 141 180 226 272 322
#     4  11  24  40  58  82 113 147 186 228 277 330
#     4  10  19  33  56  81 109 144 184 227 275 326
#     4  10  19  32  52  81 114 144 181 227 275 328
#     4  10  21  36  53  77 111 146 184 226 272 325
#     4   9  18  31  51  80 110 140 177 226 277 324
#     4  10  19  33  54  79 107 138 177 226 274 322
#
# _framework density 17.678146999999999
#
# number of rings (size 3 to 8) (size 9 to 14) (size 15 to 20)
#    0.000    2.000    2.500    1.500    0.000    3.500 
#    0.000    1.250    0.000    3.000    0.000    0.000 
#    0.000    0.000    0.000    0.000    0.000    0.000 
#
# Total GULP energy -178561.948347 kJ/mol
# GULP energy per Si atom -5580.060886 kJ/mol
# Density = 1.763791 g / cm^3
# Si number density = 17.678147 Si / 1000 Ang^3
#
#
#
# Elastic Constant Matrix: (Units=GPa)
#
#
# Indices 1 2 3 4 5 6 
#
# 1 143.0438 28.8961 82.8484 0.0000 -15.4612 0.0000
# 2 28.8961 23.7228 30.5542 0.0000 -3.1054 0.0000
# 3 82.8484 30.5542 147.5907 0.0000 -14.4543 0.0000
# 4 0.0000 0.0000 0.0000 22.1668 0.0000 0.2498
# 5 -15.4612 -3.1054 -14.4543 0.0000 30.5097 0.0000
# 6 0.0000 0.0000 0.0000 0.2498 0.0000 29.1836
#
#
#
# Elastic Compliance Matrix: (Units=1/GPa)
#
#
# Indices 1 2 3 4 5 6 
#
# 1 0.011522 -0.007760 -0.004579 0.000000 0.002880 0.000000
# 2 -0.007760 0.062707 -0.008794 0.000000 -0.001716 0.000000
# 3 -0.004579 -0.008794 0.011380 0.000000 0.002176 0.000000
# 4 0.000000 0.000000 0.000000 0.045117 0.000000 -0.000386
# 5 0.002880 -0.001716 0.002176 0.000000 0.035092 0.000000
# 6 0.000000 0.000000 0.000000 -0.000386 0.000000 0.034269
#
#
# Mechanical properties :
#
#
# Convention : Reuss Voigt Hill
#
# Bulk Modulus (GPa) = 23.07186 66.55052 44.81119
# Shear Modulus (GPa) = 19.47049 27.84258 23.65654
#
# Velocity S-wave (km/s) = 3.32232 3.97290 3.66208
# Velocity P-wave (km/s) = 5.27223 7.66633 6.57910
#
# Compressibility (1/GPa) = 0.04334284
#
# Stress axis : x y z
#
# Youngs Moduli (GPa) = 86.79166 15.94726 87.87678
#
# Poissons Ratio (x) = 0.12374 0.40241
# Poissons Ratio (y) = 0.67346 0.77277
# Poissons Ratio (z) = 0.39744 0.14024
#
# Static dielectric constant tensor:
#      x y z
#    x 1.596350 0.000000 -0.042320 
#    y 0.000000 1.600380 0.000000 
#    z -0.042320 0.000000 1.607820 
# 
# From -- ./inp_files/67301.got.cif
#   From: 2010.05.17/outbox.cif.g08.bks.cpg/sg11_34_cif.got.tgz:67301.got - 2010.06.03 12:22:45.
