data_PCOD9158425
_publ_section_title
;
Structure prediction by ZEFSAII (Michael W. Deem and Ramdas Pophale) SiO2 
 PCOD9158425
Probable space group: P 21/M
;
_chemical_formula_sum "Si O2"
_cell_formula_units_Z 28
_cell_length_a 24.639769
_cell_length_b 12.539414
_cell_length_c 5.603156
_cell_angle_alpha 90.000000
_cell_angle_beta 133.725624
_cell_angle_gamma 90.000000
_cell_volume 1251.063804
_symmetry_space_group_name_H-M "P 21/M"
_symmetry_group_IT_number 11
_symmetry_cell_setting 'monoclinic'
loop_
_space_group_symop_operation_xyz
x,y,z
-x,1/2+y,-z
-x,-y,-z
x,1/2-y,z
loop_
_atom_site_type_symbol
_atom_site_label
_atom_site_fract_x
_atom_site_fract_y
_atom_site_fract_z
Si Si1 0.326531 0.635808 0.497477
Si Si2 0.770605 0.579139 0.801934
Si Si3 0.730997 0.932241 0.191439
Si Si4 0.083708 0.955120 0.750030
Si Si5 0.412200 0.957403 0.373969
Si Si6 0.506643 0.367666 0.779740
Si Si7 0.852412 0.373327 0.553665
O O1 0.291000 0.750000 0.442343
O O2 0.271516 0.536739 0.353353
O O3 0.357110 0.627992 0.322022
O O4 0.406450 0.628762 0.875408
O O5 0.752152 0.630653 0.493105
O O6 0.742008 0.622021 0.967277
O O7 0.858257 0.554214 0.081391
O O8 0.786548 0.036646 0.348112
O O9 0.644872 0.969651 0.948134
O O10 0.101354 0.892932 0.554200
O O11 0.103286 0.894794 0.060582
O O12 0.000000 0.000000 0.500000
O O13 0.480245 0.894777 0.459655
O O14 0.448556 0.040573 0.672744
O O15 0.478121 0.250000 0.742602
O O16 0.826728 0.250000 0.472252
#
# Coordination Sequence:
#
# PCOD9158425 Si02
#       7
#     4   4   4   4   4   4   4
#     4  10  19  31  49  74 104 135 169 217 274 323
#     4   9  18  31  48  77  99 139 174 209 257 320
#     4   9  18  31  50  75 106 139 172 213 265 317
#     4  10  20  34  51  77 114 144 172 208 264 330
#     4  10  19  32  48  70 104 139 176 220 272 323
#     4  10  20  32  48  71 101 137 179 222 271 321
#     4  10  20  33  54  83 111 140 178 223 270 322
#
# _framework density 22.380952000000001
#
# number of rings (size 3 to 8) (size 9 to 14) (size 15 to 20)
#    0.000    2.286    1.429    1.714    0.000    8.000 
#    0.000    0.000    0.000    0.000    0.000   38.000 
#    0.000    0.000    0.000    0.000    0.000    0.000 
#
# Total GULP energy -155888.041003 kJ/mol
# GULP energy per Si atom -5567.430036 kJ/mol
# Density = 2.233001 g / cm^3
# Si number density = 22.380952 Si / 1000 Ang^3
#
#
#
# Elastic Constant Matrix: (Units=GPa)
#
#
# Indices 1 2 3 4 5 6 
#
# 1 106.1328 20.0576 40.4127 0.0000 -18.3938 0.0000
# 2 20.0576 87.8260 25.7505 0.0000 4.4760 0.0000
# 3 40.4127 25.7505 116.2858 0.0000 -9.7428 0.0000
# 4 0.0000 0.0000 0.0000 4.8907 0.0000 4.5799
# 5 -18.3938 4.4760 -9.7428 0.0000 53.4842 0.0000
# 6 0.0000 0.0000 0.0000 4.5799 0.0000 2.9631
#
#
#
# Elastic Compliance Matrix: (Units=1/GPa)
#
#
# Indices 1 2 3 4 5 6 
#
# 1 0.011664 -0.001865 -0.003342 0.000000 0.003559 0.000000
# 2 -0.001865 0.012600 -0.002319 0.000000 -0.002118 0.000000
# 3 -0.003342 -0.002319 0.010353 0.000000 0.000930 0.000000
# 4 0.000000 0.000000 0.000000 -0.456981 0.000000 0.706330
# 5 0.003559 -0.002118 0.000930 0.000000 0.020268 0.000000
# 6 0.000000 0.000000 0.000000 0.706330 0.000000 -0.754253
#
#
# Mechanical properties :
#
#
# Convention : Reuss Voigt Hill
#
# Bulk Modulus (GPa) = 51.11761 53.63180 52.37470
# Shear Modulus (GPa) = -4.40616 27.20251 11.39817
#
# Velocity S-wave (km/s) = -1.40463 3.49009 2.25917
# Velocity P-wave (km/s) = 4.50097 6.34477 5.50067
#
# Compressibility (1/GPa) = 0.01956273
#
# Stress axis : x y z
#
# Youngs Moduli (GPa) = 85.73302 79.36415 96.59335
#
# Poissons Ratio (x) = 0.14803 0.32286
# Poissons Ratio (y) = 0.15991 0.22405
# Poissons Ratio (z) = 0.28656 0.18408
#
# Static dielectric constant tensor:
#      x y z
#    x 1.882320 0.000000 -0.118720 
#    y 0.000000 1.796520 0.000000 
#    z -0.118720 0.000000 1.949490 
# 
# From -- ./inp_files/8022.got.cif
#   From: 2010.05.17/outbox.cif.g08.bks.cpg/sg11_5_cif.got.tgz:8022.got - 2010.06.03 12:22:45.
