data_PCOD9158408
_publ_section_title
;
Structure prediction by ZEFSAII (Michael W. Deem and Ramdas Pophale) SiO2 
 PCOD9158408
Probable space group: P 21/M
;
_chemical_formula_sum "Si O2"
_cell_formula_units_Z 32
_cell_length_a 16.098775
_cell_length_b 9.276949
_cell_length_c 23.783957
_cell_angle_alpha 90.000000
_cell_angle_beta 148.181962
_cell_angle_gamma 90.000000
_cell_volume 1872.736756
_symmetry_space_group_name_H-M "P 21/M"
_symmetry_group_IT_number 11
_symmetry_cell_setting 'monoclinic'
loop_
_space_group_symop_operation_xyz
x,y,z
-x,1/2+y,-z
-x,-y,-z
x,1/2-y,z
loop_
_atom_site_type_symbol
_atom_site_label
_atom_site_fract_x
_atom_site_fract_y
_atom_site_fract_z
Si Si1 0.838286 0.584967 0.910546
Si Si2 0.608040 0.924393 0.878180
Si Si3 0.830145 0.589023 0.777551
Si Si4 0.992307 0.422988 0.582893
Si Si5 0.968703 0.424164 0.700298
Si Si6 0.755399 0.423155 0.350512
Si Si7 0.336909 0.918232 0.409119
Si Si8 0.841794 0.081170 0.092029
O O1 0.876171 0.750000 0.947451
O O2 0.711171 0.534444 0.882627
O O3 0.779070 0.583784 0.812505
O O4 0.000000 0.500000 0.000000
O O5 0.614956 0.750000 0.888631
O O6 0.426347 0.964678 0.762992
O O7 0.692035 0.000422 0.979361
O O8 0.787596 0.750000 0.730770
O O9 0.751769 0.460805 0.698857
O O10 0.017197 0.575152 0.873519
O O11 0.013104 0.250000 0.591684
O O12 0.990188 0.462102 0.647368
O O13 0.132950 0.500858 0.630797
O O14 0.832378 0.457232 0.455850
O O15 0.986565 0.250000 0.717181
O O16 0.086264 0.504309 0.811150
O O17 0.790022 0.461575 0.616350
O O18 0.765064 0.250000 0.349447
O O19 0.365431 0.750000 0.431058
O O20 0.500000 0.000000 0.500000
O O21 0.809989 0.250000 0.084527
#
# Coordination Sequence:
#
# PCOD9158408 Si02
#       8
#     4   4   4   4   4   4   4   4
#     4  10  19  31  49  73 102 138 175 212 252 300
#     4  10  20  33  52  77 108 144 178 212 259 320
#     4   9  18  32  48  69  99 136 174 212 254 300
#     4   9  18  36  60  81 102 132 173 216 264 318
#     4   9  19  35  56  78 101 137 178 213 257 317
#     4   9  19  35  55  81 108 135 168 213 267 318
#     4  10  20  33  50  73 102 136 171 213 256 302
#     4  10  19  32  51  76 106 138 174 218 260 301
#
# _framework density 17.087292000000001
#
# number of rings (size 3 to 8) (size 9 to 14) (size 15 to 20)
#    0.000    2.500    1.250    0.750    0.000    3.500 
#    0.000    4.375    0.000    3.000    0.000    0.000 
#    0.000    0.000    0.000    0.000    0.000    0.000 
#
# Total GULP energy -178239.523917 kJ/mol
# GULP energy per Si atom -5569.985122 kJ/mol
# Density = 1.704840 g / cm^3
# Si number density = 17.087292 Si / 1000 Ang^3
#
#
#
# Elastic Constant Matrix: (Units=GPa)
#
#
# Indices 1 2 3 4 5 6 
#
# 1 112.3492 42.4971 76.0903 0.0000 -11.8431 0.0000
# 2 42.4971 31.3907 48.0184 0.0000 1.6729 0.0000
# 3 76.0903 48.0184 134.2369 0.0000 9.2702 0.0000
# 4 0.0000 0.0000 0.0000 30.1958 0.0000 1.4573
# 5 -11.8431 1.6729 9.2702 0.0000 21.8434 0.0000
# 6 0.0000 0.0000 0.0000 1.4573 0.0000 22.6259
#
#
#
# Elastic Compliance Matrix: (Units=1/GPa)
#
#
# Indices 1 2 3 4 5 6 
#
# 1 0.024033 -0.023806 -0.006318 0.000000 0.017535 0.000000
# 2 -0.023806 0.094571 -0.019516 0.000000 -0.011868 0.000000
# 3 -0.006318 -0.019516 0.018693 0.000000 -0.009864 0.000000
# 4 0.000000 0.000000 0.000000 0.033220 0.000000 -0.002140
# 5 0.017535 -0.011868 -0.009864 0.000000 0.060383 0.000000
# 6 0.000000 0.000000 0.000000 -0.002140 0.000000 0.044335
#
#
# Mechanical properties :
#
#
# Convention : Reuss Voigt Hill
#
# Bulk Modulus (GPa) = 26.30362 67.90982 47.10672
# Shear Modulus (GPa) = 12.91368 22.35776 17.63572
#
# Velocity S-wave (km/s) = 2.75207 3.62117 3.21611
# Velocity P-wave (km/s) = 5.05229 7.57053 6.43578
#
# Compressibility (1/GPa) = 0.03801759
#
# Stress axis : x y z
#
# Youngs Moduli (GPa) = 41.60947 10.57410 53.49614
#
# Poissons Ratio (x) = 0.25173 0.33799
# Poissons Ratio (y) = 0.99055 1.04401
# Poissons Ratio (z) = 0.26289 0.20636
#
# Static dielectric constant tensor:
#      x y z
#    x 1.571230 0.000000 -0.009590 
#    y 0.000000 1.583030 0.000000 
#    z -0.009590 0.000000 1.598620 
# 
# From -- ./inp_files/69075.got.cif
#   From: 2010.05.17/outbox.cif.g08.bks.cpg/sg11_35_cif.got.tgz:69075.got - 2010.06.03 12:22:45.
