data_PCOD9158865
_publ_section_title
;
Structure prediction by ZEFSAII (Michael W. Deem and Ramdas Pophale) SiO2 
 PCOD9158865
Probable space group: P 21/M
;
_chemical_formula_sum "Si O2"
_cell_formula_units_Z 28
_cell_length_a 22.489370
_cell_length_b 7.848775
_cell_length_c 15.076146
_cell_angle_alpha 90.000000
_cell_angle_beta 149.650006
_cell_angle_gamma 90.000000
_cell_volume 1344.628450
_symmetry_space_group_name_H-M "P 21/M"
_symmetry_group_IT_number 11
_symmetry_cell_setting 'monoclinic'
loop_
_space_group_symop_operation_xyz
x,y,z
-x,1/2+y,-z
-x,-y,-z
x,1/2-y,z
loop_
_atom_site_type_symbol
_atom_site_label
_atom_site_fract_x
_atom_site_fract_y
_atom_site_fract_z
Si Si1 0.128377 0.046386 0.559247
Si Si2 0.017047 0.545634 0.919224
Si Si3 0.405777 0.446741 0.595230
Si Si4 0.139253 0.043498 0.773577
Si Si5 0.278855 0.551588 0.256401
Si Si6 0.351974 0.052121 0.168346
Si Si7 0.212481 0.459596 0.482610
O O1 0.142730 0.250000 0.581021
O O2 0.155078 0.980724 0.692440
O O3 0.204438 0.984011 0.574185
O O4 0.990766 0.010201 0.363906
O O5 0.015682 0.750000 0.908160
O O6 0.907049 0.481913 0.720542
O O7 0.000000 0.500000 0.000000
O O8 0.148190 0.487178 0.062590
O O9 0.432614 0.250000 0.648482
O O10 0.329136 0.457664 0.406547
O O11 0.528306 0.536561 0.732414
O O12 0.325005 0.515675 0.570799
O O13 0.142751 0.250000 0.776760
O O14 0.242534 0.982534 0.970652
O O15 0.270090 0.750000 0.270451
O O16 0.358881 0.536416 0.272549
O O17 0.330144 0.250000 0.159088
O O18 0.212952 0.250000 0.481171
#
# Coordination Sequence:
#
# PCOD9158865 Si02
#       7
#     4   4   4   4   4   4   4
#     4   9  17  34  60  84 108 137 171 214 265 324
#     4  10  19  32  51  77 107 136 169 210 257 310
#     4  11  22  37  55  75 106 144 183 222 263 316
#     4   9  19  35  56  83 110 137 171 218 270 312
#     4  11  22  36  56  81 106 139 182 223 268 317
#     4  11  23  38  54  75 107 143 182 223 266 315
#     4   9  18  33  54  79 107 140 175 211 261 315
#
# _framework density 20.823596999999999
#
# number of rings (size 3 to 8) (size 9 to 14) (size 15 to 20)
#    0.000    2.000    1.429    2.571    0.000    2.857 
#    0.000    2.857    0.000    0.000    0.000    0.000 
#    0.000    0.000    0.000    0.000    0.000    0.000 
#
# Total GULP energy -156391.979228 kJ/mol
# GULP energy per Si atom -5585.427830 kJ/mol
# Density = 2.077620 g / cm^3
# Si number density = 20.823597 Si / 1000 Ang^3
#
#
#
# Elastic Constant Matrix: (Units=GPa)
#
#
# Indices 1 2 3 4 5 6 
#
# 1 153.5638 -6.8727 24.0805 0.0000 5.4189 0.0000
# 2 -6.8727 25.6011 -4.9230 0.0000 -0.4675 0.0000
# 3 24.0805 -4.9230 30.2637 0.0000 8.7504 0.0000
# 4 0.0000 0.0000 0.0000 14.6168 0.0000 2.9777
# 5 5.4189 -0.4675 8.7504 0.0000 19.2430 0.0000
# 6 0.0000 0.0000 0.0000 2.9777 0.0000 17.9692
#
#
#
# Elastic Compliance Matrix: (Units=1/GPa)
#
#
# Indices 1 2 3 4 5 6 
#
# 1 0.007467 0.000865 -0.005986 0.000000 0.000640 0.000000
# 2 0.000865 0.040512 0.006549 0.000000 -0.002237 0.000000
# 3 -0.005986 0.006549 0.044141 0.000000 -0.018228 0.000000
# 4 0.000000 0.000000 0.000000 0.070805 0.000000 -0.011733
# 5 0.000640 -0.002237 -0.018228 0.000000 0.060021 0.000000
# 6 0.000000 0.000000 0.000000 -0.011733 0.000000 0.057595
#
#
# Mechanical properties :
#
#
# Convention : Reuss Voigt Hill
#
# Bulk Modulus (GPa) = 10.52901 25.99978 18.26440
# Shear Modulus (GPa) = 16.16333 23.50873 19.83603
#
# Velocity S-wave (km/s) = 2.78906 3.36363 3.08973
# Velocity P-wave (km/s) = 3.92926 5.25339 4.63882
#
# Compressibility (1/GPa) = 0.09497565
#
# Stress axis : x y z
#
# Youngs Moduli (GPa) = 133.92840 24.68433 22.65463
#
# Poissons Ratio (x) = -0.02136 0.13560
# Poissons Ratio (y) = -0.11587 -0.14836
# Poissons Ratio (z) = 0.80163 -0.16165
#
# Static dielectric constant tensor:
#      x y z
#    x 1.729560 0.000000 0.012450 
#    y 0.000000 1.736140 0.000000 
#    z 0.012450 0.000000 1.731270 
# 
# From -- ./inp_files/37391.got.cif
#   From: 2010.05.17/outbox.cif.g08.bks.cpg/sg11_19_cif.got.tgz:37391.got - 2010.06.03 12:22:45.
