data_PCOD9158321
_publ_section_title
;
Structure prediction by ZEFSAII (Michael W. Deem and Ramdas Pophale) SiO2 
 PCOD9158321
Probable space group: P 21/M
;
_chemical_formula_sum "Si O2"
_cell_formula_units_Z 28
_cell_length_a 18.888224
_cell_length_b 8.940818
_cell_length_c 16.620881
_cell_angle_alpha 90.000000
_cell_angle_beta 37.272216
_cell_angle_gamma 90.000000
_cell_volume 1699.848202
_symmetry_space_group_name_H-M "P 21/M"
_symmetry_group_IT_number 11
_symmetry_cell_setting 'monoclinic'
loop_
_space_group_symop_operation_xyz
x,y,z
-x,1/2+y,-z
-x,-y,-z
x,1/2-y,z
loop_
_atom_site_type_symbol
_atom_site_label
_atom_site_fract_x
_atom_site_fract_y
_atom_site_fract_z
Si Si1 0.999780 0.071761 0.765609
Si Si2 0.917853 0.929301 0.006260
Si Si3 0.245205 0.930010 0.489196
Si Si4 0.345668 0.072051 0.700975
Si Si5 0.420777 0.072187 0.452302
Si Si6 0.089405 0.079443 0.307728
Si Si7 0.825083 0.078424 0.619091
O O1 0.007273 0.250000 0.765005
O O2 0.919507 0.023250 0.762648
O O3 0.128323 0.004464 0.631371
O O4 0.951310 0.000405 0.890844
O O5 0.933351 0.750000 0.989977
O O6 0.783328 0.960803 0.150708
O O7 0.000000 0.000000 0.000000
O O8 0.233470 0.750000 0.503659
O O9 0.249948 0.971480 0.390141
O O10 0.354082 0.986852 0.441976
O O11 0.367870 0.250000 0.689887
O O12 0.357586 0.038239 0.595007
O O13 0.446739 0.982390 0.655256
O O14 0.415467 0.250000 0.444162
O O15 0.116098 0.250000 0.261080
O O16 0.958259 0.078038 0.464162
O O17 0.172945 0.020107 0.302738
O O18 0.796361 0.250000 0.665284
#
# Coordination Sequence:
#
# PCOD9158321 Si02
#       7
#     4   4   4   4   4   4   4
#     4  11  21  32  47  69  99 132 166 202 242 288
#     4  11  22  36  53  73  99 130 165 201 239 285
#     4  10  19  31  48  71 100 131 163 199 242 290
#     4   9  20  36  51  69  95 128 162 197 239 285
#     4  10  19  32  52  75  97 123 159 201 243 286
#     4   9  16  27  43  64  92 126 161 196 238 287
#     4   8  15  26  41  64  93 125 158 194 237 284
#
# _framework density 16.472059000000002
#
# number of rings (size 3 to 8) (size 9 to 14) (size 15 to 20)
#    0.000    2.286    0.000    4.714    0.000    6.857 
#    0.000    0.000    0.000    0.000    0.000    1.000 
#    0.000    0.000    0.000    0.000    0.000    0.000 
#
# Total GULP energy -156179.941802 kJ/mol
# GULP energy per Si atom -5577.855064 kJ/mol
# Density = 1.643457 g / cm^3
# Si number density = 16.472059 Si / 1000 Ang^3
#
#
#
# Elastic Constant Matrix: (Units=GPa)
#
#
# Indices 1 2 3 4 5 6 
#
# 1 142.4478 65.6845 41.4908 0.0000 13.9730 0.0000
# 2 65.6845 88.2736 39.1903 0.0000 4.8603 0.0000
# 3 41.4908 39.1903 52.9247 0.0000 6.7898 0.0000
# 4 0.0000 0.0000 0.0000 20.5753 0.0000 2.6497
# 5 13.9730 4.8603 6.7898 0.0000 15.7313 0.0000
# 6 0.0000 0.0000 0.0000 2.6497 0.0000 33.9312
#
#
#
# Elastic Compliance Matrix: (Units=1/GPa)
#
#
# Indices 1 2 3 4 5 6 
#
# 1 0.011885 -0.007032 -0.003212 0.000000 -0.006997 0.000000
# 2 -0.007032 0.021038 -0.010621 0.000000 0.004330 0.000000
# 3 -0.003212 -0.010621 0.030161 0.000000 -0.006883 0.000000
# 4 0.000000 0.000000 0.000000 0.049096 0.000000 -0.003834
# 5 -0.006997 0.004330 -0.006883 0.000000 0.071415 0.000000
# 6 0.000000 0.000000 0.000000 -0.003834 0.000000 0.029771
#
#
# Mechanical properties :
#
#
# Convention : Reuss Voigt Hill
#
# Bulk Modulus (GPa) = 46.83244 64.04190 55.43717
# Shear Modulus (GPa) = 19.06841 23.19960 21.13401
#
# Velocity S-wave (km/s) = 3.40607 3.75697 3.58582
# Velocity P-wave (km/s) = 6.63036 7.60153 7.13249
#
# Compressibility (1/GPa) = 0.02135272
#
# Stress axis : x y z
#
# Youngs Moduli (GPa) = 84.14189 47.53321 33.15546
#
# Poissons Ratio (x) = 0.33425 0.10650
# Poissons Ratio (y) = 0.59169 0.35215
# Poissons Ratio (z) = 0.27029 0.50486
#
# Static dielectric constant tensor:
#      x y z
#    x 1.560380 0.000000 0.008890 
#    y 0.000000 1.555960 0.000000 
#    z 0.008890 0.000000 1.526980 
# 
# From -- ./inp_files/53225.got.cif
#   From: 2010.05.17/outbox.cif.g08.bks.cpg/sg11_27_cif.got.tgz:53225.got - 2010.06.03 12:22:45.
