data_PCOD9158342
_publ_section_title
;
Structure prediction by ZEFSAII (Michael W. Deem and Ramdas Pophale) SiO2 
 PCOD9158342
Probable space group: P 21/M
;
_chemical_formula_sum "Si O2"
_cell_formula_units_Z 32
_cell_length_a 14.938407
_cell_length_b 8.563567
_cell_length_c 16.270028
_cell_angle_alpha 90.000000
_cell_angle_beta 62.975353
_cell_angle_gamma 90.000000
_cell_volume 1854.099050
_symmetry_space_group_name_H-M "P 21/M"
_symmetry_group_IT_number 11
_symmetry_cell_setting 'monoclinic'
loop_
_space_group_symop_operation_xyz
x,y,z
-x,1/2+y,-z
-x,-y,-z
x,1/2-y,z
loop_
_atom_site_type_symbol
_atom_site_label
_atom_site_fract_x
_atom_site_fract_y
_atom_site_fract_z
Si Si1 0.946905 0.063265 0.398390
Si Si2 0.916818 0.437472 0.971558
Si Si3 0.071337 0.061600 0.775933
Si Si4 0.421644 0.936102 0.839834
Si Si5 0.349728 0.440124 0.222804
Si Si6 0.611100 0.562444 0.972745
Si Si7 0.236460 0.436116 0.841411
Si Si8 0.846995 0.561238 0.599968
O O1 0.944500 0.250000 0.399319
O O2 0.058573 0.013372 0.382138
O O3 0.923363 0.002266 0.317684
O O4 0.871017 0.000704 0.499308
O O5 0.909096 0.250000 0.977818
O O6 0.965066 0.482834 0.863830
O O7 0.818129 0.511469 0.051466
O O8 0.000000 0.500000 0.000000
O O9 0.074296 0.250000 0.773157
O O10 0.163952 0.009970 0.796610
O O11 0.423457 0.750000 0.834722
O O12 0.538277 0.991835 0.795659
O O13 0.349708 0.000386 0.798420
O O14 0.370305 0.986767 0.947218
O O15 0.352179 0.250000 0.223420
O O16 0.330201 0.482278 0.135072
O O17 0.258513 0.492940 0.317981
O O18 0.613074 0.750000 0.979688
O O19 0.500000 0.500000 0.000000
O O20 0.238941 0.250000 0.837875
O O21 0.845792 0.750000 0.598042
#
# Coordination Sequence:
#
# PCOD9158342 Si02
#       8
#     4   4   4   4   4   4   4   4
#     4  10  20  32  51  78 100 122 156 199 247 296
#     4   9  17  30  47  69  97 129 166 203 240 281
#     4   9  19  34  51  71  98 132 165 199 242 293
#     4  10  19  31  48  72 101 133 170 208 246 289
#     4   8  16  31  51  72  95 129 168 201 241 295
#     4   9  16  28  45  67  96 128 165 203 240 286
#     4  10  20  33  49  71 100 136 173 204 243 291
#     4   9  18  35  54  71  96 127 157 195 246 300
#
# _framework density 17.259056999999999
#
# number of rings (size 3 to 8) (size 9 to 14) (size 15 to 20)
#    0.000    2.750    0.000    3.375    0.000    4.500 
#    0.000    5.000    0.000    0.750    0.000    0.000 
#    0.000    0.000    0.000    0.000    0.000    0.000 
#
# Total GULP energy -178145.339352 kJ/mol
# GULP energy per Si atom -5567.041855 kJ/mol
# Density = 1.721977 g / cm^3
# Si number density = 17.259057 Si / 1000 Ang^3
#
#
#
# Elastic Constant Matrix: (Units=GPa)
#
#
# Indices 1 2 3 4 5 6 
#
# 1 98.4775 15.9279 67.4382 0.0000 -1.0659 0.0000
# 2 15.9279 25.4182 20.9455 0.0000 0.8628 0.0000
# 3 67.4382 20.9455 138.4554 0.0000 -1.2361 0.0000
# 4 0.0000 0.0000 0.0000 24.9132 0.0000 2.2887
# 5 -1.0659 0.8628 -1.2361 0.0000 24.8240 0.0000
# 6 0.0000 0.0000 0.0000 2.2887 0.0000 22.6933
#
#
#
# Elastic Compliance Matrix: (Units=1/GPa)
#
#
# Indices 1 2 3 4 5 6 
#
# 1 0.015592 -0.004034 -0.006980 0.000000 0.000462 0.000000
# 2 -0.004034 0.046079 -0.005024 0.000000 -0.002025 0.000000
# 3 -0.006980 -0.005024 0.011386 0.000000 0.000442 0.000000
# 4 0.000000 0.000000 0.000000 0.040515 0.000000 -0.004086
# 5 0.000462 -0.002025 0.000442 0.000000 0.040396 0.000000
# 6 0.000000 0.000000 0.000000 -0.004086 0.000000 0.044478
#
#
# Mechanical properties :
#
#
# Convention : Reuss Voigt Hill
#
# Bulk Modulus (GPa) = 24.40188 52.33048 38.36618
# Shear Modulus (GPa) = 20.47650 25.02206 22.74928
#
# Velocity S-wave (km/s) = 3.44818 3.81175 3.63451
# Velocity P-wave (km/s) = 5.47929 7.05400 6.31591
#
# Compressibility (1/GPa) = 0.04098044
#
# Stress axis : x y z
#
# Youngs Moduli (GPa) = 64.13469 21.70207 87.82470
#
# Poissons Ratio (x) = 0.08756 0.61303
# Poissons Ratio (y) = 0.25875 0.44121
# Poissons Ratio (z) = 0.44767 0.10903
#
# Static dielectric constant tensor:
#      x y z
#    x 1.600020 0.000000 -0.008560 
#    y 0.000000 1.583700 0.000000 
#    z -0.008560 0.000000 1.585020 
# 
# From -- ./inp_files/51696.got.cif
#   From: 2010.05.17/outbox.cif.g08.bks.cpg/sg11_26_cif.got.tgz:51696.got - 2010.06.03 12:22:45.
