data_PCOD9158903
_publ_section_title
;
Structure prediction by ZEFSAII (Michael W. Deem and Ramdas Pophale) SiO2 
 PCOD9158903
Probable space group: P 21/M
;
_chemical_formula_sum "Si O2"
_cell_formula_units_Z 32
_cell_length_a 13.276241
_cell_length_b 9.055143
_cell_length_c 23.887333
_cell_angle_alpha 90.000000
_cell_angle_beta 39.437710
_cell_angle_gamma 90.000000
_cell_volume 1824.211676
_symmetry_space_group_name_H-M "P 21/M"
_symmetry_group_IT_number 11
_symmetry_cell_setting 'monoclinic'
loop_
_space_group_symop_operation_xyz
x,y,z
-x,1/2+y,-z
-x,-y,-z
x,1/2-y,z
loop_
_atom_site_type_symbol
_atom_site_label
_atom_site_fract_x
_atom_site_fract_y
_atom_site_fract_z
Si Si1 0.450430 0.072239 0.236531
Si Si2 0.672910 0.573822 0.431839
Si Si3 0.470817 0.072483 0.099367
Si Si4 0.250394 0.572332 0.106365
Si Si5 0.838385 0.083354 0.581688
Si Si6 0.356024 0.573085 0.736803
Si Si7 0.892228 0.572913 0.230388
Si Si8 0.358104 0.582515 0.447866
O O1 0.437016 0.250000 0.244606
O O2 0.489047 0.028806 0.156345
O O3 0.580669 0.031013 0.228190
O O4 0.283065 0.001787 0.325963
O O5 0.500000 0.500000 0.500000
O O6 0.659910 0.750000 0.443131
O O7 0.785437 0.541057 0.331095
O O8 0.731965 0.500326 0.463856
O O9 0.453358 0.250000 0.104953
O O10 0.321446 0.999972 0.131938
O O11 0.626006 0.033671 0.996211
O O12 0.250993 0.750000 0.112760
O O13 0.072553 0.527702 0.166060
O O14 0.866820 0.250000 0.589814
O O15 0.749099 0.090727 0.560711
O O16 0.000000 0.000000 0.500000
O O17 0.352293 0.750000 0.734752
O O18 0.190762 0.505437 0.786731
O O19 0.487514 0.508090 0.637718
O O20 0.889091 0.750000 0.222859
O O21 0.403823 0.750000 0.444832
#
# Coordination Sequence:
#
# PCOD9158903 Si02
#       8
#     4   4   4   4   4   4   4   4
#     4   9  19  35  55  79 105 138 177 218 267 319
#     4  11  21  32  49  73 102 138 176 215 257 306
#     4   9  18  36  60  81 106 137 174 220 270 322
#     4   9  19  36  57  81 107 139 174 216 270 322
#     4  10  21  35  52  75 105 140 176 219 264 310
#     4  10  19  32  52  75 102 137 175 213 256 313
#     4  10  21  35  51  74 108 141 174 217 264 316
#     4  10  20  34  50  70  99 135 175 215 259 309
#
# _framework density 17.541823000000001
#
# number of rings (size 3 to 8) (size 9 to 14) (size 15 to 20)
#    0.000    2.250    1.250    1.500    0.000    4.500 
#    0.000    3.125    0.000    0.000    0.000    0.000 
#    0.000    0.000    0.000    0.000    0.000    0.000 
#
# Total GULP energy -178435.932382 kJ/mol
# GULP energy per Si atom -5576.122887 kJ/mol
# Density = 1.750190 g / cm^3
# Si number density = 17.541823 Si / 1000 Ang^3
#
#
#
# Elastic Constant Matrix: (Units=GPa)
#
#
# Indices 1 2 3 4 5 6 
#
# 1 119.7558 44.4886 73.9696 0.0000 -0.7834 0.0000
# 2 44.4886 44.1970 37.0233 0.0000 0.7996 0.0000
# 3 73.9696 37.0233 83.9083 0.0000 0.1753 0.0000
# 4 0.0000 0.0000 0.0000 20.4442 0.0000 -0.7611
# 5 -0.7834 0.7996 0.1753 0.0000 37.7967 0.0000
# 6 0.0000 0.0000 0.0000 -0.7611 0.0000 32.2069
#
#
#
# Elastic Compliance Matrix: (Units=1/GPa)
#
#
# Indices 1 2 3 4 5 6 
#
# 1 0.020216 -0.008616 -0.014021 0.000000 0.000666 0.000000
# 2 -0.008616 0.039582 -0.009868 0.000000 -0.000970 0.000000
# 3 -0.014021 -0.009868 0.028633 0.000000 -0.000215 0.000000
# 4 0.000000 0.000000 0.000000 0.048957 0.000000 0.001157
# 5 0.000666 -0.000970 -0.000215 0.000000 0.026493 0.000000
# 6 0.000000 0.000000 0.000000 0.001157 0.000000 0.031077
#
#
# Mechanical properties :
#
#
# Convention : Reuss Voigt Hill
#
# Bulk Modulus (GPa) = 42.69620 62.09158 52.39389
# Shear Modulus (GPa) = 18.67251 24.24820 21.46035
#
# Velocity S-wave (km/s) = 3.26614 3.72197 3.50148
# Velocity P-wave (km/s) = 6.21418 7.34465 6.80294
#
# Compressibility (1/GPa) = 0.02342129
#
# Stress axis : x y z
#
# Youngs Moduli (GPa) = 49.46606 25.26373 34.92532
#
# Poissons Ratio (x) = 0.21767 0.48969
# Poissons Ratio (y) = 0.42620 0.34463
# Poissons Ratio (z) = 0.69357 0.24929
#
# Static dielectric constant tensor:
#      x y z
#    x 1.639160 0.000000 0.011220 
#    y 0.000000 1.602230 0.000000 
#    z 0.011220 0.000000 1.575190 
# 
# From -- ./inp_files/68968.got.cif
#   From: 2010.05.17/outbox.cif.g08.bks.cpg/sg11_35_cif.got.tgz:68968.got - 2010.06.03 12:22:45.
