data_PCOD9158081
_publ_section_title
;
Structure prediction by ZEFSAII (Michael W. Deem and Ramdas Pophale) SiO2 
 PCOD9158081
Probable space group: P 21/M
;
_chemical_formula_sum "Si O2"
_cell_formula_units_Z 28
_cell_length_a 15.099558
_cell_length_b 9.060740
_cell_length_c 19.532283
_cell_angle_alpha 90.000000
_cell_angle_beta 37.397391
_cell_angle_gamma 90.000000
_cell_volume 1622.977715
_symmetry_space_group_name_H-M "P 21/M"
_symmetry_group_IT_number 11
_symmetry_cell_setting 'monoclinic'
loop_
_space_group_symop_operation_xyz
x,y,z
-x,1/2+y,-z
-x,-y,-z
x,1/2-y,z
loop_
_atom_site_type_symbol
_atom_site_label
_atom_site_fract_x
_atom_site_fract_y
_atom_site_fract_z
Si Si1 0.728713 0.925842 0.749636
Si Si2 0.394933 0.925676 0.911871
Si Si3 0.184461 0.925791 0.161726
Si Si4 0.812668 0.079690 0.563108
Si Si5 0.861293 0.924624 0.394541
Si Si6 0.435160 0.928614 0.471892
Si Si7 0.531390 0.581224 0.267061
O O1 0.749549 0.750000 0.734778
O O2 0.557532 0.957736 0.840256
O O3 0.767434 0.990885 0.799361
O O4 0.819162 0.001353 0.632547
O O5 0.382190 0.750000 0.914168
O O6 0.384908 0.992236 0.842363
O O7 0.276278 0.977614 0.039823
O O8 0.212314 0.750000 0.154013
O O9 0.011101 0.944469 0.261449
O O10 0.861289 0.250000 0.535864
O O11 0.639955 0.079610 0.649257
O O12 0.883751 0.990909 0.456938
O O13 0.828898 0.750000 0.419808
O O14 0.726515 0.009282 0.443223
O O15 0.432023 0.750000 0.477012
O O16 0.529777 0.971626 0.346412
O O17 0.500000 0.000000 0.500000
O O18 0.580921 0.750000 0.235275
#
# Coordination Sequence:
#
# PCOD9158081 Si02
#       7
#     4   4   4   4   4   4   4
#     4  10  19  30  48  72  95 127 174 218 252 289
#     4   9  18  32  49  70  97 131 171 209 244 285
#     4  10  21  34  47  67  99 136 169 206 250 290
#     4   9  17  31  49  68  96 130 164 207 253 295
#     4  10  20  34  51  72 100 132 164 199 245 299
#     4  10  20  35  57  83 106 126 153 194 243 295
#     4   8  16  30  49  74  99 124 155 195 243 287
#
# _framework density 17.252238999999999
#
# number of rings (size 3 to 8) (size 9 to 14) (size 15 to 20)
#    0.000    2.571    0.000    3.000    0.000    6.857 
#    0.000    0.000    0.000    0.857    0.000    0.000 
#    0.000    0.000    0.000    0.000    0.000    0.000 
#
# Total GULP energy -156186.970430 kJ/mol
# GULP energy per Si atom -5578.106087 kJ/mol
# Density = 1.721297 g / cm^3
# Si number density = 17.252239 Si / 1000 Ang^3
#
#
#
# Elastic Constant Matrix: (Units=GPa)
#
#
# Indices 1 2 3 4 5 6 
#
# 1 95.7337 46.5117 62.5686 0.0000 29.3749 0.0000
# 2 46.5117 62.9903 52.8047 0.0000 6.4183 0.0000
# 3 62.5686 52.8047 126.8913 0.0000 19.7323 0.0000
# 4 0.0000 0.0000 0.0000 24.8551 0.0000 9.1845
# 5 29.3749 6.4183 19.7323 0.0000 21.7902 0.0000
# 6 0.0000 0.0000 0.0000 9.1845 0.0000 25.4416
#
#
#
# Elastic Compliance Matrix: (Units=1/GPa)
#
#
# Indices 1 2 3 4 5 6 
#
# 1 0.031219 -0.017088 -0.002934 0.000000 -0.034396 0.000000
# 2 -0.017088 0.033836 -0.008947 0.000000 0.021171 0.000000
# 3 -0.002934 -0.008947 0.013997 0.000000 -0.006084 0.000000
# 4 0.000000 0.000000 0.000000 0.046426 0.000000 -0.016760
# 5 -0.034396 0.021171 -0.006084 0.000000 0.091534 0.000000
# 6 0.000000 0.000000 0.000000 -0.016760 0.000000 0.045356
#
#
# Mechanical properties :
#
#
# Convention : Reuss Voigt Hill
#
# Bulk Modulus (GPa) = 47.36135 67.70949 57.53542
# Shear Modulus (GPa) = 15.27443 22.66607 18.97025
#
# Velocity S-wave (km/s) = 2.97873 3.62858 3.31959
# Velocity P-wave (km/s) = 6.27234 7.54237 6.93649
#
# Compressibility (1/GPa) = 0.02111426
#
# Stress axis : x y z
#
# Youngs Moduli (GPa) = 32.03148 29.55435 71.44401
#
# Poissons Ratio (x) = 0.50501 0.20964
# Poissons Ratio (y) = 0.54734 0.63921
# Poissons Ratio (z) = 0.09399 0.26442
#
# Static dielectric constant tensor:
#      x y z
#    x 1.572850 0.000000 -0.010330 
#    y 0.000000 1.582280 0.000000 
#    z -0.010330 0.000000 1.599930 
# 
# From -- ./inp_files/37152.got.cif
#   From: 2010.05.17/outbox.cif.g08.bks.cpg/sg11_19_cif.got.tgz:37152.got - 2010.06.03 12:22:45.
