data_PCOD9158624
_publ_section_title
;
Structure prediction by ZEFSAII (Michael W. Deem and Ramdas Pophale) SiO2 
 PCOD9158624
Probable space group: P 21/M
;
_chemical_formula_sum "Si O2"
_cell_formula_units_Z 28
_cell_length_a 9.074992
_cell_length_b 22.683982
_cell_length_c 7.243163
_cell_angle_alpha 90.000000
_cell_angle_beta 65.160635
_cell_angle_gamma 90.000000
_cell_volume 1353.116567
_symmetry_space_group_name_H-M "P 21/M"
_symmetry_group_IT_number 11
_symmetry_cell_setting 'monoclinic'
loop_
_space_group_symop_operation_xyz
x,y,z
-x,1/2+y,-z
-x,-y,-z
x,1/2-y,z
loop_
_atom_site_type_symbol
_atom_site_label
_atom_site_fract_x
_atom_site_fract_y
_atom_site_fract_z
Si Si1 0.413201 0.317608 0.873186
Si Si2 0.320088 0.957296 0.922219
Si Si3 0.424056 0.940260 0.270560
Si Si4 0.139936 0.535938 0.673593
Si Si5 0.071429 0.416425 0.515049
Si Si6 0.404557 0.135517 0.280069
Si Si7 0.821183 0.683375 0.306751
O O1 0.460534 0.250000 0.802487
O O2 0.524916 0.371953 0.748529
O O3 0.237528 0.327919 0.869938
O O4 0.405140 0.325232 0.097222
O O5 0.160221 0.957675 0.880837
O O6 0.433105 0.902569 0.797323
O O7 0.417965 0.018538 0.838090
O O8 0.312769 0.949533 0.146674
O O9 0.323464 0.960769 0.499132
O O10 0.065308 0.474830 0.641518
O O11 0.043048 0.583282 0.602257
O O12 0.256008 0.411045 0.341914
O O13 0.055812 0.361459 0.662022
O O14 0.345733 0.172642 0.487255
O O15 0.876201 0.750000 0.297145
#
# Coordination Sequence:
#
# PCOD9158624 Si02
#       7
#     4   4   4   4   4   4   4
#     4  10  19  31  54  78  99 130 173 218 251 289
#     4  10  19  31  56  77 102 136 165 204 262 305
#     4  10  19  32  52  77 104 131 171 208 256 304
#     4  11  19  36  50  76 111 133 163 210 258 305
#     4   9  21  34  50  77 105 137 168 206 254 302
#     4   9  18  34  50  80 100 127 170 211 250 297
#     4   9  17  32  51  74  97 132 173 207 249 292
#
# _framework density 20.692969999999999
#
# number of rings (size 3 to 8) (size 9 to 14) (size 15 to 20)
#    0.857    1.429    1.429    2.571    0.000    0.000 
#    2.571    2.143    0.000    4.286    0.000    0.000 
#    0.000    0.000    0.000    0.000    0.000    0.000 
#
# Total GULP energy -156071.568966 kJ/mol
# GULP energy per Si atom -5573.984606 kJ/mol
# Density = 2.064587 g / cm^3
# Si number density = 20.692970 Si / 1000 Ang^3
#
#
#
# Elastic Constant Matrix: (Units=GPa)
#
#
# Indices 1 2 3 4 5 6 
#
# 1 64.5798 28.4369 25.4206 0.0000 39.3286 0.0000
# 2 28.4369 108.0160 17.5325 0.0000 28.1356 0.0000
# 3 25.4206 17.5325 63.0884 0.0000 31.6088 0.0000
# 4 0.0000 0.0000 0.0000 20.2768 0.0000 8.0561
# 5 39.3286 28.1356 31.6088 0.0000 44.9062 0.0000
# 6 0.0000 0.0000 0.0000 8.0561 0.0000 24.9414
#
#
#
# Elastic Compliance Matrix: (Units=1/GPa)
#
#
# Indices 1 2 3 4 5 6 
#
# 1 0.033488 -0.001362 0.001779 0.000000 -0.029728 0.000000
# 2 -0.001362 0.011134 0.000544 0.000000 -0.006166 0.000000
# 3 0.001779 0.000544 0.024615 0.000000 -0.019225 0.000000
# 4 0.000000 0.000000 0.000000 0.056578 0.000000 -0.018275
# 5 -0.029728 -0.006166 -0.019225 0.000000 0.065700 0.000000
# 6 0.000000 0.000000 0.000000 -0.018275 0.000000 0.045997
#
#
# Mechanical properties :
#
#
# Convention : Reuss Voigt Hill
#
# Bulk Modulus (GPa) = 14.05278 42.05158 28.05218
# Shear Modulus (GPa) = 19.28202 28.97782 24.12992
#
# Velocity S-wave (km/s) = 3.05588 3.74621 3.41851
# Velocity P-wave (km/s) = 4.38828 6.25123 5.40069
#
# Compressibility (1/GPa) = 0.07116032
#
# Stress axis : x y z
#
# Youngs Moduli (GPa) = 29.86153 89.81260 40.62565
#
# Poissons Ratio (x) = 0.12229 -0.07228
# Poissons Ratio (y) = 0.04066 -0.02210
# Poissons Ratio (z) = -0.05313 -0.04885
#
# Static dielectric constant tensor:
#      x y z
#    x 1.771010 0.000000 -0.002310 
#    y 0.000000 1.737050 0.000000 
#    z -0.002310 0.000000 1.748530 
# 
# From -- ./inp_files/14663.got.cif
#   From: 2010.05.17/outbox.cif.g08.bks.cpg/sg11_8_cif.got.tgz:14663.got - 2010.06.03 12:22:45.
