data_PCOD9158974
_publ_section_title
;
Structure prediction by ZEFSAII (Michael W. Deem and Ramdas Pophale) SiO2 
 PCOD9158974
Probable space group: P 21/M
;
_chemical_formula_sum "Si O2"
_cell_formula_units_Z 28
_cell_length_a 10.080518
_cell_length_b 11.120028
_cell_length_c 15.892271
_cell_angle_alpha 90.000000
_cell_angle_beta 55.769473
_cell_angle_gamma 90.000000
_cell_volume 1472.872556
_symmetry_space_group_name_H-M "P 21/M"
_symmetry_group_IT_number 11
_symmetry_cell_setting 'monoclinic'
loop_
_space_group_symop_operation_xyz
x,y,z
-x,1/2+y,-z
-x,-y,-z
x,1/2-y,z
loop_
_atom_site_type_symbol
_atom_site_label
_atom_site_fract_x
_atom_site_fract_y
_atom_site_fract_z
Si Si1 0.597373 0.109117 0.263391
Si Si2 0.761054 0.445420 0.886458
Si Si3 0.608302 0.385740 0.618246
Si Si4 0.130122 0.619376 0.332396
Si Si5 0.924576 0.384491 0.396622
Si Si6 0.505397 0.620115 0.892316
Si Si7 0.042461 0.614561 0.816426
O O1 0.567638 0.250000 0.300925
O O2 0.540617 0.098251 0.187353
O O3 0.788074 0.089449 0.200694
O O4 0.507794 0.000901 0.343990
O O5 0.837367 0.378859 0.779192
O O6 0.632479 0.529846 0.885229
O O7 0.900622 0.521076 0.881482
O O8 0.654749 0.380518 0.994094
O O9 0.535647 0.250000 0.638004
O O10 0.707241 0.389397 0.671103
O O11 0.747344 0.394541 0.498390
O O12 0.056383 0.750000 0.381731
O O13 0.028376 0.499502 0.387666
O O14 0.986457 0.250000 0.398470
O O15 0.923672 0.388071 0.295989
O O16 0.585003 0.750000 0.868929
O O17 0.991154 0.750000 0.857226
#
# Coordination Sequence:
#
# PCOD9158974 Si02
#       7
#     4   4   4   4   4   4   4
#     4  10  21  37  55  78 109 143 182 221 261 314
#     4  10  19  34  55  78 106 139 174 218 268 320
#     4  10  20  35  52  77 110 142 178 222 268 315
#     4  10  19  32  52  80 110 137 171 223 272 314
#     4   9  19  34  54  77 106 143 180 217 266 321
#     4  10  20  34  54  80 105 137 179 221 264 315
#     4   9  19  36  55  77 107 142 179 220 265 316
#
# _framework density 19.010472
#
# number of rings (size 3 to 8) (size 9 to 14) (size 15 to 20)
#    0.000    2.286    1.429    1.286    0.000    2.857 
#    0.000    4.286    0.000    0.000    0.000    0.000 
#    0.000    0.000    0.000    0.000    0.000    0.000 
#
# Total GULP energy -155981.771041 kJ/mol
# GULP energy per Si atom -5570.777537 kJ/mol
# Density = 1.896720 g / cm^3
# Si number density = 19.010472 Si / 1000 Ang^3
#
#
#
# Elastic Constant Matrix: (Units=GPa)
#
#
# Indices 1 2 3 4 5 6 
#
# 1 45.9638 54.9425 -14.1370 0.0000 -18.4407 0.0000
# 2 54.9425 149.5847 30.3172 0.0000 -20.9587 0.0000
# 3 -14.1370 30.3172 38.2537 0.0000 -9.9881 0.0000
# 4 0.0000 0.0000 0.0000 82.4241 0.0000 -81.9814
# 5 -18.4407 -20.9587 -9.9881 0.0000 13.7451 0.0000
# 6 0.0000 0.0000 0.0000 -81.9814 0.0000 86.7563
#
#
#
# Elastic Compliance Matrix: (Units=1/GPa)
#
#
# Indices 1 2 3 4 5 6 
#
# 1 -0.055819 0.020361 -0.059501 0.000000 -0.087079 0.000000
# 2 0.020361 0.001641 0.017291 0.000000 0.042383 0.000000
# 3 -0.059501 0.017291 -0.029016 0.000000 -0.074548 0.000000
# 4 0.000000 0.000000 0.000000 0.201822 0.000000 0.190714
# 5 -0.087079 0.042383 -0.074548 0.000000 -0.033619 0.000000
# 6 0.000000 0.000000 0.000000 0.190714 0.000000 0.191744
#
#
# Mechanical properties :
#
#
# Convention : Reuss Voigt Hill
#
# Bulk Modulus (GPa) = -7.88059 41.78305 16.95123
# Shear Modulus (GPa) = 17.97563 47.43041 32.70302
#
# Velocity S-wave (km/s) = 3.07834 5.00038 4.15211
# Velocity P-wave (km/s) = 2.91213 7.44077 5.65002
#
# Compressibility (1/GPa) = -0.12689407
#
# Stress axis : x y z
#
# Youngs Moduli (GPa) = -17.91513 609.54641 -34.46366
#
# Poissons Ratio (x) = -12.41092 -2.05064
# Poissons Ratio (y) = 0.36477 0.59590
# Poissons Ratio (z) = -1.06598 -10.53940
#
# Static dielectric constant tensor:
#      x y z
#    x 1.627950 0.000000 0.007660 
#    y 0.000000 1.713710 0.000000 
#    z 0.007660 0.000000 1.666400 
# 
# From -- ./inp_files/47124.got.cif
#   From: 2010.05.17/outbox.cif.g08.bks.cpg/sg11_24_cif.got.tgz:47124.got - 2010.06.03 12:22:45.
