data_PCOD9158273
_publ_section_title
;
Structure prediction by ZEFSAII (Michael W. Deem and Ramdas Pophale) SiO2 
 PCOD9158273
Probable space group: P 21/M
;
_chemical_formula_sum "Si O2"
_cell_formula_units_Z 28
_cell_length_a 12.445831
_cell_length_b 8.720780
_cell_length_c 14.920847
_cell_angle_alpha 90.000000
_cell_angle_beta 50.677459
_cell_angle_gamma 90.000000
_cell_volume 1252.806789
_symmetry_space_group_name_H-M "P 21/M"
_symmetry_group_IT_number 11
_symmetry_cell_setting 'monoclinic'
loop_
_space_group_symop_operation_xyz
x,y,z
-x,1/2+y,-z
-x,-y,-z
x,1/2-y,z
loop_
_atom_site_type_symbol
_atom_site_label
_atom_site_fract_x
_atom_site_fract_y
_atom_site_fract_z
Si Si1 0.853401 0.578059 0.094432
Si Si2 0.511695 0.932411 0.854092
Si Si3 0.986578 0.435848 0.312216
Si Si4 0.193042 0.434804 0.348580
Si Si5 0.752693 0.576532 0.942656
Si Si6 0.711063 0.566450 0.503582
Si Si7 0.433749 0.434685 0.700353
O O1 0.880411 0.750000 0.113170
O O2 0.727266 0.511107 0.221516
O O3 0.789331 0.585294 0.028510
O O4 0.000000 0.500000 0.000000
O O5 0.503618 0.750000 0.847537
O O6 0.673156 0.971810 0.784408
O O7 0.479387 0.008969 0.775012
O O8 0.390946 0.985164 0.984232
O O9 0.973518 0.250000 0.318717
O O10 0.836821 0.508899 0.375564
O O11 0.055754 0.488885 0.370309
O O12 0.106594 0.479883 0.178491
O O13 0.182240 0.250000 0.359175
O O14 0.233973 0.486327 0.426422
O O15 0.726995 0.750000 0.923022
O O16 0.701356 0.750000 0.506877
O O17 0.557159 0.498397 0.572868
O O18 0.432486 0.250000 0.696900
#
# Coordination Sequence:
#
# PCOD9158273 Si02
#       7
#     4   4   4   4   4   4   4
#     4   9  18  32  52  77  98 116 145 187 233 284
#     4   9  16  28  46  68  95 124 157 199 239 274
#     4  10  19  32  48  64  92 134 168 196 233 276
#     4   8  16  29  45  67  93 124 164 204 237 269
#     4   9  19  33  47  68  97 127 159 191 232 289
#     4  10  19  31  47  70  98 125 162 205 235 266
#     4   9  17  31  50  72  96 123 156 189 229 282
#
# _framework density 22.349815
#
# number of rings (size 3 to 8) (size 9 to 14) (size 15 to 20)
#    0.000    2.857    0.000    3.429    0.000    4.000 
#    0.000    3.571    0.000    0.857    0.000    0.000 
#    0.000    0.000    0.000    0.000    0.000    0.000 
#
# Total GULP energy -156057.724228 kJ/mol
# GULP energy per Si atom -5573.490151 kJ/mol
# Density = 2.229895 g / cm^3
# Si number density = 22.349815 Si / 1000 Ang^3
#
#
#
# Elastic Constant Matrix: (Units=GPa)
#
#
# Indices 1 2 3 4 5 6 
#
# 1 66.2071 20.0214 45.5670 0.0000 -31.7452 0.0000
# 2 20.0214 42.4686 34.1377 0.0000 -27.9237 0.0000
# 3 45.5670 34.1377 139.0353 0.0000 -57.0207 0.0000
# 4 0.0000 0.0000 0.0000 32.6113 0.0000 -15.1196
# 5 -31.7452 -27.9237 -57.0207 0.0000 60.0627 0.0000
# 6 0.0000 0.0000 0.0000 -15.1196 0.0000 14.3440
#
#
#
# Elastic Compliance Matrix: (Units=1/GPa)
#
#
# Indices 1 2 3 4 5 6 
#
# 1 0.021691 -0.002919 -0.003680 0.000000 0.006614 0.000000
# 2 -0.002919 0.035114 -0.002624 0.000000 0.012290 0.000000
# 3 -0.003680 -0.002624 0.012683 0.000000 0.008875 0.000000
# 4 0.000000 0.000000 0.000000 0.059973 0.000000 0.063216
# 5 0.006614 0.012290 0.008875 0.000000 0.034285 0.000000
# 6 0.000000 0.000000 0.000000 0.063216 0.000000 0.136349
#
#
# Mechanical properties :
#
#
# Convention : Reuss Voigt Hill
#
# Bulk Modulus (GPa) = 19.59235 49.68481 34.63858
# Shear Modulus (GPa) = 14.90073 31.26926 23.08500
#
# Velocity S-wave (km/s) = 2.58486 3.74449 3.21735
# Velocity P-wave (km/s) = 4.20642 6.40107 5.41607
#
# Compressibility (1/GPa) = 0.05104034
#
# Stress axis : x y z
#
# Youngs Moduli (GPa) = 46.10289 28.47896 78.84761
#
# Poissons Ratio (x) = 0.08314 0.29013
# Poissons Ratio (y) = 0.13459 0.20692
# Poissons Ratio (z) = 0.16964 0.07474
#
# Static dielectric constant tensor:
#      x y z
#    x 1.867240 0.000000 0.024180 
#    y 0.000000 1.778390 0.000000 
#    z 0.024180 0.000000 1.937370 
# 
# From -- ./inp_files/42362.got.cif
#   From: 2010.05.17/outbox.cif.g08.bks.cpg/sg11_22_cif.got.tgz:42362.got - 2010.06.03 12:22:45.
