data_PCOD9158563
_publ_section_title
;
Structure prediction by ZEFSAII (Michael W. Deem and Ramdas Pophale) SiO2 
 PCOD9158563
Probable space group: P 21/M
;
_chemical_formula_sum "Si O2"
_cell_formula_units_Z 32
_cell_length_a 21.998456
_cell_length_b 13.123199
_cell_length_c 18.842938
_cell_angle_alpha 90.000000
_cell_angle_beta 161.212746
_cell_angle_gamma 90.000000
_cell_volume 1751.905634
_symmetry_space_group_name_H-M "P 21/M"
_symmetry_group_IT_number 11
_symmetry_cell_setting 'monoclinic'
loop_
_space_group_symop_operation_xyz
x,y,z
-x,1/2+y,-z
-x,-y,-z
x,1/2-y,z
loop_
_atom_site_type_symbol
_atom_site_label
_atom_site_fract_x
_atom_site_fract_y
_atom_site_fract_z
Si Si1 0.058085 0.631983 0.392349
Si Si2 0.621988 0.635194 0.896525
Si Si3 0.860102 0.866434 0.902237
Si Si4 0.818505 0.523078 0.714905
Si Si5 0.504022 0.635061 0.605089
Si Si6 0.705887 0.520869 0.434118
Si Si7 0.434024 0.369517 0.854761
Si Si8 0.797001 0.026334 0.309090
O O1 0.091001 0.750000 0.409569
O O2 0.130013 0.553883 0.412586
O O3 0.165809 0.601058 0.583091
O O4 0.834714 0.618635 0.156530
O O5 0.562970 0.750000 0.852373
O O6 0.613572 0.631380 0.801491
O O7 0.477142 0.551985 0.763865
O O8 0.919006 0.750000 0.982029
O O9 0.653847 0.879906 0.708373
O O10 0.855782 0.889772 0.813610
O O11 0.999971 0.949700 0.089815
O O12 0.656313 0.449518 0.567707
O O13 0.755287 0.558405 0.567344
O O14 0.423562 0.750000 0.510084
O O15 0.662100 0.605182 0.326954
O O16 0.444044 0.250000 0.878733
O O17 0.307025 0.426901 0.773548
O O18 0.642880 0.419282 0.088943
O O19 0.000000 0.000000 0.500000
#
# Coordination Sequence:
#
# PCOD9158563 Si02
#       8
#     4   4   4   4   4   4   4   4
#     4  10  19  31  51  78 104 131 168 214 258 301
#     4   9  17  29  48  75 103 132 166 207 257 307
#     4  10  20  33  50  73  99 129 169 214 258 305
#     4  10  20  33  51  73  99 134 170 209 256 308
#     4   9  17  30  49  72  99 130 165 208 258 307
#     4  10  20  34  51  73 104 137 170 208 255 310
#     4  10  22  38  56  80 109 141 177 217 260 309
#     4  10  21  38  58  80 107 141 179 217 260 311
#
# _framework density 18.265823999999999
#
# number of rings (size 3 to 8) (size 9 to 14) (size 15 to 20)
#    0.000    2.250    0.000    3.000    0.000    4.000 
#    0.000    3.125    0.000    0.000    0.000    7.000 
#    0.000    0.000    0.000    0.000    0.000    0.000 
#
# Total GULP energy -178558.836402 kJ/mol
# GULP energy per Si atom -5579.963638 kJ/mol
# Density = 1.822425 g / cm^3
# Si number density = 18.265824 Si / 1000 Ang^3
#
#
#
# Elastic Constant Matrix: (Units=GPa)
#
#
# Indices 1 2 3 4 5 6 
#
# 1 44.3380 16.1181 9.6606 0.0000 4.4907 0.0000
# 2 16.1181 60.8945 16.4094 0.0000 1.2052 0.0000
# 3 9.6606 16.4094 60.8648 0.0000 2.8747 0.0000
# 4 0.0000 0.0000 0.0000 -156.2895 0.0000 123.7641
# 5 4.4907 1.2052 2.8747 0.0000 27.6491 0.0000
# 6 0.0000 0.0000 0.0000 123.7641 0.0000 -80.5601
#
#
#
# Elastic Compliance Matrix: (Units=1/GPa)
#
#
# Indices 1 2 3 4 5 6 
#
# 1 0.025635 -0.006107 -0.002249 0.000000 -0.003664 0.000000
# 2 -0.006107 0.019165 -0.004226 0.000000 0.000596 0.000000
# 3 -0.002249 -0.004226 0.017989 0.000000 -0.001321 0.000000
# 4 0.000000 0.000000 0.000000 0.029543 0.000000 0.045387
# 5 -0.003664 0.000596 -0.001321 0.000000 0.036874 0.000000
# 6 0.000000 0.000000 0.000000 0.045387 0.000000 0.057315
#
#
# Mechanical properties :
#
#
# Convention : Reuss Voigt Hill
#
# Bulk Modulus (GPa) = 26.57813 27.83038 27.20425
# Shear Modulus (GPa) = 22.29890 -33.57947 -5.64028
#
# Velocity S-wave (km/s) = 3.49778 -4.29228 -1.75915
# Velocity P-wave (km/s) = 5.55833 3.04885 3.28630
#
# Compressibility (1/GPa) = 0.03762492
#
# Stress axis : x y z
#
# Youngs Moduli (GPa) = 39.00891 52.17793 55.59082
#
# Poissons Ratio (x) = 0.31864 0.12505
# Poissons Ratio (y) = 0.23822 0.23492
# Poissons Ratio (z) = 0.08775 0.22050
#
# Static dielectric constant tensor:
#      x y z
#    x 1.640800 0.000000 -0.013350 
#    y 0.000000 1.600170 0.000000 
#    z -0.013350 0.000000 1.626710 
# 
# From -- ./inp_files/61621.got.cif
#   From: 2010.05.17/outbox.cif.g08.bks.cpg/sg11_31_cif.got.tgz:61621.got - 2010.06.03 12:22:45.
