data_PCOD9158947
_publ_section_title
;
Structure prediction by ZEFSAII (Michael W. Deem and Ramdas Pophale) SiO2 
 PCOD9158947
Probable space group: P 21/M
;
_chemical_formula_sum "Si O2"
_cell_formula_units_Z 32
_cell_length_a 11.022938
_cell_length_b 9.869481
_cell_length_c 28.608564
_cell_angle_alpha 90.000000
_cell_angle_beta 33.787876
_cell_angle_gamma 90.000000
_cell_volume 1730.836594
_symmetry_space_group_name_H-M "P 21/M"
_symmetry_group_IT_number 11
_symmetry_cell_setting 'monoclinic'
loop_
_space_group_symop_operation_xyz
x,y,z
-x,1/2+y,-z
-x,-y,-z
x,1/2-y,z
loop_
_atom_site_type_symbol
_atom_site_label
_atom_site_fract_x
_atom_site_fract_y
_atom_site_fract_z
Si Si1 0.111543 0.590353 0.229364
Si Si2 0.151970 0.896054 0.013887
Si Si3 0.803933 0.099461 0.111910
Si Si4 0.415686 0.899337 0.221058
Si Si5 0.287063 0.908881 0.448002
Si Si6 0.403446 0.410589 0.073456
Si Si7 0.622687 0.912853 0.420345
Si Si8 0.884412 0.401558 0.594400
O O1 0.101806 0.750000 0.217425
O O2 0.295888 0.580220 0.210414
O O3 0.194959 0.488804 0.162261
O O4 0.877750 0.557333 0.328181
O O5 0.072700 0.750000 0.057603
O O6 0.143761 0.890189 0.960272
O O7 0.398102 0.912311 0.952518
O O8 0.996591 0.020078 0.076305
O O9 0.772938 0.250000 0.140282
O O10 0.588420 0.010155 0.180525
O O11 0.522468 0.750000 0.185744
O O12 0.230631 0.899848 0.319407
O O13 0.246832 0.750000 0.468401
O O14 0.495136 0.941966 0.412695
O O15 0.288808 0.931366 0.391566
O O16 0.079736 0.993718 0.530917
O O17 0.363492 0.250000 0.075364
O O18 0.500000 0.500000 0.000000
O O19 0.607213 0.750000 0.435653
O O20 0.500000 0.000000 0.500000
O O21 0.971923 0.250000 0.556905
#
# Coordination Sequence:
#
# PCOD9158947 Si02
#       8
#     4   4   4   4   4   4   4   4
#     4  10  21  37  57  82 114 152 195 242 288 343
#     4   9  19  36  55  78 106 140 178 220 277 334
#     4  10  19  32  54  81 109 137 173 225 276 328
#     4  10  19  32  52  78 109 144 183 228 280 338
#     4   9  18  34  54  77 108 144 183 228 276 331
#     4  11  23  41  62  84 113 152 196 239 288 345
#     4  10  21  37  58  86 118 154 196 240 288 338
#     4   9  18  33  54  79 108 145 182 221 275 337
#
# _framework density 18.48817
#
# number of rings (size 3 to 8) (size 9 to 14) (size 15 to 20)
#    0.000    2.250    1.250    1.500    0.000    4.000 
#    2.250    0.000    0.000    0.000    0.000    0.000 
#    0.000    0.000    0.000    0.000    0.000    0.000 
#
# Total GULP energy -178231.445027 kJ/mol
# GULP energy per Si atom -5569.732657 kJ/mol
# Density = 1.844609 g / cm^3
# Si number density = 18.488170 Si / 1000 Ang^3
#
#
#
# Elastic Constant Matrix: (Units=GPa)
#
#
# Indices 1 2 3 4 5 6 
#
# 1 29.9797 32.2335 12.6649 0.0000 -6.6682 0.0000
# 2 32.2335 100.7751 56.7567 0.0000 -0.7704 0.0000
# 3 12.6649 56.7567 73.9090 0.0000 3.3274 0.0000
# 4 0.0000 0.0000 0.0000 30.0376 0.0000 0.3256
# 5 -6.6682 -0.7704 3.3274 0.0000 25.0692 0.0000
# 6 0.0000 0.0000 0.0000 0.3256 0.0000 19.0707
#
#
#
# Elastic Compliance Matrix: (Units=1/GPa)
#
#
# Indices 1 2 3 4 5 6 
#
# 1 0.057047 -0.021656 0.006239 0.000000 0.013680 0.000000
# 2 -0.021656 0.025843 -0.016007 0.000000 -0.002842 0.000000
# 3 0.006239 -0.016007 0.024849 0.000000 -0.002131 0.000000
# 4 0.000000 0.000000 0.000000 0.033298 0.000000 -0.000568
# 5 0.013680 -0.002842 -0.002131 0.000000 0.043724 0.000000
# 6 0.000000 0.000000 0.000000 -0.000568 0.000000 0.052446
#
#
# Mechanical properties :
#
#
# Convention : Reuss Voigt Hill
#
# Bulk Modulus (GPa) = 22.27599 45.33043 33.80321
# Shear Modulus (GPa) = 15.87206 21.70275 18.78741
#
# Velocity S-wave (km/s) = 2.93319 3.42990 3.19122
# Velocity P-wave (km/s) = 4.85247 6.34488 5.64818
#
# Compressibility (1/GPa) = 0.04489139
#
# Stress axis : x y z
#
# Youngs Moduli (GPa) = 17.52938 38.69492 40.24298
#
# Poissons Ratio (x) = 0.83797 -0.25107
# Poissons Ratio (y) = 0.37962 0.64416
# Poissons Ratio (z) = -0.10936 0.61938
#
# Static dielectric constant tensor:
#      x y z
#    x 1.653150 0.000000 0.006110 
#    y 0.000000 1.673980 0.000000 
#    z 0.006110 0.000000 1.619820 
# 
# From -- ./inp_files/73077.got.cif
#   From: 2010.05.17/outbox.cif.g08.bks.cpg/sg11_37_cif.got.tgz:73077.got - 2010.06.03 12:22:45.
