data_PCOD9158899
_publ_section_title
;
Structure prediction by ZEFSAII (Michael W. Deem and Ramdas Pophale) SiO2 
 PCOD9158899
Probable space group: P 21/M
;
_chemical_formula_sum "Si O2"
_cell_formula_units_Z 20
_cell_length_a 11.741869
_cell_length_b 8.950036
_cell_length_c 13.846712
_cell_angle_alpha 90.000000
_cell_angle_beta 126.130621
_cell_angle_gamma 90.000000
_cell_volume 1175.290561
_symmetry_space_group_name_H-M "P 21/M"
_symmetry_group_IT_number 11
_symmetry_cell_setting 'monoclinic'
loop_
_space_group_symop_operation_xyz
x,y,z
-x,1/2+y,-z
-x,-y,-z
x,1/2-y,z
loop_
_atom_site_type_symbol
_atom_site_label
_atom_site_fract_x
_atom_site_fract_y
_atom_site_fract_z
Si Si1 0.500000 0.569691 0.894035
Si Si2 0.077210 0.928364 0.184553
Si Si3 0.787685 0.070570 0.356470
Si Si4 0.922789 0.928364 0.607343
Si Si5 0.787685 0.570570 0.931215
O O1 0.500000 0.750000 0.902645
O O2 0.359099 0.526129 0.765710
O O3 0.640901 0.526129 0.906610
O O4 0.500000 0.500000 0.000000
O O5 0.089029 0.750000 0.196012
O O6 0.101101 0.000000 0.300550
O O7 0.181080 0.992169 0.154758
O O8 0.919258 0.965692 0.067340
O O9 0.787602 0.250000 0.370413
O O10 0.919259 0.034308 0.351919
O O11 0.818919 0.992169 0.473678
O O12 0.910970 0.750000 0.606983
O O13 0.787602 0.750000 0.917189
#
# Coordination Sequence:
#
# PCOD9158899 Si02
#       5
#     4   4   4   4   4
#     4  10  20  34  53  76 103 132 161 200 248 296
#     4  10  19  32  52  75 100 131 166 205 246 290
#     4   9  19  34  51  74 102 131 165 203 244 292
#     4  10  19  32  52  75 100 131 166 205 246 290
#     4   9  19  34  51  74 102 131 165 203 244 292
#
# _framework density 17.017067999999998
#
# number of rings (size 3 to 8) (size 9 to 14) (size 15 to 20)
#    0.000    2.400    0.000    2.400    0.000    3.200 
#    0.000    1.000    0.000    0.000    0.000    0.000 
#    0.000    0.000    0.000    0.000    0.000    0.000 
#
# Total GULP energy -111623.242986 kJ/mol
# GULP energy per Si atom -5581.162149 kJ/mol
# Density = 1.697834 g / cm^3
# Si number density = 17.017068 Si / 1000 Ang^3
#
#
#
# Elastic Constant Matrix: (Units=GPa)
#
#
# Indices 1 2 3 4 5 6 
#
# 1 143.5314 50.1105 115.2085 0.0000 -7.5896 0.0000
# 2 50.1105 32.6439 57.9985 0.0000 -10.1459 0.0000
# 3 115.2085 57.9985 164.7131 0.0000 -19.6542 0.0000
# 4 0.0000 0.0000 0.0000 31.4019 0.0000 -7.4597
# 5 -7.5896 -10.1459 -19.6542 0.0000 32.6310 0.0000
# 6 0.0000 0.0000 0.0000 -7.4597 0.0000 25.6027
#
#
#
# Elastic Compliance Matrix: (Units=1/GPa)
#
#
# Indices 1 2 3 4 5 6 
#
# 1 0.018890 -0.016220 -0.008165 0.000000 -0.005568 0.000000
# 2 -0.016220 0.098116 -0.021563 0.000000 0.013747 0.000000
# 3 -0.008165 -0.021563 0.019769 0.000000 0.003304 0.000000
# 4 0.000000 0.000000 0.000000 0.034213 0.000000 0.009969
# 5 -0.005568 0.013747 0.003304 0.000000 0.035615 0.000000
# 6 0.000000 0.000000 0.000000 0.009969 0.000000 0.041963
#
#
# Mechanical properties :
#
#
# Convention : Reuss Voigt Hill
#
# Bulk Modulus (GPa) = 22.28255 87.50261 54.89258
# Shear Modulus (GPa) = 14.06780 25.76518 19.91649
#
# Velocity S-wave (km/s) = 2.87834 3.89534 3.42480
# Velocity P-wave (km/s) = 4.91621 8.47134 6.92578
#
# Compressibility (1/GPa) = 0.04487817
#
# Stress axis : x y z
#
# Youngs Moduli (GPa) = 52.93937 10.19205 50.58303
#
# Poissons Ratio (x) = 0.16531 0.41303
# Poissons Ratio (y) = 0.85866 1.09073
# Poissons Ratio (z) = 0.43227 0.21977
#
# Static dielectric constant tensor:
#      x y z
#    x 1.558600 0.000000 0.016440 
#    y 0.000000 1.563270 0.000000 
#    z 0.016440 0.000000 1.545820 
# 
# From -- ./inp_files/17073.got.cif
#   From: 2010.05.17/outbox.cif.g08.bks.cpg/sg11_9_cif.got.tgz:17073.got - 2010.06.03 12:22:45.
