data_PCOD9158548
_publ_section_title
;
Structure prediction by ZEFSAII (Michael W. Deem and Ramdas Pophale) SiO2 
 PCOD9158548
Probable space group: P 21/M
;
_chemical_formula_sum "Si O2"
_cell_formula_units_Z 32
_cell_length_a 12.536596
_cell_length_b 9.583531
_cell_length_c 20.879736
_cell_angle_alpha 90.000000
_cell_angle_beta 138.516370
_cell_angle_gamma 90.000000
_cell_volume 1661.707070
_symmetry_space_group_name_H-M "P 21/M"
_symmetry_group_IT_number 11
_symmetry_cell_setting 'monoclinic'
loop_
_space_group_symop_operation_xyz
x,y,z
-x,1/2+y,-z
-x,-y,-z
x,1/2-y,z
loop_
_atom_site_type_symbol
_atom_site_label
_atom_site_fract_x
_atom_site_fract_y
_atom_site_fract_z
Si Si1 0.241006 0.910970 0.629242
Si Si2 0.817358 0.411063 0.640550
Si Si3 0.406264 0.912051 0.351366
Si Si4 0.671168 0.918859 0.943066
Si Si5 0.844261 0.912636 0.148092
Si Si6 0.207031 0.411604 0.492060
Si Si7 0.368435 0.088899 0.213473
Si Si8 0.703662 0.417467 0.203166
O O1 0.189727 0.750000 0.596683
O O2 0.436721 0.911834 0.709236
O O3 0.214863 0.952754 0.691503
O O4 0.173706 0.012088 0.544315
O O5 0.793763 0.250000 0.608667
O O6 0.662760 0.459684 0.611389
O O7 0.858447 0.505013 0.598232
O O8 0.964877 0.415705 0.756371
O O9 0.359641 0.750000 0.324334
O O10 0.599017 0.918817 0.431793
O O11 0.334616 0.999956 0.260882
O O12 0.679578 0.750000 0.942799
O O13 0.704492 0.968301 0.885767
O O14 0.486112 0.952288 0.876640
O O15 0.784533 0.963904 0.052085
O O16 0.792743 0.750000 0.131556
O O17 0.771920 0.002052 0.173313
O O18 0.158245 0.250000 0.471068
O O19 0.321636 0.250000 0.201962
O O20 0.718089 0.250000 0.202297
#
# Coordination Sequence:
#
# PCOD9158548 Si02
#       8
#     4   4   4   4   4   4   4   4
#     4   8  15  29  49  72  97 123 150 186 238 291
#     4  10  21  35  48  65  96 134 162 189 234 287
#     4   9  18  32  49  71  97 123 155 196 240 282
#     4   8  15  30  51  74  98 125 158 192 232 282
#     4  10  20  33  49  69  96 131 165 194 228 277
#     4  10  19  31  51  75  94 117 156 204 241 274
#     4   8  14  27  49  73  95 121 154 192 232 278
#     4   9  17  31  52  75  98 124 155 195 238 277
#
# _framework density 19.257304999999999
#
# number of rings (size 3 to 8) (size 9 to 14) (size 15 to 20)
#    0.000    3.000    0.000    2.625    0.000    2.000 
#    0.000    3.750    0.000    0.000    0.000    0.000 
#    0.000    0.000    0.000    0.000    0.000    0.000 
#
# Total GULP energy -178444.176975 kJ/mol
# GULP energy per Si atom -5576.380530 kJ/mol
# Density = 1.921347 g / cm^3
# Si number density = 19.257305 Si / 1000 Ang^3
#
#
#
# Elastic Constant Matrix: (Units=GPa)
#
#
# Indices 1 2 3 4 5 6 
#
# 1 44.0618 31.6979 42.7181 0.0000 -19.5808 0.0000
# 2 31.6979 49.8118 45.4174 0.0000 -19.7149 0.0000
# 3 42.7181 45.4174 102.4526 0.0000 -29.2136 0.0000
# 4 0.0000 0.0000 0.0000 23.7302 0.0000 -12.1694
# 5 -19.5808 -19.7149 -29.2136 0.0000 24.0933 0.0000
# 6 0.0000 0.0000 0.0000 -12.1694 0.0000 24.1751
#
#
#
# Elastic Compliance Matrix: (Units=1/GPa)
#
#
# Indices 1 2 3 4 5 6 
#
# 1 0.051693 -0.018506 -0.008695 0.000000 0.016326 0.000000
# 2 -0.018506 0.043973 -0.008874 0.000000 0.010183 0.000000
# 3 -0.008695 -0.008874 0.020228 0.000000 0.010199 0.000000
# 4 0.000000 0.000000 0.000000 0.056804 0.000000 0.028594
# 5 0.016326 0.010183 0.010199 0.000000 0.075473 0.000000
# 6 0.000000 0.000000 0.000000 0.028594 0.000000 0.055759
#
#
# Mechanical properties :
#
#
# Convention : Reuss Voigt Hill
#
# Bulk Modulus (GPa) = 22.85954 48.44365 35.65159
# Shear Modulus (GPa) = 12.79888 19.49925 16.14907
#
# Velocity S-wave (km/s) = 2.58083 3.18553 2.89899
# Velocity P-wave (km/s) = 4.55821 6.22421 5.45518
#
# Compressibility (1/GPa) = 0.04374541
#
# Stress axis : x y z
#
# Youngs Moduli (GPa) = 19.34492 22.74143 49.43654
#
# Poissons Ratio (x) = 0.42084 0.42985
# Poissons Ratio (y) = 0.35799 0.43868
# Poissons Ratio (z) = 0.16820 0.20180
#
# Static dielectric constant tensor:
#      x y z
#    x 1.670090 0.000000 0.018300 
#    y 0.000000 1.649180 0.000000 
#    z 0.018300 0.000000 1.695310 
# 
# From -- ./inp_files/38262.got.cif
#   From: 2010.05.17/outbox.cif.g08.bks.cpg/sg11_20_cif.got.tgz:38262.got - 2010.06.03 12:22:45.
