data_PCOD9158795
_publ_section_title
;
Structure prediction by ZEFSAII (Michael W. Deem and Ramdas Pophale) SiO2 
 PCOD9158795
Probable space group: P 21/M
;
_chemical_formula_sum "Si O2"
_cell_formula_units_Z 32
_cell_length_a 20.447250
_cell_length_b 7.375487
_cell_length_c 19.400536
_cell_angle_alpha 90.000000
_cell_angle_beta 156.986061
_cell_angle_gamma 90.000000
_cell_volume 1143.842357
_symmetry_space_group_name_H-M "P 21/M"
_symmetry_group_IT_number 11
_symmetry_cell_setting 'monoclinic'
loop_
_space_group_symop_operation_xyz
x,y,z
-x,1/2+y,-z
-x,-y,-z
x,1/2-y,z
loop_
_atom_site_type_symbol
_atom_site_label
_atom_site_fract_x
_atom_site_fract_y
_atom_site_fract_z
Si Si1 0.467280 0.031797 0.863451
Si Si2 0.220818 0.458804 0.736033
Si Si3 0.282472 0.037640 0.270075
Si Si4 0.193146 0.039225 0.963284
Si Si5 0.977061 0.973048 0.333357
Si Si6 0.490801 0.027496 0.349516
Si Si7 0.035674 0.467318 0.138819
Si Si8 0.298553 0.538568 0.565745
O O1 0.468806 0.250000 0.868138
O O2 0.304445 0.960811 0.748642
O O3 0.450384 0.974323 0.768040
O O4 0.626055 0.963997 0.059928
O O5 0.186296 0.250000 0.688667
O O6 0.069485 0.535235 0.635242
O O7 0.309908 0.250000 0.306292
O O8 0.437163 0.965624 0.373978
O O9 0.204619 0.960317 0.265534
O O10 0.121219 0.022909 0.062081
O O11 0.231734 0.250000 0.992594
O O12 0.160772 0.965244 0.856271
O O13 0.020762 0.027666 0.840299
O O14 0.336426 0.964230 0.151248
O O15 0.978583 0.750000 0.336503
O O16 0.146478 0.039751 0.462167
O O17 0.491394 0.250000 0.351771
O O18 0.647841 0.963519 0.456495
O O19 0.043207 0.250000 0.145820
O O20 0.263209 0.750000 0.520752
#
# Coordination Sequence:
#
# PCOD9158795 Si02
#       8
#     4   4   4   4   4   4   4   4
#     4  10  20  33  51  75  99 123 153 191 236 281
#     4   9  18  35  55  72  94 124 158 194 229 273
#     4   8  14  25  40  60  88 118 147 183 228 275
#     4   9  16  28  45  64  89 119 152 191 231 271
#     4   9  18  32  51  72  92 123 165 198 226 270
#     4   8  14  26  46  67  86 116 155 190 225 268
#     4   9  15  23  39  64  89 113 146 188 232 275
#     4  10  19  32  51  72  95 125 160 195 231 275
#
# _framework density 27.975881000000001
#
# number of rings (size 3 to 8) (size 9 to 14) (size 15 to 20)
#    0.000    3.000    0.000    2.250    0.000    3.500 
#    0.000    6.875    0.000    0.750    0.000    0.000 
#    0.000    0.000    0.000    0.000    0.000    1.125 
#
# Total GULP energy -179034.060739 kJ/mol
# GULP energy per Si atom -5594.814398 kJ/mol
# Density = 2.791221 g / cm^3
# Si number density = 27.975881 Si / 1000 Ang^3
#
#
#
# Elastic Constant Matrix: (Units=GPa)
#
#
# Indices 1 2 3 4 5 6 
#
# 1 258.3162 5.2292 41.6845 0.0000 4.3872 0.0000
# 2 5.2292 145.5395 17.0196 0.0000 -0.2772 0.0000
# 3 41.6845 17.0196 80.3346 0.0000 5.0150 0.0000
# 4 0.0000 0.0000 0.0000 19.6119 0.0000 -4.4112
# 5 4.3872 -0.2772 5.0150 0.0000 65.5891 0.0000
# 6 0.0000 0.0000 0.0000 -4.4112 0.0000 13.9641
#
#
#
# Elastic Compliance Matrix: (Units=1/GPa)
#
#
# Indices 1 2 3 4 5 6 
#
# 1 0.004227 0.000106 -0.002209 0.000000 -0.000113 0.000000
# 2 0.000106 0.007050 -0.001557 0.000000 0.000142 0.000000
# 3 -0.002209 -0.001557 0.013982 0.000000 -0.000928 0.000000
# 4 0.000000 0.000000 0.000000 0.054890 0.000000 0.017339
# 5 -0.000113 0.000142 -0.000928 0.000000 0.015326 0.000000
# 6 0.000000 0.000000 0.000000 0.017339 0.000000 0.077090
#
#
# Mechanical properties :
#
#
# Convention : Reuss Voigt Hill
#
# Bulk Modulus (GPa) = 55.74584 68.00635 61.87609
# Shear Modulus (GPa) = 26.90137 47.85014 37.37576
#
# Velocity S-wave (km/s) = 3.10432 4.14019 3.65910
# Velocity P-wave (km/s) = 5.72876 6.87144 6.32595
#
# Compressibility (1/GPa) = 0.01793856
#
# Stress axis : x y z
#
# Youngs Moduli (GPa) = 236.54826 141.85257 71.52029
#
# Poissons Ratio (x) = -0.01507 0.15799
# Poissons Ratio (y) = -0.02513 0.11139
# Poissons Ratio (z) = 0.52253 0.22093
#
# Static dielectric constant tensor:
#      x y z
#    x 2.177100 0.000000 0.069770 
#    y 0.000000 2.000170 0.000000 
#    z 0.069770 0.000000 2.303670 
# 
# From -- ./inp_files/66463.got.cif
#   From: 2010.05.17/outbox.cif.g08.bks.cpg/sg11_34_cif.got.tgz:66463.got - 2010.06.03 12:22:45.
