data_PCOD9158271
_publ_section_title
;
Structure prediction by ZEFSAII (Michael W. Deem and Ramdas Pophale) SiO2 
 PCOD9158271
Probable space group: P 21/M
;
_chemical_formula_sum "Si O2"
_cell_formula_units_Z 32
_cell_length_a 32.788070
_cell_length_b 9.533220
_cell_length_c 12.431983
_cell_angle_alpha 90.000000
_cell_angle_beta 27.048298
_cell_angle_gamma 90.000000
_cell_volume 1767.097004
_symmetry_space_group_name_H-M "P 21/M"
_symmetry_group_IT_number 11
_symmetry_cell_setting 'monoclinic'
loop_
_space_group_symop_operation_xyz
x,y,z
-x,1/2+y,-z
-x,-y,-z
x,1/2-y,z
loop_
_atom_site_type_symbol
_atom_site_label
_atom_site_fract_x
_atom_site_fract_y
_atom_site_fract_z
Si Si1 0.377972 0.586595 0.343373
Si Si2 0.567818 0.916451 0.992630
Si Si3 0.198784 0.910074 0.899281
Si Si4 0.687862 0.091522 0.874647
Si Si5 0.830003 0.590661 0.645239
Si Si6 0.580695 0.405245 0.348514
Si Si7 0.002619 0.415560 0.606786
Si Si8 0.715859 0.905924 0.130609
O O1 0.387423 0.750000 0.285592
O O2 0.393159 0.480341 0.209950
O O3 0.279407 0.570840 0.625718
O O4 0.460183 0.562616 0.233786
O O5 0.584257 0.750000 0.964218
O O6 0.618245 0.001292 0.967703
O O7 0.208852 0.750000 0.919167
O O8 0.213904 0.026075 0.954174
O O9 0.095523 0.923154 0.107987
O O10 0.699608 0.250000 0.803909
O O11 0.781273 0.008954 0.673691
O O12 0.644505 0.106065 0.094777
O O13 0.844060 0.750000 0.571250
O O14 0.920897 0.537252 0.488945
O O15 0.761308 0.601840 0.907093
O O16 0.500000 0.500000 0.500000
O O17 0.552155 0.250000 0.449511
O O18 0.634263 0.486809 0.313890
O O19 0.021159 0.250000 0.539846
O O20 0.000000 0.500000 0.500000
O O21 0.687947 0.750000 0.228522
#
# Coordination Sequence:
#
# PCOD9158271 Si02
#       8
#     4   4   4   4   4   4   4   4
#     4   9  20  37  55  79 107 136 173 216 264 317
#     4  10  20  36  58  80 103 136 173 217 268 318
#     4  10  20  33  52  78 107 141 175 217 266 313
#     4  10  21  35  53  76 101 135 175 218 263 313
#     4   9  18  33  50  73 105 140 177 215 254 304
#     4  10  21  34  47  69 101 138 177 214 257 308
#     4  10  19  32  52  77 108 144 180 217 262 310
#     4  10  19  31  47  70 103 140 177 215 254 300
#
# _framework density 18.108796999999999
#
# number of rings (size 3 to 8) (size 9 to 14) (size 15 to 20)
#    0.000    2.250    1.250    1.500    1.750    3.500 
#    0.000    0.000    0.000    0.750    0.000    0.000 
#    0.000    0.000    0.000    0.000    0.000    0.000 
#
# Total GULP energy -178325.652616 kJ/mol
# GULP energy per Si atom -5572.676644 kJ/mol
# Density = 1.806758 g / cm^3
# Si number density = 18.108797 Si / 1000 Ang^3
#
#
#
# Elastic Constant Matrix: (Units=GPa)
#
#
# Indices 1 2 3 4 5 6 
#
# 1 57.9919 43.2552 20.5151 0.0000 -15.3357 0.0000
# 2 43.2552 113.1878 33.0554 0.0000 -13.9758 0.0000
# 3 20.5151 33.0554 70.4820 0.0000 -18.8868 0.0000
# 4 0.0000 0.0000 0.0000 18.5558 0.0000 -3.6866
# 5 -15.3357 -13.9758 -18.8868 0.0000 27.7825 0.0000
# 6 0.0000 0.0000 0.0000 -3.6866 0.0000 29.2733
#
#
#
# Elastic Compliance Matrix: (Units=1/GPa)
#
#
# Indices 1 2 3 4 5 6 
#
# 1 0.026642 -0.008671 -0.001120 0.000000 0.009583 0.000000
# 2 -0.008671 0.013181 -0.003869 0.000000 -0.000785 0.000000
# 3 -0.001120 -0.003869 0.019125 0.000000 0.010437 0.000000
# 4 0.000000 0.000000 0.000000 0.055274 0.000000 0.006961
# 5 0.009583 -0.000785 0.010437 0.000000 0.047984 0.000000
# 6 0.000000 0.000000 0.000000 0.006961 0.000000 0.035038
#
#
# Mechanical properties :
#
#
# Convention : Reuss Voigt Hill
#
# Bulk Modulus (GPa) = 31.61664 48.36813 39.99239
# Shear Modulus (GPa) = 21.26704 24.77805 23.02254
#
# Velocity S-wave (km/s) = 3.43067 3.70305 3.56946
# Velocity P-wave (km/s) = 5.76107 6.71202 6.25464
#
# Compressibility (1/GPa) = 0.03162891
#
# Stress axis : x y z
#
# Youngs Moduli (GPa) = 37.53530 75.86526 52.28722
#
# Poissons Ratio (x) = 0.65782 0.05857
# Poissons Ratio (y) = 0.32546 0.20227
# Poissons Ratio (z) = 0.04205 0.29349
#
# Static dielectric constant tensor:
#      x y z
#    x 1.633750 0.000000 -0.023440 
#    y 0.000000 1.786990 0.000000 
#    z -0.023440 0.000000 1.649220 
# 
# From -- ./inp_files/45133.got.cif
#   From: 2010.05.17/outbox.cif.g08.bks.cpg/sg11_23_cif.got.tgz:45133.got - 2010.06.03 12:22:45.
