data_PCOD9158873
_publ_section_title
;
Structure prediction by ZEFSAII (Michael W. Deem and Ramdas Pophale) SiO2 
 PCOD9158873
Probable space group: P 21/M
;
_chemical_formula_sum "Si O2"
_cell_formula_units_Z 32
_cell_length_a 25.935602
_cell_length_b 8.664808
_cell_length_c 20.862561
_cell_angle_alpha 90.000000
_cell_angle_beta 22.820083
_cell_angle_gamma 90.000000
_cell_volume 1818.335537
_symmetry_space_group_name_H-M "P 21/M"
_symmetry_group_IT_number 11
_symmetry_cell_setting 'monoclinic'
loop_
_space_group_symop_operation_xyz
x,y,z
-x,1/2+y,-z
-x,-y,-z
x,1/2-y,z
loop_
_atom_site_type_symbol
_atom_site_label
_atom_site_fract_x
_atom_site_fract_y
_atom_site_fract_z
Si Si1 0.092936 0.435435 0.545459
Si Si2 0.681004 0.062189 0.467723
Si Si3 0.110826 0.565377 0.661942
Si Si4 0.852408 0.934980 0.656288
Si Si5 0.144885 0.563540 0.851788
Si Si6 0.171350 0.564899 0.968221
Si Si7 0.786354 0.434539 0.861870
Si Si8 0.378218 0.435313 0.832721
O O1 0.097592 0.250000 0.547984
O O2 0.140509 0.515756 0.555383
O O3 0.173289 0.475974 0.388548
O O4 0.937162 0.476822 0.711632
O O5 0.679281 0.250000 0.469067
O O6 0.775350 0.015734 0.418616
O O7 0.749942 0.012055 0.322462
O O8 0.529686 0.010841 0.649427
O O9 0.097166 0.750000 0.681333
O O10 0.971512 0.489937 0.842199
O O11 0.854918 0.750000 0.657959
O O12 0.766506 0.002873 0.812589
O O13 0.000000 0.000000 0.500000
O O14 0.138513 0.750000 0.857390
O O15 0.182081 0.517985 0.881450
O O16 0.000000 0.500000 0.000000
O O17 0.177974 0.750000 0.965092
O O18 0.285343 0.493439 0.881582
O O19 0.779834 0.250000 0.868835
O O20 0.684473 0.502295 0.029670
O O21 0.375955 0.250000 0.836712
#
# Coordination Sequence:
#
# PCOD9158873 Si02
#       8
#     4   4   4   4   4   4   4   4
#     4   9  18  31  49  77 113 141 174 227 273 313
#     4   9  21  39  56  80 110 141 184 231 273 324
#     4  11  20  33  57  81 107 144 185 225 269 326
#     4   9  17  29  47  74 109 146 181 221 272 323
#     4  10  20  37  59  81 110 143 178 227 277 325
#     4  11  22  35  55  83 112 141 179 228 276 323
#     4  10  19  32  51  77 112 143 177 228 275 323
#     4  11  22  37  57  78 108 149 186 224 273 330
#
# _framework density 17.598511999999999
#
# number of rings (size 3 to 8) (size 9 to 14) (size 15 to 20)
#    0.000    2.000    2.500    2.625    0.000    3.500 
#    0.000    3.750    0.000    0.750    0.000    0.000 
#    0.000    0.000    0.000    0.000    0.000    0.000 
#
# Total GULP energy -178554.622717 kJ/mol
# GULP energy per Si atom -5579.831960 kJ/mol
# Density = 1.755846 g / cm^3
# Si number density = 17.598512 Si / 1000 Ang^3
#
#
#
# Elastic Constant Matrix: (Units=GPa)
#
#
# Indices 1 2 3 4 5 6 
#
# 1 152.4898 37.9982 93.1472 0.0000 28.9899 0.0000
# 2 37.9982 36.5097 30.4061 0.0000 9.3603 0.0000
# 3 93.1472 30.4061 130.6116 0.0000 15.3034 0.0000
# 4 0.0000 0.0000 0.0000 13.1777 0.0000 10.2298
# 5 28.9899 9.3603 15.3034 0.0000 35.2548 0.0000
# 6 0.0000 0.0000 0.0000 10.2298 0.0000 23.1598
#
#
#
# Elastic Compliance Matrix: (Units=1/GPa)
#
#
# Indices 1 2 3 4 5 6 
#
# 1 0.014248 -0.006607 -0.007856 0.000000 -0.006552 0.000000
# 2 -0.006607 0.038242 -0.003833 0.000000 -0.003057 0.000000
# 3 -0.007856 -0.003833 0.013986 0.000000 0.001406 0.000000
# 4 0.000000 0.000000 0.000000 0.115485 0.000000 -0.051011
# 5 -0.006552 -0.003057 0.001406 0.000000 0.033954 0.000000
# 6 0.000000 0.000000 0.000000 -0.051011 0.000000 0.065710
#
#
# Mechanical properties :
#
#
# Convention : Reuss Voigt Hill
#
# Bulk Modulus (GPa) = 33.46059 71.41269 52.43664
# Shear Modulus (GPa) = 15.23564 24.85578 20.04571
#
# Velocity S-wave (km/s) = 2.94553 3.76224 3.37865
# Velocity P-wave (km/s) = 5.53378 7.71619 6.71425
#
# Compressibility (1/GPa) = 0.02988590
#
# Stress axis : x y z
#
# Youngs Moduli (GPa) = 70.18355 26.14927 71.49998
#
# Poissons Ratio (x) = 0.17277 0.56167
# Poissons Ratio (y) = 0.46371 0.27403
# Poissons Ratio (z) = 0.55133 0.10022
#
# Static dielectric constant tensor:
#      x y z
#    x 1.604360 0.000000 0.026590 
#    y 0.000000 1.596160 0.000000 
#    z 0.026590 0.000000 1.582010 
# 
# From -- ./inp_files/67092.got.cif
#   From: 2010.05.17/outbox.cif.g08.bks.cpg/sg11_34_cif.got.tgz:67092.got - 2010.06.03 12:22:45.
