data_PCOD9158690
_publ_section_title
;
Structure prediction by ZEFSAII (Michael W. Deem and Ramdas Pophale) SiO2 
 PCOD9158690
Probable space group: P 21/M
;
_chemical_formula_sum "Si O2"
_cell_formula_units_Z 28
_cell_length_a 29.421719
_cell_length_b 8.826945
_cell_length_c 9.970086
_cell_angle_alpha 90.000000
_cell_angle_beta 38.622451
_cell_angle_gamma 90.000000
_cell_volume 1616.185629
_symmetry_space_group_name_H-M "P 21/M"
_symmetry_group_IT_number 11
_symmetry_cell_setting 'monoclinic'
loop_
_space_group_symop_operation_xyz
x,y,z
-x,1/2+y,-z
-x,-y,-z
x,1/2-y,z
loop_
_atom_site_type_symbol
_atom_site_label
_atom_site_fract_x
_atom_site_fract_y
_atom_site_fract_z
Si Si1 0.801359 0.567485 0.178221
Si Si2 0.753686 0.567692 0.581035
Si Si3 0.442206 0.430466 0.322014
Si Si4 0.686213 0.430249 0.237562
Si Si5 0.399990 0.569138 0.131727
Si Si6 0.794295 0.932706 0.780981
Si Si7 0.920367 0.931695 0.693253
O O1 0.791906 0.750000 0.187204
O O2 0.795400 0.526638 0.347747
O O3 0.736896 0.489160 0.243306
O O4 0.876456 0.527602 0.930335
O O5 0.744925 0.750000 0.600627
O O6 0.674310 0.493018 0.757803
O O7 0.793642 0.525614 0.626532
O O8 0.431926 0.250000 0.350092
O O9 0.394079 0.507203 0.547513
O O10 0.413415 0.491808 0.245071
O O11 0.528399 0.463784 0.122450
O O12 0.686056 0.250000 0.234676
O O13 0.725127 0.496363 0.016238
O O14 0.395948 0.750000 0.160191
O O15 0.789094 0.750000 0.804399
O O16 0.866469 0.979415 0.696354
O O17 0.926261 0.750000 0.675328
O O18 0.000000 0.000000 0.500000
#
# Coordination Sequence:
#
# PCOD9158690 Si02
#       7
#     4   4   4   4   4   4   4
#     4   9  18  33  54  78 103 136 173 212 256 312
#     4  10  19  34  56  77 102 139 177 213 263 317
#     4  10  19  32  49  71 103 141 178 217 262 311
#     4  11  20  31  51  78 103 134 178 226 264 302
#     4  10  20  31  48  76 106 135 173 223 268 302
#     4   9  20  37  55  76 104 140 175 210 259 320
#     4   9  18  34  55  78 106 135 171 212 252 304
#
# _framework density 17.324741
#
# number of rings (size 3 to 8) (size 9 to 14) (size 15 to 20)
#    0.000    2.286    1.429    3.000    0.000    4.571 
#    0.000    1.429    0.000    0.000    0.000    0.000 
#    0.000    0.000    0.000    0.000    0.000    0.000 
#
# Total GULP energy -156190.820827 kJ/mol
# GULP energy per Si atom -5578.243601 kJ/mol
# Density = 1.728531 g / cm^3
# Si number density = 17.324741 Si / 1000 Ang^3
#
#
#
# Elastic Constant Matrix: (Units=GPa)
#
#
# Indices 1 2 3 4 5 6 
#
# 1 86.3347 27.0282 73.7615 0.0000 4.7106 0.0000
# 2 27.0282 30.3481 40.6792 0.0000 -0.2686 0.0000
# 3 73.7615 40.6792 135.1634 0.0000 -4.3664 0.0000
# 4 0.0000 0.0000 0.0000 25.8018 0.0000 -9.3886
# 5 4.7106 -0.2686 -4.3664 0.0000 31.8734 0.0000
# 6 0.0000 0.0000 0.0000 -9.3886 0.0000 18.7584
#
#
#
# Elastic Compliance Matrix: (Units=1/GPa)
#
#
# Indices 1 2 3 4 5 6 
#
# 1 0.023080 -0.005869 -0.010989 0.000000 -0.004966 0.000000
# 2 -0.005869 0.056831 -0.013919 0.000000 -0.000561 0.000000
# 3 -0.010989 -0.013919 0.017712 0.000000 0.003933 0.000000
# 4 0.000000 0.000000 0.000000 0.047387 0.000000 0.023717
# 5 -0.004966 -0.000561 0.003933 0.000000 0.032642 0.000000
# 6 0.000000 0.000000 0.000000 0.023717 0.000000 0.065180
#
#
# Mechanical properties :
#
#
# Convention : Reuss Voigt Hill
#
# Bulk Modulus (GPa) = 27.72575 59.42043 43.57309
# Shear Modulus (GPa) = 15.80231 22.64520 19.22375
#
# Velocity S-wave (km/s) = 3.02342 3.61931 3.33470
# Velocity P-wave (km/s) = 5.31285 7.19988 6.32711
#
# Compressibility (1/GPa) = 0.03606756
#
# Stress axis : x y z
#
# Youngs Moduli (GPa) = 43.32747 17.59614 56.45928
#
# Poissons Ratio (x) = 0.10327 0.62045
# Poissons Ratio (y) = 0.25428 0.78588
# Poissons Ratio (z) = 0.47614 0.24493
#
# Static dielectric constant tensor:
#      x y z
#    x 1.569650 0.000000 0.010380 
#    y 0.000000 1.580850 0.000000 
#    z 0.010380 0.000000 1.600010 
# 
# From -- ./inp_files/28577.got.cif
#   From: 2010.05.17/outbox.cif.g08.bks.cpg/sg11_15_cif.got.tgz:28577.got - 2010.06.03 12:22:45.
