data_PCOD9158036
_publ_section_title
;
Structure prediction by ZEFSAII (Michael W. Deem and Ramdas Pophale) SiO2 
 PCOD9158036
Probable space group: P 21/M
;
_chemical_formula_sum "Si O2"
_cell_formula_units_Z 32
_cell_length_a 32.583083
_cell_length_b 8.933910
_cell_length_c 21.021512
_cell_angle_alpha 90.000000
_cell_angle_beta 161.976833
_cell_angle_gamma 90.000000
_cell_volume 1893.303075
_symmetry_space_group_name_H-M "P 21/M"
_symmetry_group_IT_number 11
_symmetry_cell_setting 'monoclinic'
loop_
_space_group_symop_operation_xyz
x,y,z
-x,1/2+y,-z
-x,-y,-z
x,1/2-y,z
loop_
_atom_site_type_symbol
_atom_site_label
_atom_site_fract_x
_atom_site_fract_y
_atom_site_fract_z
Si Si1 0.707508 0.079271 0.720235
Si Si2 0.362148 0.570667 0.120823
Si Si3 0.661128 0.923018 0.779618
Si Si4 0.078324 0.068954 0.674313
Si Si5 0.646372 0.926080 0.499087
Si Si6 0.110554 0.572795 0.209493
Si Si7 0.980792 0.921485 0.272493
Si Si8 0.975435 0.919968 0.789581
O O1 0.667488 0.250000 0.646296
O O2 0.639955 0.019044 0.684875
O O3 0.683077 0.970854 0.625328
O O4 0.865569 0.080641 0.965284
O O5 0.346842 0.750000 0.105617
O O6 0.390232 0.497993 0.231405
O O7 0.489328 0.542432 0.263698
O O8 0.226697 0.497908 0.896215
O O9 0.620246 0.750000 0.712218
O O10 0.821731 0.921563 0.025795
O O11 0.084509 0.250000 0.680625
O O12 0.007519 0.028454 0.637156
O O13 0.000000 0.000000 0.500000
O O14 0.668610 0.750000 0.522041
O O15 0.745344 0.018000 0.600800
O O16 0.099397 0.750000 0.187037
O O17 0.083945 0.520667 0.242139
O O18 0.000000 0.500000 0.000000
O O19 0.026285 0.750000 0.333852
O O20 0.045414 0.019145 0.312334
O O21 0.927701 0.750000 0.725972
#
# Coordination Sequence:
#
# PCOD9158036 Si02
#       8
#     4   4   4   4   4   4   4   4
#     4  10  19  30  47  69  95 132 176 218 259 304
#     4  10  21  36  52  73 102 135 170 211 258 309
#     4   9  17  30  48  68  96 133 172 213 254 301
#     4  10  20  35  58  85 112 139 168 205 252 309
#     4  11  23  36  50  69  98 134 175 221 264 307
#     4  12  23  35  52  72  98 134 179 227 268 309
#     4   8  16  30  48  74 104 134 167 206 253 301
#     4  10  19  31  49  73 100 133 174 220 264 303
#
# _framework density 16.901679000000001
#
# number of rings (size 3 to 8) (size 9 to 14) (size 15 to 20)
#    0.000    2.000    1.250    4.125    0.000    7.000 
#    0.000    0.000    0.000    0.000    0.000    0.875 
#    0.000    0.000    0.000    0.000    0.000    0.000 
#
# Total GULP energy -178648.233821 kJ/mol
# GULP energy per Si atom -5582.757307 kJ/mol
# Density = 1.686321 g / cm^3
# Si number density = 16.901679 Si / 1000 Ang^3
#
#
#
# Elastic Constant Matrix: (Units=GPa)
#
#
# Indices 1 2 3 4 5 6 
#
# 1 113.1885 59.8608 46.2347 0.0000 8.9451 0.0000
# 2 59.8608 116.4383 38.5307 0.0000 12.5427 0.0000
# 3 46.2347 38.5307 52.9414 0.0000 3.7888 0.0000
# 4 0.0000 0.0000 0.0000 20.3706 0.0000 1.8935
# 5 8.9451 12.5427 3.7888 0.0000 30.0574 0.0000
# 6 0.0000 0.0000 0.0000 1.8935 0.0000 30.7628
#
#
#
# Elastic Compliance Matrix: (Units=1/GPa)
#
#
# Indices 1 2 3 4 5 6 
#
# 1 0.015437 -0.004415 -0.010163 0.000000 -0.001471 0.000000
# 2 -0.004415 0.013002 -0.005362 0.000000 -0.003436 0.000000
# 3 -0.010163 -0.005362 0.031575 0.000000 0.001282 0.000000
# 4 0.000000 0.000000 0.000000 0.049373 0.000000 -0.003039
# 5 -0.001471 -0.003436 0.001282 0.000000 0.034980 0.000000
# 6 0.000000 0.000000 0.000000 -0.003039 0.000000 0.032694
#
#
# Mechanical properties :
#
#
# Convention : Reuss Voigt Hill
#
# Bulk Modulus (GPa) = 49.66439 63.53563 56.60001
# Shear Modulus (GPa) = 22.35613 25.43429 23.89521
#
# Velocity S-wave (km/s) = 3.64086 3.88343 3.76410
# Velocity P-wave (km/s) = 6.86459 7.60138 7.24236
#
# Compressibility (1/GPa) = 0.02013515
#
# Stress axis : x y z
#
# Youngs Moduli (GPa) = 64.77818 76.91021 31.67040
#
# Poissons Ratio (x) = 0.33953 0.32188
# Poissons Ratio (y) = 0.28597 0.16981
# Poissons Ratio (z) = 0.65837 0.41237
#
# Static dielectric constant tensor:
#      x y z
#    x 1.565790 0.000000 0.016100 
#    y 0.000000 1.573060 0.000000 
#    z 0.016100 0.000000 1.583060 
# 
# From -- ./inp_files/54268.got.cif
#   From: 2010.05.17/outbox.cif.g08.bks.cpg/sg11_28_cif.got.tgz:54268.got - 2010.06.03 12:22:45.
