data_PCOD9158414
_publ_section_title
;
Structure prediction by ZEFSAII (Michael W. Deem and Ramdas Pophale) SiO2 
 PCOD9158414
Probable space group: P 21/M
;
_chemical_formula_sum "Si O2"
_cell_formula_units_Z 32
_cell_length_a 14.568096
_cell_length_b 19.612423
_cell_length_c 10.793963
_cell_angle_alpha 90.000000
_cell_angle_beta 151.093990
_cell_angle_gamma 90.000000
_cell_volume 1490.728135
_symmetry_space_group_name_H-M "P 21/M"
_symmetry_group_IT_number 11
_symmetry_cell_setting 'monoclinic'
loop_
_space_group_symop_operation_xyz
x,y,z
-x,1/2+y,-z
-x,-y,-z
x,1/2-y,z
loop_
_atom_site_type_symbol
_atom_site_label
_atom_site_fract_x
_atom_site_fract_y
_atom_site_fract_z
Si Si1 0.744998 0.330633 0.834596
Si Si2 0.761531 0.412208 0.092947
Si Si3 0.666588 0.936634 0.052612
Si Si4 0.497272 0.824009 0.700547
Si Si5 0.192600 0.043530 0.525278
Si Si6 0.083528 0.426636 0.139650
Si Si7 0.103544 0.176872 0.955360
Si Si8 0.098035 0.606936 0.483585
O O1 0.780432 0.250000 0.898220
O O2 0.610105 0.336083 0.555540
O O3 0.924915 0.374676 0.003532
O O4 0.678331 0.366632 0.883581
O O5 0.659877 0.484863 0.998888
O O6 0.790579 0.374777 0.259475
O O7 0.978345 0.431345 0.306880
O O8 0.667217 0.931009 0.202236
O O9 0.881291 0.913001 0.268511
O O10 0.510652 0.887957 0.807393
O O11 0.437044 0.750000 0.680629
O O12 0.715444 0.816585 0.917355
O O13 0.182818 0.962787 0.531080
O O14 0.225222 0.062662 0.421675
O O15 0.000000 0.500000 0.000000
O O16 0.151813 0.386389 0.100368
O O17 0.073862 0.250000 0.985289
O O18 0.926735 0.159170 0.658189
#
# Coordination Sequence:
#
# PCOD9158414 Si02
#       8
#     4   4   4   4   4   4   4   4
#     4  10  21  35  50  74 104 133 164 204 254 305
#     4   8  15  26  47  73  98 124 157 206 250 291
#     4   8  14  27  48  72  96 123 166 205 244 288
#     4   9  19  34  51  72 102 134 166 207 254 301
#     4   8  14  27  46  70  97 126 158 205 245 286
#     4  11  20  33  52  74 101 135 168 203 252 298
#     4  10  19  31  49  74 100 130 168 207 247 301
#     4   8  13  26  45  70  98 124 156 202 252 288
#
# _framework density 21.466021000000001
#
# number of rings (size 3 to 8) (size 9 to 14) (size 15 to 20)
#    0.000    3.000    1.250    1.875    1.750    1.000 
#    0.000    6.875    0.000    2.250    0.000    3.500 
#    0.000    0.000    0.000    0.000    0.000    0.000 
#
# Total GULP energy -178377.342871 kJ/mol
# GULP energy per Si atom -5574.291965 kJ/mol
# Density = 2.141716 g / cm^3
# Si number density = 21.466021 Si / 1000 Ang^3
#
#
#
# Elastic Constant Matrix: (Units=GPa)
#
#
# Indices 1 2 3 4 5 6 
#
# 1 48.7652 38.0918 30.5114 0.0000 -18.2192 0.0000
# 2 38.0918 120.3000 65.1228 0.0000 -24.7100 0.0000
# 3 30.5114 65.1228 106.1710 0.0000 -32.4022 0.0000
# 4 0.0000 0.0000 0.0000 14.7780 0.0000 -4.1429
# 5 -18.2192 -24.7100 -32.4022 0.0000 33.1136 0.0000
# 6 0.0000 0.0000 0.0000 -4.1429 0.0000 20.7003
#
#
#
# Elastic Compliance Matrix: (Units=1/GPa)
#
#
# Indices 1 2 3 4 5 6 
#
# 1 0.030571 -0.006751 -0.001495 0.000000 0.010319 0.000000
# 2 -0.006751 0.014093 -0.006599 0.000000 0.000345 0.000000
# 3 -0.001495 -0.006599 0.017312 0.000000 0.011193 0.000000
# 4 0.000000 0.000000 0.000000 0.071690 0.000000 0.014348
# 5 0.010319 0.000345 0.011193 0.000000 0.047087 0.000000
# 6 0.000000 0.000000 0.000000 0.014348 0.000000 0.051180
#
#
# Mechanical properties :
#
#
# Convention : Reuss Voigt Hill
#
# Bulk Modulus (GPa) = 30.97331 60.29869 45.63600
# Shear Modulus (GPa) = 18.35627 23.15239 20.75433
#
# Velocity S-wave (km/s) = 2.92744 3.28771 3.11279
# Velocity P-wave (km/s) = 5.08791 6.52405 5.85022
#
# Compressibility (1/GPa) = 0.03228586
#
# Stress axis : x y z
#
# Youngs Moduli (GPa) = 32.71105 70.95506 57.76223
#
# Poissons Ratio (x) = 0.47901 0.08636
# Poissons Ratio (y) = 0.22083 0.38119
# Poissons Ratio (z) = 0.04891 0.46825
#
# Static dielectric constant tensor:
#      x y z
#    x 1.868890 0.000000 0.009350 
#    y 0.000000 1.782880 0.000000 
#    z 0.009350 0.000000 1.825460 
# 
# From -- ./inp_files/35889.got.cif
#   From: 2010.05.17/outbox.cif.g08.bks.cpg/sg11_18_cif.got.tgz:35889.got - 2010.06.03 12:22:45.
