data_PCOD9158835
_publ_section_title
;
Structure prediction by ZEFSAII (Michael W. Deem and Ramdas Pophale) SiO2 
 PCOD9158835
Probable space group: P 21/M
;
_chemical_formula_sum "Si O2"
_cell_formula_units_Z 32
_cell_length_a 31.633751
_cell_length_b 7.773934
_cell_length_c 12.408883
_cell_angle_alpha 90.000000
_cell_angle_beta 149.825373
_cell_angle_gamma 90.000000
_cell_volume 1533.835635
_symmetry_space_group_name_H-M "P 21/M"
_symmetry_group_IT_number 11
_symmetry_cell_setting 'monoclinic'
loop_
_space_group_symop_operation_xyz
x,y,z
-x,1/2+y,-z
-x,-y,-z
x,1/2-y,z
loop_
_atom_site_type_symbol
_atom_site_label
_atom_site_fract_x
_atom_site_fract_y
_atom_site_fract_z
Si Si1 0.598133 0.957137 0.710778
Si Si2 0.736978 0.948588 0.173086
Si Si3 0.714723 0.451952 0.352037
Si Si4 0.366634 0.041151 0.450000
Si Si5 0.881812 0.048054 0.333840
Si Si6 0.787512 0.045501 0.733927
Si Si7 0.929990 0.459312 0.202499
Si Si8 0.526233 0.456704 0.936285
O O1 0.605760 0.750000 0.729025
O O2 0.635721 0.016942 0.679103
O O3 0.500000 0.000000 0.500000
O O4 0.653399 0.024508 0.932188
O O5 0.721440 0.750000 0.163827
O O6 0.759709 0.032717 0.336690
O O7 0.810766 0.961138 0.248504
O O8 0.703251 0.250000 0.350830
O O9 0.761460 0.526116 0.559612
O O10 0.620568 0.524450 0.128554
O O11 0.365691 0.250000 0.448926
O O12 0.454305 0.980236 0.696625
O O13 0.289851 0.980870 0.354463
O O14 0.862365 0.250000 0.288070
O O15 0.889387 0.984570 0.227275
O O16 0.974327 0.021303 0.587748
O O17 0.801013 0.250000 0.751931
O O18 0.871473 0.978085 0.976437
O O19 0.931760 0.250000 0.207803
O O20 0.527529 0.250000 0.926729
O O21 0.500000 0.500000 0.000000
#
# Coordination Sequence:
#
# PCOD9158835 Si02
#       8
#     4   4   4   4   4   4   4   4
#     4  10  22  38  55  79 110 145 184 227 274 321
#     4  11  23  38  57  81 111 148 188 228 271 323
#     4  10  21  37  55  77 109 148 188 229 272 325
#     4  10  20  33  52  78 109 142 178 225 277 324
#     4  10  20  36  60  87 113 145 179 217 273 333
#     4  10  20  35  56  82 109 141 180 224 275 325
#     4   9  19  36  59  87 115 139 174 225 275 327
#     4  10  19  32  51  75 105 142 181 223 266 314
#
# _framework density 20.862731
#
# number of rings (size 3 to 8) (size 9 to 14) (size 15 to 20)
#    0.000    2.000    1.250    2.250    0.000    4.500 
#    0.000    0.625    0.000    0.000    0.000    0.000 
#    0.000    0.000    0.000    0.000    0.000    0.000 
#
# Total GULP energy -178742.108458 kJ/mol
# GULP energy per Si atom -5585.690889 kJ/mol
# Density = 2.081525 g / cm^3
# Si number density = 20.862731 Si / 1000 Ang^3
#
#
#
# Elastic Constant Matrix: (Units=GPa)
#
#
# Indices 1 2 3 4 5 6 
#
# 1 79.2709 -7.8138 35.7428 0.0000 -12.2270 0.0000
# 2 -7.8138 25.1429 3.0383 0.0000 -4.3977 0.0000
# 3 35.7428 3.0383 118.1880 0.0000 -23.6596 0.0000
# 4 0.0000 0.0000 0.0000 16.2485 0.0000 5.3969
# 5 -12.2270 -4.3977 -23.6596 0.0000 32.9076 0.0000
# 6 0.0000 0.0000 0.0000 5.3969 0.0000 26.0745
#
#
#
# Elastic Compliance Matrix: (Units=1/GPa)
#
#
# Indices 1 2 3 4 5 6 
#
# 1 0.015640 0.005997 -0.004159 0.000000 0.003622 0.000000
# 2 0.005997 0.043024 -0.001545 0.000000 0.006867 0.000000
# 3 -0.004159 -0.001545 0.010990 0.000000 0.006150 0.000000
# 4 0.000000 0.000000 0.000000 0.066087 0.000000 -0.013679
# 5 0.003622 0.006867 0.006150 0.000000 0.037073 0.000000
# 6 0.000000 0.000000 0.000000 -0.013679 0.000000 0.041183
#
#
# Mechanical properties :
#
#
# Convention : Reuss Voigt Hill
#
# Bulk Modulus (GPa) = 14.23700 31.61516 22.92608
# Shear Modulus (GPa) = 21.11267 27.82174 24.46720
#
# Velocity S-wave (km/s) = 3.18461 3.65576 3.42829
# Velocity P-wave (km/s) = 4.51235 5.74510 5.16563
#
# Compressibility (1/GPa) = 0.07023953
#
# Stress axis : x y z
#
# Youngs Moduli (GPa) = 63.93852 23.24277 90.99502
#
# Poissons Ratio (x) = -0.13938 0.37844
# Poissons Ratio (y) = -0.38342 0.14058
# Poissons Ratio (z) = 0.26591 0.03591
#
# Static dielectric constant tensor:
#      x y z
#    x 1.739240 0.000000 -0.041220 
#    y 0.000000 1.758620 0.000000 
#    z -0.041220 0.000000 1.777810 
# 
# From -- ./inp_files/38254.got.cif
#   From: 2010.05.17/outbox.cif.g08.bks.cpg/sg11_20_cif.got.tgz:38254.got - 2010.06.03 12:22:45.
