data_PCOD9158438
_publ_section_title
;
Structure prediction by ZEFSAII (Michael W. Deem and Ramdas Pophale) SiO2 
 PCOD9158438
Probable space group: P 21/M
;
_chemical_formula_sum "Si O2"
_cell_formula_units_Z 28
_cell_length_a 9.745518
_cell_length_b 8.715488
_cell_length_c 30.740970
_cell_angle_alpha 90.000000
_cell_angle_beta 142.239232
_cell_angle_gamma 90.000000
_cell_volume 1598.914280
_symmetry_space_group_name_H-M "P 21/M"
_symmetry_group_IT_number 11
_symmetry_cell_setting 'monoclinic'
loop_
_space_group_symop_operation_xyz
x,y,z
-x,1/2+y,-z
-x,-y,-z
x,1/2-y,z
loop_
_atom_site_type_symbol
_atom_site_label
_atom_site_fract_x
_atom_site_fract_y
_atom_site_fract_z
Si Si1 0.128785 0.566237 0.716500
Si Si2 0.348990 0.565444 0.001160
Si Si3 0.931892 0.566704 0.436608
Si Si4 0.735731 0.565633 0.156718
Si Si5 0.554079 0.434930 0.284405
Si Si6 0.251593 0.933726 0.436185
Si Si7 0.962098 0.564022 0.845857
O O1 0.115007 0.750000 0.714400
O O2 0.196290 0.503118 0.780203
O O3 0.314706 0.521936 0.726894
O O4 0.894645 0.499597 0.640199
O O5 0.357125 0.750000 0.002105
O O6 0.483247 0.518607 0.078118
O O7 0.500000 0.500000 0.000000
O O8 0.097834 0.520901 0.924053
O O9 0.922789 0.750000 0.436634
O O10 0.696014 0.503646 0.359661
O O11 0.000000 0.500000 0.500000
O O12 0.115537 0.523375 0.445944
O O13 0.746660 0.750000 0.161192
O O14 0.904145 0.506013 0.161423
O O15 0.559885 0.250000 0.289139
O O16 0.296055 0.484312 0.218638
O O17 0.258476 0.750000 0.435060
O O18 0.500000 0.000000 0.500000
O O19 0.968828 0.750000 0.843788
#
# Coordination Sequence:
#
# PCOD9158438 Si02
#       7
#     4   4   4   4   4   4   4
#     4  10  20  35  53  73 100 135 169 204 248 297
#     4   8  15  28  47  70  98 130 164 204 250 293
#     4  10  21  36  55  77 102 131 164 201 245 295
#     4  10  19  31  49  75 103 132 168 209 250 296
#     4   9  19  35  54  74  99 131 167 205 248 295
#     4  10  21  37  56  78 102 131 166 205 248 295
#     4   9  17  32  53  75  99 130 168 210 251 295
#
# _framework density 17.511883999999998
#
# number of rings (size 3 to 8) (size 9 to 14) (size 15 to 20)
#    0.000    2.571    0.000    1.714    0.000    4.571 
#    0.000    2.143    0.000    0.000    0.000    0.000 
#    0.000    0.000    0.000    0.000    0.000    0.000 
#
# Total GULP energy -156072.086789 kJ/mol
# GULP energy per Si atom -5574.003100 kJ/mol
# Density = 1.747203 g / cm^3
# Si number density = 17.511884 Si / 1000 Ang^3
#
#
#
# Elastic Constant Matrix: (Units=GPa)
#
#
# Indices 1 2 3 4 5 6 
#
# 1 55.9199 24.0703 89.3607 0.0000 5.0134 0.0000
# 2 24.0703 27.2281 48.5814 0.0000 0.3598 0.0000
# 3 89.3607 48.5814 228.9793 0.0000 2.9812 0.0000
# 4 0.0000 0.0000 0.0000 25.6390 0.0000 1.6880
# 5 5.0134 0.3598 2.9812 0.0000 35.5413 0.0000
# 6 0.0000 0.0000 0.0000 1.6880 0.0000 19.6202
#
#
#
# Elastic Compliance Matrix: (Units=1/GPa)
#
#
# Indices 1 2 3 4 5 6 
#
# 1 0.052447 -0.015936 -0.017011 0.000000 -0.005810 0.000000
# 2 -0.015936 0.063948 -0.007377 0.000000 0.002219 0.000000
# 3 -0.017011 -0.007377 0.012553 0.000000 0.001421 0.000000
# 4 0.000000 0.000000 0.000000 0.039225 0.000000 -0.003375
# 5 -0.005810 0.002219 0.001421 0.000000 0.028814 0.000000
# 6 0.000000 0.000000 0.000000 -0.003375 0.000000 0.051258
#
#
# Mechanical properties :
#
#
# Convention : Reuss Voigt Hill
#
# Bulk Modulus (GPa) = 20.70434 70.68357 45.69395
# Shear Modulus (GPa) = 14.49300 26.16775 20.33038
#
# Velocity S-wave (km/s) = 2.87994 3.86979 3.41096
# Velocity P-wave (km/s) = 4.78617 7.77289 6.45466
#
# Compressibility (1/GPa) = 0.04829906
#
# Stress axis : x y z
#
# Youngs Moduli (GPa) = 19.06680 15.63769 79.66447
#
# Poissons Ratio (x) = 0.24920 1.35519
# Poissons Ratio (y) = 0.30385 0.58771
# Poissons Ratio (z) = 0.32435 0.11536
#
# Static dielectric constant tensor:
#      x y z
#    x 1.568110 0.000000 0.010750 
#    y 0.000000 1.590290 0.000000 
#    z 0.010750 0.000000 1.609420 
# 
# From -- ./inp_files/28999.got.cif
#   From: 2010.05.17/outbox.cif.g08.bks.cpg/sg11_15_cif.got.tgz:28999.got - 2010.06.03 12:22:45.
