data_PCOD9158904
_publ_section_title
;
Structure prediction by ZEFSAII (Michael W. Deem and Ramdas Pophale) SiO2 
 PCOD9158904
Probable space group: P 21/M
;
_chemical_formula_sum "Si O2"
_cell_formula_units_Z 28
_cell_length_a 10.560061
_cell_length_b 9.777927
_cell_length_c 15.670984
_cell_angle_alpha 90.000000
_cell_angle_beta 85.771510
_cell_angle_gamma 90.000000
_cell_volume 1613.710763
_symmetry_space_group_name_H-M "P 21/M"
_symmetry_group_IT_number 11
_symmetry_cell_setting 'monoclinic'
loop_
_space_group_symop_operation_xyz
x,y,z
-x,1/2+y,-z
-x,-y,-z
x,1/2-y,z
loop_
_atom_site_type_symbol
_atom_site_label
_atom_site_fract_x
_atom_site_fract_y
_atom_site_fract_z
Si Si1 0.884941 0.399337 0.244634
Si Si2 0.888445 0.407344 0.042131
Si Si3 0.067851 0.404368 0.616606
Si Si4 0.532636 0.412163 0.583546
Si Si5 0.591523 0.414805 0.057751
Si Si6 0.581700 0.407894 0.259678
Si Si7 0.812585 0.401327 0.518297
O O1 0.929006 0.250000 0.272579
O O2 0.905231 0.408513 0.143262
O O3 0.949329 0.517503 0.294583
O O4 0.733548 0.408659 0.264790
O O5 0.901647 0.250000 0.011897
O O6 0.740973 0.448879 0.033882
O O7 0.000000 0.500000 0.000000
O O8 0.109080 0.250000 0.627552
O O9 0.169730 0.486097 0.554992
O O10 0.936467 0.406764 0.571225
O O11 0.500000 0.500000 0.500000
O O12 0.496369 0.250000 0.579076
O O13 0.477106 0.487443 0.669516
O O14 0.685635 0.417453 0.578342
O O15 0.578373 0.250000 0.046276
O O16 0.561732 0.441070 0.159968
O O17 0.500000 0.500000 0.000000
O O18 0.538629 0.250000 0.276649
O O19 0.807441 0.250000 0.477931
#
# Coordination Sequence:
#
# PCOD9158904 Si02
#       7
#     4   4   4   4   4   4   4
#     4   9  18  34  54  74 101 135 167 205 259 309
#     4   9  19  36  56  80 109 140 177 221 270 323
#     4  10  19  32  52  75  97 129 173 211 249 302
#     4  11  22  35  52  75 105 139 174 214 262 309
#     4   9  19  37  59  82 110 146 183 225 277 330
#     4   9  19  36  55  76 105 138 175 216 258 312
#     4   9  20  36  49  67 102 138 165 205 258 303
#
# _framework density 17.351312
#
# number of rings (size 3 to 8) (size 9 to 14) (size 15 to 20)
#    0.000    2.571    0.000    3.429    0.000    7.429 
#    2.571    2.857    0.000    0.000    0.000    0.000 
#    0.000    0.000    0.000    0.000    0.000    0.000 
#
# Total GULP energy -156045.389436 kJ/mol
# GULP energy per Si atom -5573.049623 kJ/mol
# Density = 1.731182 g / cm^3
# Si number density = 17.351312 Si / 1000 Ang^3
#
#
#
# Elastic Constant Matrix: (Units=GPa)
#
#
# Indices 1 2 3 4 5 6 
#
# 1 48.0009 57.1404 51.7757 0.0000 -15.8972 0.0000
# 2 57.1404 139.4271 75.7994 0.0000 -7.3274 0.0000
# 3 51.7757 75.7994 92.3302 0.0000 -8.3826 0.0000
# 4 0.0000 0.0000 0.0000 35.4914 0.0000 2.2070
# 5 -15.8972 -7.3274 -8.3826 0.0000 28.6331 0.0000
# 6 0.0000 0.0000 0.0000 2.2070 0.0000 25.4100
#
#
#
# Elastic Compliance Matrix: (Units=1/GPa)
#
#
# Indices 1 2 3 4 5 6 
#
# 1 0.085020 -0.015921 -0.031528 0.000000 0.033899 0.000000
# 2 -0.015921 0.015936 -0.004712 0.000000 -0.006141 0.000000
# 3 -0.031528 -0.004712 0.031518 0.000000 -0.009483 0.000000
# 4 0.000000 0.000000 0.000000 0.028329 0.000000 -0.002461
# 5 0.033899 -0.006141 -0.009483 0.000000 0.049398 0.000000
# 6 0.000000 0.000000 0.000000 -0.002461 0.000000 0.039568
#
#
# Mechanical properties :
#
#
# Convention : Reuss Voigt Hill
#
# Bulk Modulus (GPa) = 35.52275 72.13216 53.82745
# Shear Modulus (GPa) = 13.75609 24.24307 18.99958
#
# Velocity S-wave (km/s) = 2.81872 3.74195 3.31266
# Velocity P-wave (km/s) = 5.57770 7.76733 6.76174
#
# Compressibility (1/GPa) = 0.02815098
#
# Stress axis : x y z
#
# Youngs Moduli (GPa) = 11.76200 62.74968 31.72780
#
# Poissons Ratio (x) = 0.99907 1.00030
# Poissons Ratio (y) = 0.18727 0.14951
# Poissons Ratio (z) = 0.37083 0.29570
#
# Static dielectric constant tensor:
#      x y z
#    x 1.588660 0.000000 0.000800 
#    y 0.000000 1.609250 0.000000 
#    z 0.000800 0.000000 1.585300 
# 
# From -- ./inp_files/48905.got.cif
#   From: 2010.05.17/outbox.cif.g08.bks.cpg/sg11_25_cif.got.tgz:48905.got - 2010.06.03 12:22:45.
