data_PCOD9158109
_publ_section_title
;
Structure prediction by ZEFSAII (Michael W. Deem and Ramdas Pophale) SiO2 
 PCOD9158109
Probable space group: P 21/M
;
_chemical_formula_sum "Si O2"
_cell_formula_units_Z 28
_cell_length_a 20.547943
_cell_length_b 7.871127
_cell_length_c 16.047757
_cell_angle_alpha 90.000000
_cell_angle_beta 35.564087
_cell_angle_gamma 90.000000
_cell_volume 1509.572130
_symmetry_space_group_name_H-M "P 21/M"
_symmetry_group_IT_number 11
_symmetry_cell_setting 'monoclinic'
loop_
_space_group_symop_operation_xyz
x,y,z
-x,1/2+y,-z
-x,-y,-z
x,1/2-y,z
loop_
_atom_site_type_symbol
_atom_site_label
_atom_site_fract_x
_atom_site_fract_y
_atom_site_fract_z
Si Si1 0.277400 0.951474 0.046043
Si Si2 0.156327 0.953792 0.010043
Si Si3 0.253116 0.045400 0.390637
Si Si4 0.871384 0.953234 0.646091
Si Si5 0.130797 0.545681 0.855977
Si Si6 0.498711 0.044800 0.099066
Si Si7 0.896511 0.452895 0.295771
O O1 0.294578 0.750000 0.016356
O O2 0.233275 0.022823 0.004238
O O3 0.181031 0.974442 0.215190
O O4 0.391957 0.021656 0.966521
O O5 0.170215 0.750000 0.993653
O O6 0.181950 0.019389 0.889721
O O7 0.024847 0.984265 0.166568
O O8 0.255469 0.250000 0.383870
O O9 0.197829 0.983783 0.362033
O O10 0.381255 0.985053 0.260281
O O11 0.176711 0.999049 0.548354
O O12 0.861242 0.750000 0.660746
O O13 0.000000 0.000000 0.500000
O O14 0.143593 0.750000 0.843134
O O15 0.159425 0.484233 0.733036
O O16 0.000000 0.500000 0.000000
O O17 0.501149 0.250000 0.100912
O O18 0.500000 0.000000 0.000000
O O19 0.903637 0.250000 0.283558
#
# Coordination Sequence:
#
# PCOD9158109 Si02
#       7
#     4   4   4   4   4   4   4
#     4  10  20  33  52  74  95 123 162 202 241 287
#     4   9  17  31  50  73 101 130 155 191 244 295
#     4  10  21  35  49  67  95 130 162 196 241 289
#     4  11  22  34  48  69  99 131 159 193 241 290
#     4   8  15  28  46  69  98 127 157 191 234 286
#     4  10  20  36  54  71  92 123 167 208 241 284
#     4  10  19  30  48  75 100 127 162 199 236 282
#
# _framework density 18.548303000000001
#
# number of rings (size 3 to 8) (size 9 to 14) (size 15 to 20)
#    0.000    2.286    1.429    1.714    0.000    6.286 
#    0.000    0.000    0.000    0.857    0.000    0.000 
#    0.000    0.000    0.000    0.000    0.000    0.714 
#
# Total GULP energy -156109.634438 kJ/mol
# GULP energy per Si atom -5575.344087 kJ/mol
# Density = 1.850609 g / cm^3
# Si number density = 18.548303 Si / 1000 Ang^3
#
#
#
# Elastic Constant Matrix: (Units=GPa)
#
#
# Indices 1 2 3 4 5 6 
#
# 1 176.3778 8.8654 38.6550 0.0000 8.2974 0.0000
# 2 8.8654 20.8227 -1.9512 0.0000 -0.6468 0.0000
# 3 38.6550 -1.9512 19.2916 0.0000 -4.1607 0.0000
# 4 0.0000 0.0000 0.0000 5.9383 0.0000 -0.9210
# 5 8.2974 -0.6468 -4.1607 0.0000 34.3822 0.0000
# 6 0.0000 0.0000 0.0000 -0.9210 0.0000 14.2001
#
#
#
# Elastic Compliance Matrix: (Units=1/GPa)
#
#
# Indices 1 2 3 4 5 6 
#
# 1 0.012186 -0.007874 -0.026573 0.000000 -0.006305 0.000000
# 2 -0.007874 0.053652 0.022416 0.000000 0.005622 0.000000
# 3 -0.026573 0.022416 0.111738 0.000000 0.020356 0.000000
# 4 0.000000 0.000000 0.000000 0.170110 0.000000 0.011033
# 5 -0.006305 0.005622 0.020356 0.000000 0.033175 0.000000
# 6 0.000000 0.000000 0.000000 0.011033 0.000000 0.071137
#
#
# Mechanical properties :
#
#
# Convention : Reuss Voigt Hill
#
# Bulk Modulus (GPa) = 6.51405 34.18118 20.34761
# Shear Modulus (GPa) = 9.48350 22.29897 15.89123
#
# Velocity S-wave (km/s) = 2.26362 3.47105 2.93020
# Velocity P-wave (km/s) = 3.21738 5.87643 4.73730
#
# Compressibility (1/GPa) = 0.15351436
#
# Stress axis : x y z
#
# Youngs Moduli (GPa) = 82.06319 18.63868 8.94948
#
# Poissons Ratio (x) = 0.14676 0.23781
# Poissons Ratio (y) = 0.64616 -0.20061
# Poissons Ratio (z) = 2.18066 -0.41781
#
# Static dielectric constant tensor:
#      x y z
#    x 1.692000 0.000000 0.017600 
#    y 0.000000 1.681180 0.000000 
#    z 0.017600 0.000000 1.606250 
# 
# From -- ./inp_files/37156.got.cif
#   From: 2010.05.17/outbox.cif.g08.bks.cpg/sg11_19_cif.got.tgz:37156.got - 2010.06.03 12:22:45.
