data_PCOD9158748
_publ_section_title
;
Structure prediction by ZEFSAII (Michael W. Deem and Ramdas Pophale) SiO2 
 PCOD9158748
Probable space group: P 21/M
;
_chemical_formula_sum "Si O2"
_cell_formula_units_Z 32
_cell_length_a 28.413468
_cell_length_b 8.660769
_cell_length_c 20.127763
_cell_angle_alpha 90.000000
_cell_angle_beta 158.504014
_cell_angle_gamma 90.000000
_cell_volume 1814.990661
_symmetry_space_group_name_H-M "P 21/M"
_symmetry_group_IT_number 11
_symmetry_cell_setting 'monoclinic'
loop_
_space_group_symop_operation_xyz
x,y,z
-x,1/2+y,-z
-x,-y,-z
x,1/2-y,z
loop_
_atom_site_type_symbol
_atom_site_label
_atom_site_fract_x
_atom_site_fract_y
_atom_site_fract_z
Si Si1 0.076509 0.066349 0.037210
Si Si2 0.892140 0.062501 0.160574
Si Si3 0.115997 0.935988 0.695804
Si Si4 0.611286 0.066469 0.783824
Si Si5 0.334488 0.934094 0.576077
Si Si6 0.619075 0.565082 0.942664
Si Si7 0.658683 0.065745 0.572221
Si Si8 0.923451 0.565374 0.711160
O O1 0.070143 0.250000 0.030853
O O2 0.223241 0.010599 0.234757
O O3 0.000000 0.000000 0.000000
O O4 0.006233 0.004268 0.879822
O O5 0.889844 0.250000 0.158409
O O6 0.901829 0.014828 0.250214
O O7 0.009901 0.012522 0.269630
O O8 0.753580 0.015310 0.947750
O O9 0.120525 0.750000 0.699093
O O10 0.000000 0.000000 0.500000
O O11 0.253216 0.005973 0.853898
O O12 0.599320 0.250000 0.759423
O O13 0.616134 0.023668 0.868416
O O14 0.482108 0.986538 0.588451
O O15 0.314060 0.750000 0.551911
O O16 0.479563 0.966487 0.790671
O O17 0.328188 0.977249 0.489175
O O18 0.222664 0.015110 0.469653
O O19 0.626271 0.750000 0.940232
O O20 0.668093 0.250000 0.588779
O O21 0.931287 0.750000 0.724726
#
# Coordination Sequence:
#
# PCOD9158748 Si02
#       8
#     4   4   4   4   4   4   4   4
#     4  12  23  35  50  72 101 134 175 221 267 309
#     4   8  18  35  53  76 106 138 170 209 253 308
#     4  10  19  34  57  84 111 135 167 208 255 305
#     4   9  16  30  51  73 100 133 172 215 261 308
#     4   9  18  31  48  72 103 134 170 215 260 300
#     4   9  17  30  49  75 106 135 169 210 255 301
#     4  10  19  32  50  73 101 130 171 222 269 309
#     4  11  21  34  53  74 101 139 177 212 259 311
#
# _framework density 17.630944
#
# number of rings (size 3 to 8) (size 9 to 14) (size 15 to 20)
#    0.000    2.250    1.250    4.500    0.000    2.500 
#    0.000    8.125    0.000    0.750    0.000    0.000 
#    0.000    0.000    0.000    0.000    0.000    0.000 
#
# Total GULP energy -178423.370332 kJ/mol
# GULP energy per Si atom -5575.730323 kJ/mol
# Density = 1.759082 g / cm^3
# Si number density = 17.630944 Si / 1000 Ang^3
#
#
#
# Elastic Constant Matrix: (Units=GPa)
#
#
# Indices 1 2 3 4 5 6 
#
# 1 66.8274 26.0287 44.8477 0.0000 19.0007 0.0000
# 2 26.0287 57.5524 41.0453 0.0000 12.6319 0.0000
# 3 44.8477 41.0453 144.2946 0.0000 20.6273 0.0000
# 4 0.0000 0.0000 0.0000 34.7694 0.0000 4.7176
# 5 19.0007 12.6319 20.6273 0.0000 23.2872 0.0000
# 6 0.0000 0.0000 0.0000 4.7176 0.0000 9.7112
#
#
#
# Elastic Compliance Matrix: (Units=1/GPa)
#
#
# Indices 1 2 3 4 5 6 
#
# 1 0.023146 -0.004820 -0.004004 0.000000 -0.012724 0.000000
# 2 -0.004820 0.023925 -0.004597 0.000000 -0.004974 0.000000
# 3 -0.004004 -0.004597 0.009914 0.000000 -0.003021 0.000000
# 4 0.000000 0.000000 0.000000 0.030790 0.000000 -0.014958
# 5 -0.012724 -0.004974 -0.003021 0.000000 0.058699 0.000000
# 6 0.000000 0.000000 0.000000 -0.014958 0.000000 0.110240
#
#
# Mechanical properties :
#
#
# Convention : Reuss Voigt Hill
#
# Bulk Modulus (GPa) = 33.17312 54.72421 43.94866
# Shear Modulus (GPa) = 17.02981 24.00377 20.51679
#
# Velocity S-wave (km/s) = 3.11127 3.69380 3.41498
# Velocity P-wave (km/s) = 5.63585 7.02127 6.36636
#
# Compressibility (1/GPa) = 0.03014489
#
# Stress axis : x y z
#
# Youngs Moduli (GPa) = 43.20392 41.79707 100.86570
#
# Poissons Ratio (x) = 0.20145 0.40386
# Poissons Ratio (y) = 0.20823 0.46364
# Poissons Ratio (z) = 0.17299 0.19212
#
# Static dielectric constant tensor:
#      x y z
#    x 1.604810 0.000000 0.027110 
#    y 0.000000 1.595380 0.000000 
#    z 0.027110 0.000000 1.625200 
# 
# From -- ./inp_files/66092.got.cif
#   From: 2010.05.17/outbox.cif.g08.bks.cpg/sg11_34_cif.got.tgz:66092.got - 2010.06.03 12:22:45.
