data_PCOD9158022
_publ_section_title
;
Structure prediction by ZEFSAII (Michael W. Deem and Ramdas Pophale) SiO2 
 PCOD9158022
Probable space group: P 21/M
;
_chemical_formula_sum "Si O2"
_cell_formula_units_Z 32
_cell_length_a 22.476786
_cell_length_b 8.820246
_cell_length_c 13.634201
_cell_angle_alpha 90.000000
_cell_angle_beta 146.726861
_cell_angle_gamma 90.000000
_cell_volume 1482.944444
_symmetry_space_group_name_H-M "P 21/M"
_symmetry_group_IT_number 11
_symmetry_cell_setting 'monoclinic'
loop_
_space_group_symop_operation_xyz
x,y,z
-x,1/2+y,-z
-x,-y,-z
x,1/2-y,z
loop_
_atom_site_type_symbol
_atom_site_label
_atom_site_fract_x
_atom_site_fract_y
_atom_site_fract_z
Si Si1 0.458642 0.568976 0.132677
Si Si2 0.085516 0.931707 0.864386
Si Si3 0.305980 0.432382 0.775067
Si Si4 0.392141 0.081726 0.385034
Si Si5 0.721859 0.581429 0.979324
Si Si6 0.195414 0.929641 0.215409
Si Si7 0.291294 0.431893 0.528191
Si Si8 0.926888 0.567400 0.485627
O O1 0.453861 0.750000 0.131290
O O2 0.373445 0.495561 0.090439
O O3 0.583304 0.522642 0.322394
O O4 0.411102 0.513426 0.963314
O O5 0.088663 0.750000 0.875678
O O6 0.974282 0.977849 0.658146
O O7 0.116494 0.986372 0.017568
O O8 0.173646 0.982682 0.904112
O O9 0.321013 0.250000 0.800422
O O10 0.280299 0.471316 0.627372
O O11 0.199644 0.475128 0.692253
O O12 0.410536 0.250000 0.454833
O O13 0.327513 0.101696 0.196097
O O14 0.500000 0.000000 0.500000
O O15 0.315352 0.975550 0.343138
O O16 0.749529 0.750000 0.056497
O O17 0.182634 0.750000 0.205616
O O18 0.199971 0.001140 0.330015
O O19 0.284912 0.250000 0.510467
O O20 0.933471 0.750000 0.489906
O O21 0.000000 0.500000 0.500000
#
# Coordination Sequence:
#
# PCOD9158022 Si02
#       8
#     4   4   4   4   4   4   4   4
#     4  11  22  35  54  80 111 147 184 227 278 329
#     4   9  19  36  56  81 114 148 183 228 279 327
#     4  10  22  40  60  82 109 143 184 229 277 331
#     4  10  19  30  46  71 104 141 182 226 270 319
#     4  10  20  32  49  76 108 142 180 221 267 322
#     4  10  20  34  54  78 107 146 188 229 274 325
#     4  10  22  39  57  79 110 148 187 228 276 328
#     4  10  21  38  61  87 114 143 177 222 277 333
#
# _framework density 21.578692
#
# number of rings (size 3 to 8) (size 9 to 14) (size 15 to 20)
#    0.000    2.000    0.000    3.375    0.000    8.500 
#    0.000    0.625    0.000    0.000    0.000    0.000 
#    0.000    0.000    0.000    0.000    0.000    0.000 
#
# Total GULP energy -178511.513136 kJ/mol
# GULP energy per Si atom -5578.484786 kJ/mol
# Density = 2.152958 g / cm^3
# Si number density = 21.578692 Si / 1000 Ang^3
#
#
#
# Elastic Constant Matrix: (Units=GPa)
#
#
# Indices 1 2 3 4 5 6 
#
# 1 62.5759 6.7112 24.6358 0.0000 -29.7206 0.0000
# 2 6.7112 24.5769 19.6730 0.0000 -12.5658 0.0000
# 3 24.6358 19.6730 114.7048 0.0000 -26.6521 0.0000
# 4 0.0000 0.0000 0.0000 23.6826 0.0000 -11.1795
# 5 -29.7206 -12.5658 -26.6521 0.0000 35.8184 0.0000
# 6 0.0000 0.0000 0.0000 -11.1795 0.0000 25.5857
#
#
#
# Elastic Compliance Matrix: (Units=1/GPa)
#
#
# Indices 1 2 3 4 5 6 
#
# 1 0.027018 0.005660 -0.001334 0.000000 0.023412 0.000000
# 2 0.005660 0.053692 -0.005992 0.000000 0.019073 0.000000
# 3 -0.001334 -0.005992 0.011228 0.000000 0.005146 0.000000
# 4 0.000000 0.000000 0.000000 0.053198 0.000000 0.023244
# 5 0.023412 0.019073 0.005146 0.000000 0.057865 0.000000
# 6 0.000000 0.000000 0.000000 0.023244 0.000000 0.049241
#
#
# Mechanical properties :
#
#
# Convention : Reuss Voigt Hill
#
# Bulk Modulus (GPa) = 11.28609 33.76640 22.52624
# Shear Modulus (GPa) = 17.53720 27.07318 22.30519
#
# Velocity S-wave (km/s) = 2.85390 3.54591 3.21856
# Velocity P-wave (km/s) = 4.01263 5.69620 4.92686
#
# Compressibility (1/GPa) = 0.08860468
#
# Stress axis : x y z
#
# Youngs Moduli (GPa) = 37.01226 18.62486 89.06427
#
# Poissons Ratio (x) = -0.10541 0.11879
# Poissons Ratio (y) = -0.20948 0.53371
# Poissons Ratio (z) = 0.04937 0.11161
#
# Static dielectric constant tensor:
#      x y z
#    x 1.861280 0.000000 -0.008440 
#    y 0.000000 1.760980 0.000000 
#    z -0.008440 0.000000 1.882180 
# 
# From -- ./inp_files/55669.got.cif
#   From: 2010.05.17/outbox.cif.g08.bks.cpg/sg11_28_cif.got.tgz:55669.got - 2010.06.03 12:22:45.
