data_PCOD9158978
_publ_section_title
;
Structure prediction by ZEFSAII (Michael W. Deem and Ramdas Pophale) SiO2 
 PCOD9158978
Probable space group: P 21/M
;
_chemical_formula_sum "Si O2"
_cell_formula_units_Z 28
_cell_length_a 20.913159
_cell_length_b 7.815689
_cell_length_c 14.565114
_cell_angle_alpha 90.000000
_cell_angle_beta 147.417197
_cell_angle_gamma 90.000000
_cell_volume 1282.038135
_symmetry_space_group_name_H-M "P 21/M"
_symmetry_group_IT_number 11
_symmetry_cell_setting 'monoclinic'
loop_
_space_group_symop_operation_xyz
x,y,z
-x,1/2+y,-z
-x,-y,-z
x,1/2-y,z
loop_
_atom_site_type_symbol
_atom_site_label
_atom_site_fract_x
_atom_site_fract_y
_atom_site_fract_z
Si Si1 0.048051 0.548986 0.761060
Si Si2 0.576438 0.541201 0.791294
Si Si3 0.129889 0.557945 0.186310
Si Si4 0.786272 0.956246 0.400469
Si Si5 0.323172 0.955974 0.550698
Si Si6 0.225172 0.457532 0.822350
Si Si7 0.244795 0.051117 0.143479
O O1 0.045309 0.750000 0.781376
O O2 0.110982 0.526333 0.738543
O O3 0.914574 0.481578 0.591941
O O4 0.133033 0.461143 0.938367
O O5 0.576527 0.750000 0.788319
O O6 0.443841 0.480266 0.649843
O O7 0.642343 0.485555 0.777827
O O8 0.661656 0.492138 0.979131
O O9 0.110656 0.750000 0.194497
O O10 0.206463 0.469986 0.358747
O O11 0.211849 0.548033 0.195226
O O12 0.000000 0.500000 0.000000
O O13 0.792034 0.750000 0.404410
O O14 0.766875 0.015574 0.272897
O O15 0.687786 0.007052 0.355046
O O16 0.324526 0.750000 0.540930
O O17 0.218187 0.250000 0.815298
O O18 0.262186 0.250000 0.188487
#
# Coordination Sequence:
#
# PCOD9158978 Si02
#       7
#     4   4   4   4   4   4   4
#     4  10  19  32  52  80 112 140 175 221 263 311
#     4   8  17  36  57  77 104 138 176 216 261 311
#     4  11  23  38  57  82 110 138 174 217 263 317
#     4  10  21  34  50  77 110 143 177 218 266 310
#     4  10  22  38  55  76 104 140 179 219 261 312
#     4   9  18  34  55  77 106 142 177 216 264 315
#     4  10  20  36  59  81 106 141 175 214 267 318
#
# _framework density 21.840223999999999
#
# number of rings (size 3 to 8) (size 9 to 14) (size 15 to 20)
#    0.000    2.286    0.000    3.429    0.000    6.286 
#    0.000    3.571    0.000    0.000    0.000    0.000 
#    0.000    0.000    0.000    0.000    0.000    0.000 
#
# Total GULP energy -156383.143872 kJ/mol
# GULP energy per Si atom -5585.112281 kJ/mol
# Density = 2.179051 g / cm^3
# Si number density = 21.840224 Si / 1000 Ang^3
#
#
#
# Elastic Constant Matrix: (Units=GPa)
#
#
# Indices 1 2 3 4 5 6 
#
# 1 98.5938 -14.6812 28.3446 0.0000 0.1911 0.0000
# 2 -14.6812 27.9544 -0.6763 0.0000 6.7345 0.0000
# 3 28.3446 -0.6763 44.4894 0.0000 15.4582 0.0000
# 4 0.0000 0.0000 0.0000 9.6113 0.0000 0.4354
# 5 0.1911 6.7345 15.4582 0.0000 31.2902 0.0000
# 6 0.0000 0.0000 0.0000 0.4354 0.0000 26.4236
#
#
#
# Elastic Compliance Matrix: (Units=1/GPa)
#
#
# Indices 1 2 3 4 5 6 
#
# 1 0.013942 0.006232 -0.010010 0.000000 0.003519 0.000000
# 2 0.006232 0.041144 -0.000308 0.000000 -0.008741 0.000000
# 3 -0.010010 -0.000308 0.034775 0.000000 -0.017052 0.000000
# 4 0.000000 0.000000 0.000000 0.104122 0.000000 -0.001716
# 5 0.003519 -0.008741 -0.017052 0.000000 0.042243 0.000000
# 6 0.000000 0.000000 0.000000 -0.001716 0.000000 0.037873
#
#
# Mechanical properties :
#
#
# Convention : Reuss Voigt Hill
#
# Bulk Modulus (GPa) = 12.24157 21.89018 17.06588
# Shear Modulus (GPa) = 16.15507 24.00174 20.07840
#
# Velocity S-wave (km/s) = 2.72268 3.31867 3.03534
# Velocity P-wave (km/s) = 3.93716 4.97286 4.48501
#
# Compressibility (1/GPa) = 0.08168884
#
# Stress axis : x y z
#
# Youngs Moduli (GPa) = 71.72770 24.30488 28.75612
#
# Poissons Ratio (x) = -0.15147 0.28786
# Poissons Ratio (y) = -0.44701 0.00885
# Poissons Ratio (z) = 0.71801 0.00748
#
# Static dielectric constant tensor:
#      x y z
#    x 1.781710 0.000000 0.003310 
#    y 0.000000 1.696740 0.000000 
#    z 0.003310 0.000000 1.819300 
# 
# From -- ./inp_files/37799.got.cif
#   From: 2010.05.17/outbox.cif.g08.bks.cpg/sg11_19_cif.got.tgz:37799.got - 2010.06.03 12:22:45.
