data_PCOD9158635
_publ_section_title
;
Structure prediction by ZEFSAII (Michael W. Deem and Ramdas Pophale) SiO2 
 PCOD9158635
Probable space group: P 21/M
;
_chemical_formula_sum "Si O2"
_cell_formula_units_Z 28
_cell_length_a 5.066179
_cell_length_b 19.311140
_cell_length_c 15.854702
_cell_angle_alpha 90.000000
_cell_angle_beta 74.007743
_cell_angle_gamma 90.000000
_cell_volume 1491.093882
_symmetry_space_group_name_H-M "P 21/M"
_symmetry_group_IT_number 11
_symmetry_cell_setting 'monoclinic'
loop_
_space_group_symop_operation_xyz
x,y,z
-x,1/2+y,-z
-x,-y,-z
x,1/2-y,z
loop_
_atom_site_type_symbol
_atom_site_label
_atom_site_fract_x
_atom_site_fract_y
_atom_site_fract_z
Si Si1 0.973344 0.041254 0.137589
Si Si2 0.915947 0.829094 0.339598
Si Si3 0.672920 0.940740 0.033596
Si Si4 0.559720 0.023636 0.306024
Si Si5 0.037152 0.952003 0.579112
Si Si6 0.674440 0.328941 0.538143
Si Si7 0.706059 0.073618 0.794850
O O1 0.852233 0.981880 0.086686
O O2 0.728975 0.065944 0.219510
O O3 0.174847 0.999280 0.181476
O O4 0.136805 0.089852 0.057545
O O5 0.875974 0.750000 0.312334
O O6 0.628882 0.851252 0.406320
O O7 0.052666 0.876956 0.256954
O O8 0.135294 0.828294 0.395988
O O9 0.469761 0.897098 0.110944
O O10 0.500000 0.000000 0.000000
O O11 0.762319 0.015421 0.367799
O O12 0.477598 0.950990 0.268248
O O13 0.271181 0.056747 0.358780
O O14 0.185688 0.881675 0.538240
O O15 0.000000 0.000000 0.500000
O O16 0.655850 0.250000 0.507242
#
# Coordination Sequence:
#
# PCOD9158635 Si02
#       7
#     4   4   4   4   4   4   4
#     4   9  17  31  49  75 116 141 175 204 274 335
#     4  10  22  37  55  76 103 146 192 225 265 329
#     4   8  16  29  48  78 107 147 168 203 256 341
#     4  11  22  34  50  81 111 145 174 230 282 329
#     4  12  24  35  54  81 111 140 187 238 287 324
#     4  10  23  41  56  73 106 151 191 230 275 335
#     4  10  19  31  55  77 115 143 177 220 281 327
#
# _framework density 18.778158999999999
#
# number of rings (size 3 to 8) (size 9 to 14) (size 15 to 20)
#    0.000    2.000    1.429    2.143    6.000    0.000 
#    0.000    0.000    0.000    0.000    0.000    2.000 
#    0.000    8.286    0.000    0.000    0.000    0.000 
#
# Total GULP energy -156036.863400 kJ/mol
# GULP energy per Si atom -5572.745121 kJ/mol
# Density = 1.873542 g / cm^3
# Si number density = 18.778159 Si / 1000 Ang^3
#
#
#
# Elastic Constant Matrix: (Units=GPa)
#
#
# Indices 1 2 3 4 5 6 
#
# 1 109.9475 10.4908 49.0525 0.0000 -6.8526 0.0000
# 2 10.4908 49.7863 59.4356 0.0000 -10.6020 0.0000
# 3 49.0525 59.4356 191.9514 0.0000 -41.6928 0.0000
# 4 0.0000 0.0000 0.0000 16.4610 0.0000 -8.0719
# 5 -6.8526 -10.6020 -41.6928 0.0000 47.1476 0.0000
# 6 0.0000 0.0000 0.0000 -8.0719 0.0000 13.7765
#
#
#
# Elastic Compliance Matrix: (Units=1/GPa)
#
#
# Indices 1 2 3 4 5 6 
#
# 1 0.010389 0.001639 -0.003409 0.000000 -0.001136 0.000000
# 2 0.001639 0.032266 -0.010870 0.000000 -0.002118 0.000000
# 3 -0.003409 -0.010870 0.010902 0.000000 0.006701 0.000000
# 4 0.000000 0.000000 0.000000 0.085240 0.000000 0.049944
# 5 -0.001136 -0.002118 0.006701 0.000000 0.026494 0.000000
# 6 0.000000 0.000000 0.000000 0.049944 0.000000 0.101850
#
#
# Mechanical properties :
#
#
# Convention : Reuss Voigt Hill
#
# Bulk Modulus (GPa) = 35.36471 65.51591 50.44031
# Shear Modulus (GPa) = 16.56470 30.99077 23.77773
#
# Velocity S-wave (km/s) = 2.97328 4.06687 3.56229
# Velocity P-wave (km/s) = 5.53724 7.55101 6.62113
#
# Compressibility (1/GPa) = 0.02827678
#
# Stress axis : x y z
#
# Youngs Moduli (GPa) = 96.25553 30.99261 91.72674
#
# Poissons Ratio (x) = -0.05079 0.31270
# Poissons Ratio (y) = -0.15773 0.99703
# Poissons Ratio (z) = 0.32814 0.33688
#
# Static dielectric constant tensor:
#      x y z
#    x 1.754860 0.000000 -0.022080 
#    y 0.000000 1.667190 0.000000 
#    z -0.022080 0.000000 1.754120 
# 
# From -- ./inp_files/57244.got.cif
#   From: 2010.05.17/outbox.cif.g08.bks.cpg/sg11_29_cif.got.tgz:57244.got - 2010.06.03 12:22:45.
