data_PCOD9158764
_publ_section_title
;
Structure prediction by ZEFSAII (Michael W. Deem and Ramdas Pophale) SiO2 
 PCOD9158764
Probable space group: P 21/M
;
_chemical_formula_sum "Si O2"
_cell_formula_units_Z 32
_cell_length_a 14.746658
_cell_length_b 7.887709
_cell_length_c 21.239710
_cell_angle_alpha 90.000000
_cell_angle_beta 136.329787
_cell_angle_gamma 90.000000
_cell_volume 1705.928471
_symmetry_space_group_name_H-M "P 21/M"
_symmetry_group_IT_number 11
_symmetry_cell_setting 'monoclinic'
loop_
_space_group_symop_operation_xyz
x,y,z
-x,1/2+y,-z
-x,-y,-z
x,1/2-y,z
loop_
_atom_site_type_symbol
_atom_site_label
_atom_site_fract_x
_atom_site_fract_y
_atom_site_fract_z
Si Si1 0.591284 0.049876 0.722040
Si Si2 0.839393 0.051225 0.037950
Si Si3 0.129680 0.949866 0.178122
Si Si4 0.147554 0.543468 0.809734
Si Si5 0.142580 0.456233 0.330976
Si Si6 0.571008 0.553368 0.849477
Si Si7 0.420989 0.954676 0.897223
Si Si8 0.583360 0.545500 0.480129
O O1 0.604215 0.250000 0.715027
O O2 0.739552 0.979955 0.789385
O O3 0.492870 0.979951 0.619661
O O4 0.542453 0.029172 0.768231
O O5 0.808211 0.250000 0.021591
O O6 0.834326 0.990532 0.108171
O O7 0.988920 0.028424 0.090678
O O8 0.725770 0.962609 0.941932
O O9 0.117484 0.750000 0.159396
O O10 0.152426 0.979100 0.264206
O O11 0.149419 0.750000 0.810928
O O12 0.271320 0.485238 0.831395
O O13 0.001109 0.491568 0.716416
O O14 0.144366 0.250000 0.328599
O O15 0.267744 0.514558 0.433630
O O16 0.536570 0.750000 0.826412
O O17 0.493804 0.481268 0.871254
O O18 0.419737 0.750000 0.893092
O O19 0.500000 0.000000 0.000000
O O20 0.500000 0.500000 0.500000
O O21 0.589797 0.750000 0.479063
#
# Coordination Sequence:
#
# PCOD9158764 Si02
#       8
#     4   4   4   4   4   4   4   4
#     4  10  22  37  51  71 104 144 176 209 260 310
#     4  10  19  33  53  74 102 140 173 207 255 309
#     4  10  19  32  50  74 105 137 172 212 251 301
#     4   8  15  29  50  76 102 129 161 201 254 308
#     4   9  17  30  52  79 104 131 167 209 258 311
#     4  11  23  35  51  76 103 136 177 219 259 303
#     4  10  19  33  53  77 103 131 169 213 260 308
#     4  10  19  33  54  79 103 133 174 216 257 305
#
# _framework density 18.758113999999999
#
# number of rings (size 3 to 8) (size 9 to 14) (size 15 to 20)
#    0.000    2.250    2.500    1.875    0.000    2.500 
#    0.000    0.000    0.000    0.750    0.000    0.000 
#    0.000    0.000    0.000    0.000    0.000    0.125 
#
# Total GULP energy -178522.451769 kJ/mol
# GULP energy per Si atom -5578.826618 kJ/mol
# Density = 1.871542 g / cm^3
# Si number density = 18.758114 Si / 1000 Ang^3
#
#
#
# Elastic Constant Matrix: (Units=GPa)
#
#
# Indices 1 2 3 4 5 6 
#
# 1 116.7662 -6.4123 68.6439 0.0000 8.0762 0.0000
# 2 -6.4123 15.7072 -6.7661 0.0000 2.7638 0.0000
# 3 68.6439 -6.7661 106.3756 0.0000 8.3503 0.0000
# 4 0.0000 0.0000 0.0000 16.4207 0.0000 -3.9494
# 5 8.0762 2.7638 8.3503 0.0000 26.4424 0.0000
# 6 0.0000 0.0000 0.0000 -3.9494 0.0000 14.7084
#
#
#
# Elastic Compliance Matrix: (Units=1/GPa)
#
#
# Indices 1 2 3 4 5 6 
#
# 1 0.013926 0.002240 -0.008708 0.000000 -0.001738 0.000000
# 2 0.002240 0.067674 0.003556 0.000000 -0.008881 0.000000
# 3 -0.008708 0.003556 0.015449 0.000000 -0.002591 0.000000
# 4 0.000000 0.000000 0.000000 0.065103 0.000000 0.017481
# 5 -0.001738 -0.008881 -0.002591 0.000000 0.040095 0.000000
# 6 0.000000 0.000000 0.000000 0.017481 0.000000 0.072682
#
#
# Mechanical properties :
#
#
# Convention : Reuss Voigt Hill
#
# Bulk Modulus (GPa) = 10.96173 38.86443 24.91308
# Shear Modulus (GPa) = 16.06876 23.73986 19.90431
#
# Velocity S-wave (km/s) = 2.93000 3.56136 3.26099
# Velocity P-wave (km/s) = 4.15968 6.13797 5.24298
#
# Compressibility (1/GPa) = 0.09122645
#
# Stress axis : x y z
#
# Youngs Moduli (GPa) = 71.80603 14.77673 64.72775
#
# Poissons Ratio (x) = -0.03310 0.56363
# Poissons Ratio (y) = -0.16085 -0.23018
# Poissons Ratio (z) = 0.62527 -0.05255
#
# Static dielectric constant tensor:
#      x y z
#    x 1.665440 0.000000 0.026580 
#    y 0.000000 1.656290 0.000000 
#    z 0.026580 0.000000 1.648350 
# 
# From -- ./inp_files/54366.got.cif
#   From: 2010.05.17/outbox.cif.g08.bks.cpg/sg11_28_cif.got.tgz:54366.got - 2010.06.03 12:22:45.
