data_PCOD9158161
_publ_section_title
;
Structure prediction by ZEFSAII (Michael W. Deem and Ramdas Pophale) SiO2 
 PCOD9158161
Probable space group: P 21/M
;
_chemical_formula_sum "Si O2"
_cell_formula_units_Z 24
_cell_length_a 14.995047
_cell_length_b 14.037387
_cell_length_c 5.722775
_cell_angle_alpha 90.000000
_cell_angle_beta 71.874061
_cell_angle_gamma 90.000000
_cell_volume 1144.816215
_symmetry_space_group_name_H-M "P 21/M"
_symmetry_group_IT_number 11
_symmetry_cell_setting 'monoclinic'
loop_
_space_group_symop_operation_xyz
x,y,z
-x,1/2+y,-z
-x,-y,-z
x,1/2-y,z
loop_
_atom_site_type_symbol
_atom_site_label
_atom_site_fract_x
_atom_site_fract_y
_atom_site_fract_z
Si Si1 0.464143 0.250000 0.067657
Si Si2 0.076684 0.034328 0.250998
Si Si3 0.832236 0.855662 0.461014
Si Si4 0.469248 0.250000 0.563908
Si Si5 0.605145 0.538451 0.888497
Si Si6 0.665699 0.936041 0.336903
Si Si7 0.028284 0.854101 0.042005
O O1 0.518760 0.250000 0.270336
O O2 0.401542 0.154204 0.117763
O O3 0.519088 0.250000 0.775964
O O4 0.164836 0.075343 0.318822
O O5 0.023137 0.117183 0.155024
O O6 0.000000 0.000000 0.500000
O O7 0.091138 0.943463 0.070575
O O8 0.799479 0.750000 0.549641
O O9 0.769071 0.896064 0.304938
O O10 0.939135 0.849083 0.288122
O O11 0.404685 0.344936 0.615929
O O12 0.640948 0.509120 0.600147
O O13 0.500000 0.500000 0.000000
O O14 0.654443 0.513582 0.095623
O O15 0.073223 0.750000 0.995917
#
# Coordination Sequence:
#
# PCOD9158161 Si02
#       7
#     2   4   4   2   4   4   4
#     4   8  16  28  48  66  96 122 162 202 247 303
#     4   9  18  32  48  73 109 142 182 218 266 321
#     4  10  19  30  49  80 112 141 169 220 284 330
#     4   8  14  28  40  68 100 128 150 192 247 315
#     4  10  20  34  51  75 104 138 176 213 261 326
#     4  10  19  31  49  76 108 138 171 208 269 325
#     4   9  18  32  50  75 107 145 183 221 268 321
#
# _framework density 20.964061999999998
#
# number of rings (size 3 to 8) (size 9 to 14) (size 15 to 20)
#    0.000    2.667    0.833    1.000    2.333    0.667 
#    0.000    0.000    0.000    0.000    4.333    0.000 
#    0.000    0.000    0.000    0.000    0.000    0.000 
#
# Total GULP energy -133606.632079 kJ/mol
# GULP energy per Si atom -5566.943003 kJ/mol
# Density = 2.091635 g / cm^3
# Si number density = 20.964062 Si / 1000 Ang^3
#
#
#
# Elastic Constant Matrix: (Units=GPa)
#
#
# Indices 1 2 3 4 5 6 
#
# 1 47.2922 21.7392 23.4820 0.0000 19.5162 0.0000
# 2 21.7392 57.5140 14.1930 0.0000 10.8422 0.0000
# 3 23.4820 14.1930 163.9309 0.0000 29.8501 0.0000
# 4 0.0000 0.0000 0.0000 12.8230 0.0000 -4.1955
# 5 19.5162 10.8422 29.8501 0.0000 32.3962 0.0000
# 6 0.0000 0.0000 0.0000 -4.1955 0.0000 5.3789
#
#
#
# Elastic Compliance Matrix: (Units=1/GPa)
#
#
# Indices 1 2 3 4 5 6 
#
# 1 0.032148 -0.008993 -0.001019 0.000000 -0.015418 0.000000
# 2 -0.008993 0.021118 -0.000288 0.000000 -0.001385 0.000000
# 3 -0.001019 -0.000288 0.007380 0.000000 -0.006090 0.000000
# 4 0.000000 0.000000 0.000000 0.104705 0.000000 0.081669
# 5 -0.015418 -0.001385 -0.006090 0.000000 0.046230 0.000000
# 6 0.000000 0.000000 0.000000 0.081669 0.000000 0.249613
#
#
# Mechanical properties :
#
#
# Convention : Reuss Voigt Hill
#
# Bulk Modulus (GPa) = 24.97164 43.06285 34.01724
# Shear Modulus (GPa) = 10.09809 24.07448 17.08629
#
# Velocity S-wave (km/s) = 2.19712 3.39244 2.85797
# Velocity P-wave (km/s) = 4.28648 5.99422 5.21079
#
# Compressibility (1/GPa) = 0.04004543
#
# Stress axis : x y z
#
# Youngs Moduli (GPa) = 31.10656 47.35189 135.50352
#
# Poissons Ratio (x) = 0.42585 0.13806
# Poissons Ratio (y) = 0.27975 0.03903
# Poissons Ratio (z) = 0.03169 0.01364
#
# Static dielectric constant tensor:
#      x y z
#    x 1.742700 0.000000 -0.004750 
#    y 0.000000 1.782680 0.000000 
#    z -0.004750 0.000000 1.882550 
# 
# From -- ./inp_files/6428.got.cif
#   From: 2010.05.17/outbox.cif.g08.bks.cpg/sg11_4_cif.got.tgz:6428.got - 2010.06.03 12:22:45.
