data_PCOD9158893
_publ_section_title
;
Structure prediction by ZEFSAII (Michael W. Deem and Ramdas Pophale) SiO2 
 PCOD9158893
Probable space group: P 21/M
;
_chemical_formula_sum "Si O2"
_cell_formula_units_Z 28
_cell_length_a 18.277599
_cell_length_b 11.692829
_cell_length_c 22.365642
_cell_angle_alpha 90.000000
_cell_angle_beta 160.717683
_cell_angle_gamma 90.000000
_cell_volume 1578.438102
_symmetry_space_group_name_H-M "P 21/M"
_symmetry_group_IT_number 11
_symmetry_cell_setting 'monoclinic'
loop_
_space_group_symop_operation_xyz
x,y,z
-x,1/2+y,-z
-x,-y,-z
x,1/2-y,z
loop_
_atom_site_type_symbol
_atom_site_label
_atom_site_fract_x
_atom_site_fract_y
_atom_site_fract_z
Si Si1 0.975260 0.381961 0.903149
Si Si2 0.655378 0.618500 0.379547
Si Si3 0.565779 0.117577 0.913672
Si Si4 0.952163 0.535947 0.270152
Si Si5 0.746630 0.117512 0.603581
Si Si6 0.354644 0.963465 0.252364
Si Si7 0.379325 0.378430 0.892977
O O1 0.042639 0.250000 0.948836
O O2 0.870362 0.420781 0.759421
O O3 0.788129 0.393677 0.809870
O O4 0.181701 0.457522 0.082985
O O5 0.716660 0.750000 0.416553
O O6 0.529935 0.576811 0.223221
O O7 0.490961 0.608614 0.309130
O O8 0.871149 0.545967 0.561458
O O9 0.640677 0.250000 0.964483
O O10 0.374896 0.117998 0.817505
O O11 0.765331 0.040283 0.092517
O O12 0.835797 0.611533 0.231454
O O13 0.085819 0.604528 0.322809
O O14 0.683348 0.250000 0.562361
O O15 0.532815 0.041605 0.424364
O O16 0.479806 0.250000 0.983459
O O17 0.500000 0.500000 0.000000
#
# Coordination Sequence:
#
# PCOD9158893 Si02
#       7
#     4   4   4   4   4   4   4
#     4  10  20  34  52  72  96 127 162 201 248 299
#     4  10  20  33  51  75 102 133 169 208 252 302
#     4   9  18  33  51  73 102 133 168 210 252 298
#     4  10  19  32  52  74 101 133 169 207 253 300
#     4  10  20  33  50  72  98 128 162 202 247 297
#     4  10  20  34  51  72  98 127 162 203 247 296
#     4   9  18  33  54  78 106 139 175 215 259 307
#
# _framework density 17.739053999999999
#
# number of rings (size 3 to 8) (size 9 to 14) (size 15 to 20)
#    0.000    2.286    0.000    3.000    0.000    1.143 
#    0.000    0.000    0.000   25.714    0.000    0.000 
#    0.000    0.000    0.000    0.000    0.000    0.000 
#
# Total GULP energy -155961.277127 kJ/mol
# GULP energy per Si atom -5570.045612 kJ/mol
# Density = 1.769868 g / cm^3
# Si number density = 17.739054 Si / 1000 Ang^3
#
#
#
# Elastic Constant Matrix: (Units=GPa)
#
#
# Indices 1 2 3 4 5 6 
#
# 1 34.5654 2.2478 12.4227 0.0000 7.8240 0.0000
# 2 2.2478 61.2394 25.2465 0.0000 -1.0161 0.0000
# 3 12.4227 25.2465 77.3660 0.0000 -9.0634 0.0000
# 4 0.0000 0.0000 0.0000 3.8173 0.0000 -4.7669
# 5 7.8240 -1.0161 -9.0634 0.0000 16.4053 0.0000
# 6 0.0000 0.0000 0.0000 -4.7669 0.0000 57.4301
#
#
#
# Elastic Compliance Matrix: (Units=1/GPa)
#
#
# Indices 1 2 3 4 5 6 
#
# 1 0.037327 0.002109 -0.009357 0.000000 -0.022841 0.000000
# 2 0.002109 0.019075 -0.006995 0.000000 -0.003689 0.000000
# 3 -0.009357 -0.006995 0.018372 0.000000 0.014179 0.000000
# 4 0.000000 0.000000 0.000000 0.292256 0.000000 0.024258
# 5 -0.022841 -0.003689 0.014179 0.000000 0.079454 0.000000
# 6 0.000000 0.000000 0.000000 0.024258 0.000000 0.019426
#
#
# Mechanical properties :
#
#
# Convention : Reuss Voigt Hill
#
# Bulk Modulus (GPa) = 21.60527 28.11165 24.85846
# Shear Modulus (GPa) = 9.80728 24.41414 17.11071
#
# Velocity S-wave (km/s) = 2.35386 3.71387 3.10914
# Velocity P-wave (km/s) = 4.42645 5.85424 5.18968
#
# Compressibility (1/GPa) = 0.04628499
#
# Stress axis : x y z
#
# Youngs Moduli (GPa) = 26.79055 52.42570 54.43091
#
# Poissons Ratio (x) = -0.11054 0.50933
# Poissons Ratio (y) = -0.05649 0.38076
# Poissons Ratio (z) = 0.25069 0.36673
#
# Static dielectric constant tensor:
#      x y z
#    x 1.610360 0.000000 0.006750 
#    y 0.000000 1.599390 0.000000 
#    z 0.006750 0.000000 1.576430 
# 
# From -- ./inp_files/26350.got.cif
#   From: 2010.05.17/outbox.cif.g08.bks.cpg/sg11_14_cif.got.tgz:26350.got - 2010.06.03 12:22:45.
