data_PCOD9158276
_publ_section_title
;
Structure prediction by ZEFSAII (Michael W. Deem and Ramdas Pophale) SiO2 
 PCOD9158276
Probable space group: P 21/M
;
_chemical_formula_sum "Si O2"
_cell_formula_units_Z 32
_cell_length_a 24.563078
_cell_length_b 7.377770
_cell_length_c 25.858823
_cell_angle_alpha 90.000000
_cell_angle_beta 161.785204
_cell_angle_gamma 90.000000
_cell_volume 1464.799410
_symmetry_space_group_name_H-M "P 21/M"
_symmetry_group_IT_number 11
_symmetry_cell_setting 'monoclinic'
loop_
_space_group_symop_operation_xyz
x,y,z
-x,1/2+y,-z
-x,-y,-z
x,1/2-y,z
loop_
_atom_site_type_symbol
_atom_site_label
_atom_site_fract_x
_atom_site_fract_y
_atom_site_fract_z
Si Si1 0.999595 0.966529 0.938189
Si Si2 0.496260 0.466474 0.935784
Si Si3 0.492068 0.471210 0.750000
Si Si4 0.256162 0.971304 0.930405
Si Si5 0.623217 0.966529 0.561811
Si Si6 0.617636 0.471823 0.750000
Si Si7 0.104649 0.471304 0.430406
Si Si8 0.124692 0.466474 0.564216
O O1 0.998807 0.750000 0.929865
O O2 0.818855 0.036098 0.750000
O O3 0.184716 0.032778 0.083257
O O4 0.000000 0.000000 0.000000
O O5 0.494635 0.250000 0.928444
O O6 0.315809 0.538025 0.750000
O O7 0.500000 0.500000 0.000000
O O8 0.654681 0.529818 0.043112
O O9 0.490999 0.250000 0.750000
O O10 0.554780 0.526437 0.750000
O O11 0.295769 0.530012 0.585581
O O12 0.624608 0.530012 0.914419
O O13 0.256434 0.750000 0.931496
O O14 0.056035 0.029291 0.750000
O O15 0.639078 0.750000 0.570135
O O16 0.518202 0.032778 0.416743
O O17 0.500000 0.000000 0.500000
O O18 0.619366 0.250000 0.750000
O O19 0.106559 0.250000 0.431497
O O20 0.068457 0.529817 0.456888
O O21 0.137748 0.250000 0.571558
O O22 0.000000 0.500000 0.500000
#
# Coordination Sequence:
#
# PCOD9158276 Si02
#       8
#     4   4   4   4   4   4   4   4
#     4  10  19  31  49  73 101 133 165 199 243 291
#     4  10  19  31  47  70  99 126 159 202 243 291
#     4   9  16  28  44  65  95 129 160 195 242 290
#     4   9  16  27  44  65  92 126 160 196 240 289
#     4  10  19  31  49  73 101 133 165 199 243 291
#     4   9  18  30  45  69 101 129 162 207 242 280
#     4   9  16  27  44  65  92 126 160 196 240 289
#     4  10  19  31  47  70  99 126 159 202 243 291
#
# _framework density 21.845994000000001
#
# number of rings (size 3 to 8) (size 9 to 14) (size 15 to 20)
#    0.000    2.500    2.500    0.750    0.000    2.500 
#    0.000    5.000    0.000    0.000    0.000    3.500 
#    0.000    0.000    0.000    0.000    0.000    0.000 
#
# Total GULP energy -178709.990806 kJ/mol
# GULP energy per Si atom -5584.687213 kJ/mol
# Density = 2.179627 g / cm^3
# Si number density = 21.845994 Si / 1000 Ang^3
#
#
#
# Elastic Constant Matrix: (Units=GPa)
#
#
# Indices 1 2 3 4 5 6 
#
# 1 182.5243 -1.9797 121.8549 0.0000 0.3647 0.0000
# 2 -1.9797 76.9047 8.7796 0.0000 0.9747 0.0000
# 3 121.8549 8.7796 254.3627 0.0000 6.1430 0.0000
# 4 0.0000 0.0000 0.0000 -0.8970 0.0000 -1.4465
# 5 0.3647 0.9747 6.1430 0.0000 32.8724 0.0000
# 6 0.0000 0.0000 0.0000 -1.4465 0.0000 15.0694
#
#
#
# Elastic Compliance Matrix: (Units=1/GPa)
#
#
# Indices 1 2 3 4 5 6 
#
# 1 0.008100 0.000648 -0.003918 0.000000 0.000623 0.000000
# 2 0.000648 0.013109 -0.000757 0.000000 -0.000254 0.000000
# 3 -0.003918 -0.000757 0.005859 0.000000 -0.001029 0.000000
# 4 0.000000 0.000000 0.000000 -0.965371 0.000000 -0.092662
# 5 0.000623 -0.000254 -0.001029 0.000000 0.030614 0.000000
# 6 0.000000 0.000000 0.000000 -0.092662 0.000000 0.057465
#
#
# Mechanical properties :
#
#
# Convention : Reuss Voigt Hill
#
# Bulk Modulus (GPa) = 52.58897 85.67793 69.13345
# Shear Modulus (GPa) = -5.98207 35.08475 14.55134
#
# Velocity S-wave (km/s) = -1.65657 4.01185 2.58367
# Velocity P-wave (km/s) = 4.52392 7.79513 6.37299
#
# Compressibility (1/GPa) = 0.01901539
#
# Stress axis : x y z
#
# Youngs Moduli (GPa) = 123.45546 76.28120 170.67060
#
# Poissons Ratio (x) = -0.04942 0.66866
# Poissons Ratio (y) = -0.07999 0.12915
# Poissons Ratio (z) = 0.48368 0.05772
#
# Static dielectric constant tensor:
#      x y z
#    x 1.744080 0.000000 0.003810 
#    y 0.000000 1.923670 0.000000 
#    z 0.003810 0.000000 1.786100 
# 
# From -- ./inp_files/66527.got.cif
#   From: 2010.05.17/outbox.cif.g08.bks.cpg/sg11_34_cif.got.tgz:66527.got - 2010.06.03 12:22:45.
