data_PCOD9158106
_publ_section_title
;
Structure prediction by ZEFSAII (Michael W. Deem and Ramdas Pophale) SiO2 
 PCOD9158106
Probable space group: P 21/M
;
_chemical_formula_sum "Si O2"
_cell_formula_units_Z 24
_cell_length_a 17.212972
_cell_length_b 8.236390
_cell_length_c 14.585028
_cell_angle_alpha 90.000000
_cell_angle_beta 152.704642
_cell_angle_gamma 90.000000
_cell_volume 948.228120
_symmetry_space_group_name_H-M "P 21/M"
_symmetry_group_IT_number 11
_symmetry_cell_setting 'monoclinic'
loop_
_space_group_symop_operation_xyz
x,y,z
-x,1/2+y,-z
-x,-y,-z
x,1/2-y,z
loop_
_atom_site_type_symbol
_atom_site_label
_atom_site_fract_x
_atom_site_fract_y
_atom_site_fract_z
Si Si1 0.597808 0.940413 0.496601
Si Si2 0.170908 0.054169 0.727417
Si Si3 0.844231 0.943108 0.900893
Si Si4 0.633193 0.938802 0.903074
Si Si5 0.672630 0.551961 0.291988
Si Si6 0.073463 0.440020 0.293524
O O1 0.567172 0.750000 0.476007
O O2 0.675063 0.011774 0.672850
O O3 0.762928 0.958060 0.602629
O O4 0.442730 0.005504 0.273532
O O5 0.169640 0.250000 0.731753
O O6 0.309341 0.008499 0.795184
O O7 0.217745 0.986200 0.877030
O O8 0.000000 0.000000 0.500000
O O9 0.830572 0.750000 0.880106
O O10 0.000000 0.000000 0.000000
O O11 0.912356 0.982494 0.073935
O O12 0.668225 0.750000 0.928398
O O13 0.476133 0.966531 0.808666
O O14 0.656186 0.750000 0.284355
O O15 0.847072 0.502620 0.527501
O O16 0.036310 0.250000 0.260585
#
# Coordination Sequence:
#
# PCOD9158106 Si02
#       6
#     4   4   4   4   4   4
#     4   8  15  26  39  59  90 126 155 182 226 278
#     4  10  22  37  51  70  95 123 157 195 236 283
#     4   9  15  22  34  56  88 121 151 183 221 267
#     4  10  19  30  48  74  97 120 157 199 233 271
#     4   9  18  33  50  69  96 127 157 190 232 283
#     4   8  14  24  39  60  87 119 151 183 223 270
#
# _framework density 25.310365000000001
#
# number of rings (size 3 to 8) (size 9 to 14) (size 15 to 20)
#    0.000    3.000    0.000    3.500    0.000    8.667 
#    0.000    0.000    0.000    0.000    0.000    1.167 
#    0.000    0.000    0.000    0.000    0.000    0.000 
#
# Total GULP energy -134047.502655 kJ/mol
# GULP energy per Si atom -5585.312611 kJ/mol
# Density = 2.525276 g / cm^3
# Si number density = 25.310365 Si / 1000 Ang^3
#
#
#
# Elastic Constant Matrix: (Units=GPa)
#
#
# Indices 1 2 3 4 5 6 
#
# 1 112.7753 8.6964 53.5631 0.0000 -46.4829 0.0000
# 2 8.6964 13.1601 26.7500 0.0000 -16.8918 0.0000
# 3 53.5631 26.7500 254.7325 0.0000 -37.7525 0.0000
# 4 0.0000 0.0000 0.0000 32.5088 0.0000 -0.3726
# 5 -46.4829 -16.8918 -37.7525 0.0000 68.9369 0.0000
# 6 0.0000 0.0000 0.0000 -0.3726 0.0000 21.2843
#
#
#
# Elastic Compliance Matrix: (Units=1/GPa)
#
#
# Indices 1 2 3 4 5 6 
#
# 1 0.013320 0.008281 -0.002219 0.000000 0.009795 0.000000
# 2 0.008281 0.134804 -0.011073 0.000000 0.032551 0.000000
# 3 -0.002219 -0.011073 0.005367 0.000000 -0.001270 0.000000
# 4 0.000000 0.000000 0.000000 0.030767 0.000000 0.000539
# 5 0.009795 0.032551 -0.001270 0.000000 0.028391 0.000000
# 6 0.000000 0.000000 0.000000 0.000539 0.000000 0.046992
#
#
# Mechanical properties :
#
#
# Convention : Reuss Voigt Hill
#
# Bulk Modulus (GPa) = 6.97018 62.07632 34.52325
# Shear Modulus (GPa) = 15.74872 43.98988 29.86930
#
# Velocity S-wave (km/s) = 2.49715 4.17348 3.43902
# Velocity P-wave (km/s) = 3.32779 6.91398 5.42574
#
# Compressibility (1/GPa) = 0.14346834
#
# Stress axis : x y z
#
# Youngs Moduli (GPa) = 75.07648 7.41818 186.33218
#
# Poissons Ratio (x) = -0.06143 0.41340
# Poissons Ratio (y) = -0.62168 2.06327
# Poissons Ratio (z) = 0.16657 0.08214
#
# Static dielectric constant tensor:
#      x y z
#    x 2.125250 0.000000 0.000630 
#    y 0.000000 1.857550 0.000000 
#    z 0.000630 0.000000 2.106300 
# 
# From -- ./inp_files/23804.got.cif
#   From: 2010.05.17/outbox.cif.g08.bks.cpg/sg11_12_cif.got.tgz:23804.got - 2010.06.03 12:22:45.
