data_PCOD9158279
_publ_section_title
;
Structure prediction by ZEFSAII (Michael W. Deem and Ramdas Pophale) SiO2 
 PCOD9158279
Probable space group: P 21/M
;
_chemical_formula_sum "Si O2"
_cell_formula_units_Z 32
_cell_length_a 14.734869
_cell_length_b 8.827012
_cell_length_c 26.491326
_cell_angle_alpha 90.000000
_cell_angle_beta 146.753209
_cell_angle_gamma 90.000000
_cell_volume 1889.032692
_symmetry_space_group_name_H-M "P 21/M"
_symmetry_group_IT_number 11
_symmetry_cell_setting 'monoclinic'
loop_
_space_group_symop_operation_xyz
x,y,z
-x,1/2+y,-z
-x,-y,-z
x,1/2-y,z
loop_
_atom_site_type_symbol
_atom_site_label
_atom_site_fract_x
_atom_site_fract_y
_atom_site_fract_z
Si Si1 0.561880 0.570579 0.943417
Si Si2 0.039889 0.431085 0.598629
Si Si3 0.780712 0.929767 0.946012
Si Si4 0.747549 0.567629 0.399458
Si Si5 0.925564 0.931900 0.854411
Si Si6 0.636258 0.068219 0.776457
Si Si7 0.859128 0.067958 0.140658
Si Si8 0.820977 0.433203 0.234951
O O1 0.564033 0.750000 0.955234
O O2 0.645831 0.547761 0.927760
O O3 0.372343 0.519758 0.854616
O O4 0.680902 0.489778 0.038766
O O5 0.034560 0.250000 0.598710
O O6 0.178829 0.474553 0.621335
O O7 0.086535 0.498160 0.674295
O O8 0.867920 0.493503 0.496507
O O9 0.808323 0.750000 0.952453
O O10 0.713296 0.002104 0.863688
O O11 0.947170 0.008076 0.043805
O O12 0.759245 0.750000 0.409193
O O13 0.556411 0.524030 0.316078
O O14 0.918443 0.750000 0.853095
O O15 0.006348 0.980081 0.838556
O O16 0.748020 0.002395 0.783558
O O17 0.646791 0.250000 0.782143
O O18 0.854384 0.250000 0.137680
O O19 0.891555 0.020437 0.213127
O O20 0.826115 0.250000 0.241041
#
# Coordination Sequence:
#
# PCOD9158279 Si02
#       8
#     4   4   4   4   4   4   4   4
#     4   9  18  30  47  72 101 132 165 201 239 283
#     4  10  20  34  54  79 102 126 157 193 237 290
#     4  10  19  31  47  71 102 133 164 199 241 287
#     4   9  20  37  54  74 102 130 155 191 242 295
#     4  10  20  34  49  68  97 132 169 207 243 280
#     4  11  21  33  51  73  96 127 165 201 242 290
#     4   9  19  33  49  69  97 134 169 202 242 285
#     4  10  19  32  50  73 101 132 164 198 242 291
#
# _framework density 16.939888
#
# number of rings (size 3 to 8) (size 9 to 14) (size 15 to 20)
#    0.000    2.250    0.000    3.000    0.000    3.500 
#    0.000    0.000    0.000    0.750    0.000    0.000 
#    0.000    0.000    0.000    0.000    0.000    0.000 
#
# Total GULP energy -178628.380994 kJ/mol
# GULP energy per Si atom -5582.136906 kJ/mol
# Density = 1.690133 g / cm^3
# Si number density = 16.939888 Si / 1000 Ang^3
#
#
#
# Elastic Constant Matrix: (Units=GPa)
#
#
# Indices 1 2 3 4 5 6 
#
# 1 110.2508 42.4079 98.6110 0.0000 -4.0665 0.0000
# 2 42.4079 33.3772 38.5814 0.0000 0.9841 0.0000
# 3 98.6110 38.5814 119.2356 0.0000 -2.9842 0.0000
# 4 0.0000 0.0000 0.0000 27.6896 0.0000 -0.2180
# 5 -4.0665 0.9841 -2.9842 0.0000 32.7738 0.0000
# 6 0.0000 0.0000 0.0000 -0.2180 0.0000 22.1874
#
#
#
# Elastic Compliance Matrix: (Units=1/GPa)
#
#
# Indices 1 2 3 4 5 6 
#
# 1 0.043075 -0.021966 -0.028431 0.000000 0.003415 0.000000
# 2 -0.021966 0.059332 -0.001147 0.000000 -0.004612 0.000000
# 3 -0.028431 -0.001147 0.032257 0.000000 -0.000556 0.000000
# 4 0.000000 0.000000 0.000000 0.036117 0.000000 0.000355
# 5 0.003415 -0.004612 -0.000556 0.000000 0.031024 0.000000
# 6 0.000000 0.000000 0.000000 0.000355 0.000000 0.045074
#
#
# Mechanical properties :
#
#
# Convention : Reuss Voigt Hill
#
# Bulk Modulus (GPa) = 31.67002 69.11824 50.39413
# Shear Modulus (GPa) = 13.86996 22.08105 17.97550
#
# Velocity S-wave (km/s) = 2.86453 3.61431 3.26104
# Velocity P-wave (km/s) = 5.44764 7.63599 6.63269
#
# Compressibility (1/GPa) = 0.03157560
#
# Stress axis : x y z
#
# Youngs Moduli (GPa) = 23.21556 16.85439 31.00116
#
# Poissons Ratio (x) = 0.37023 0.88138
# Poissons Ratio (y) = 0.50996 0.03556
# Poissons Ratio (z) = 0.66003 0.01933
#
# Static dielectric constant tensor:
#      x y z
#    x 1.599310 0.000000 0.009980 
#    y 0.000000 1.566040 0.000000 
#    z 0.009980 0.000000 1.532370 
# 
# From -- ./inp_files/51673.got.cif
#   From: 2010.05.17/outbox.cif.g08.bks.cpg/sg11_26_cif.got.tgz:51673.got - 2010.06.03 12:22:45.
