data_PCOD9158871
_publ_section_title
;
Structure prediction by ZEFSAII (Michael W. Deem and Ramdas Pophale) SiO2 
 PCOD9158871
Probable space group: P 21/M
;
_chemical_formula_sum "Si O2"
_cell_formula_units_Z 32
_cell_length_a 20.857110
_cell_length_b 8.305307
_cell_length_c 26.401278
_cell_angle_alpha 90.000000
_cell_angle_beta 157.674996
_cell_angle_gamma 90.000000
_cell_volume 1737.233545
_symmetry_space_group_name_H-M "P 21/M"
_symmetry_group_IT_number 11
_symmetry_cell_setting 'monoclinic'
loop_
_space_group_symop_operation_xyz
x,y,z
-x,1/2+y,-z
-x,-y,-z
x,1/2-y,z
loop_
_atom_site_type_symbol
_atom_site_label
_atom_site_fract_x
_atom_site_fract_y
_atom_site_fract_z
Si Si1 0.401799 0.946572 0.816695
Si Si2 0.777673 0.943271 0.109609
Si Si3 0.840248 0.058827 0.267879
Si Si4 0.268592 0.944004 0.207013
Si Si5 0.571914 0.556948 0.498415
Si Si6 0.053826 0.056029 0.961582
Si Si7 0.043696 0.554956 0.221560
Si Si8 0.116332 0.942899 0.538293
O O1 0.401018 0.750000 0.817496
O O2 0.293522 0.999042 0.786934
O O3 0.301869 0.992449 0.692614
O O4 0.592576 0.004417 0.958722
O O5 0.773830 0.750000 0.101661
O O6 0.925724 0.003049 0.181149
O O7 0.807296 0.983786 0.189584
O O8 0.822297 0.250000 0.251315
O O9 0.027298 0.017299 0.424615
O O10 0.269416 0.750000 0.207621
O O11 0.443744 0.999238 0.360295
O O12 0.114813 0.997832 0.131435
O O13 0.214440 0.000000 0.111566
O O14 0.500000 0.500000 0.500000
O O15 0.569924 0.750000 0.496819
O O16 0.763195 0.498868 0.632297
O O17 0.054386 0.250000 0.962086
O O18 0.034203 0.001704 0.889372
O O19 0.043894 0.750000 0.221426
O O20 0.109859 0.750000 0.529615
O O21 0.000000 0.000000 0.500000
#
# Coordination Sequence:
#
# PCOD9158871 Si02
#       8
#     4   4   4   4   4   4   4   4
#     4   8  16  31  52  78 103 134 176 221 264 311
#     4  10  20  35  54  74 102 140 177 217 266 314
#     4  10  19  32  51  77 109 139 176 221 264 315
#     4   9  18  32  51  77 104 129 165 209 253 300
#     4  11  21  35  56  80 107 137 171 212 256 308
#     4   9  17  32  51  74 104 132 165 209 255 304
#     4  10  21  37  54  76 106 137 174 218 264 316
#     4   9  16  29  50  76 105 134 172 219 268 316
#
# _framework density 18.420092
#
# number of rings (size 3 to 8) (size 9 to 14) (size 15 to 20)
#    0.000    2.500    1.250    2.250    0.000    2.000 
#    0.000    4.375    0.000    3.000    0.000    0.000 
#    0.000    0.000    0.000    0.000    0.000    0.000 
#
# Total GULP energy -178385.219465 kJ/mol
# GULP energy per Si atom -5574.538108 kJ/mol
# Density = 1.837817 g / cm^3
# Si number density = 18.420092 Si / 1000 Ang^3
#
#
#
# Elastic Constant Matrix: (Units=GPa)
#
#
# Indices 1 2 3 4 5 6 
#
# 1 39.2158 11.2578 73.4506 0.0000 21.7981 0.0000
# 2 11.2578 9.6973 11.0902 0.0000 2.2302 0.0000
# 3 73.4506 11.0902 184.1245 0.0000 -9.2522 0.0000
# 4 0.0000 0.0000 0.0000 26.3664 0.0000 -5.5477
# 5 21.7981 2.2302 -9.2522 0.0000 15.1002 0.0000
# 6 0.0000 0.0000 0.0000 -5.5477 0.0000 20.3289
#
#
#
# Elastic Compliance Matrix: (Units=1/GPa)
#
#
# Indices 1 2 3 4 5 6 
#
# 1 -0.028622 0.006666 0.013458 0.000000 0.048579 0.000000
# 2 0.006666 0.116117 -0.011348 0.000000 -0.033724 0.000000
# 3 0.013458 -0.011348 -0.000150 0.000000 -0.017843 0.000000
# 4 0.000000 0.000000 0.000000 0.040238 0.000000 0.010981
# 5 0.048579 -0.033724 -0.017843 0.000000 -0.009855 0.000000
# 6 0.000000 0.000000 0.000000 0.010981 0.000000 0.052188
#
#
# Mechanical properties :
#
#
# Convention : Reuss Voigt Hill
#
# Bulk Modulus (GPa) = 9.53333 47.18166 28.35749
# Shear Modulus (GPa) = 26.69119 21.50837 24.09978
#
# Velocity S-wave (km/s) = 3.81074 3.42081 3.62103
# Velocity P-wave (km/s) = 4.95470 6.42436 5.73679
#
# Compressibility (1/GPa) = 0.10489518
#
# Stress axis : x y z
#
# Youngs Moduli (GPa) = -34.93768 8.61201 -6644.96304
#
# Poissons Ratio (x) = -0.05740 89.42529
# Poissons Ratio (y) = 0.23288 -75.40491
# Poissons Ratio (z) = 0.47018 0.09773
#
# Static dielectric constant tensor:
#      x y z
#    x 1.611810 0.000000 -0.008950 
#    y 0.000000 1.643240 0.000000 
#    z -0.008950 0.000000 1.658650 
# 
# From -- ./inp_files/72224.got.cif
#   From: 2010.05.17/outbox.cif.g08.bks.cpg/sg11_37_cif.got.tgz:72224.got - 2010.06.03 12:22:45.
