data_PCOD9158902
_publ_section_title
;
Structure prediction by ZEFSAII (Michael W. Deem and Ramdas Pophale) SiO2 
 PCOD9158902
Probable space group: P 21/M
;
_chemical_formula_sum "Si O2"
_cell_formula_units_Z 20
_cell_length_a 12.624842
_cell_length_b 10.904045
_cell_length_c 9.017853
_cell_angle_alpha 90.000000
_cell_angle_beta 124.815659
_cell_angle_gamma 90.000000
_cell_volume 1019.192688
_symmetry_space_group_name_H-M "P 21/M"
_symmetry_group_IT_number 11
_symmetry_cell_setting 'monoclinic'
loop_
_space_group_symop_operation_xyz
x,y,z
-x,1/2+y,-z
-x,-y,-z
x,1/2-y,z
loop_
_atom_site_type_symbol
_atom_site_label
_atom_site_fract_x
_atom_site_fract_y
_atom_site_fract_z
Si Si1 0.356197 0.890159 0.566044
Si Si2 0.202027 0.001582 0.689631
Si Si3 0.366122 0.107261 0.066370
Si Si4 0.027613 0.386639 0.319717
Si Si5 0.243085 0.396067 0.276682
O O1 0.358461 0.750000 0.507831
O O2 0.247429 0.899940 0.607585
O O3 0.493587 0.915996 0.752564
O O4 0.327193 0.000197 0.428110
O O5 0.086628 0.968117 0.708432
O O6 0.142393 0.104873 0.534006
O O7 0.323002 0.034903 0.887513
O O8 0.361745 0.250000 0.022504
O O9 0.266010 0.087047 0.121202
O O10 0.976379 0.250000 0.268367
O O11 0.098946 0.417459 0.223466
O O12 0.274105 0.250000 0.333296
#
# Coordination Sequence:
#
# PCOD9158902 Si02
#       5
#     4   4   4   4   4
#     4  10  20  35  54  78 108 138 172 213 257 307
#     4  10  19  32  52  75 102 135 173 212 259 306
#     4  10  20  34  53  78 106 136 173 216 258 305
#     4   9  18  33  51  71  99 135 174 214 255 304
#     4   9  19  36  56  77 104 139 175 210 256 311
#
# _framework density 19.623377000000001
#
# number of rings (size 3 to 8) (size 9 to 14) (size 15 to 20)
#    0.000    2.400    0.000    2.400    0.000    1.600 
#    0.000    5.000    0.000    0.000    0.000    0.000 
#    0.000    0.000    0.000    0.000    0.000    0.000 
#
# Total GULP energy -111349.057999 kJ/mol
# GULP energy per Si atom -5567.452900 kJ/mol
# Density = 1.957871 g / cm^3
# Si number density = 19.623377 Si / 1000 Ang^3
#
#
#
# Elastic Constant Matrix: (Units=GPa)
#
#
# Indices 1 2 3 4 5 6 
#
# 1 65.3624 0.5124 -13.6832 0.0000 -7.3878 0.0000
# 2 0.5124 59.9968 24.0377 0.0000 -9.9560 0.0000
# 3 -13.6832 24.0377 34.3295 0.0000 -4.9220 0.0000
# 4 0.0000 0.0000 0.0000 6.2174 0.0000 -2.2991
# 5 -7.3878 -9.9560 -4.9220 0.0000 15.6759 0.0000
# 6 0.0000 0.0000 0.0000 -2.2991 0.0000 21.5405
#
#
#
# Elastic Compliance Matrix: (Units=1/GPa)
#
#
# Indices 1 2 3 4 5 6 
#
# 1 0.018808 -0.002811 0.010974 0.000000 0.010524 0.000000
# 2 -0.002811 0.025212 -0.017454 0.000000 0.009208 0.000000
# 3 0.010974 -0.017454 0.046993 0.000000 0.008841 0.000000
# 4 0.000000 0.000000 0.000000 0.167447 0.000000 0.017872
# 5 0.010524 0.009208 0.008841 0.000000 0.077376 0.000000
# 6 0.000000 0.000000 0.000000 0.017872 0.000000 0.048332
#
#
# Mechanical properties :
#
#
# Convention : Reuss Voigt Hill
#
# Bulk Modulus (GPa) = 13.80626 20.15805 16.98215
# Shear Modulus (GPa) = 11.71250 18.60823 15.16037
#
# Velocity S-wave (km/s) = 2.44573 3.08274 2.78252
# Velocity P-wave (km/s) = 3.87639 4.79226 4.35845
#
# Compressibility (1/GPa) = 0.07243091
#
# Stress axis : x y z
#
# Youngs Moduli (GPa) = 53.16832 39.66290 21.27997
#
# Poissons Ratio (x) = 0.11148 -0.23352
# Poissons Ratio (y) = 0.14945 0.37142
# Poissons Ratio (z) = -0.58346 0.69228
#
# Static dielectric constant tensor:
#      x y z
#    x 1.714240 0.000000 0.015890 
#    y 0.000000 1.700600 0.000000 
#    z 0.015890 0.000000 1.678380 
# 
# From -- ./inp_files/11822.got.cif
#   From: 2010.05.17/outbox.cif.g08.bks.cpg/sg11_6_cif.got.tgz:11822.got - 2010.06.03 12:22:45.
