data_PCOD9158123
_publ_section_title
;
Structure prediction by ZEFSAII (Michael W. Deem and Ramdas Pophale) SiO2 
 PCOD9158123
Probable space group: P 21/M
;
_chemical_formula_sum "Si O2"
_cell_formula_units_Z 32
_cell_length_a 22.561531
_cell_length_b 8.345113
_cell_length_c 29.269568
_cell_angle_alpha 90.000000
_cell_angle_beta 162.246731
_cell_angle_gamma 90.000000
_cell_volume 1680.355112
_symmetry_space_group_name_H-M "P 21/M"
_symmetry_group_IT_number 11
_symmetry_cell_setting 'monoclinic'
loop_
_space_group_symop_operation_xyz
x,y,z
-x,1/2+y,-z
-x,-y,-z
x,1/2-y,z
loop_
_atom_site_type_symbol
_atom_site_label
_atom_site_fract_x
_atom_site_fract_y
_atom_site_fract_z
Si Si1 0.900566 0.445146 0.593583
Si Si2 0.043064 0.056193 0.603566
Si Si3 0.453740 0.443889 0.251328
Si Si4 0.509089 0.441517 0.454805
Si Si5 0.084393 0.553831 0.291589
Si Si6 0.303145 0.443158 0.042825
Si Si7 0.781299 0.439815 0.833268
Si Si8 0.689936 0.557841 0.281205
O O1 0.906527 0.250000 0.598652
O O2 0.035002 0.498680 0.650147
O O3 0.679283 0.491749 0.419236
O O4 0.944538 0.499036 0.677232
O O5 0.040965 0.250000 0.601892
O O6 0.222334 0.004164 0.703307
O O7 0.847175 0.000474 0.434054
O O8 0.448973 0.250000 0.248388
O O9 0.355325 0.500473 0.132107
O O10 0.342923 0.504164 0.214375
O O11 0.500000 0.500000 0.500000
O O12 0.514277 0.250000 0.458540
O O13 0.707740 0.498630 0.575796
O O14 0.325197 0.495879 0.290105
O O15 0.086428 0.750000 0.293201
O O16 0.903988 0.500768 0.128147
O O17 0.297134 0.250000 0.040110
O O18 0.479780 0.491695 0.139595
O O19 0.782943 0.250000 0.832145
O O20 0.000000 0.500000 0.000000
O O21 0.684193 0.750000 0.277814
#
# Coordination Sequence:
#
# PCOD9158123 Si02
#       8
#     4   4   4   4   4   4   4   4
#     4   9  15  31  57  81 104 141 188 232 277 334
#     4   9  17  31  53  78 106 146 188 228 285 343
#     4  10  19  35  60  84 111 146 190 240 286 341
#     4  11  23  42  64  91 122 157 200 242 293 353
#     4   9  19  35  58  83 108 144 190 233 273 338
#     4  10  20  35  56  81 111 150 189 227 281 345
#     4  12  26  43  63  90 122 156 195 245 299 353
#     4  10  19  30  48  79 114 143 182 237 284 331
#
# _framework density 19.043593000000001
#
# number of rings (size 3 to 8) (size 9 to 14) (size 15 to 20)
#    0.000    2.000    2.500    1.875    1.750    1.000 
#    0.000    1.875    0.000    0.000    0.000    0.000 
#    0.000    0.000    0.000    0.000    0.000    0.000 
#
# Total GULP energy -178635.941811 kJ/mol
# GULP energy per Si atom -5582.373182 kJ/mol
# Density = 1.900025 g / cm^3
# Si number density = 19.043593 Si / 1000 Ang^3
#
#
#
# Elastic Constant Matrix: (Units=GPa)
#
#
# Indices 1 2 3 4 5 6 
#
# 1 139.6676 11.1879 50.5917 0.0000 -20.0380 0.0000
# 2 11.1879 13.1420 14.5468 0.0000 -5.2081 0.0000
# 3 50.5917 14.5468 109.0018 0.0000 -20.6656 0.0000
# 4 0.0000 0.0000 0.0000 17.1988 0.0000 3.7125
# 5 -20.0380 -5.2081 -20.6656 0.0000 28.9987 0.0000
# 6 0.0000 0.0000 0.0000 3.7125 0.0000 27.7187
#
#
#
# Elastic Compliance Matrix: (Units=1/GPa)
#
#
# Indices 1 2 3 4 5 6 
#
# 1 0.009028 -0.002813 -0.003154 0.000000 0.003485 0.000000
# 2 -0.002813 0.092107 -0.009503 0.000000 0.007826 0.000000
# 3 -0.003154 -0.009503 0.012914 0.000000 0.005317 0.000000
# 4 0.000000 0.000000 0.000000 0.059875 0.000000 -0.008019
# 5 0.003485 0.007826 0.005317 0.000000 0.042088 0.000000
# 6 0.000000 0.000000 0.000000 -0.008019 0.000000 0.037151
#
#
# Mechanical properties :
#
#
# Convention : Reuss Voigt Hill
#
# Bulk Modulus (GPa) = 12.03232 46.05155 29.04194
# Shear Modulus (GPa) = 16.03573 27.14891 21.59232
#
# Velocity S-wave (km/s) = 2.90496 3.77983 3.37090
# Velocity P-wave (km/s) = 4.19330 6.57907 5.51670
#
# Compressibility (1/GPa) = 0.08310947
#
# Stress axis : x y z
#
# Youngs Moduli (GPa) = 110.77080 10.85698 77.43395
#
# Poissons Ratio (x) = 0.03054 0.24422
# Poissons Ratio (y) = 0.31161 0.73582
# Poissons Ratio (z) = 0.34936 0.10317
#
# Static dielectric constant tensor:
#      x y z
#    x 1.681020 0.000000 0.002930 
#    y 0.000000 1.642130 0.000000 
#    z 0.002930 0.000000 1.634840 
# 
# From -- ./inp_files/72230.got.cif
#   From: 2010.05.17/outbox.cif.g08.bks.cpg/sg11_37_cif.got.tgz:72230.got - 2010.06.03 12:22:45.
