data_PCOD9158374
_publ_section_title
;
Structure prediction by ZEFSAII (Michael W. Deem and Ramdas Pophale) SiO2 
 PCOD9158374
Probable space group: P 21/M
;
_chemical_formula_sum "Si O2"
_cell_formula_units_Z 32
_cell_length_a 17.520335
_cell_length_b 7.430504
_cell_length_c 24.229076
_cell_angle_alpha 90.000000
_cell_angle_beta 26.142184
_cell_angle_gamma 90.000000
_cell_volume 1389.767793
_symmetry_space_group_name_H-M "P 21/M"
_symmetry_group_IT_number 11
_symmetry_cell_setting 'monoclinic'
loop_
_space_group_symop_operation_xyz
x,y,z
-x,1/2+y,-z
-x,-y,-z
x,1/2-y,z
loop_
_atom_site_type_symbol
_atom_site_label
_atom_site_fract_x
_atom_site_fract_y
_atom_site_fract_z
Si Si1 0.703923 0.530767 0.966348
Si Si2 0.760735 0.955534 0.809201
Si Si3 0.388744 0.470318 0.327834
Si Si4 0.905638 0.466218 0.259919
Si Si5 0.335682 0.455686 0.245371
Si Si6 0.853531 0.043625 0.175978
Si Si7 0.769489 0.030777 0.109691
Si Si8 0.848815 0.962659 0.418398
O O1 0.699764 0.750000 0.969887
O O2 0.681018 0.469190 0.917478
O O3 0.894250 0.472340 0.862728
O O4 0.544285 0.458664 0.104675
O O5 0.698125 0.750000 0.845966
O O6 0.727844 0.040989 0.770811
O O7 0.965113 0.953418 0.689092
O O8 0.388700 0.250000 0.326486
O O9 0.298511 0.533432 0.329869
O O10 0.588568 0.525642 0.201272
O O11 0.290914 0.526616 0.446736
O O12 0.913748 0.250000 0.249985
O O13 0.809569 0.507455 0.379448
O O14 0.825510 0.536211 0.254839
O O15 0.270429 0.250000 0.288292
O O16 0.792299 0.250000 0.217346
O O17 0.778438 0.967697 0.167771
O O18 0.061169 0.039191 0.031339
O O19 0.780922 0.250000 0.101939
O O20 0.869820 0.750000 0.412648
#
# Coordination Sequence:
#
# PCOD9158374 Si02
#       8
#     4   4   4   4   4   4   4   4
#     4   9  17  29  45  68  98 123 148 193 242 280
#     4   9  19  34  49  68  96 126 155 194 243 285
#     4   9  19  34  49  69  97 126 159 199 239 277
#     4   9  18  33  50  70  98 128 159 196 239 282
#     4  10  19  31  49  70  94 126 159 192 236 290
#     4   9  17  30  51  77 102 128 157 191 233 282
#     4   9  17  31  51  74 103 133 156 187 235 285
#     4  10  20  34  51  68  90 124 165 204 237 276
#
# _framework density 23.025428000000002
#
# number of rings (size 3 to 8) (size 9 to 14) (size 15 to 20)
#    0.000    2.750    0.000    2.250    0.000    3.500 
#    0.000    3.125    0.000    0.000    0.000    0.000 
#    0.000    0.000    0.000    0.000    0.000    0.000 
#
# Total GULP energy -178624.195536 kJ/mol
# GULP energy per Si atom -5582.006111 kJ/mol
# Density = 2.297302 g / cm^3
# Si number density = 23.025428 Si / 1000 Ang^3
#
#
#
# Elastic Constant Matrix: (Units=GPa)
#
#
# Indices 1 2 3 4 5 6 
#
# 1 136.1127 0.9692 31.3758 0.0000 50.3278 0.0000
# 2 0.9692 80.7770 -13.5178 0.0000 -1.4708 0.0000
# 3 31.3758 -13.5178 28.2685 0.0000 24.9361 0.0000
# 4 0.0000 0.0000 0.0000 1.4137 0.0000 4.2751
# 5 50.3278 -1.4708 24.9361 0.0000 36.4867 0.0000
# 6 0.0000 0.0000 0.0000 4.2751 0.0000 4.4482
#
#
#
# Elastic Compliance Matrix: (Units=1/GPa)
#
#
# Indices 1 2 3 4 5 6 
#
# 1 0.015179 0.000084 0.004176 0.000000 -0.023788 0.000000
# 2 0.000084 0.014977 0.016715 0.000000 -0.010935 0.000000
# 3 0.004176 0.016715 0.108830 0.000000 -0.079464 0.000000
# 4 0.000000 0.000000 0.000000 -0.371048 0.000000 0.356609
# 5 -0.023788 -0.010935 -0.079464 0.000000 0.114087 0.000000
# 6 0.000000 0.000000 0.000000 0.356609 0.000000 -0.117924
#
#
# Mechanical properties :
#
#
# Convention : Reuss Voigt Hill
#
# Bulk Modulus (GPa) = 5.52681 31.42363 18.47522
# Shear Modulus (GPa) = -22.98459 23.55845 0.28693
#
# Velocity S-wave (km/s) = -3.16290 3.20214 0.35339
# Velocity P-wave (km/s) = 3.30652 5.22959 2.86492
#
# Compressibility (1/GPa) = 0.18093614
#
# Stress axis : x y z
#
# Youngs Moduli (GPa) = 65.87886 66.76939 9.18868
#
# Poissons Ratio (x) = -0.00558 -0.03837
# Poissons Ratio (y) = -0.00551 -0.15359
# Poissons Ratio (z) = -0.27512 -1.11608
#
# Static dielectric constant tensor:
#      x y z
#    x 1.895780 0.000000 0.041760 
#    y 0.000000 1.865640 0.000000 
#    z 0.041760 0.000000 1.821740 
# 
# From -- ./inp_files/43827.got.cif
#   From: 2010.05.17/outbox.cif.g08.bks.cpg/sg11_22_cif.got.tgz:43827.got - 2010.06.03 12:22:45.
