data_PCOD9158567
_publ_section_title
;
Structure prediction by ZEFSAII (Michael W. Deem and Ramdas Pophale) SiO2 
 PCOD9158567
Probable space group: P 21/M
;
_chemical_formula_sum "Si O2"
_cell_formula_units_Z 24
_cell_length_a 23.875466
_cell_length_b 9.449467
_cell_length_c 5.388054
_cell_angle_alpha 90.000000
_cell_angle_beta 97.727718
_cell_angle_gamma 90.000000
_cell_volume 1204.561402
_symmetry_space_group_name_H-M "P 21/M"
_symmetry_group_IT_number 11
_symmetry_cell_setting 'monoclinic'
loop_
_space_group_symop_operation_xyz
x,y,z
-x,1/2+y,-z
-x,-y,-z
x,1/2-y,z
loop_
_atom_site_type_symbol
_atom_site_label
_atom_site_fract_x
_atom_site_fract_y
_atom_site_fract_z
Si Si1 0.323727 0.078905 0.713714
Si Si2 0.872856 0.921669 0.928397
Si Si3 0.412355 0.907254 0.494426
Si Si4 0.256293 0.421056 0.168917
Si Si5 0.530549 0.594739 0.818336
Si Si6 0.059810 0.078356 0.531570
O O1 0.333518 0.250000 0.719026
O O2 0.285185 0.044560 0.448673
O O3 0.379613 0.987418 0.693277
O O4 0.292063 0.037398 0.947670
O O5 0.870669 0.750000 0.926780
O O6 0.808200 0.973236 0.884230
O O7 0.906407 0.961441 0.698908
O O8 0.904975 0.961362 0.200476
O O9 0.389128 0.750000 0.430465
O O10 0.478466 0.886823 0.596039
O O11 0.416213 0.017401 0.271213
O O12 0.254193 0.250000 0.158365
O O13 0.546255 0.750000 0.921189
O O14 0.500000 0.500000 0.000000
O O15 0.052659 0.250000 0.527747
O O16 0.000000 0.000000 0.500000
#
# Coordination Sequence:
#
# PCOD9158567 Si02
#       6
#     4   4   4   4   4   4
#     4  10  20  34  55  82 107 137 178 229 276 320
#     4   9  17  31  52  76 104 140 180 223 267 316
#     4  10  22  38  54  78 109 144 180 223 275 335
#     4   9  18  33  54  80 106 136 182 229 270 316
#     4  10  21  37  58  81 107 141 181 224 277 334
#     4  10  19  31  51  78 107 140 177 219 269 319
#
# _framework density 19.924261999999999
#
# number of rings (size 3 to 8) (size 9 to 14) (size 15 to 20)
#    0.000    2.333    0.000    2.500    2.333    6.000 
#    0.000    0.000    0.000    6.000    0.000    0.000 
#    0.000    0.000    0.000    0.000    0.000    0.000 
#
# Total GULP energy -133836.903233 kJ/mol
# GULP energy per Si atom -5576.537635 kJ/mol
# Density = 1.987891 g / cm^3
# Si number density = 19.924262 Si / 1000 Ang^3
#
#
#
# Elastic Constant Matrix: (Units=GPa)
#
#
# Indices 1 2 3 4 5 6 
#
# 1 134.3862 24.7406 66.5424 0.0000 -9.4354 0.0000
# 2 24.7406 78.1285 23.2155 0.0000 -14.9308 0.0000
# 3 66.5424 23.2155 137.5538 0.0000 -13.0611 0.0000
# 4 0.0000 0.0000 0.0000 10.5055 0.0000 -2.2764
# 5 -9.4354 -14.9308 -13.0611 0.0000 41.8284 0.0000
# 6 0.0000 0.0000 0.0000 -2.2764 0.0000 24.5727
#
#
#
# Elastic Compliance Matrix: (Units=1/GPa)
#
#
# Indices 1 2 3 4 5 6 
#
# 1 0.010028 -0.001790 -0.004529 0.000000 0.000209 0.000000
# 2 -0.001790 0.014560 -0.001171 0.000000 0.004428 0.000000
# 3 -0.004529 -0.001171 0.009813 0.000000 0.001624 0.000000
# 4 0.000000 0.000000 0.000000 0.097138 0.000000 0.008999
# 5 0.000209 0.004428 0.001624 0.000000 0.026042 0.000000
# 6 0.000000 0.000000 0.000000 0.008999 0.000000 0.041529
#
#
# Mechanical properties :
#
#
# Convention : Reuss Voigt Hill
#
# Bulk Modulus (GPa) = 51.49073 64.34062 57.91568
# Shear Modulus (GPa) = 22.66909 31.08599 26.87754
#
# Velocity S-wave (km/s) = 3.37673 3.95423 3.67684
# Velocity P-wave (km/s) = 6.41112 7.29456 6.86706
#
# Compressibility (1/GPa) = 0.01942097
#
# Stress axis : x y z
#
# Youngs Moduli (GPa) = 99.71984 68.67942 101.90746
#
# Poissons Ratio (x) = 0.12292 0.46156
# Poissons Ratio (y) = 0.17848 0.11935
# Poissons Ratio (z) = 0.45165 0.08043
#
# Static dielectric constant tensor:
#      x y z
#    x 1.715780 0.000000 0.051230 
#    y 0.000000 1.769370 0.000000 
#    z 0.051230 0.000000 1.752880 
# 
# From -- ./inp_files/9247.got.cif
#   From: 2010.05.17/outbox.cif.g08.bks.cpg/sg11_5_cif.got.tgz:9247.got - 2010.06.03 12:22:45.
