data_PCOD9158252
_publ_section_title
;
Structure prediction by ZEFSAII (Michael W. Deem and Ramdas Pophale) SiO2 
 PCOD9158252
Probable space group: P 21/M
;
_chemical_formula_sum "Si O2"
_cell_formula_units_Z 32
_cell_length_a 23.815606
_cell_length_b 7.427033
_cell_length_c 12.110566
_cell_angle_alpha 90.000000
_cell_angle_beta 143.932569
_cell_angle_gamma 90.000000
_cell_volume 1261.138374
_symmetry_space_group_name_H-M "P 21/M"
_symmetry_group_IT_number 11
_symmetry_cell_setting 'monoclinic'
loop_
_space_group_symop_operation_xyz
x,y,z
-x,1/2+y,-z
-x,-y,-z
x,1/2-y,z
loop_
_atom_site_type_symbol
_atom_site_label
_atom_site_fract_x
_atom_site_fract_y
_atom_site_fract_z
Si Si1 0.596289 0.544160 0.322663
Si Si2 0.899360 0.044921 0.675440
Si Si3 0.062114 0.965391 0.490950
Si Si4 0.733282 0.466473 0.099452
Si Si5 0.229978 0.950112 0.084932
Si Si6 0.430649 0.465674 0.490837
Si Si7 0.811296 0.471249 0.750583
Si Si8 0.313761 0.463579 0.743705
O O1 0.564547 0.750000 0.259333
O O2 0.540396 0.470396 0.340508
O O3 0.707196 0.537073 0.543034
O O4 0.608038 0.464827 0.219148
O O5 0.931317 0.250000 0.741339
O O6 0.957157 0.963290 0.663455
O O7 0.886702 0.966535 0.777782
O O8 0.788936 0.046957 0.453925
O O9 0.064959 0.750000 0.483659
O O10 0.166245 0.028105 0.691095
O O11 0.000000 0.000000 0.500000
O O12 0.726139 0.250000 0.077523
O O13 0.664312 0.510519 0.092159
O O14 0.742643 0.536707 0.989066
O O15 0.189982 0.750000 0.998312
O O16 0.171879 0.031267 0.095899
O O17 0.333356 0.938917 0.304464
O O18 0.500000 0.500000 0.500000
O O19 0.415514 0.250000 0.473337
O O20 0.809485 0.250000 0.747842
O O21 0.304007 0.250000 0.709577
#
# Coordination Sequence:
#
# PCOD9158252 Si02
#       8
#     4   4   4   4   4   4   4   4
#     4   8  15  26  40  61  88 113 138 176 219 251
#     4   8  14  25  40  60  85 109 138 179 220 254
#     4   9  17  28  42  61  86 116 147 180 218 259
#     4   9  18  31  45  64  91 118 144 179 222 263
#     4   9  17  30  48  68  89 115 146 179 219 265
#     4  10  19  31  47  68  94 120 146 178 216 258
#     4   8  13  23  42  64  82 105 140 178 214 256
#     4   9  15  24  41  64  86 110 143 179 215 255
#
# _framework density 25.373899000000002
#
# number of rings (size 3 to 8) (size 9 to 14) (size 15 to 20)
#    0.000    3.250    0.000    1.500    0.000    3.500 
#    0.000    0.000    0.000    1.500    0.000    0.000 
#    0.000    0.000    0.000    0.000    0.000    1.500 
#
# Total GULP energy -178144.051892 kJ/mol
# GULP energy per Si atom -5567.001622 kJ/mol
# Density = 2.531615 g / cm^3
# Si number density = 25.373899 Si / 1000 Ang^3
#
#
#
# Elastic Constant Matrix: (Units=GPa)
#
#
# Indices 1 2 3 4 5 6 
#
# 1 239.3766 4.2427 59.0521 0.0000 -102.0140 0.0000
# 2 4.2427 107.2975 -2.4656 0.0000 -7.8303 0.0000
# 3 59.0521 -2.4656 67.6684 0.0000 -30.9786 0.0000
# 4 0.0000 0.0000 0.0000 3.0866 0.0000 -3.4460
# 5 -102.0140 -7.8303 -30.9786 0.0000 67.2342 0.0000
# 6 0.0000 0.0000 0.0000 -3.4460 0.0000 18.9548
#
#
#
# Elastic Compliance Matrix: (Units=1/GPa)
#
#
# Indices 1 2 3 4 5 6 
#
# 1 0.012270 0.000728 -0.002686 0.000000 0.017464 0.000000
# 2 0.000728 0.009504 0.000917 0.000000 0.002633 0.000000
# 3 -0.002686 0.000917 0.019439 0.000000 0.004988 0.000000
# 4 0.000000 0.000000 0.000000 0.406480 0.000000 0.073899
# 5 0.017464 0.002633 0.004988 0.000000 0.043976 0.000000
# 6 0.000000 0.000000 0.000000 0.073899 0.000000 0.066192
#
#
# Mechanical properties :
#
#
# Convention : Reuss Voigt Hill
#
# Bulk Modulus (GPa) = 25.55577 59.55565 42.55571
# Shear Modulus (GPa) = 8.72620 41.42270 25.07445
#
# Velocity S-wave (km/s) = 1.85648 4.04479 3.14697
# Velocity P-wave (km/s) = 3.83261 6.73320 5.47836
#
# Compressibility (1/GPa) = 0.03913011
#
# Stress axis : x y z
#
# Youngs Moduli (GPa) = 81.50135 105.21492 51.44354
#
# Poissons Ratio (x) = -0.07655 0.13817
# Poissons Ratio (y) = -0.05930 -0.04717
# Poissons Ratio (z) = 0.21890 -0.09647
#
# Static dielectric constant tensor:
#      x y z
#    x 2.218560 0.000000 -0.063320 
#    y 0.000000 2.026670 0.000000 
#    z -0.063320 0.000000 2.017550 
# 
# From -- ./inp_files/42173.got.cif
#   From: 2010.05.17/outbox.cif.g08.bks.cpg/sg11_22_cif.got.tgz:42173.got - 2010.06.03 12:22:45.
