data_PCOD9158225
_publ_section_title
;
Structure prediction by ZEFSAII (Michael W. Deem and Ramdas Pophale) SiO2 
 PCOD9158225
Probable space group: P 21/M
;
_chemical_formula_sum "Si O2"
_cell_formula_units_Z 24
_cell_length_a 11.829125
_cell_length_b 7.589810
_cell_length_c 20.463894
_cell_angle_alpha 90.000000
_cell_angle_beta 136.130949
_cell_angle_gamma 90.000000
_cell_volume 1273.247637
_symmetry_space_group_name_H-M "P 21/M"
_symmetry_group_IT_number 11
_symmetry_cell_setting 'monoclinic'
loop_
_space_group_symop_operation_xyz
x,y,z
-x,1/2+y,-z
-x,-y,-z
x,1/2-y,z
loop_
_atom_site_type_symbol
_atom_site_label
_atom_site_fract_x
_atom_site_fract_y
_atom_site_fract_z
Si Si1 0.263924 0.042687 0.849868
Si Si2 0.906108 0.457242 0.689070
Si Si3 0.383305 0.964456 0.042679
Si Si4 0.189886 0.538746 0.089226
Si Si5 0.612553 0.541374 0.483997
Si Si6 0.685050 0.033479 0.718222
O O1 0.262737 0.250000 0.832990
O O2 0.429859 0.971476 0.886664
O O3 0.087459 0.967235 0.757723
O O4 0.288962 0.022716 0.938129
O O5 0.926300 0.250000 0.710849
O O6 0.790061 0.472821 0.577558
O O7 0.806455 0.526997 0.710636
O O8 0.383759 0.750000 0.042107
O O9 0.294028 0.025990 0.070852
O O10 0.208401 0.750000 0.098143
O O11 0.253654 0.473703 0.185823
O O12 0.000000 0.500000 0.000000
O O13 0.500000 0.500000 0.500000
O O14 0.628855 0.750000 0.484547
O O15 0.499458 0.477589 0.377277
O O16 0.685672 0.250000 0.717299
#
# Coordination Sequence:
#
# PCOD9158225 Si02
#       6
#     4   4   4   4   4   4
#     4   9  17  30  47  65  89 119 147 180 223 265
#     4   9  16  27  44  64  85 112 146 179 217 262
#     4   9  18  30  45  67  90 115 150 186 217 256
#     4  10  19  31  46  65  90 117 147 179 214 261
#     4   9  16  27  43  63  86 112 143 178 218 259
#     4   8  15  27  42  60  84 114 141 169 211 260
#
# _framework density 18.849435
#
# number of rings (size 3 to 8) (size 9 to 14) (size 15 to 20)
#    0.000    3.000    0.000    2.500    0.000    2.667 
#    0.000    5.833    0.000    1.000    0.000    0.000 
#    0.000    0.000    0.000    0.000    0.000    0.667 
#
# Total GULP energy -133709.651535 kJ/mol
# GULP energy per Si atom -5571.235481 kJ/mol
# Density = 1.880653 g / cm^3
# Si number density = 18.849435 Si / 1000 Ang^3
#
#
#
# Elastic Constant Matrix: (Units=GPa)
#
#
# Indices 1 2 3 4 5 6 
#
# 1 93.7356 -0.3032 80.2047 0.0000 7.9426 0.0000
# 2 -0.3032 33.1048 -12.6272 0.0000 3.7989 0.0000
# 3 80.2047 -12.6272 178.8754 0.0000 24.6629 0.0000
# 4 0.0000 0.0000 0.0000 19.6307 0.0000 0.1223
# 5 7.9426 3.7989 24.6629 0.0000 32.0769 0.0000
# 6 0.0000 0.0000 0.0000 0.1223 0.0000 8.8105
#
#
#
# Elastic Compliance Matrix: (Units=1/GPa)
#
#
# Indices 1 2 3 4 5 6 
#
# 1 0.017764 -0.003400 -0.008562 0.000000 0.002587 0.000000
# 2 -0.003400 0.032761 0.004761 0.000000 -0.006698 0.000000
# 3 -0.008562 0.004761 0.010683 0.000000 -0.006658 0.000000
# 4 0.000000 0.000000 0.000000 0.050945 0.000000 -0.000707
# 5 0.002587 -0.006698 -0.006658 0.000000 0.036447 0.000000
# 6 0.000000 0.000000 0.000000 -0.000707 0.000000 0.113511
#
#
# Mechanical properties :
#
#
# Convention : Reuss Voigt Hill
#
# Bulk Modulus (GPa) = 21.36480 48.91825 35.14152
# Shear Modulus (GPa) = 17.11657 27.99973 22.55815
#
# Velocity S-wave (km/s) = 3.01669 3.85832 3.46317
# Velocity P-wave (km/s) = 4.84695 6.77180 5.88856
#
# Compressibility (1/GPa) = 0.04680597
#
# Stress axis : x y z
#
# Youngs Moduli (GPa) = 56.29385 30.52453 93.60251
#
# Poissons Ratio (x) = 0.10378 0.80140
# Poissons Ratio (y) = 0.19139 -0.44561
# Poissons Ratio (z) = 0.48197 -0.14532
#
# Static dielectric constant tensor:
#      x y z
#    x 1.641500 0.000000 0.025170 
#    y 0.000000 1.708460 0.000000 
#    z 0.025170 0.000000 1.675290 
# 
# From -- ./inp_files/37249.got.cif
#   From: 2010.05.17/outbox.cif.g08.bks.cpg/sg11_19_cif.got.tgz:37249.got - 2010.06.03 12:22:45.
