data_PCOD9158666
_publ_section_title
;
Structure prediction by ZEFSAII (Michael W. Deem and Ramdas Pophale) SiO2 
 PCOD9158666
Probable space group: P 21/M
;
_chemical_formula_sum "Si O2"
_cell_formula_units_Z 32
_cell_length_a 25.464279
_cell_length_b 7.526713
_cell_length_c 16.197394
_cell_angle_alpha 90.000000
_cell_angle_beta 29.138258
_cell_angle_gamma 90.000000
_cell_volume 1511.605117
_symmetry_space_group_name_H-M "P 21/M"
_symmetry_group_IT_number 11
_symmetry_cell_setting 'monoclinic'
loop_
_space_group_symop_operation_xyz
x,y,z
-x,1/2+y,-z
-x,-y,-z
x,1/2-y,z
loop_
_atom_site_type_symbol
_atom_site_label
_atom_site_fract_x
_atom_site_fract_y
_atom_site_fract_z
Si Si1 0.893712 0.538379 0.196172
Si Si2 0.505033 0.960051 0.588854
Si Si3 0.252889 0.467602 0.746868
Si Si4 0.847947 0.538378 0.938025
Si Si5 0.335243 0.037682 0.264331
Si Si6 0.094522 0.035184 0.633574
Si Si7 0.680128 0.549457 0.037700
Si Si8 0.454085 0.035925 0.935535
O O1 0.876076 0.750000 0.228656
O O2 0.807315 0.466774 0.251371
O O3 0.904605 0.468902 0.273189
O O4 0.000000 0.500000 0.000000
O O5 0.492765 0.750000 0.621251
O O6 0.625657 0.017694 0.440159
O O7 0.500000 0.000000 0.500000
O O8 0.412198 0.055181 0.766071
O O9 0.247814 0.250000 0.757053
O O10 0.202035 0.527707 0.904991
O O11 0.828683 0.750000 0.964616
O O12 0.977215 0.511904 0.757478
O O13 0.781711 0.468306 0.948864
O O14 0.328695 0.250000 0.266229
O O15 0.211323 0.973665 0.439150
O O16 0.418388 0.005417 0.226478
O O17 0.394855 0.970145 0.100106
O O18 0.096750 0.250000 0.629094
O O19 0.712770 0.750000 0.967900
O O20 0.615726 0.470227 0.047231
O O21 0.449654 0.250000 0.938574
#
# Coordination Sequence:
#
# PCOD9158666 Si02
#       8
#     4   4   4   4   4   4   4   4
#     4  10  19  32  48  69  98 133 171 210 252 305
#     4  11  21  34  53  76 106 143 182 222 265 315
#     4   9  18  32  48  67  98 138 173 208 256 308
#     4  10  19  35  54  70 102 145 180 214 257 314
#     4   9  19  37  59  82 109 138 169 218 279 327
#     4  10  21  34  52  78 106 135 175 221 265 316
#     4  10  21  37  54  78 108 141 182 223 269 319
#     4   9  19  37  60  82 107 138 174 219 270 328
#
# _framework density 21.169547999999999
#
# number of rings (size 3 to 8) (size 9 to 14) (size 15 to 20)
#    0.000    2.250    2.500    0.375    1.750    1.500 
#    0.000    1.875    0.000    0.000    0.000    0.000 
#    0.000    0.000    0.000    0.000    0.000    0.000 
#
# Total GULP energy -178257.473282 kJ/mol
# GULP energy per Si atom -5570.546040 kJ/mol
# Density = 2.112137 g / cm^3
# Si number density = 21.169548 Si / 1000 Ang^3
#
#
#
# Elastic Constant Matrix: (Units=GPa)
#
#
# Indices 1 2 3 4 5 6 
#
# 1 181.3568 1.5555 57.8164 0.0000 -36.3109 0.0000
# 2 1.5555 57.7669 -0.4494 0.0000 -2.4537 0.0000
# 3 57.8164 -0.4494 101.9014 0.0000 -30.7935 0.0000
# 4 0.0000 0.0000 0.0000 17.6670 0.0000 -3.0105
# 5 -36.3109 -2.4537 -30.7935 0.0000 42.3843 0.0000
# 6 0.0000 0.0000 0.0000 -3.0105 0.0000 4.9105
#
#
#
# Elastic Compliance Matrix: (Units=1/GPa)
#
#
# Indices 1 2 3 4 5 6 
#
# 1 0.007256 -0.000042 -0.002869 0.000000 0.004129 0.000000
# 2 -0.000042 0.017373 0.000504 0.000000 0.001336 0.000000
# 3 -0.002869 0.000504 0.013722 0.000000 0.007541 0.000000
# 4 0.000000 0.000000 0.000000 0.063205 0.000000 0.038750
# 5 0.004129 0.001336 0.007541 0.000000 0.032687 0.000000
# 6 0.000000 0.000000 0.000000 0.038750 0.000000 0.227403
#
#
# Mechanical properties :
#
#
# Convention : Reuss Voigt Hill
#
# Bulk Modulus (GPa) = 29.81824 50.98555 40.40190
# Shear Modulus (GPa) = 13.24014 31.79920 22.51967
#
# Velocity S-wave (km/s) = 2.50358 3.87992 3.26510
# Velocity P-wave (km/s) = 4.74059 6.64894 5.77415
#
# Compressibility (1/GPa) = 0.03353652
#
# Stress axis : x y z
#
# Youngs Moduli (GPa) = 137.82157 57.56135 72.87411
#
# Poissons Ratio (x) = 0.00244 0.20909
# Poissons Ratio (y) = 0.00583 -0.03675
# Poissons Ratio (z) = 0.39543 -0.02903
#
# Static dielectric constant tensor:
#      x y z
#    x 1.763670 0.000000 0.001580 
#    y 0.000000 1.757190 0.000000 
#    z 0.001580 0.000000 1.717640 
# 
# From -- ./inp_files/55525.got.cif
#   From: 2010.05.17/outbox.cif.g08.bks.cpg/sg11_28_cif.got.tgz:55525.got - 2010.06.03 12:22:45.
