data_PCOD9158085
_publ_section_title
;
Structure prediction by ZEFSAII (Michael W. Deem and Ramdas Pophale) SiO2 
 PCOD9158085
Probable space group: P 21/M
;
_chemical_formula_sum "Si O2"
_cell_formula_units_Z 28
_cell_length_a 21.466500
_cell_length_b 7.343213
_cell_length_c 24.163558
_cell_angle_alpha 90.000000
_cell_angle_beta 162.676539
_cell_angle_gamma 90.000000
_cell_volume 1134.182808
_symmetry_space_group_name_H-M "P 21/M"
_symmetry_group_IT_number 11
_symmetry_cell_setting 'monoclinic'
loop_
_space_group_symop_operation_xyz
x,y,z
-x,1/2+y,-z
-x,-y,-z
x,1/2-y,z
loop_
_atom_site_type_symbol
_atom_site_label
_atom_site_fract_x
_atom_site_fract_y
_atom_site_fract_z
Si Si1 0.331783 0.958255 0.935959
Si Si2 0.644282 0.026745 0.920438
Si Si3 0.088817 0.026793 0.263220
Si Si4 0.794720 0.539999 0.752356
Si Si5 0.721934 0.970675 0.809685
Si Si6 0.204455 0.532939 0.710992
Si Si7 0.642135 0.957583 0.412878
O O1 0.258492 0.750000 0.879865
O O2 0.206077 0.034189 0.776383
O O3 0.323389 0.039364 0.989983
O O4 0.578921 0.958985 0.130462
O O5 0.633588 0.250000 0.912505
O O6 0.440698 0.962615 0.714597
O O7 0.846806 0.977141 0.056421
O O8 0.100437 0.250000 0.272445
O O9 0.216939 0.959102 0.318892
O O10 0.177219 0.960520 0.396577
O O11 0.729804 0.750000 0.694165
O O12 0.689871 0.464605 0.718907
O O13 0.044534 0.532520 0.976279
O O14 0.718285 0.750000 0.807593
O O15 0.552173 0.042163 0.708727
O O16 0.231725 0.750000 0.736939
O O17 0.000000 0.500000 0.500000
O O18 0.704913 0.750000 0.454027
#
# Coordination Sequence:
#
# PCOD9158085 Si02
#       7
#     4   4   4   4   4   4   4
#     4   9  19  35  57  84 110 142 183 223 264 309
#     4   9  17  32  54  78 103 132 173 219 253 296
#     4   9  17  30  51  76  97 125 170 215 257 304
#     4   9  17  32  51  70  95 128 169 215 261 312
#     4  10  19  30  48  72  98 129 167 213 264 315
#     4  10  20  35  57  85 117 147 178 218 262 311
#     4  10  19  32  53  75  98 132 170 212 262 311
#
# _framework density 24.687380000000001
#
# number of rings (size 3 to 8) (size 9 to 14) (size 15 to 20)
#    0.000    2.571    1.429    0.857    0.000    2.857 
#    0.000    5.714    0.000    0.000    0.000    0.000 
#    0.000    0.000    0.000    0.000    0.000    0.000 
#
# Total GULP energy -156343.402945 kJ/mol
# GULP energy per Si atom -5583.692962 kJ/mol
# Density = 2.463119 g / cm^3
# Si number density = 24.687380 Si / 1000 Ang^3
#
#
#
# Elastic Constant Matrix: (Units=GPa)
#
#
# Indices 1 2 3 4 5 6 
#
# 1 137.0633 -4.3376 31.6603 0.0000 -48.4918 0.0000
# 2 -4.3376 111.3292 -4.3365 0.0000 -5.0898 0.0000
# 3 31.6603 -4.3365 108.4112 0.0000 -42.0348 0.0000
# 4 0.0000 0.0000 0.0000 0.2663 0.0000 3.2838
# 5 -48.4918 -5.0898 -42.0348 0.0000 42.4274 0.0000
# 6 0.0000 0.0000 0.0000 3.2838 0.0000 5.5836
#
#
#
# Elastic Compliance Matrix: (Units=1/GPa)
#
#
# Indices 1 2 3 4 5 6 
#
# 1 0.013123 0.001494 0.003430 0.000000 0.018576 0.000000
# 2 0.001494 0.009311 0.001675 0.000000 0.004484 0.000000
# 3 0.003430 0.001675 0.016055 0.000000 0.020027 0.000000
# 4 0.000000 0.000000 0.000000 -0.600602 0.000000 0.353226
# 5 0.018576 0.004484 0.020027 0.000000 0.065181 0.000000
# 6 0.000000 0.000000 0.000000 0.353226 0.000000 -0.028644
#
#
# Mechanical properties :
#
#
# Convention : Reuss Voigt Hill
#
# Bulk Modulus (GPa) = 19.34751 44.75289 32.05020
# Shear Modulus (GPa) = -9.58691 31.90994 11.16152
#
# Velocity S-wave (km/s) = -1.97275 3.59912 2.12860
# Velocity P-wave (km/s) = 1.63249 5.95305 4.36485
#
# Compressibility (1/GPa) = 0.05168623
#
# Stress axis : x y z
#
# Youngs Moduli (GPa) = 76.20198 107.40201 62.28686
#
# Poissons Ratio (x) = -0.16048 -0.21365
# Poissons Ratio (y) = -0.11386 -0.10431
# Poissons Ratio (z) = -0.26137 -0.17986
#
# Static dielectric constant tensor:
#      x y z
#    x 1.970420 0.000000 -0.056480 
#    y 0.000000 1.971080 0.000000 
#    z -0.056480 0.000000 1.946050 
# 
# From -- ./inp_files/69837.got.cif
#   From: 2010.05.17/outbox.cif.g08.bks.cpg/sg11_35_cif.got.tgz:69837.got - 2010.06.03 12:22:45.
