data_PCOD9158277
_publ_section_title
;
Structure prediction by ZEFSAII (Michael W. Deem and Ramdas Pophale) SiO2 
 PCOD9158277
Probable space group: P 21/M
;
_chemical_formula_sum "Si O2"
_cell_formula_units_Z 28
_cell_length_a 33.693009
_cell_length_b 7.520874
_cell_length_c 9.758187
_cell_angle_alpha 90.000000
_cell_angle_beta 30.846238
_cell_angle_gamma 90.000000
_cell_volume 1267.859004
_symmetry_space_group_name_H-M "P 21/M"
_symmetry_group_IT_number 11
_symmetry_cell_setting 'monoclinic'
loop_
_space_group_symop_operation_xyz
x,y,z
-x,1/2+y,-z
-x,-y,-z
x,1/2-y,z
loop_
_atom_site_type_symbol
_atom_site_label
_atom_site_fract_x
_atom_site_fract_y
_atom_site_fract_z
Si Si1 0.585112 0.463147 0.801655
Si Si2 0.815294 0.958104 0.217807
Si Si3 0.267233 0.534878 0.808105
Si Si4 0.985809 0.536934 0.699949
Si Si5 0.924466 0.037545 0.313583
Si Si6 0.245940 0.968440 0.185101
Si Si7 0.335469 0.548116 0.171421
O O1 0.594171 0.250000 0.783091
O O2 0.651533 0.525432 0.499728
O O3 0.605219 0.533874 0.894489
O O4 0.500000 0.500000 0.000000
O O5 0.811405 0.750000 0.264783
O O6 0.797854 0.976180 0.107248
O O7 0.745689 0.051419 0.503870
O O8 0.900688 0.030204 0.994421
O O9 0.265246 0.750000 0.815181
O O10 0.257835 0.477583 0.992447
O O11 0.982620 0.750000 0.724683
O O12 0.000000 0.500000 0.500000
O O13 0.052604 0.471253 0.602801
O O14 0.916266 0.250000 0.343991
O O15 0.840584 0.971742 0.515272
O O16 0.000000 0.000000 0.000000
O O17 0.248432 0.750000 0.182893
O O18 0.310927 0.032707 0.098885
O O19 0.361675 0.750000 0.066693
#
# Coordination Sequence:
#
# PCOD9158277 Si02
#       7
#     4   4   4   4   4   4   4
#     4   9  18  32  52  76 101 127 158 195 238 290
#     4  10  19  31  47  70  99 130 164 206 249 291
#     4   9  18  34  55  76  97 129 168 204 242 291
#     4  10  21  33  46  68  97 128 167 210 252 292
#     4  10  20  33  49  71  98 131 167 207 251 292
#     4   9  17  32  54  74  95 126 169 211 243 282
#     4   9  18  33  53  75  95 125 165 199 236 290
#
# _framework density 22.084475000000001
#
# number of rings (size 3 to 8) (size 9 to 14) (size 15 to 20)
#    0.000    2.571    0.000    3.000    0.000    5.143 
#    0.000    2.143    0.000    0.000    0.000    0.000 
#    0.000    0.000    0.000    0.000    0.000    0.000 
#
# Total GULP energy -156305.929336 kJ/mol
# GULP energy per Si atom -5582.354619 kJ/mol
# Density = 2.203421 g / cm^3
# Si number density = 22.084475 Si / 1000 Ang^3
#
#
#
# Elastic Constant Matrix: (Units=GPa)
#
#
# Indices 1 2 3 4 5 6 
#
# 1 147.3349 2.6404 24.4907 0.0000 -6.1693 0.0000
# 2 2.6404 61.3923 -2.0230 0.0000 -3.3291 0.0000
# 3 24.4907 -2.0230 34.5319 0.0000 -5.6814 0.0000
# 4 0.0000 0.0000 0.0000 13.7619 0.0000 -2.9188
# 5 -6.1693 -3.3291 -5.6814 0.0000 42.2231 0.0000
# 6 0.0000 0.0000 0.0000 -2.9188 0.0000 12.0553
#
#
#
# Elastic Compliance Matrix: (Units=1/GPa)
#
#
# Indices 1 2 3 4 5 6 
#
# 1 0.007716 -0.000492 -0.005442 0.000000 0.000356 0.000000
# 2 -0.000492 0.016439 0.001548 0.000000 0.001432 0.000000
# 3 -0.005442 0.001548 0.033541 0.000000 0.003840 0.000000
# 4 0.000000 0.000000 0.000000 0.076598 0.000000 0.018545
# 5 0.000356 0.001432 0.003840 0.000000 0.024365 0.000000
# 6 0.000000 0.000000 0.000000 0.018545 0.000000 0.087441
#
#
# Mechanical properties :
#
#
# Convention : Reuss Voigt Hill
#
# Bulk Modulus (GPa) = 20.44076 32.60836 26.52456
# Shear Modulus (GPa) = 18.43795 28.15146 23.29471
#
# Velocity S-wave (km/s) = 2.89257 3.57419 3.25129
# Velocity P-wave (km/s) = 4.52015 5.64185 5.11186
#
# Compressibility (1/GPa) = 0.04892187
#
# Stress axis : x y z
#
# Youngs Moduli (GPa) = 129.60708 60.83272 29.81434
#
# Poissons Ratio (x) = 0.02992 0.16226
# Poissons Ratio (y) = 0.06375 -0.04614
# Poissons Ratio (z) = 0.70536 -0.09414
#
# Static dielectric constant tensor:
#      x y z
#    x 1.862460 0.000000 0.005830 
#    y 0.000000 1.807950 0.000000 
#    z 0.005830 0.000000 1.787670 
# 
# From -- ./inp_files/28288.got.cif
#   From: 2010.05.17/outbox.cif.g08.bks.cpg/sg11_15_cif.got.tgz:28288.got - 2010.06.03 12:22:45.
