data_PCOD9158515
_publ_section_title
;
Structure prediction by ZEFSAII (Michael W. Deem and Ramdas Pophale) SiO2 
 PCOD9158515
Probable space group: P 21/M
;
_chemical_formula_sum "Si O2"
_cell_formula_units_Z 32
_cell_length_a 22.612426
_cell_length_b 8.447317
_cell_length_c 21.211584
_cell_angle_alpha 90.000000
_cell_angle_beta 155.035176
_cell_angle_gamma 90.000000
_cell_volume 1710.074630
_symmetry_space_group_name_H-M "P 21/M"
_symmetry_group_IT_number 11
_symmetry_cell_setting 'monoclinic'
loop_
_space_group_symop_operation_xyz
x,y,z
-x,1/2+y,-z
-x,-y,-z
x,1/2-y,z
loop_
_atom_site_type_symbol
_atom_site_label
_atom_site_fract_x
_atom_site_fract_y
_atom_site_fract_z
Si Si1 0.843323 0.056833 0.211905
Si Si2 0.904404 0.560386 0.465507
Si Si3 0.497152 0.561374 0.340500
Si Si4 0.301911 0.436503 0.263584
Si Si5 0.753386 0.063962 0.654968
Si Si6 0.253686 0.942291 0.018157
Si Si7 0.657857 0.439127 0.152937
Si Si8 0.063632 0.562441 0.953461
O O1 0.840658 0.250000 0.208500
O O2 0.790054 0.999515 0.092854
O O3 0.740561 0.006709 0.169547
O O4 0.002987 0.011652 0.384397
O O5 0.898258 0.750000 0.458217
O O6 0.750510 0.495361 0.302121
O O7 0.000000 0.500000 0.500000
O O8 0.516135 0.750000 0.355976
O O9 0.400281 0.519849 0.307202
O O10 0.645441 0.480405 0.495544
O O11 0.404998 0.507764 0.191421
O O12 0.331206 0.250000 0.293391
O O13 0.315586 0.509670 0.345743
O O14 0.144094 0.468849 0.086233
O O15 0.778505 0.250000 0.680833
O O16 0.900675 0.975057 0.792283
O O17 0.257025 0.750000 0.018911
O O18 0.139948 0.983217 0.961737
O O19 0.657661 0.250000 0.152329
O O20 0.500000 0.500000 0.000000
O O21 0.085807 0.750000 0.985260
#
# Coordination Sequence:
#
# PCOD9158515 Si02
#       8
#     4   4   4   4   4   4   4   4
#     4   8  15  30  53  78  98 128 171 211 245 291
#     4   9  16  28  49  75 104 133 167 204 243 289
#     4  10  20  35  54  76 101 131 167 209 253 301
#     4  11  21  35  54  76 102 131 165 205 252 309
#     4  12  23  35  51  73 102 133 166 208 256 305
#     4   8  16  33  56  76  96 125 169 213 248 293
#     4  10  19  31  50  76 109 139 169 207 252 297
#     4  10  20  35  54  76 100 128 164 209 255 301
#
# _framework density 18.712634000000001
#
# number of rings (size 3 to 8) (size 9 to 14) (size 15 to 20)
#    0.000    2.250    0.000    6.000    0.000    0.000 
#    0.000    1.250    0.000   34.500    0.000    0.000 
#    0.000    0.000    0.000    0.000    0.000    0.000 
#
# Total GULP energy -178532.359789 kJ/mol
# GULP energy per Si atom -5579.136243 kJ/mol
# Density = 1.867004 g / cm^3
# Si number density = 18.712634 Si / 1000 Ang^3
#
#
#
# Elastic Constant Matrix: (Units=GPa)
#
#
# Indices 1 2 3 4 5 6 
#
# 1 36.1481 5.5379 37.0109 0.0000 -20.0038 0.0000
# 2 5.5379 44.0065 5.5254 0.0000 -6.1788 0.0000
# 3 37.0109 5.5254 152.0094 0.0000 -16.6957 0.0000
# 4 0.0000 0.0000 0.0000 33.3254 0.0000 3.8354
# 5 -20.0038 -6.1788 -16.6957 0.0000 31.7262 0.0000
# 6 0.0000 0.0000 0.0000 3.8354 0.0000 14.5873
#
#
#
# Elastic Compliance Matrix: (Units=1/GPa)
#
#
# Indices 1 2 3 4 5 6 
#
# 1 0.053754 -0.001535 -0.009916 0.000000 0.028376 0.000000
# 2 -0.001535 0.023426 -0.000088 0.000000 0.003548 0.000000
# 3 -0.009916 -0.000088 0.008817 0.000000 -0.001629 0.000000
# 4 0.000000 0.000000 0.000000 0.030943 0.000000 -0.008136
# 5 0.028376 0.003548 -0.001629 0.000000 0.049245 0.000000
# 6 0.000000 0.000000 0.000000 -0.008136 0.000000 0.070692
#
#
# Mechanical properties :
#
#
# Convention : Reuss Voigt Hill
#
# Bulk Modulus (GPa) = 15.89335 36.47917 26.18626
# Shear Modulus (GPa) = 17.79814 28.20044 22.99929
#
# Velocity S-wave (km/s) = 3.08738 3.88626 3.50962
# Velocity P-wave (km/s) = 4.60663 6.29873 5.51793
#
# Compressibility (1/GPa) = 0.06291938
#
# Stress axis : x y z
#
# Youngs Moduli (GPa) = 18.60327 42.68698 113.41707
#
# Poissons Ratio (x) = 0.06555 1.12459
# Poissons Ratio (y) = 0.02857 0.00998
# Poissons Ratio (z) = 0.18446 0.00376
#
# Static dielectric constant tensor:
#      x y z
#    x 1.634320 0.000000 -0.011560 
#    y 0.000000 1.633020 0.000000 
#    z -0.011560 0.000000 1.689220 
# 
# From -- ./inp_files/70340.got.cif
#   From: 2010.05.17/outbox.cif.g08.bks.cpg/sg11_36_cif.got.tgz:70340.got - 2010.06.03 12:22:45.
