data_PCOD9158177
_publ_section_title
;
Structure prediction by ZEFSAII (Michael W. Deem and Ramdas Pophale) SiO2 
 PCOD9158177
Probable space group: P 21/M
;
_chemical_formula_sum "Si O2"
_cell_formula_units_Z 32
_cell_length_a 21.940328
_cell_length_b 7.627280
_cell_length_c 11.303915
_cell_angle_alpha 90.000000
_cell_angle_beta 133.849970
_cell_angle_gamma 90.000000
_cell_volume 1364.178168
_symmetry_space_group_name_H-M "P 21/M"
_symmetry_group_IT_number 11
_symmetry_cell_setting 'monoclinic'
loop_
_space_group_symop_operation_xyz
x,y,z
-x,1/2+y,-z
-x,-y,-z
x,1/2-y,z
loop_
_atom_site_type_symbol
_atom_site_label
_atom_site_fract_x
_atom_site_fract_y
_atom_site_fract_z
Si Si1 0.432847 0.460025 0.009254
Si Si2 0.668787 0.038417 0.819624
Si Si3 0.956309 0.042332 0.106203
Si Si4 0.489463 0.048291 0.638442
Si Si5 0.257523 0.450538 0.828058
Si Si6 0.130866 0.452155 0.253369
Si Si7 0.914515 0.541109 0.316568
Si Si8 0.697779 0.958434 0.602646
O O1 0.428178 0.250000 0.020140
O O2 0.468576 0.544116 0.175696
O O3 0.500000 0.500000 0.000000
O O4 0.336507 0.524250 0.860287
O O5 0.670061 0.250000 0.832411
O O6 0.570203 0.979260 0.672303
O O7 0.718081 0.984071 0.768683
O O8 0.707406 0.956497 0.989456
O O9 0.957618 0.250000 0.081321
O O10 0.053612 0.975046 0.227482
O O11 0.919948 0.020010 0.188191
O O12 0.904821 0.957450 0.929310
O O13 0.477654 0.250000 0.588501
O O14 0.397048 0.964575 0.532209
O O15 0.246159 0.250000 0.772180
O O16 0.165529 0.533162 0.718192
O O17 0.141252 0.250000 0.304646
O O18 0.225030 0.530759 0.371493
O O19 0.903567 0.750000 0.296515
O O20 0.000000 0.500000 0.500000
O O21 0.692389 0.750000 0.570121
#
# Coordination Sequence:
#
# PCOD9158177 Si02
#       8
#     4   4   4   4   4   4   4   4
#     4  10  20  37  59  80 104 138 178 221 265 315
#     4  10  19  30  50  79 109 139 174 222 267 307
#     4  10  20  36  57  80 109 143 182 229 279 328
#     4   9  19  34  50  73 106 141 177 216 262 315
#     4   9  20  38  58  79 104 141 183 216 261 328
#     4   9  19  35  55  79 107 145 187 223 267 329
#     4  11  23  40  60  83 111 144 184 231 282 334
#     4  10  19  32  50  74 106 144 179 211 257 320
#
# _framework density 23.457345
#
# number of rings (size 3 to 8) (size 9 to 14) (size 15 to 20)
#    0.000    2.250    0.000    2.625    0.000    6.500 
#    2.250    0.000    0.000    0.000    0.000    0.000 
#    0.000    0.000    0.000    0.000    0.000    0.000 
#
# Total GULP energy -178568.890191 kJ/mol
# GULP energy per Si atom -5580.277818 kJ/mol
# Density = 2.340396 g / cm^3
# Si number density = 23.457345 Si / 1000 Ang^3
#
#
#
# Elastic Constant Matrix: (Units=GPa)
#
#
# Indices 1 2 3 4 5 6 
#
# 1 172.1190 4.9585 24.0456 0.0000 48.0928 0.0000
# 2 4.9585 76.0629 -1.1906 0.0000 0.5635 0.0000
# 3 24.0456 -1.1906 38.7039 0.0000 31.8449 0.0000
# 4 0.0000 0.0000 0.0000 18.6643 0.0000 -2.4737
# 5 48.0928 0.5635 31.8449 0.0000 43.1952 0.0000
# 6 0.0000 0.0000 0.0000 -2.4737 0.0000 20.5311
#
#
#
# Elastic Compliance Matrix: (Units=1/GPa)
#
#
# Indices 1 2 3 4 5 6 
#
# 1 0.009100 -0.000375 0.006779 0.000000 -0.015124 0.000000
# 2 -0.000375 0.013193 0.001110 0.000000 -0.000573 0.000000
# 3 0.006779 0.001110 0.070871 0.000000 -0.059811 0.000000
# 4 0.000000 0.000000 0.000000 0.054448 0.000000 0.006560
# 5 -0.015124 -0.000573 -0.059811 0.000000 0.084092 0.000000
# 6 0.000000 0.000000 0.000000 0.006560 0.000000 0.049497
#
#
# Mechanical properties :
#
#
# Convention : Reuss Voigt Hill
#
# Bulk Modulus (GPa) = 9.24277 38.05699 23.64988
# Shear Modulus (GPa) = 16.54342 33.74960 25.14651
#
# Velocity S-wave (km/s) = 2.65855 3.79722 3.27771
# Velocity P-wave (km/s) = 3.65686 5.95687 4.94252
#
# Compressibility (1/GPa) = 0.10819269
#
# Stress axis : x y z
#
# Youngs Moduli (GPa) = 109.89433 75.79728 14.11019
#
# Poissons Ratio (x) = 0.02843 -0.09566
# Poissons Ratio (y) = 0.04122 -0.01567
# Poissons Ratio (z) = -0.74499 -0.08417
#
# Static dielectric constant tensor:
#      x y z
#    x 1.992310 0.000000 0.080960 
#    y 0.000000 1.876300 0.000000 
#    z 0.080960 0.000000 1.914710 
# 
# From -- ./inp_files/42875.got.cif
#   From: 2010.05.17/outbox.cif.g08.bks.cpg/sg11_22_cif.got.tgz:42875.got - 2010.06.03 12:22:45.
