data_PCOD9158295
_publ_section_title
;
Structure prediction by ZEFSAII (Michael W. Deem and Ramdas Pophale) SiO2 
 PCOD9158295
Probable space group: P 21/M
;
_chemical_formula_sum "Si O2"
_cell_formula_units_Z 28
_cell_length_a 16.232757
_cell_length_b 10.677095
_cell_length_c 14.653971
_cell_angle_alpha 90.000000
_cell_angle_beta 139.709134
_cell_angle_gamma 90.000000
_cell_volume 1642.412414
_symmetry_space_group_name_H-M "P 21/M"
_symmetry_group_IT_number 11
_symmetry_cell_setting 'monoclinic'
loop_
_space_group_symop_operation_xyz
x,y,z
-x,1/2+y,-z
-x,-y,-z
x,1/2-y,z
loop_
_atom_site_type_symbol
_atom_site_label
_atom_site_fract_x
_atom_site_fract_y
_atom_site_fract_z
Si Si1 0.192230 0.099578 0.486265
Si Si2 0.334222 0.103614 0.420762
Si Si3 0.360184 0.607264 0.297807
Si Si4 0.453243 0.115941 0.056195
Si Si5 0.095215 0.602925 0.724753
Si Si6 0.673533 0.106882 0.943533
Si Si7 0.295875 0.490490 0.763850
O O1 0.191372 0.250000 0.485482
O O2 0.259113 0.063404 0.448270
O O3 0.045831 0.056391 0.371364
O O4 0.267832 0.056409 0.639335
O O5 0.302711 0.250000 0.372226
O O6 0.485566 0.100748 0.569435
O O7 0.310525 0.003397 0.320708
O O8 0.325276 0.750000 0.297165
O O9 0.318324 0.590481 0.157832
O O10 0.429646 0.250000 0.080945
O O11 0.600721 0.101783 0.153960
O O12 0.415845 0.998024 0.087075
O O13 0.367698 0.104388 0.892857
O O14 0.086451 0.750000 0.693273
O O15 0.165996 0.531551 0.703037
O O16 0.190661 0.593518 0.891519
O O17 0.627500 0.250000 0.921873
#
# Coordination Sequence:
#
# PCOD9158295 Si02
#       7
#     4   4   4   4   4   4   4
#     4  10  19  32  50  70  96 132 170 203 239 287
#     4   9  18  31  49  74  97 121 159 202 242 290
#     4   9  17  32  52  72  96 125 155 195 250 300
#     4  10  20  31  48  76 104 129 163 206 247 289
#     4   9  18  32  49  70  96 130 171 206 236 283
#     4   9  18  33  53  74  99 131 164 200 245 295
#     4  10  19  31  48  69 101 134 166 201 244 290
#
# _framework density 17.048093000000001
#
# number of rings (size 3 to 8) (size 9 to 14) (size 15 to 20)
#    0.000    2.571    0.000    2.143    0.000    5.714 
#    0.000    5.000    0.000    5.143    0.000    0.000 
#    0.000    0.000    0.000    0.000    0.000    0.000 
#
# Total GULP energy -156024.401402 kJ/mol
# GULP energy per Si atom -5572.300050 kJ/mol
# Density = 1.700929 g / cm^3
# Si number density = 17.048093 Si / 1000 Ang^3
#
#
#
# Elastic Constant Matrix: (Units=GPa)
#
#
# Indices 1 2 3 4 5 6 
#
# 1 115.5708 66.8098 40.3827 0.0000 -6.7950 0.0000
# 2 66.8098 90.2705 35.3415 0.0000 -12.3786 0.0000
# 3 40.3827 35.3415 37.3579 0.0000 -6.6544 0.0000
# 4 0.0000 0.0000 0.0000 -4.9003 0.0000 -1.3923
# 5 -6.7950 -12.3786 -6.6544 0.0000 26.8694 0.0000
# 6 0.0000 0.0000 0.0000 -1.3923 0.0000 20.3214
#
#
#
# Elastic Compliance Matrix: (Units=1/GPa)
#
#
# Indices 1 2 3 4 5 6 
#
# 1 0.017531 -0.009083 -0.010789 0.000000 -0.002423 0.000000
# 2 -0.009083 0.022758 -0.010726 0.000000 0.005531 0.000000
# 3 -0.010789 -0.010726 0.049391 0.000000 0.004562 0.000000
# 4 0.000000 0.000000 0.000000 -0.200172 0.000000 -0.013715
# 5 -0.002423 0.005531 0.004562 0.000000 0.040282 0.000000
# 6 0.000000 0.000000 0.000000 -0.013715 0.000000 0.048270
#
#
# Mechanical properties :
#
#
# Convention : Reuss Voigt Hill
#
# Bulk Modulus (GPa) = 35.10851 58.69633 46.90242
# Shear Modulus (GPa) = 102.56346 15.16912 58.86629
#
# Velocity S-wave (km/s) = 7.76478 2.98616 5.88256
# Velocity P-wave (km/s) = 10.05125 6.81132 8.58550
#
# Compressibility (1/GPa) = 0.02848312
#
# Stress axis : x y z
#
# Youngs Moduli (GPa) = 57.04190 43.94069 20.24672
#
# Poissons Ratio (x) = 0.39911 0.21845
# Poissons Ratio (y) = 0.51811 0.21717
# Poissons Ratio (z) = 0.61544 0.47131
#
# Static dielectric constant tensor:
#      x y z
#    x 1.570380 0.000000 0.010430 
#    y 0.000000 1.602900 0.000000 
#    z 0.010430 0.000000 1.570990 
# 
# From -- ./inp_files/43235.got.cif
#   From: 2010.05.17/outbox.cif.g08.bks.cpg/sg11_22_cif.got.tgz:43235.got - 2010.06.03 12:22:45.
