data_PCOD9158615
_publ_section_title
;
Structure prediction by ZEFSAII (Michael W. Deem and Ramdas Pophale) SiO2 
 PCOD9158615
Probable space group: P 21/M
;
_chemical_formula_sum "Si O2"
_cell_formula_units_Z 32
_cell_length_a 10.787093
_cell_length_b 8.990800
_cell_length_c 28.318825
_cell_angle_alpha 90.000000
_cell_angle_beta 36.918881
_cell_angle_gamma 90.000000
_cell_volume 1649.771699
_symmetry_space_group_name_H-M "P 21/M"
_symmetry_group_IT_number 11
_symmetry_cell_setting 'monoclinic'
loop_
_space_group_symop_operation_xyz
x,y,z
-x,1/2+y,-z
-x,-y,-z
x,1/2-y,z
loop_
_atom_site_type_symbol
_atom_site_label
_atom_site_fract_x
_atom_site_fract_y
_atom_site_fract_z
Si Si1 0.306086 0.079103 0.832000
Si Si2 0.253979 0.422126 0.734018
Si Si3 0.169823 0.077487 0.126239
Si Si4 0.062246 0.926183 0.407292
Si Si5 0.112975 0.076474 0.030378
Si Si6 0.570629 0.427535 0.878965
Si Si7 0.283096 0.073458 0.256623
Si Si8 0.325812 0.073766 0.411031
O O1 0.345427 0.250000 0.834398
O O2 0.288616 0.074573 0.780354
O O3 0.496937 0.977075 0.788383
O O4 0.087491 0.021814 0.918490
O O5 0.231717 0.250000 0.726957
O O6 0.453768 0.497169 0.650246
O O7 0.045101 0.512180 0.788809
O O8 0.195558 0.250000 0.130778
O O9 0.153776 0.067273 0.074517
O O10 0.352496 0.983845 0.093848
O O11 0.106243 0.750000 0.391351
O O12 0.831317 0.946623 0.497504
O O13 0.111229 0.002727 0.342906
O O14 0.212395 0.999493 0.400639
O O15 0.071814 0.250000 0.031779
O O16 0.332100 0.029925 0.942033
O O17 0.582440 0.250000 0.873447
O O18 0.713230 0.503199 0.796375
O O19 0.266679 0.250000 0.260258
O O20 0.349565 0.250000 0.395214
#
# Coordination Sequence:
#
# PCOD9158615 Si02
#       8
#     4   4   4   4   4   4   4   4
#     4  10  20  34  54  80 110 144 180 223 273 325
#     4  10  19  32  54  82 113 145 180 223 272 321
#     4  10  20  36  58  83 110 138 181 231 274 321
#     4  10  20  34  52  79 113 146 180 219 267 322
#     4   9  20  37  58  82 108 140 178 228 277 324
#     4  11  23  39  57  78 107 144 186 226 274 328
#     4  12  24  37  55  77 109 149 186 224 271 326
#     4  10  19  31  53  83 113 144 178 220 268 319
#
# _framework density 19.396623000000002
#
# number of rings (size 3 to 8) (size 9 to 14) (size 15 to 20)
#    0.000    1.750    1.250    3.750    0.000    4.500 
#    0.000    0.000    0.000    0.750    0.000    0.000 
#    0.000    0.000    0.000    0.000    0.000    0.000 
#
# Total GULP energy -178870.237328 kJ/mol
# GULP energy per Si atom -5589.694917 kJ/mol
# Density = 1.935248 g / cm^3
# Si number density = 19.396623 Si / 1000 Ang^3
#
#
#
# Elastic Constant Matrix: (Units=GPa)
#
#
# Indices 1 2 3 4 5 6 
#
# 1 33.0285 11.3086 3.6775 0.0000 -0.9506 0.0000
# 2 11.3086 101.8039 49.7775 0.0000 5.3037 0.0000
# 3 3.6775 49.7775 107.6040 0.0000 1.3374 0.0000
# 4 0.0000 0.0000 0.0000 30.9348 0.0000 -3.5150
# 5 -0.9506 5.3037 1.3374 0.0000 22.2476 0.0000
# 6 0.0000 0.0000 0.0000 -3.5150 0.0000 27.1426
#
#
#
# Elastic Compliance Matrix: (Units=1/GPa)
#
#
# Indices 1 2 3 4 5 6 
#
# 1 0.031626 -0.003991 0.000737 0.000000 0.002258 0.000000
# 2 -0.003991 0.013359 -0.006006 0.000000 -0.002994 0.000000
# 3 0.000737 -0.006006 0.012037 0.000000 0.000740 0.000000
# 4 0.000000 0.000000 0.000000 0.032809 0.000000 0.004249
# 5 0.002258 -0.002994 0.000740 0.000000 0.045715 0.000000
# 6 0.000000 0.000000 0.000000 0.004249 0.000000 0.037393
#
#
# Mechanical properties :
#
#
# Convention : Reuss Voigt Hill
#
# Bulk Modulus (GPa) = 25.97239 41.32931 33.65085
# Shear Modulus (GPa) = 24.47465 27.90986 26.19226
#
# Velocity S-wave (km/s) = 3.55604 3.79740 3.67870
# Velocity P-wave (km/s) = 5.50270 6.37030 5.95233
#
# Compressibility (1/GPa) = 0.03850242
#
# Stress axis : x y z
#
# Youngs Moduli (GPa) = 31.61921 74.85637 83.07451
#
# Poissons Ratio (x) = 0.29878 -0.06126
# Poissons Ratio (y) = 0.12620 0.49896
# Poissons Ratio (z) = -0.02332 0.44960
#
# Static dielectric constant tensor:
#      x y z
#    x 1.690620 0.000000 0.024690 
#    y 0.000000 1.641900 0.000000 
#    z 0.024690 0.000000 1.692590 
# 
# From -- ./inp_files/64439.got.cif
#   From: 2010.05.17/outbox.cif.g08.bks.cpg/sg11_33_cif.got.tgz:64439.got - 2010.06.03 12:22:45.
