data_PCOD9158001
_publ_section_title
;
Structure prediction by ZEFSAII (Michael W. Deem and Ramdas Pophale) SiO2 
 PCOD9158001
Probable space group: P 21/M
;
_chemical_formula_sum "Si O2"
_cell_formula_units_Z 32
_cell_length_a 16.162845
_cell_length_b 8.661411
_cell_length_c 21.756274
_cell_angle_alpha 90.000000
_cell_angle_beta 42.384538
_cell_angle_gamma 90.000000
_cell_volume 2053.133964
_symmetry_space_group_name_H-M "P 21/M"
_symmetry_group_IT_number 11
_symmetry_cell_setting 'monoclinic'
loop_
_space_group_symop_operation_xyz
x,y,z
-x,1/2+y,-z
-x,-y,-z
x,1/2-y,z
loop_
_atom_site_type_symbol
_atom_site_label
_atom_site_fract_x
_atom_site_fract_y
_atom_site_fract_z
Si Si1 0.717981 0.936986 0.102268
Si Si2 0.553025 0.436847 0.787897
Si Si3 0.600069 0.564616 0.897974
Si Si4 0.190075 0.935855 0.406211
Si Si5 0.101217 0.064135 0.897443
Si Si6 0.874775 0.934678 0.786922
Si Si7 0.920844 0.064567 0.896249
Si Si8 0.004384 0.565821 0.398306
O O1 0.722763 0.750000 0.095256
O O2 0.578707 0.985545 0.166213
O O3 0.771242 0.982469 0.140254
O O4 0.809506 0.003266 0.000147
O O5 0.553908 0.250000 0.791541
O O6 0.572593 0.502761 0.845133
O O7 0.669695 0.482196 0.682426
O O8 0.595304 0.750000 0.900599
O O9 0.736416 0.515977 0.844356
O O10 0.500000 0.500000 0.000000
O O11 0.183765 0.750000 0.415376
O O12 0.110981 0.979320 0.388898
O O13 0.121634 0.010181 0.501504
O O14 0.098360 0.250000 0.899770
O O15 0.048633 0.016777 0.859939
O O16 0.000000 0.000000 0.000000
O O17 0.876556 0.750000 0.788478
O O18 0.908444 0.000400 0.834868
O O19 0.964178 0.992139 0.684104
O O20 0.914710 0.250000 0.898294
O O21 0.005483 0.750000 0.392322
#
# Coordination Sequence:
#
# PCOD9158001 Si02
#       8
#     4   4   4   4   4   4   4   4
#     4   9  17  30  48  69  95 125 157 190 228 273
#     4  10  19  32  49  69  93 123 156 189 226 271
#     4  11  23  34  45  62  91 128 161 191 224 266
#     4   9  18  32  49  69  93 119 150 190 233 276
#     4   8  15  28  45  66  91 120 153 191 231 271
#     4  11  22  34  47  66  92 124 159 193 232 275
#     4  10  19  30  46  68  95 125 158 194 232 272
#     4  10  19  32  51  70  90 118 153 194 234 273
#
# _framework density 15.585929999999999
#
# number of rings (size 3 to 8) (size 9 to 14) (size 15 to 20)
#    0.000    2.250    1.250    2.250    0.000    6.500 
#    0.000    0.000    0.000    0.000    0.000    0.875 
#    0.000    0.000    0.000    0.000    0.000    0.000 
#
# Total GULP energy -178393.662408 kJ/mol
# GULP energy per Si atom -5574.801950 kJ/mol
# Density = 1.555046 g / cm^3
# Si number density = 15.585930 Si / 1000 Ang^3
#
#
#
# Elastic Constant Matrix: (Units=GPa)
#
#
# Indices 1 2 3 4 5 6 
#
# 1 157.4275 32.8686 79.4468 0.0000 -4.2122 0.0000
# 2 32.8686 18.6066 27.8676 0.0000 -1.6723 0.0000
# 3 79.4468 27.8676 116.8078 0.0000 -0.1941 0.0000
# 4 0.0000 0.0000 0.0000 22.7851 0.0000 1.2686
# 5 -4.2122 -1.6723 -0.1941 0.0000 6.4813 0.0000
# 6 0.0000 0.0000 0.0000 1.2686 0.0000 15.0190
#
#
#
# Elastic Compliance Matrix: (Units=1/GPa)
#
#
# Indices 1 2 3 4 5 6 
#
# 1 0.011569 -0.012912 -0.004782 0.000000 0.004044 0.000000
# 2 -0.012912 0.100991 -0.015283 0.000000 0.017208 0.000000
# 3 -0.004782 -0.015283 0.015449 0.000000 -0.006588 0.000000
# 4 0.000000 0.000000 0.000000 0.044096 0.000000 -0.003725
# 5 0.004044 0.017208 -0.006588 0.000000 0.161160 0.000000
# 6 0.000000 0.000000 0.000000 -0.003725 0.000000 0.066897
#
#
# Mechanical properties :
#
#
# Convention : Reuss Voigt Hill
#
# Bulk Modulus (GPa) = 16.11487 63.68976 39.90232
# Shear Modulus (GPa) = 10.27116 19.03433 14.65275
#
# Velocity S-wave (km/s) = 2.56989 3.49843 3.06947
# Velocity P-wave (km/s) = 4.37808 7.56776 6.18218
#
# Compressibility (1/GPa) = 0.06205449
#
# Stress axis : x y z
#
# Youngs Moduli (GPa) = 86.43582 9.90191 64.73116
#
# Poissons Ratio (x) = 0.12786 0.30952
# Poissons Ratio (y) = 1.11608 0.98930
# Poissons Ratio (z) = 0.41330 0.15133
#
# Static dielectric constant tensor:
#      x y z
#    x 1.540590 0.000000 -0.018400 
#    y 0.000000 1.526710 0.000000 
#    z -0.018400 0.000000 1.490060 
# 
# From -- ./inp_files/51265.got.cif
#   From: 2010.05.17/outbox.cif.g08.bks.cpg/sg11_26_cif.got.tgz:51265.got - 2010.06.03 12:22:45.
