data_PCOD9158172
_publ_section_title
;
Structure prediction by ZEFSAII (Michael W. Deem and Ramdas Pophale) SiO2 
 PCOD9158172
Probable space group: P 21/M
;
_chemical_formula_sum "Si O2"
_cell_formula_units_Z 24
_cell_length_a 15.199133
_cell_length_b 17.742446
_cell_length_c 13.019061
_cell_angle_alpha 90.000000
_cell_angle_beta 19.678071
_cell_angle_gamma 90.000000
_cell_volume 1182.224898
_symmetry_space_group_name_H-M "P 21/M"
_symmetry_group_IT_number 11
_symmetry_cell_setting 'monoclinic'
loop_
_space_group_symop_operation_xyz
x,y,z
-x,1/2+y,-z
-x,-y,-z
x,1/2-y,z
loop_
_atom_site_type_symbol
_atom_site_label
_atom_site_fract_x
_atom_site_fract_y
_atom_site_fract_z
Si Si1 0.786074 0.450562 0.405436
Si Si2 0.987717 0.910980 0.486633
Si Si3 0.434234 0.580302 0.128060
Si Si4 0.618264 0.924962 0.315070
Si Si5 0.689800 0.625004 0.455084
Si Si6 0.108045 0.832919 0.153863
O O1 0.700356 0.432610 0.615123
O O2 0.601330 0.404953 0.527956
O O3 0.716278 0.537303 0.457681
O O4 0.096624 0.440855 0.047045
O O5 0.238222 0.877306 0.267803
O O6 0.007944 0.895168 0.344079
O O7 0.000000 0.000000 0.500000
O O8 0.714707 0.881441 0.829194
O O9 0.500000 0.500000 0.000000
O O10 0.672749 0.869721 0.350733
O O11 0.500000 0.000000 0.500000
O O12 0.940759 0.661152 0.233502
O O13 0.414539 0.655012 0.799178
O O14 0.062603 0.750000 0.248535
#
# Coordination Sequence:
#
# PCOD9158172 Si02
#       6
#     4   4   4   4   4   4
#     4  11  19  33  54  85 117 143 184 235 287 347
#     4  10  19  34  52  78 109 145 186 230 286 338
#     4  10  19  30  50  78 108 144 181 223 279 331
#     4  10  20  32  52  82 113 146 178 224 284 345
#     4  11  20  36  54  77 116 150 181 227 290 346
#     4  12  24  37  56  84 115 152 194 239 291 357
#
# _framework density 20.300705000000001
#
# number of rings (size 3 to 8) (size 9 to 14) (size 15 to 20)
#    0.000    1.333    0.000   11.500    0.000    0.000 
#    0.000    0.000    0.000    0.000    0.000   23.333 
#    0.000    0.000    0.000    0.000    0.000    0.000 
#
# Total GULP energy -133880.465409 kJ/mol
# GULP energy per Si atom -5578.352725 kJ/mol
# Density = 2.025450 g / cm^3
# Si number density = 20.300705 Si / 1000 Ang^3
#
#
#
# Elastic Constant Matrix: (Units=GPa)
#
#
# Indices 1 2 3 4 5 6 
#
# 1 102.1565 1.4376 44.0051 0.0000 -6.7603 0.0000
# 2 1.4376 28.4497 -5.6479 0.0000 -0.0596 0.0000
# 3 44.0051 -5.6479 146.9537 0.0000 -17.0029 0.0000
# 4 0.0000 0.0000 0.0000 -40.7082 0.0000 47.5007
# 5 -6.7603 -0.0596 -17.0029 0.0000 52.8778 0.0000
# 6 0.0000 0.0000 0.0000 47.5007 0.0000 -47.6226
#
#
#
# Elastic Compliance Matrix: (Units=1/GPa)
#
#
# Indices 1 2 3 4 5 6 
#
# 1 0.011289 -0.001242 -0.003387 0.000000 0.000353 0.000000
# 2 -0.001242 0.035569 0.001792 0.000000 0.000458 0.000000
# 3 -0.003387 0.001792 0.008141 0.000000 0.002187 0.000000
# 4 0.000000 0.000000 0.000000 0.149904 0.000000 0.149520
# 5 0.000353 0.000458 0.002187 0.000000 0.019660 0.000000
# 6 0.000000 0.000000 0.000000 0.149520 0.000000 0.128139
#
#
# Mechanical properties :
#
#
# Convention : Reuss Voigt Hill
#
# Bulk Modulus (GPa) = 20.27410 39.68326 29.97868
# Shear Modulus (GPa) = 13.33978 8.76039 11.05009
#
# Velocity S-wave (km/s) = 2.56620 2.07959 2.33560
# Velocity P-wave (km/s) = 4.33463 5.03551 4.69816
#
# Compressibility (1/GPa) = 0.04932400
#
# Stress axis : x y z
#
# Youngs Moduli (GPa) = 88.58281 28.11415 122.83369
#
# Poissons Ratio (x) = 0.03492 0.41608
# Poissons Ratio (y) = 0.11004 -0.22011
# Poissons Ratio (z) = 0.30006 -0.05038
#
# Static dielectric constant tensor:
#      x y z
#    x 1.795360 0.000000 -0.039940 
#    y 0.000000 1.694800 0.000000 
#    z -0.039940 0.000000 1.740410 
# 
# From -- ./inp_files/40139.got.cif
#   From: 2010.05.17/outbox.cif.g08.bks.cpg/sg11_21_cif.got.tgz:40139.got - 2010.06.03 12:22:45.
