data_PCOD9158214
_publ_section_title
;
Structure prediction by ZEFSAII (Michael W. Deem and Ramdas Pophale) SiO2 
 PCOD9158214
Probable space group: P 21/M
;
_chemical_formula_sum "Si O2"
_cell_formula_units_Z 32
_cell_length_a 16.448598
_cell_length_b 7.825476
_cell_length_c 21.962406
_cell_angle_alpha 90.000000
_cell_angle_beta 138.499120
_cell_angle_gamma 90.000000
_cell_volume 1873.232471
_symmetry_space_group_name_H-M "P 21/M"
_symmetry_group_IT_number 11
_symmetry_cell_setting 'monoclinic'
loop_
_space_group_symop_operation_xyz
x,y,z
-x,1/2+y,-z
-x,-y,-z
x,1/2-y,z
loop_
_atom_site_type_symbol
_atom_site_label
_atom_site_fract_x
_atom_site_fract_y
_atom_site_fract_z
Si Si1 0.784945 0.043469 0.107819
Si Si2 0.304045 0.953495 0.396831
Si Si3 0.608034 0.044505 0.108034
Si Si4 0.430698 0.043470 0.107823
Si Si5 0.369584 0.046681 0.207432
Si Si6 0.489618 0.953495 0.396832
Si Si7 0.045280 0.046681 0.207430
Si Si8 0.106975 0.043798 0.106974
O O1 0.789984 0.250000 0.114204
O O2 0.729619 0.980997 0.141494
O O3 0.919171 0.977859 0.164975
O O4 0.686753 0.999999 0.999998
O O5 0.300508 0.750000 0.390077
O O6 0.383837 0.021223 0.383837
O O7 0.381640 0.000000 0.500000
O O8 0.166065 0.018529 0.315341
O O9 0.618190 0.250000 0.118189
O O10 0.553373 0.980997 0.141495
O O11 0.500000 0.000000 0.000000
O O12 0.438431 0.250000 0.114208
O O13 0.410786 0.977859 0.164979
O O14 0.354150 0.250000 0.190967
O O15 0.237833 0.977681 0.156137
O O16 0.464618 0.018530 0.315342
O O17 0.479646 0.750000 0.390077
O O18 0.027785 0.250000 0.190966
O O19 0.074444 0.977682 0.156138
O O20 0.116097 0.250000 0.116096
O O21 0.000000 0.000000 0.000000
#
# Coordination Sequence:
#
# PCOD9158214 Si02
#       8
#     4   4   4   4   4   4   4   4
#     4   9  17  28  44  65  91 122 154 188 224 262
#     4  10  20  33  50  69  88 114 147 186 227 267
#     4   8  14  26  42  62  87 116 151 188 225 262
#     4   9  17  28  44  65  91 122 154 188 224 262
#     4  10  19  31  45  64  90 121 152 184 222 263
#     4  10  20  33  50  69  88 114 147 186 227 267
#     4  10  19  31  45  64  90 121 152 184 222 263
#     4  10  20  30  41  58  87 122 153 182 212 252
#
# _framework density 17.082768999999999
#
# number of rings (size 3 to 8) (size 9 to 14) (size 15 to 20)
#    0.000    2.500    1.250    1.500    0.000    3.000 
#    0.000    0.000    0.000    0.000    0.000    0.875 
#    0.000    0.000    0.000    0.000    0.000    0.000 
#
# Total GULP energy -178354.158242 kJ/mol
# GULP energy per Si atom -5573.567445 kJ/mol
# Density = 1.704389 g / cm^3
# Si number density = 17.082769 Si / 1000 Ang^3
#
#
#
# Elastic Constant Matrix: (Units=GPa)
#
#
# Indices 1 2 3 4 5 6 
#
# 1 185.4171 12.2579 84.0006 0.0000 3.1598 0.0000
# 2 12.2579 18.0814 -11.0447 0.0000 0.9477 0.0000
# 3 84.0006 -11.0447 96.5689 0.0000 0.4475 0.0000
# 4 0.0000 0.0000 0.0000 23.2229 0.0000 -0.8594
# 5 3.1598 0.9477 0.4475 0.0000 11.9239 0.0000
# 6 0.0000 0.0000 0.0000 -0.8594 0.0000 2.0890
#
#
#
# Elastic Compliance Matrix: (Units=1/GPa)
#
#
# Indices 1 2 3 4 5 6 
#
# 1 0.011942 -0.015437 -0.012146 0.000000 -0.001482 0.000000
# 2 -0.015437 0.079713 0.022559 0.000000 -0.003092 0.000000
# 3 -0.012146 0.022559 0.023498 0.000000 0.000544 0.000000
# 4 0.000000 0.000000 0.000000 0.043727 0.000000 0.017989
# 5 -0.001482 -0.003092 0.000544 0.000000 0.084483 0.000000
# 6 0.000000 0.000000 0.000000 0.017989 0.000000 0.486103
#
#
# Mechanical properties :
#
#
# Convention : Reuss Voigt Hill
#
# Bulk Modulus (GPa) = 9.51432 52.27723 30.89577
# Shear Modulus (GPa) = 6.45536 21.77074 14.11305
#
# Velocity S-wave (km/s) = 1.94604 3.57378 2.87741
# Velocity P-wave (km/s) = 3.26053 6.90637 5.40042
#
# Compressibility (1/GPa) = 0.10510471
#
# Stress axis : x y z
#
# Youngs Moduli (GPa) = 83.73975 12.54500 42.55612
#
# Poissons Ratio (x) = 0.19366 0.51690
# Poissons Ratio (y) = 1.29272 -0.96004
# Poissons Ratio (z) = 1.01713 -0.28301
#
# Static dielectric constant tensor:
#      x y z
#    x 1.634720 0.000000 0.003820 
#    y 0.000000 1.603860 0.000000 
#    z 0.003820 0.000000 1.540760 
# 
# From -- ./inp_files/51300.got.cif
#   From: 2010.05.17/outbox.cif.g08.bks.cpg/sg11_26_cif.got.tgz:51300.got - 2010.06.03 12:22:45.
