data_PCOD9158069
_publ_section_title
;
Structure prediction by ZEFSAII (Michael W. Deem and Ramdas Pophale) SiO2 
 PCOD9158069
Probable space group: P 21/M
;
_chemical_formula_sum "Si O2"
_cell_formula_units_Z 28
_cell_length_a 11.166897
_cell_length_b 7.450319
_cell_length_c 14.696947
_cell_angle_alpha 90.000000
_cell_angle_beta 100.106312
_cell_angle_gamma 90.000000
_cell_volume 1203.768861
_symmetry_space_group_name_H-M "P 21/M"
_symmetry_group_IT_number 11
_symmetry_cell_setting 'monoclinic'
loop_
_space_group_symop_operation_xyz
x,y,z
-x,1/2+y,-z
-x,-y,-z
x,1/2-y,z
loop_
_atom_site_type_symbol
_atom_site_label
_atom_site_fract_x
_atom_site_fract_y
_atom_site_fract_z
Si Si1 0.892902 0.964070 0.057754
Si Si2 0.548506 0.947696 0.104749
Si Si3 0.477029 0.535443 0.391535
Si Si4 0.710020 0.965789 0.886694
Si Si5 0.213011 0.539580 0.298720
Si Si6 0.692387 0.529375 0.288788
Si Si7 0.051012 0.030171 0.729714
O O1 0.881309 0.750000 0.063818
O O2 0.921251 0.030169 0.162569
O O3 0.771713 0.028411 0.989007
O O4 0.000000 0.000000 0.000000
O O5 0.597935 0.750000 0.097127
O O6 0.645657 0.036933 0.183467
O O7 0.422934 0.952382 0.144676
O O8 0.500000 0.000000 0.000000
O O9 0.500000 0.500000 0.500000
O O10 0.473117 0.750000 0.375905
O O11 0.343279 0.462642 0.346634
O O12 0.592399 0.468561 0.348374
O O13 0.698515 0.750000 0.886874
O O14 0.790021 0.020146 0.811159
O O15 0.215696 0.750000 0.322467
O O16 0.083650 0.467319 0.316137
O O17 0.689265 0.750000 0.288250
O O18 0.833281 0.477928 0.315929
O O19 0.047142 0.250000 0.730779
#
# Coordination Sequence:
#
# PCOD9158069 Si02
#       7
#     4   4   4   4   4   4   4
#     4  10  19  30  47  74 110 151 194 232 270 324
#     4  11  21  35  54  78 114 154 196 237 280 334
#     4  10  21  39  62  86 109 141 186 236 293 350
#     4  11  21  32  50  79 113 149 194 238 280 327
#     4  10  19  35  58  82 107 142 187 229 279 344
#     4   9  18  35  57  81 112 147 186 232 282 341
#     4   9  17  31  54  79 108 148 189 228 274 329
#
# _framework density 23.260279000000001
#
# number of rings (size 3 to 8) (size 9 to 14) (size 15 to 20)
#    0.000    2.000    2.857    1.714    0.000    3.429 
#    0.000    0.714    0.000    2.571    0.000    0.000 
#    0.000    0.000    0.000    0.000    0.000    0.000 
#
# Total GULP energy -156312.653321 kJ/mol
# GULP energy per Si atom -5582.594761 kJ/mol
# Density = 2.320734 g / cm^3
# Si number density = 23.260279 Si / 1000 Ang^3
#
#
#
# Elastic Constant Matrix: (Units=GPa)
#
#
# Indices 1 2 3 4 5 6 
#
# 1 231.2874 5.7563 61.9939 0.0000 8.5151 0.0000
# 2 5.7563 66.9352 -4.5599 0.0000 2.6473 0.0000
# 3 61.9939 -4.5599 87.4454 0.0000 -1.5555 0.0000
# 4 0.0000 0.0000 0.0000 17.2797 0.0000 -5.2771
# 5 8.5151 2.6473 -1.5555 0.0000 24.8695 0.0000
# 6 0.0000 0.0000 0.0000 -5.2771 0.0000 0.1474
#
#
#
# Elastic Compliance Matrix: (Units=1/GPa)
#
#
# Indices 1 2 3 4 5 6 
#
# 1 0.005475 -0.000659 -0.003952 0.000000 -0.002052 0.000000
# 2 -0.000659 0.015132 0.001233 0.000000 -0.001308 0.000000
# 3 -0.003952 0.001233 0.014340 0.000000 0.002119 0.000000
# 4 0.000000 0.000000 0.000000 -0.005825 0.000000 -0.208572
# 5 -0.002052 -0.001308 0.002119 0.000000 0.041184 0.000000
# 6 0.000000 0.000000 0.000000 -0.208572 0.000000 -0.682969
#
#
# Mechanical properties :
#
#
# Convention : Reuss Voigt Hill
#
# Bulk Modulus (GPa) = 35.47322 56.89428 46.18375
# Shear Modulus (GPa) = -8.38209 29.95783 10.78787
#
# Velocity S-wave (km/s) = -1.90038 3.59268 2.15591
# Velocity P-wave (km/s) = 3.23549 6.45932 5.10838
#
# Compressibility (1/GPa) = 0.02819028
#
# Stress axis : x y z
#
# Youngs Moduli (GPa) = 182.65114 66.08417 69.73677
#
# Poissons Ratio (x) = 0.04354 0.27562
# Poissons Ratio (y) = 0.12035 -0.08598
# Poissons Ratio (z) = 0.72189 -0.08148
#
# Static dielectric constant tensor:
#      x y z
#    x 1.951650 0.000000 0.002530 
#    y 0.000000 1.781260 0.000000 
#    z 0.002530 0.000000 1.838900 
# 
# From -- ./inp_files/49025.got.cif
#   From: 2010.05.17/outbox.cif.g08.bks.cpg/sg11_25_cif.got.tgz:49025.got - 2010.06.03 12:22:45.
