data_PCOD9158901
_publ_section_title
;
Structure prediction by ZEFSAII (Michael W. Deem and Ramdas Pophale) SiO2 
 PCOD9158901
Probable space group: P 21/M
;
_chemical_formula_sum "Si O2"
_cell_formula_units_Z 32
_cell_length_a 15.317872
_cell_length_b 8.801554
_cell_length_c 23.619058
_cell_angle_alpha 90.000000
_cell_angle_beta 140.541037
_cell_angle_gamma 90.000000
_cell_volume 2023.733293
_symmetry_space_group_name_H-M "P 21/M"
_symmetry_group_IT_number 11
_symmetry_cell_setting 'monoclinic'
loop_
_space_group_symop_operation_xyz
x,y,z
-x,1/2+y,-z
-x,-y,-z
x,1/2-y,z
loop_
_atom_site_type_symbol
_atom_site_label
_atom_site_fract_x
_atom_site_fract_y
_atom_site_fract_z
Si Si1 0.286842 0.568905 0.367489
Si Si2 0.550949 0.069436 0.114928
Si Si3 0.462217 0.931985 0.567015
Si Si4 0.998803 0.068909 0.248006
Si Si5 0.005879 0.567655 0.620193
Si Si6 0.282050 0.068874 0.703979
Si Si7 0.288810 0.430771 0.910915
Si Si8 0.732178 0.432633 0.427159
O O1 0.271500 0.750000 0.358030
O O2 0.394572 0.513257 0.374388
O O3 0.358462 0.527808 0.463588
O O4 0.139357 0.490715 0.291426
O O5 0.568742 0.250000 0.131146
O O6 0.595142 0.984414 0.193646
O O7 0.650624 0.013333 0.114323
O O8 0.397230 0.039039 0.015473
O O9 0.482567 0.750000 0.574918
O O10 0.388182 0.971007 0.588512
O O11 0.988765 0.250000 0.237680
O O12 0.001947 0.031463 0.316865
O O13 0.863437 0.991047 0.155037
O O14 0.009360 0.750000 0.615647
O O15 0.142837 0.496899 0.662173
O O16 0.873487 0.500495 0.522449
O O17 0.274159 0.250000 0.697643
O O18 0.295244 0.999995 0.648175
O O19 0.287676 0.250000 0.900035
O O20 0.743978 0.250000 0.430321
#
# Coordination Sequence:
#
# PCOD9158901 Si02
#       8
#     4   4   4   4   4   4   4   4
#     4  10  19  32  52  75 102 132 168 211 255 303
#     4  10  20  35  52  74 101 133 170 211 257 303
#     4   9  19  34  51  73  99 132 169 209 257 302
#     4  11  21  32  51  76 106 139 171 208 252 305
#     4  11  22  35  50  72 103 139 178 215 250 297
#     4  12  24  36  52  73 101 138 178 217 254 301
#     4  10  20  33  53  76 102 132 168 211 256 306
#     4  11  22  37  54  72 101 138 177 217 254 302
#
# _framework density 15.812360999999999
#
# number of rings (size 3 to 8) (size 9 to 14) (size 15 to 20)
#    0.000    1.500    2.500    3.750    0.000    4.000 
#    0.000    0.000    0.000    0.000    0.000    0.875 
#    0.000    0.000    0.000    0.000    0.000    0.000 
#
# Total GULP energy -178762.366440 kJ/mol
# GULP energy per Si atom -5586.323951 kJ/mol
# Density = 1.577637 g / cm^3
# Si number density = 15.812361 Si / 1000 Ang^3
#
#
#
# Elastic Constant Matrix: (Units=GPa)
#
#
# Indices 1 2 3 4 5 6 
#
# 1 85.5907 44.3548 56.6501 0.0000 10.2528 0.0000
# 2 44.3548 67.2128 47.2819 0.0000 2.5250 0.0000
# 3 56.6501 47.2819 96.3475 0.0000 10.1130 0.0000
# 4 0.0000 0.0000 0.0000 27.4671 0.0000 4.0864
# 5 10.2528 2.5250 10.1130 0.0000 24.6742 0.0000
# 6 0.0000 0.0000 0.0000 4.0864 0.0000 24.6670
#
#
#
# Elastic Compliance Matrix: (Units=1/GPa)
#
#
# Indices 1 2 3 4 5 6 
#
# 1 0.022275 -0.008653 -0.008331 0.000000 -0.004956 0.000000
# 2 -0.008653 0.026215 -0.008226 0.000000 0.004285 0.000000
# 3 -0.008331 -0.008226 0.019711 0.000000 -0.003775 0.000000
# 4 0.000000 0.000000 0.000000 0.037327 0.000000 -0.006184
# 5 -0.004956 0.004285 -0.003775 0.000000 0.043696 0.000000
# 6 0.000000 0.000000 0.000000 -0.006184 0.000000 0.041564
#
#
# Mechanical properties :
#
#
# Convention : Reuss Voigt Hill
#
# Bulk Modulus (GPa) = 56.24353 60.63606 58.43979
# Shear Modulus (GPa) = 20.23178 22.08595 21.15887
#
# Velocity S-wave (km/s) = 3.58088 3.74137 3.66200
# Velocity P-wave (km/s) = 7.26247 7.55608 7.41073
#
# Compressibility (1/GPa) = 0.01777982
#
# Stress axis : x y z
#
# Youngs Moduli (GPa) = 44.89268 38.14662 50.73405
#
# Poissons Ratio (x) = 0.33010 0.42265
# Poissons Ratio (y) = 0.38847 0.41736
# Poissons Ratio (z) = 0.37398 0.31381
#
# Static dielectric constant tensor:
#      x y z
#    x 1.505710 0.000000 0.003570 
#    y 0.000000 1.523960 0.000000 
#    z 0.003570 0.000000 1.520300 
# 
# From -- ./inp_files/65259.got.cif
#   From: 2010.05.17/outbox.cif.g08.bks.cpg/sg11_33_cif.got.tgz:65259.got - 2010.06.03 12:22:45.
