data_PCOD9158837
_publ_section_title
;
Structure prediction by ZEFSAII (Michael W. Deem and Ramdas Pophale) SiO2 
 PCOD9158837
Probable space group: P 21/M
;
_chemical_formula_sum "Si O2"
_cell_formula_units_Z 32
_cell_length_a 12.404023
_cell_length_b 7.974911
_cell_length_c 31.795124
_cell_angle_alpha 90.000000
_cell_angle_beta 149.739175
_cell_angle_gamma 90.000000
_cell_volume 1584.985623
_symmetry_space_group_name_H-M "P 21/M"
_symmetry_group_IT_number 11
_symmetry_cell_setting 'monoclinic'
loop_
_space_group_symop_operation_xyz
x,y,z
-x,1/2+y,-z
-x,-y,-z
x,1/2-y,z
loop_
_atom_site_type_symbol
_atom_site_label
_atom_site_fract_x
_atom_site_fract_y
_atom_site_fract_z
Si Si1 0.150981 0.048967 0.112451
Si Si2 0.775240 0.550040 0.220194
Si Si3 0.550507 0.452138 0.469192
Si Si4 0.033998 0.455366 0.626602
Si Si5 0.693993 0.047791 0.925819
Si Si6 0.207389 0.047806 0.596663
Si Si7 0.861055 0.946292 0.718924
Si Si8 0.675630 0.446938 0.739485
O O1 0.150221 0.250000 0.116086
O O2 0.282607 0.000278 0.115193
O O3 0.247793 0.973776 0.187206
O O4 0.907808 0.988170 0.021544
O O5 0.758928 0.750000 0.219796
O O6 0.878332 0.486278 0.298724
O O7 0.533446 0.485512 0.133799
O O8 0.932443 0.518781 0.234449
O O9 0.500000 0.500000 0.500000
O O10 0.554766 0.250000 0.467288
O O11 0.356901 0.517520 0.375382
O O12 0.788430 0.511504 0.538009
O O13 0.034199 0.250000 0.627166
O O14 0.171989 0.508877 0.632914
O O15 0.698630 0.250000 0.929852
O O16 0.220319 0.250000 0.601756
O O17 0.432630 0.984209 0.654290
O O18 0.000000 0.000000 0.500000
O O19 0.866355 0.750000 0.711451
O O20 0.834658 0.972121 0.759514
O O21 0.671605 0.250000 0.728845
#
# Coordination Sequence:
#
# PCOD9158837 Si02
#       8
#     4   4   4   4   4   4   4   4
#     4  10  20  36  60  89 118 147 183 231 283 334
#     4  10  19  35  58  81 109 145 186 229 277 337
#     4  10  19  32  51  75 106 143 182 224 269 323
#     4   9  17  31  53  77 104 139 176 219 270 322
#     4   9  19  36  60  89 118 147 182 228 283 341
#     4  10  21  37  56  80 110 144 184 229 277 330
#     4  11  23  37  54  80 114 148 188 239 285 330
#     4  11  23  39  59  81 111 153 195 230 276 343
#
# _framework density 20.189457999999998
#
# number of rings (size 3 to 8) (size 9 to 14) (size 15 to 20)
#    0.000    2.000    1.250    2.625    0.000    5.500 
#    0.000    1.875    0.000    0.000    0.000    0.000 
#    0.000    0.000    0.000    0.000    0.000    0.000 
#
# Total GULP energy -178719.494341 kJ/mol
# GULP energy per Si atom -5584.984198 kJ/mol
# Density = 2.014351 g / cm^3
# Si number density = 20.189458 Si / 1000 Ang^3
#
#
#
# Elastic Constant Matrix: (Units=GPa)
#
#
# Indices 1 2 3 4 5 6 
#
# 1 111.4071 -7.4886 45.2927 0.0000 24.1435 0.0000
# 2 -7.4886 8.5619 0.7899 0.0000 7.3791 0.0000
# 3 45.2927 0.7899 84.8249 0.0000 17.4353 0.0000
# 4 0.0000 0.0000 0.0000 15.9013 0.0000 -4.9353
# 5 24.1435 7.3791 17.4353 0.0000 36.0289 0.0000
# 6 0.0000 0.0000 0.0000 -4.9353 0.0000 21.8685
#
#
#
# Elastic Compliance Matrix: (Units=1/GPa)
#
#
# Indices 1 2 3 4 5 6 
#
# 1 0.016036 0.025868 -0.006114 0.000000 -0.013085 0.000000
# 2 0.025868 0.185626 -0.004623 0.000000 -0.053115 0.000000
# 3 -0.006114 -0.004623 0.015613 0.000000 -0.002512 0.000000
# 4 0.000000 0.000000 0.000000 0.067625 0.000000 0.015262
# 5 -0.013085 -0.053115 -0.002512 0.000000 0.048618 0.000000
# 6 0.000000 0.000000 0.000000 0.015262 0.000000 0.049172
#
#
# Mechanical properties :
#
#
# Convention : Reuss Voigt Hill
#
# Bulk Modulus (GPa) = 4.03981 31.33131 17.68556
# Shear Modulus (GPa) = 11.49583 25.83975 18.66779
#
# Velocity S-wave (km/s) = 2.38879 3.58140 3.04407
# Velocity P-wave (km/s) = 3.10060 5.71439 4.59717
#
# Compressibility (1/GPa) = 0.24753620
#
# Stress axis : x y z
#
# Youngs Moduli (GPa) = 62.35852 5.38719 64.04999
#
# Poissons Ratio (x) = -0.13935 0.39159
# Poissons Ratio (y) = -1.61308 0.29612
# Poissons Ratio (z) = 0.38125 0.02491
#
# Static dielectric constant tensor:
#      x y z
#    x 1.693590 0.000000 0.024700 
#    y 0.000000 1.717010 0.000000 
#    z 0.024700 0.000000 1.730840 
# 
# From -- ./inp_files/45134.got.cif
#   From: 2010.05.17/outbox.cif.g08.bks.cpg/sg11_23_cif.got.tgz:45134.got - 2010.06.03 12:22:45.
