data_PCOD9158128
_publ_section_title
;
Structure prediction by ZEFSAII (Michael W. Deem and Ramdas Pophale) SiO2 
 PCOD9158128
Probable space group: P 21/M
;
_chemical_formula_sum "Si O2"
_cell_formula_units_Z 30
_cell_length_a 12.378165
_cell_length_b 9.499439
_cell_length_c 13.638142
_cell_angle_alpha 90.000000
_cell_angle_beta 53.529198
_cell_angle_gamma 90.000000
_cell_volume 1289.590530
_symmetry_space_group_name_H-M "P 21/M"
_symmetry_group_IT_number 11
_symmetry_cell_setting 'monoclinic'
loop_
_space_group_symop_operation_xyz
x,y,z
-x,1/2+y,-z
-x,-y,-z
x,1/2-y,z
loop_
_atom_site_type_symbol
_atom_site_label
_atom_site_fract_x
_atom_site_fract_y
_atom_site_fract_z
Si Si1 0.033641 0.912375 0.352952
Si Si2 0.699958 0.583763 0.356137
Si Si3 0.230681 0.580378 0.485067
Si Si4 0.011310 0.406281 0.860082
Si Si5 0.680838 0.512600 0.849058
Si Si6 0.764304 0.911450 0.022592
Si Si7 0.484083 0.750000 0.971611
Si Si8 0.483153 0.419527 0.721251
O O1 0.027651 0.750000 0.390539
O O2 0.010466 0.908042 0.246733
O O3 0.182854 0.974672 0.281868
O O4 0.911595 0.006613 0.459207
O O5 0.697664 0.750000 0.388345
O O6 0.726738 0.479401 0.430774
O O7 0.570884 0.553691 0.359546
O O8 0.830520 0.568928 0.215307
O O9 0.217462 0.750000 0.493051
O O10 0.362466 0.539272 0.351083
O O11 0.977073 0.250000 0.913154
O O12 0.905064 0.512448 0.961514
O O13 0.602564 0.371756 0.921784
O O14 0.730981 0.581396 0.925264
O O15 0.575497 0.626737 0.869369
O O16 0.777086 0.750000 0.045302
O O17 0.634081 0.976398 0.145756
O O18 0.483148 0.250000 0.735102
#
# Coordination Sequence:
#
# PCOD9158128 Si02
#       8
#     4   4   4   4   4   4   2   4
#     4   9  17  31  50  71 103 131 156 196 245 290
#     4   9  17  32  50  65  95 130 168 218 257 286
#     4  10  19  30  49  72  95 127 174 219 243 274
#     4   8  16  28  45  68  93 129 163 199 251 290
#     4  10  19  33  53  82 107 126 155 188 241 295
#     4  10  19  32  49  68 101 136 164 194 237 301
#     4  10  20  32  54  84 108 122 150 192 240 298
#     4   9  19  33  47  68  95 135 174 206 250 285
#
# _framework density 23.263197000000002
#
# number of rings (size 3 to 8) (size 9 to 14) (size 15 to 20)
#    0.000    2.667    1.333    1.600    1.867    3.733 
#    0.000    2.667    0.000    0.000    0.000    5.600 
#    0.000    0.000    0.000    0.000    0.000    0.000 
#
# Total GULP energy -167115.523767 kJ/mol
# GULP energy per Si atom -5570.517459 kJ/mol
# Density = 2.321025 g / cm^3
# Si number density = 23.263197 Si / 1000 Ang^3
#
#
#
# Elastic Constant Matrix: (Units=GPa)
#
#
# Indices 1 2 3 4 5 6 
#
# 1 106.3378 32.5064 43.1478 0.0000 -29.0688 0.0000
# 2 32.5064 134.1543 93.2016 0.0000 -34.3406 0.0000
# 3 43.1478 93.2016 171.3069 0.0000 -45.3038 0.0000
# 4 0.0000 0.0000 0.0000 29.9720 0.0000 -14.1809
# 5 -29.0688 -34.3406 -45.3038 0.0000 44.8248 0.0000
# 6 0.0000 0.0000 0.0000 -14.1809 0.0000 -0.0186
#
#
#
# Elastic Compliance Matrix: (Units=1/GPa)
#
#
# Indices 1 2 3 4 5 6 
#
# 1 0.011656 -0.000553 -0.001021 0.000000 0.006103 0.000000
# 2 -0.000553 0.012435 -0.005734 0.000000 0.003373 0.000000
# 3 -0.001021 -0.005734 0.010751 0.000000 0.005811 0.000000
# 4 0.000000 0.000000 0.000000 0.000092 0.000000 -0.070322
# 5 0.006103 0.003373 0.005811 0.000000 0.034724 0.000000
# 6 0.000000 0.000000 0.000000 -0.070322 0.000000 -0.148629
#
#
# Mechanical properties :
#
#
# Convention : Reuss Voigt Hill
#
# Bulk Modulus (GPa) = 49.44098 83.27895 66.35996
# Shear Modulus (GPa) = -86.78718 31.15185 -27.81766
#
# Velocity S-wave (km/s) = -6.11454 3.66335 -3.46176
# Velocity P-wave (km/s) = 5.34333 7.33279 3.55096
#
# Compressibility (1/GPa) = 0.02022614
#
# Stress axis : x y z
#
# Youngs Moduli (GPa) = 85.79540 80.41679 93.01236
#
# Poissons Ratio (x) = 0.04443 0.09497
# Poissons Ratio (y) = 0.04741 0.53337
# Poissons Ratio (z) = 0.08760 0.46114
#
# Static dielectric constant tensor:
#      x y z
#    x 1.982750 0.000000 0.023990 
#    y 0.000000 1.802030 0.000000 
#    z 0.023990 0.000000 1.891360 
# 
# From -- ./inp_files/44491.got.cif
#   From: 2010.05.17/outbox.cif.g08.bks.cpg/sg11_23_cif.got.tgz:44491.got - 2010.06.03 12:22:45.
