data_PCOD9158699
_publ_section_title
;
Structure prediction by ZEFSAII (Michael W. Deem and Ramdas Pophale) SiO2 
 PCOD9158699
Probable space group: P 21/M
;
_chemical_formula_sum "Si O2"
_cell_formula_units_Z 32
_cell_length_a 14.524206
_cell_length_b 8.640664
_cell_length_c 32.545241
_cell_angle_alpha 90.000000
_cell_angle_beta 150.685711
_cell_angle_gamma 90.000000
_cell_volume 1999.716128
_symmetry_space_group_name_H-M "P 21/M"
_symmetry_group_IT_number 11
_symmetry_cell_setting 'monoclinic'
loop_
_space_group_symop_operation_xyz
x,y,z
-x,1/2+y,-z
-x,-y,-z
x,1/2-y,z
loop_
_atom_site_type_symbol
_atom_site_label
_atom_site_fract_x
_atom_site_fract_y
_atom_site_fract_z
Si Si1 0.934031 0.934495 0.518067
Si Si2 0.136052 0.064690 0.676799
Si Si3 0.775986 0.436083 0.588980
Si Si4 0.412875 0.933644 0.401636
Si Si5 0.484298 0.564959 0.641687
Si Si6 0.916381 0.064257 0.010195
Si Si7 0.300208 0.062181 0.192890
Si Si8 0.453581 0.064616 0.162963
O O1 0.947346 0.750000 0.523145
O O2 0.061855 0.000622 0.604426
O O3 0.000000 0.000000 0.500000
O O4 0.719687 0.987442 0.441588
O O5 0.146898 0.250000 0.678675
O O6 0.977888 0.023356 0.649020
O O7 0.339781 0.996904 0.765742
O O8 0.749610 0.250000 0.573970
O O9 0.739591 0.473174 0.622580
O O10 0.612850 0.519189 0.499572
O O11 0.409370 0.750000 0.393229
O O12 0.398058 0.020977 0.352886
O O13 0.458610 0.750000 0.633599
O O14 0.586714 0.510431 0.723153
O O15 0.907076 0.250000 0.005042
O O16 0.079275 0.018849 0.105882
O O17 0.707331 0.996959 0.930355
O O18 0.000000 0.000000 0.000000
O O19 0.306147 0.250000 0.195225
O O20 0.395701 0.012814 0.186991
O O21 0.450888 0.250000 0.161567
#
# Coordination Sequence:
#
# PCOD9158699 Si02
#       8
#     4   4   4   4   4   4   4   4
#     4  12  24  36  48  67  97 135 170 204 238 285
#     4  11  21  34  51  72  96 129 167 204 245 293
#     4   9  19  34  51  69  94 126 163 205 250 297
#     4  10  19  32  50  72  95 124 162 206 252 295
#     4  11  20  33  50  71  98 131 166 203 244 292
#     4   9  16  30  49  70  95 126 163 205 247 289
#     4   8  17  31  48  68  95 129 163 196 237 287
#     4  10  19  32  49  72 100 131 164 202 245 294
#
# _framework density 16.002271
#
# number of rings (size 3 to 8) (size 9 to 14) (size 15 to 20)
#    0.000    2.000    1.250    4.500    0.000    2.000 
#    0.000    6.875    0.000    0.000    0.000    0.875 
#    0.000    0.000    0.000    0.000    0.000    0.000 
#
# Total GULP energy -178501.301478 kJ/mol
# GULP energy per Si atom -5578.165671 kJ/mol
# Density = 1.596585 g / cm^3
# Si number density = 16.002271 Si / 1000 Ang^3
#
#
#
# Elastic Constant Matrix: (Units=GPa)
#
#
# Indices 1 2 3 4 5 6 
#
# 1 79.0820 21.7343 18.8166 0.0000 17.8146 0.0000
# 2 21.7343 50.7385 17.4486 0.0000 10.7433 0.0000
# 3 18.8166 17.4486 59.4788 0.0000 28.6188 0.0000
# 4 0.0000 0.0000 0.0000 21.2265 0.0000 1.8109
# 5 17.8146 10.7433 28.6188 0.0000 22.0028 0.0000
# 6 0.0000 0.0000 0.0000 1.8109 0.0000 23.0702
#
#
#
# Elastic Compliance Matrix: (Units=1/GPa)
#
#
# Indices 1 2 3 4 5 6 
#
# 1 0.016773 -0.005118 0.004081 0.000000 -0.016389 0.000000
# 2 -0.005118 0.023808 -0.004719 0.000000 -0.001343 0.000000
# 3 0.004081 -0.004719 0.046470 0.000000 -0.061443 0.000000
# 4 0.000000 0.000000 0.000000 0.047428 0.000000 -0.003723
# 5 -0.016389 -0.001343 -0.061443 0.000000 0.139293 0.000000
# 6 0.000000 0.000000 0.000000 -0.003723 0.000000 0.043638
#
#
# Mechanical properties :
#
#
# Convention : Reuss Voigt Hill
#
# Bulk Modulus (GPa) = 13.23813 33.92205 23.58009
# Shear Modulus (GPa) = 14.12025 22.01322 18.06673
#
# Velocity S-wave (km/s) = 2.97373 3.71297 3.36372
# Velocity P-wave (km/s) = 4.48122 6.29491 5.46385
#
# Compressibility (1/GPa) = 0.07553935
#
# Stress axis : x y z
#
# Youngs Moduli (GPa) = 59.62113 42.00183 21.51935
#
# Poissons Ratio (x) = 0.21496 -0.08782
# Poissons Ratio (y) = 0.30513 0.10155
# Poissons Ratio (z) = -0.24332 0.19820
#
# Static dielectric constant tensor:
#      x y z
#    x 1.537650 0.000000 0.005050 
#    y 0.000000 1.539820 0.000000 
#    z 0.005050 0.000000 1.532530 
# 
# From -- ./inp_files/73314.got.cif
#   From: 2010.05.17/outbox.cif.g08.bks.cpg/sg11_37_cif.got.tgz:73314.got - 2010.06.03 12:22:45.
