data_PCOD9158011
_publ_section_title
;
Structure prediction by ZEFSAII (Michael W. Deem and Ramdas Pophale) SiO2 
 PCOD9158011
Probable space group: P 21/M
;
_chemical_formula_sum "Si O2"
_cell_formula_units_Z 32
_cell_length_a 24.488689
_cell_length_b 8.051228
_cell_length_c 15.758947
_cell_angle_alpha 90.000000
_cell_angle_beta 147.913524
_cell_angle_gamma 90.000000
_cell_volume 1650.485781
_symmetry_space_group_name_H-M "P 21/M"
_symmetry_group_IT_number 11
_symmetry_cell_setting 'monoclinic'
loop_
_space_group_symop_operation_xyz
x,y,z
-x,1/2+y,-z
-x,-y,-z
x,1/2-y,z
loop_
_atom_site_type_symbol
_atom_site_label
_atom_site_fract_x
_atom_site_fract_y
_atom_site_fract_z
Si Si1 0.339434 0.946784 0.956045
Si Si2 0.571282 0.053057 0.290165
Si Si3 0.070869 0.055097 0.468528
Si Si4 0.093485 0.046277 0.314993
Si Si5 0.247607 0.446860 0.370148
Si Si6 0.867428 0.554041 0.265193
Si Si7 0.920286 0.447813 0.968997
Si Si8 0.618348 0.050153 0.171397
O O1 0.323097 0.750000 0.933479
O O2 0.326882 0.013708 0.841929
O O3 0.253541 0.025404 0.902960
O O4 0.456893 0.979543 0.137861
O O5 0.559669 0.250000 0.265362
O O6 0.633704 0.989739 0.288066
O O7 0.639941 0.015575 0.462222
O O8 0.095865 0.250000 0.502918
O O9 0.113689 0.984703 0.436785
O O10 0.107655 0.984349 0.607013
O O11 0.947338 0.032943 0.307859
O O12 0.096362 0.250000 0.319849
O O13 0.173664 0.988435 0.349173
O O14 0.979455 0.997346 0.131983
O O15 0.252247 0.250000 0.384128
O O16 0.189807 0.487078 0.206388
O O17 0.889723 0.750000 0.292055
O O18 0.914314 0.250000 0.962895
O O19 0.000000 0.500000 0.000000
O O20 0.629135 0.250000 0.184502
O O21 0.500000 0.000000 0.000000
#
# Coordination Sequence:
#
# PCOD9158011 Si02
#       8
#     4   4   4   4   4   4   4   4
#     4  10  19  32  48  65  90 126 161 195 237 282
#     4  10  19  31  45  67  95 124 160 198 234 275
#     4   9  18  34  51  68  92 123 160 199 239 282
#     4   8  16  30  49  70  92 124 161 194 233 282
#     4  10  19  30  46  70 100 130 161 192 232 283
#     4  10  20  32  48  70  95 123 158 201 243 278
#     4   9  16  29  47  68  96 125 157 194 236 283
#     4   8  16  28  41  59  85 116 153 191 226 267
#
# _framework density 19.388231000000001
#
# number of rings (size 3 to 8) (size 9 to 14) (size 15 to 20)
#    0.000    2.750    0.000    2.625    1.750    1.500 
#    0.000    3.750    0.000    0.000    0.000    0.875 
#    0.000    0.000    0.000    0.000    0.000    0.000 
#
# Total GULP energy -178254.491454 kJ/mol
# GULP energy per Si atom -5570.452858 kJ/mol
# Density = 1.934410 g / cm^3
# Si number density = 19.388231 Si / 1000 Ang^3
#
#
#
# Elastic Constant Matrix: (Units=GPa)
#
#
# Indices 1 2 3 4 5 6 
#
# 1 30.3564 -4.9709 -4.5009 0.0000 9.8087 0.0000
# 2 -4.9709 27.6110 -4.7942 0.0000 -2.0728 0.0000
# 3 -4.5009 -4.7942 73.4417 0.0000 4.8759 0.0000
# 4 0.0000 0.0000 0.0000 22.4466 0.0000 5.2497
# 5 9.8087 -2.0728 4.8759 0.0000 24.0314 0.0000
# 6 0.0000 0.0000 0.0000 5.2497 0.0000 14.0264
#
#
#
# Elastic Compliance Matrix: (Units=1/GPa)
#
#
# Indices 1 2 3 4 5 6 
#
# 1 0.039967 0.006645 0.003982 0.000000 -0.016548 0.000000
# 2 0.006645 0.037912 0.002884 0.000000 -0.000027 0.000000
# 3 0.003982 0.002884 0.014333 0.000000 -0.004285 0.000000
# 4 0.000000 0.000000 0.000000 0.048824 0.000000 -0.018273
# 5 -0.016548 -0.000027 -0.004285 0.000000 0.049233 0.000000
# 6 0.000000 0.000000 0.000000 -0.018273 0.000000 0.078133
#
#
# Mechanical properties :
#
#
# Convention : Reuss Voigt Hill
#
# Bulk Modulus (GPa) = 8.38694 11.43079 9.90886
# Shear Modulus (GPa) = 17.78556 21.81257 19.79906
#
# Velocity S-wave (km/s) = 3.03204 3.35780 3.19907
# Velocity P-wave (km/s) = 4.07344 4.57621 4.33212
#
# Compressibility (1/GPa) = 0.11923305
#
# Stress axis : x y z
#
# Youngs Moduli (GPa) = 25.02050 26.37657 69.76913
#
# Poissons Ratio (x) = -0.17526 -0.27781
# Poissons Ratio (y) = -0.16625 -0.20121
# Poissons Ratio (z) = -0.09963 -0.07607
#
# Static dielectric constant tensor:
#      x y z
#    x 1.695040 0.000000 -0.002330 
#    y 0.000000 1.671870 0.000000 
#    z -0.002330 0.000000 1.734760 
# 
# From -- ./inp_files/56174.got.cif
#   From: 2010.05.17/outbox.cif.g08.bks.cpg/sg11_29_cif.got.tgz:56174.got - 2010.06.03 12:22:45.
