data_PCOD9158008
_publ_section_title
;
Structure prediction by ZEFSAII (Michael W. Deem and Ramdas Pophale) SiO2 
 PCOD9158008
Probable space group: P 21/M
;
_chemical_formula_sum "Si O2"
_cell_formula_units_Z 32
_cell_length_a 14.012597
_cell_length_b 28.605221
_cell_length_c 12.174284
_cell_angle_alpha 90.000000
_cell_angle_beta 20.504216
_cell_angle_gamma 90.000000
_cell_volume 1709.299344
_symmetry_space_group_name_H-M "P 21/M"
_symmetry_group_IT_number 11
_symmetry_cell_setting 'monoclinic'
loop_
_space_group_symop_operation_xyz
x,y,z
-x,1/2+y,-z
-x,-y,-z
x,1/2-y,z
loop_
_atom_site_type_symbol
_atom_site_label
_atom_site_fract_x
_atom_site_fract_y
_atom_site_fract_z
Si Si1 0.281758 0.096069 0.284552
Si Si2 0.779636 0.464131 0.784704
Si Si3 0.046697 0.128338 0.002179
Si Si4 0.799384 0.585928 0.375076
Si Si5 0.649536 0.853736 0.005876
Si Si6 0.496705 0.579932 0.357605
Si Si7 0.312248 0.522612 0.866075
Si Si8 0.891245 0.195487 0.351902
O O1 0.283024 0.103676 0.414736
O O2 0.972336 0.080965 0.593350
O O3 0.504191 0.054299 0.024457
O O4 0.346570 0.136164 0.127570
O O5 0.000000 0.500000 0.500000
O O6 0.693117 0.482900 0.996418
O O7 0.821489 0.089360 0.279674
O O8 0.952258 0.175321 0.164350
O O9 0.081194 0.124901 0.834728
O O10 0.331505 0.114452 0.750477
O O11 0.536843 0.562171 0.602917
O O12 0.021324 0.544044 0.147038
O O13 0.571841 0.901886 0.154069
O O14 0.419428 0.816676 0.286175
O O15 0.928477 0.834780 0.757198
O O16 0.594000 0.527589 0.277559
O O17 0.949911 0.250000 0.297126
#
# Coordination Sequence:
#
# PCOD9158008 Si02
#       8
#     4   4   4   4   4   4   4   4
#     4  10  20  33  50  73 103 138 172 208 253 300
#     4  10  19  30  46  69 102 143 183 216 242 282
#     4  10  21  35  52  74 101 134 171 212 257 308
#     4  10  21  34  48  72 104 144 181 205 243 296
#     4  10  20  35  56  81 105 131 165 212 268 315
#     4  10  20  32  49  74 103 137 178 219 254 286
#     4  10  20  31  46  71 104 143 182 216 245 281
#     4  10  21  38  60  82 101 124 160 212 271 325
#
# _framework density 18.721121
#
# number of rings (size 3 to 8) (size 9 to 14) (size 15 to 20)
#    0.000    2.000    0.000    3.750    0.000    7.000 
#    0.000    0.000    0.000    1.500    0.000    0.000 
#    0.000    0.000    0.000    0.000    0.000    0.000 
#
# Total GULP energy -178450.961037 kJ/mol
# GULP energy per Si atom -5576.592532 kJ/mol
# Density = 1.867851 g / cm^3
# Si number density = 18.721121 Si / 1000 Ang^3
#
#
#
# Elastic Constant Matrix: (Units=GPa)
#
#
# Indices 1 2 3 4 5 6 
#
# 1 50.8599 14.4298 23.9558 0.0000 12.2521 0.0000
# 2 14.4298 50.3974 14.1937 0.0000 25.1120 0.0000
# 3 23.9558 14.1937 54.7829 0.0000 -2.8211 0.0000
# 4 0.0000 0.0000 0.0000 12.7053 0.0000 -2.9367
# 5 12.2521 25.1120 -2.8211 0.0000 38.4492 0.0000
# 6 0.0000 0.0000 0.0000 -2.9367 0.0000 12.2817
#
#
#
# Elastic Compliance Matrix: (Units=1/GPa)
#
#
# Indices 1 2 3 4 5 6 
#
# 1 0.028082 0.000840 -0.013036 0.000000 -0.010453 0.000000
# 2 0.000840 0.034173 -0.010424 0.000000 -0.023352 0.000000
# 3 -0.013036 -0.010424 0.027323 0.000000 0.012966 0.000000
# 4 0.000000 0.000000 0.000000 0.083312 0.000000 0.019921
# 5 -0.010453 -0.023352 0.012966 0.000000 0.045542 0.000000
# 6 0.000000 0.000000 0.000000 0.019921 0.000000 0.086185
#
#
# Mechanical properties :
#
#
# Convention : Reuss Voigt Hill
#
# Bulk Modulus (GPa) = 22.55390 29.02211 25.78801
# Shear Modulus (GPa) = 13.71232 19.58464 16.64848
#
# Velocity S-wave (km/s) = 2.70932 3.23789 2.98533
# Velocity P-wave (km/s) = 4.67554 5.43273 5.06830
#
# Compressibility (1/GPa) = 0.04433822
#
# Stress axis : x y z
#
# Youngs Moduli (GPa) = 35.61023 29.26271 36.59982
#
# Poissons Ratio (x) = -0.02457 0.47710
# Poissons Ratio (y) = -0.02990 0.38150
# Poissons Ratio (z) = 0.46420 0.30502
#
# Static dielectric constant tensor:
#      x y z
#    x 1.670910 0.000000 0.026520 
#    y 0.000000 1.628990 0.000000 
#    z 0.026520 0.000000 1.684080 
# 
# From -- ./inp_files/40197.got.cif
#   From: 2010.05.17/outbox.cif.g08.bks.cpg/sg11_21_cif.got.tgz:40197.got - 2010.06.03 12:22:45.
