data_PCOD9158916
_publ_section_title
;
Structure prediction by ZEFSAII (Michael W. Deem and Ramdas Pophale) SiO2 
 PCOD9158916
Probable space group: P 21/M
;
_chemical_formula_sum "Si O2"
_cell_formula_units_Z 28
_cell_length_a 6.548315
_cell_length_b 21.820808
_cell_length_c 12.231632
_cell_angle_alpha 90.000000
_cell_angle_beta 67.649765
_cell_angle_gamma 90.000000
_cell_volume 1616.473617
_symmetry_space_group_name_H-M "P 21/M"
_symmetry_group_IT_number 11
_symmetry_cell_setting 'monoclinic'
loop_
_space_group_symop_operation_xyz
x,y,z
-x,1/2+y,-z
-x,-y,-z
x,1/2-y,z
loop_
_atom_site_type_symbol
_atom_site_label
_atom_site_fract_x
_atom_site_fract_y
_atom_site_fract_z
Si Si1 0.529726 0.951219 0.652888
Si Si2 0.829652 0.001409 0.776366
Si Si3 0.738587 0.820535 0.978774
Si Si4 0.698947 0.393828 0.948837
Si Si5 0.112737 0.908404 0.853390
Si Si6 0.869715 0.678733 0.204085
Si Si7 0.731896 0.931775 0.380016
O O1 0.323857 0.909925 0.731772
O O2 0.647866 0.926383 0.520698
O O3 0.696632 0.960157 0.718921
O O4 0.429520 0.018727 0.645209
O O5 0.676939 0.050860 0.867906
O O6 0.025096 0.037701 0.674350
O O7 0.951715 0.961696 0.843913
O O8 0.707896 0.750000 0.955722
O O9 0.965557 0.847504 0.885105
O O10 0.530915 0.860485 0.984542
O O11 0.759663 0.825408 0.106352
O O12 0.880474 0.346369 0.863741
O O13 0.799759 0.418345 0.041745
O O14 0.868288 0.750000 0.238094
O O15 0.750375 0.631770 0.310578
#
# Coordination Sequence:
#
# PCOD9158916 Si02
#       7
#     4   4   4   4   4   4   4
#     4  10  19  33  51  73 103 138 169 205 253 301
#     4  10  19  32  52  77 103 131 166 209 256 303
#     4  10  20  34  52  73  99 133 168 204 250 302
#     4  10  19  32  52  76 102 131 162 205 257 304
#     4  10  21  33  48  74 105 133 166 205 249 304
#     4   9  18  33  52  75  99 124 163 211 253 297
#     4   9  19  33  51  75 101 132 170 210 253 299
#
# _framework density 17.321656000000001
#
# number of rings (size 3 to 8) (size 9 to 14) (size 15 to 20)
#    0.000    2.286    0.000    3.000    0.000    5.143 
#    0.000    0.714    0.000    0.857    0.000    0.000 
#    0.000    0.000    0.000    0.000    0.000    0.000 
#
# Total GULP energy -156217.251281 kJ/mol
# GULP energy per Si atom -5579.187546 kJ/mol
# Density = 1.728223 g / cm^3
# Si number density = 17.321656 Si / 1000 Ang^3
#
#
#
# Elastic Constant Matrix: (Units=GPa)
#
#
# Indices 1 2 3 4 5 6 
#
# 1 76.6959 35.6049 40.9020 0.0000 3.2699 0.0000
# 2 35.6049 80.0208 70.7210 0.0000 -7.0834 0.0000
# 3 40.9020 70.7210 105.6955 0.0000 -9.1083 0.0000
# 4 0.0000 0.0000 0.0000 20.3462 0.0000 -0.5539
# 5 3.2699 -7.0834 -9.1083 0.0000 18.4998 0.0000
# 6 0.0000 0.0000 0.0000 -0.5539 0.0000 18.3803
#
#
#
# Elastic Compliance Matrix: (Units=1/GPa)
#
#
# Indices 1 2 3 4 5 6 
#
# 1 0.017861 -0.004714 -0.004371 0.000000 -0.007114 0.000000
# 2 -0.004714 0.031876 -0.019195 0.000000 0.003588 0.000000
# 3 -0.004371 -0.019195 0.024467 0.000000 0.005469 0.000000
# 4 0.000000 0.000000 0.000000 0.049189 0.000000 0.001482
# 5 -0.007114 0.003588 0.005469 0.000000 0.059379 0.000000
# 6 0.000000 0.000000 0.000000 0.001482 0.000000 0.054451
#
#
# Mechanical properties :
#
#
# Convention : Reuss Voigt Hill
#
# Bulk Modulus (GPa) = 56.67370 61.87422 59.27396
# Shear Modulus (GPa) = 16.68536 19.12421 17.90479
#
# Velocity S-wave (km/s) = 3.10702 3.32635 3.21855
# Velocity P-wave (km/s) = 6.75728 7.10993 6.93585
#
# Compressibility (1/GPa) = 0.01764487
#
# Stress axis : x y z
#
# Youngs Moduli (GPa) = 55.98724 31.37172 40.87140
#
# Poissons Ratio (x) = 0.14789 0.17863
# Poissons Ratio (y) = 0.26394 0.78451
# Poissons Ratio (z) = 0.24470 0.60217
#
# Static dielectric constant tensor:
#      x y z
#    x 1.589430 0.000000 -0.006510 
#    y 0.000000 1.573990 0.000000 
#    z -0.006510 0.000000 1.575370 
# 
# From -- ./inp_files/4897.got.cif
#   From: 2010.05.17/outbox.cif.g08.bks.cpg/sg11_3_cif.got.tgz:4897.got - 2010.06.03 12:22:45.
