data_PCOD9158900
_publ_section_title
;
Structure prediction by ZEFSAII (Michael W. Deem and Ramdas Pophale) SiO2 
 PCOD9158900
Probable space group: P 21/M
;
_chemical_formula_sum "Si O2"
_cell_formula_units_Z 32
_cell_length_a 13.897389
_cell_length_b 8.804785
_cell_length_c 20.184716
_cell_angle_alpha 90.000000
_cell_angle_beta 133.241179
_cell_angle_gamma 90.000000
_cell_volume 1799.244272
_symmetry_space_group_name_H-M "P 21/M"
_symmetry_group_IT_number 11
_symmetry_cell_setting 'monoclinic'
loop_
_space_group_symop_operation_xyz
x,y,z
-x,1/2+y,-z
-x,-y,-z
x,1/2-y,z
loop_
_atom_site_type_symbol
_atom_site_label
_atom_site_fract_x
_atom_site_fract_y
_atom_site_fract_z
Si Si1 0.699904 0.420481 0.566864
Si Si2 0.506494 0.574207 0.729339
Si Si3 0.513295 0.417236 0.606591
Si Si4 0.211807 0.066461 0.101762
Si Si5 0.028090 0.431875 0.267580
Si Si6 0.030345 0.931997 0.613779
Si Si7 0.988527 0.067151 0.098091
Si Si8 0.215259 0.430893 0.589690
O O1 0.703323 0.250000 0.539603
O O2 0.605559 0.415594 0.586445
O O3 0.633049 0.541812 0.486935
O O4 0.839050 0.476018 0.657635
O O5 0.488412 0.750000 0.736856
O O6 0.552499 0.548531 0.675259
O O7 0.635733 0.513322 0.828717
O O8 0.363210 0.496564 0.663878
O O9 0.517967 0.250000 0.640150
O O10 0.215234 0.250000 0.102550
O O11 0.127859 0.022108 0.128378
O O12 0.125867 0.006238 0.000157
O O13 0.054354 0.250000 0.279061
O O14 0.948804 0.461727 0.298325
O O15 0.977498 0.472932 0.170468
O O16 0.041009 0.750000 0.608473
O O17 0.883404 0.977897 0.517654
O O18 0.134869 0.015357 0.616600
O O19 0.979470 0.250000 0.088719
O O20 0.224793 0.250000 0.591904
#
# Coordination Sequence:
#
# PCOD9158900 Si02
#       8
#     4   4   4   4   4   4   4   4
#     4  10  20  31  45  68  99 135 170 203 243 295
#     4  11  21  33  52  75 100 132 170 211 256 307
#     4  10  20  32  45  66  99 135 169 205 245 293
#     4   9  19  34  51  74 104 136 169 208 255 304
#     4  10  19  32  52  75 100 131 168 210 255 304
#     4   9  19  35  53  74 102 135 168 206 254 304
#     4   9  18  33  53  76 102 134 171 210 253 302
#     4  10  20  34  53  77 104 134 169 209 253 304
#
# _framework density 17.785245
#
# number of rings (size 3 to 8) (size 9 to 14) (size 15 to 20)
#    0.000    2.250    0.000    3.000    0.000    6.000 
#    0.000    2.500    0.000    0.750    0.000    0.000 
#    0.000    0.000    0.000    0.000    0.000    0.000 
#
# Total GULP energy -178306.047930 kJ/mol
# GULP energy per Si atom -5572.063998 kJ/mol
# Density = 1.774477 g / cm^3
# Si number density = 17.785245 Si / 1000 Ang^3
#
#
#
# Elastic Constant Matrix: (Units=GPa)
#
#
# Indices 1 2 3 4 5 6 
#
# 1 72.0441 22.2926 46.7344 0.0000 1.2811 0.0000
# 2 22.2926 13.1077 16.2420 0.0000 2.0049 0.0000
# 3 46.7344 16.2420 91.0119 0.0000 4.7150 0.0000
# 4 0.0000 0.0000 0.0000 25.9176 0.0000 1.3651
# 5 1.2811 2.0049 4.7150 0.0000 31.7906 0.0000
# 6 0.0000 0.0000 0.0000 1.3651 0.0000 26.9935
#
#
#
# Elastic Compliance Matrix: (Units=1/GPa)
#
#
# Indices 1 2 3 4 5 6 
#
# 1 0.034794 -0.047896 -0.009476 0.000000 0.003024 0.000000
# 2 -0.047896 0.164297 -0.004322 0.000000 -0.007790 0.000000
# 3 -0.009476 -0.004322 0.016719 0.000000 -0.001825 0.000000
# 4 0.000000 0.000000 0.000000 0.038687 0.000000 -0.001956
# 5 0.003024 -0.007790 -0.001825 0.000000 0.032096 0.000000
# 6 0.000000 0.000000 0.000000 -0.001956 0.000000 0.037145
#
#
# Mechanical properties :
#
#
# Convention : Reuss Voigt Hill
#
# Bulk Modulus (GPa) = 10.81996 38.52243 24.67120
# Shear Modulus (GPa) = 10.46170 22.99997 16.73084
#
# Velocity S-wave (km/s) = 2.42796 3.60002 3.07043
# Velocity P-wave (km/s) = 3.73589 6.24395 5.14509
#
# Compressibility (1/GPa) = 0.09242178
#
# Stress axis : x y z
#
# Youngs Moduli (GPa) = 28.74063 6.08654 59.81121
#
# Poissons Ratio (x) = 0.29152 0.56675
# Poissons Ratio (y) = 1.37656 0.25853
# Poissons Ratio (z) = 0.27234 0.02631
#
# Static dielectric constant tensor:
#      x y z
#    x 1.640060 0.000000 -0.007850 
#    y 0.000000 1.614400 0.000000 
#    z -0.007850 0.000000 1.611560 
# 
# From -- ./inp_files/65231.got.cif
#   From: 2010.05.17/outbox.cif.g08.bks.cpg/sg11_33_cif.got.tgz:65231.got - 2010.06.03 12:22:45.
