data_PCOD9158054
_publ_section_title
;
Structure prediction by ZEFSAII (Michael W. Deem and Ramdas Pophale) SiO2 
 PCOD9158054
Probable space group: P 21/M
;
_chemical_formula_sum "Si O2"
_cell_formula_units_Z 32
_cell_length_a 21.419288
_cell_length_b 7.668343
_cell_length_c 23.687405
_cell_angle_alpha 90.000000
_cell_angle_beta 156.075549
_cell_angle_gamma 90.000000
_cell_volume 1577.788779
_symmetry_space_group_name_H-M "P 21/M"
_symmetry_group_IT_number 11
_symmetry_cell_setting 'monoclinic'
loop_
_space_group_symop_operation_xyz
x,y,z
-x,1/2+y,-z
-x,-y,-z
x,1/2-y,z
loop_
_atom_site_type_symbol
_atom_site_label
_atom_site_fract_x
_atom_site_fract_y
_atom_site_fract_z
Si Si1 0.391953 0.045604 0.826176
Si Si2 0.279432 0.462150 0.854443
Si Si3 0.208608 0.037673 0.137860
Si Si4 0.997045 0.956173 0.800939
Si Si5 0.038780 0.953956 0.356964
Si Si6 0.334744 0.039069 0.126437
Si Si7 0.127798 0.452823 0.187962
Si Si8 0.350237 0.547098 0.665599
O O1 0.358918 0.250000 0.793670
O O2 0.307905 0.979994 0.813423
O O3 0.345795 0.960595 0.729399
O O4 0.573477 0.020867 0.987885
O O5 0.283029 0.250000 0.858035
O O6 0.119456 0.526528 0.747987
O O7 0.196791 0.250000 0.129295
O O8 0.327799 0.990903 0.187129
O O9 0.229103 0.976485 0.219475
O O10 0.045765 0.965602 0.980523
O O11 0.969018 0.750000 0.773898
O O12 0.892307 0.029055 0.765983
O O13 0.965765 0.034575 0.714192
O O14 0.175845 0.980576 0.966016
O O15 0.037474 0.750000 0.372305
O O16 0.195932 0.031740 0.511507
O O17 0.331049 0.250000 0.119949
O O18 0.488034 0.971955 0.222887
O O19 0.169338 0.250000 0.229177
O O20 0.353793 0.750000 0.650818
#
# Coordination Sequence:
#
# PCOD9158054 Si02
#       8
#     4   4   4   4   4   4   4   4
#     4  10  20  34  54  78  99 121 153 193 236 281
#     4   9  19  36  55  74  97 125 157 192 230 276
#     4   8  13  23  41  64  89 118 151 187 229 276
#     4  10  19  30  47  72  98 123 155 197 241 281
#     4  10  21  36  51  67  93 130 165 194 228 275
#     4   9  17  30  49  71  94 123 159 195 232 279
#     4   8  14  24  39  63  93 119 146 187 236 278
#     4  10  21  35  50  70  97 128 160 195 234 275
#
# _framework density 20.281548999999998
#
# number of rings (size 3 to 8) (size 9 to 14) (size 15 to 20)
#    0.000    2.750    0.000    1.500    0.000    6.000 
#    0.000    0.000    0.000    0.750    0.000    0.000 
#    0.000    0.000    0.000    0.000    0.000    0.875 
#
# Total GULP energy -178339.019252 kJ/mol
# GULP energy per Si atom -5573.094352 kJ/mol
# Density = 2.023539 g / cm^3
# Si number density = 20.281549 Si / 1000 Ang^3
#
#
#
# Elastic Constant Matrix: (Units=GPa)
#
#
# Indices 1 2 3 4 5 6 
#
# 1 96.3005 -10.1099 58.1159 0.0000 -29.2388 0.0000
# 2 -10.1099 37.0383 -10.2032 0.0000 5.5157 0.0000
# 3 58.1159 -10.2032 69.5105 0.0000 -16.5139 0.0000
# 4 0.0000 0.0000 0.0000 -5.6519 0.0000 5.7553
# 5 -29.2388 5.5157 -16.5139 0.0000 3.6446 0.0000
# 6 0.0000 0.0000 0.0000 5.7553 0.0000 7.1074
#
#
#
# Elastic Compliance Matrix: (Units=1/GPa)
#
#
# Indices 1 2 3 4 5 6 
#
# 1 0.002106 0.005211 -0.014971 0.000000 -0.058822 0.000000
# 2 0.005211 0.027209 0.002803 0.000000 0.013325 0.000000
# 3 -0.014971 0.002803 0.029121 0.000000 0.007606 0.000000
# 4 0.000000 0.000000 0.000000 -0.096971 0.000000 0.078524
# 5 -0.058822 0.013325 0.007606 0.000000 -0.183226 0.000000
# 6 0.000000 0.000000 0.000000 0.078524 0.000000 0.077113
#
#
# Mechanical properties :
#
#
# Convention : Reuss Voigt Hill
#
# Bulk Modulus (GPa) = 22.46029 30.93940 26.69984
# Shear Modulus (GPa) = -43.14351 12.02312 -15.56019
#
# Velocity S-wave (km/s) = -4.61719 2.43741 -2.77286
# Velocity P-wave (km/s) = 4.16249 4.81761 1.71508
#
# Compressibility (1/GPa) = 0.04452303
#
# Stress axis : x y z
#
# Youngs Moduli (GPa) = 474.81015 36.75223 34.33905
#
# Poissons Ratio (x) = -0.19150 0.51408
# Poissons Ratio (y) = -2.47403 -0.09626
# Poissons Ratio (z) = 7.10822 -0.10303
#
# Static dielectric constant tensor:
#      x y z
#    x 1.771900 0.000000 0.002190 
#    y 0.000000 1.760080 0.000000 
#    z 0.002190 0.000000 1.678380 
# 
# From -- ./inp_files/66462.got.cif
#   From: 2010.05.17/outbox.cif.g08.bks.cpg/sg11_34_cif.got.tgz:66462.got - 2010.06.03 12:22:45.
