data_PCOD9158782
_publ_section_title
;
Structure prediction by ZEFSAII (Michael W. Deem and Ramdas Pophale) SiO2 
 PCOD9158782
Probable space group: P 21/M
;
_chemical_formula_sum "Si O2"
_cell_formula_units_Z 32
_cell_length_a 29.579049
_cell_length_b 8.694843
_cell_length_c 12.874838
_cell_angle_alpha 90.000000
_cell_angle_beta 150.448265
_cell_angle_gamma 90.000000
_cell_volume 1633.123138
_symmetry_space_group_name_H-M "P 21/M"
_symmetry_group_IT_number 11
_symmetry_cell_setting 'monoclinic'
loop_
_space_group_symop_operation_xyz
x,y,z
-x,1/2+y,-z
-x,-y,-z
x,1/2-y,z
loop_
_atom_site_type_symbol
_atom_site_label
_atom_site_fract_x
_atom_site_fract_y
_atom_site_fract_z
Si Si1 0.228234 0.933119 0.783912
Si Si2 0.857224 0.936661 0.005098
Si Si3 0.718364 0.564453 0.544943
Si Si4 0.487688 0.438431 0.808777
Si Si5 0.277088 0.073028 0.085291
Si Si6 0.030213 0.066632 0.447852
Si Si7 0.475410 0.075249 0.558337
Si Si8 0.314883 0.564260 0.736220
O O1 0.217834 0.750000 0.760228
O O2 0.270961 0.981805 0.759015
O O3 0.130618 0.008778 0.615510
O O4 0.290511 0.978338 0.007354
O O5 0.862629 0.750000 0.015897
O O6 0.794046 0.983659 0.781276
O O7 0.805068 0.983750 0.006971
O O8 0.957196 0.008017 0.216434
O O9 0.717407 0.750000 0.543772
O O10 0.614397 0.511384 0.364471
O O11 0.736393 0.504454 0.465289
O O12 0.485763 0.250000 0.803219
O O13 0.506105 0.494360 0.727971
O O14 0.577560 0.484738 0.052355
O O15 0.259429 0.250000 0.019348
O O16 0.364998 0.075218 0.335501
O O17 0.029325 0.250000 0.453175
O O18 0.000000 0.000000 0.500000
O O19 0.508798 0.250000 0.622697
O O20 0.500000 0.000000 0.500000
O O21 0.312797 0.750000 0.727138
#
# Coordination Sequence:
#
# PCOD9158782 Si02
#       8
#     4   4   4   4   4   4   4   4
#     4  11  23  39  59  86 119 156 194 238 294 350
#     4  10  20  37  60  88 116 148 189 238 291 342
#     4  10  20  37  62  86 114 155 199 240 288 340
#     4   9  17  34  57  81 113 154 195 236 283 339
#     4  10  19  33  56  82 113 151 190 236 291 349
#     4  12  24  39  62  91 119 151 189 236 290 350
#     4  10  19  32  50  77 114 155 194 234 288 347
#     4  10  22  38  57  83 118 156 196 243 289 336
#
# _framework density 19.594356999999999
#
# number of rings (size 3 to 8) (size 9 to 14) (size 15 to 20)
#    0.000    1.750    2.500    2.625    0.000    3.000 
#    0.000    1.875    0.000    0.000    0.000    0.000 
#    0.000    0.000    0.000    0.000    0.000    0.000 
#
# Total GULP energy -178595.558303 kJ/mol
# GULP energy per Si atom -5581.111197 kJ/mol
# Density = 1.954976 g / cm^3
# Si number density = 19.594357 Si / 1000 Ang^3
#
#
#
# Elastic Constant Matrix: (Units=GPa)
#
#
# Indices 1 2 3 4 5 6 
#
# 1 73.5241 19.8063 43.1914 0.0000 -18.2739 0.0000
# 2 19.8063 28.7129 24.0192 0.0000 -7.0579 0.0000
# 3 43.1914 24.0192 124.3064 0.0000 -18.2536 0.0000
# 4 0.0000 0.0000 0.0000 27.2240 0.0000 -2.9405
# 5 -18.2739 -7.0579 -18.2536 0.0000 34.4154 0.0000
# 6 0.0000 0.0000 0.0000 -2.9405 0.0000 24.7765
#
#
#
# Elastic Compliance Matrix: (Units=1/GPa)
#
#
# Indices 1 2 3 4 5 6 
#
# 1 0.020123 -0.008611 -0.004358 0.000000 0.006608 0.000000
# 2 -0.008611 0.045917 -0.005605 0.000000 0.001871 0.000000
# 3 -0.004358 -0.005605 0.010989 0.000000 0.002365 0.000000
# 4 0.000000 0.000000 0.000000 0.037209 0.000000 0.004416
# 5 0.006608 0.001871 0.002365 0.000000 0.034203 0.000000
# 6 0.000000 0.000000 0.000000 0.004416 0.000000 0.040885
#
#
# Mechanical properties :
#
#
# Convention : Reuss Voigt Hill
#
# Bulk Modulus (GPa) = 25.07526 44.50858 34.79192
# Shear Modulus (GPa) = 20.85341 26.58494 23.71917
#
# Velocity S-wave (km/s) = 3.26583 3.68743 3.48301
# Velocity P-wave (km/s) = 5.20056 6.39482 5.82836
#
# Compressibility (1/GPa) = 0.03987995
#
# Stress axis : x y z
#
# Youngs Moduli (GPa) = 49.69450 21.77849 90.99860
#
# Poissons Ratio (x) = 0.18754 0.39654
# Poissons Ratio (y) = 0.42794 0.51009
# Poissons Ratio (z) = 0.21655 0.12208
#
# Static dielectric constant tensor:
#      x y z
#    x 1.698670 0.000000 0.018200 
#    y 0.000000 1.657970 0.000000 
#    z 0.018200 0.000000 1.712780 
# 
# From -- ./inp_files/45307.got.cif
#   From: 2010.05.17/outbox.cif.g08.bks.cpg/sg11_23_cif.got.tgz:45307.got - 2010.06.03 12:22:45.
