data_PCOD9158640
_publ_section_title
;
Structure prediction by ZEFSAII (Michael W. Deem and Ramdas Pophale) SiO2 
 PCOD9158640
Probable space group: P 21/M
;
_chemical_formula_sum "Si O2"
_cell_formula_units_Z 32
_cell_length_a 25.314322
_cell_length_b 8.926323
_cell_length_c 20.380127
_cell_angle_alpha 90.000000
_cell_angle_beta 156.566739
_cell_angle_gamma 90.000000
_cell_volume 1831.387230
_symmetry_space_group_name_H-M "P 21/M"
_symmetry_group_IT_number 11
_symmetry_cell_setting 'monoclinic'
loop_
_space_group_symop_operation_xyz
x,y,z
-x,1/2+y,-z
-x,-y,-z
x,1/2-y,z
loop_
_atom_site_type_symbol
_atom_site_label
_atom_site_fract_x
_atom_site_fract_y
_atom_site_fract_z
Si Si1 0.171735 0.071032 0.749480
Si Si2 0.101629 0.572051 0.026556
Si Si3 0.843466 0.928959 0.044568
Si Si4 0.656117 0.571767 0.440954
Si Si5 0.181320 0.571768 0.262973
Si Si6 0.892311 0.927917 0.469661
Si Si7 0.373059 0.070472 0.090932
Si Si8 0.858078 0.428889 0.567152
O O1 0.146185 0.250000 0.728586
O O2 0.182821 0.040993 0.684605
O O3 0.299028 0.033922 0.938312
O O4 0.042802 0.984346 0.628918
O O5 0.078184 0.750000 0.995967
O O6 0.172346 0.513375 0.042085
O O7 0.179879 0.541814 0.183398
O O8 0.959964 0.489040 0.871530
O O9 0.840284 0.750000 0.029697
O O10 0.731600 0.965154 0.970481
O O11 0.989595 0.965348 0.239565
O O12 0.662705 0.750000 0.448519
O O13 0.703921 0.507927 0.565510
O O14 0.509694 0.514634 0.256956
O O15 0.758959 0.505870 0.504993
O O16 0.187360 0.750000 0.280450
O O17 0.891538 0.750000 0.480160
O O18 0.836137 0.012455 0.468615
O O19 0.396854 0.250000 0.119370
O O20 0.842573 0.250000 0.552707
#
# Coordination Sequence:
#
# PCOD9158640 Si02
#       8
#     4   4   4   4   4   4   4   4
#     4   9  18  35  56  81 115 153 191 228 282 342
#     4  10  20  33  56  87 116 144 185 238 281 323
#     4  10  20  35  59  85 112 148 192 232 277 338
#     4  12  25  39  57  85 115 147 189 237 284 335
#     4  10  20  36  56  81 114 153 188 224 281 341
#     4  10  19  31  55  88 117 145 185 241 284 325
#     4  10  21  40  60  80 112 154 191 227 279 344
#     4  11  21  37  59  84 114 151 190 231 281 340
#
# _framework density 17.473092999999999
#
# number of rings (size 3 to 8) (size 9 to 14) (size 15 to 20)
#    0.000    1.750    2.500    2.625    0.000    3.500 
#    0.000    1.250    0.000    0.000    0.000    0.000 
#    0.000    0.000    0.000    0.000    0.000    0.000 
#
# Total GULP energy -178706.840339 kJ/mol
# GULP energy per Si atom -5584.588761 kJ/mol
# Density = 1.743332 g / cm^3
# Si number density = 17.473093 Si / 1000 Ang^3
#
#
#
# Elastic Constant Matrix: (Units=GPa)
#
#
# Indices 1 2 3 4 5 6 
#
# 1 97.5952 59.2789 61.5999 0.0000 -16.0110 0.0000
# 2 59.2789 75.0390 67.6765 0.0000 -9.0008 0.0000
# 3 61.5999 67.6765 127.5794 0.0000 -13.8024 0.0000
# 4 0.0000 0.0000 0.0000 23.6168 0.0000 -1.7226
# 5 -16.0110 -9.0008 -13.8024 0.0000 27.2679 0.0000
# 6 0.0000 0.0000 0.0000 -1.7226 0.0000 33.2112
#
#
#
# Elastic Compliance Matrix: (Units=1/GPa)
#
#
# Indices 1 2 3 4 5 6 
#
# 1 0.021208 -0.014124 -0.002015 0.000000 0.006771 0.000000
# 2 -0.014124 0.035028 -0.012069 0.000000 -0.002840 0.000000
# 3 -0.002015 -0.012069 0.015503 0.000000 0.002680 0.000000
# 4 0.000000 0.000000 0.000000 0.042503 0.000000 0.002205
# 5 0.006771 -0.002840 0.002680 0.000000 0.041068 0.000000
# 6 0.000000 0.000000 0.000000 0.002205 0.000000 0.030225
#
#
# Mechanical properties :
#
#
# Convention : Reuss Voigt Hill
#
# Bulk Modulus (GPa) = 65.26051 75.25823 70.25937
# Shear Modulus (GPa) = 20.23797 24.26308 22.25052
#
# Velocity S-wave (km/s) = 3.40698 3.73043 3.57237
# Velocity P-wave (km/s) = 7.27371 7.85616 7.57054
#
# Compressibility (1/GPa) = 0.01532320
#
# Stress axis : x y z
#
# Youngs Moduli (GPa) = 47.15172 28.54823 64.50247
#
# Poissons Ratio (x) = 0.40323 0.12997
# Poissons Ratio (y) = 0.66599 0.77847
# Poissons Ratio (z) = 0.09501 0.34454
#
# Static dielectric constant tensor:
#      x y z
#    x 1.590280 0.000000 -0.027220 
#    y 0.000000 1.582270 0.000000 
#    z -0.027220 0.000000 1.577690 
# 
# From -- ./inp_files/67288.got.cif
#   From: 2010.05.17/outbox.cif.g08.bks.cpg/sg11_34_cif.got.tgz:67288.got - 2010.06.03 12:22:45.
