data_PCOD9158135
_publ_section_title
;
Structure prediction by ZEFSAII (Michael W. Deem and Ramdas Pophale) SiO2 
 PCOD9158135
Probable space group: P 21/M
;
_chemical_formula_sum "Si O2"
_cell_formula_units_Z 20
_cell_length_a 12.493250
_cell_length_b 8.814511
_cell_length_c 12.496279
_cell_angle_alpha 90.000000
_cell_angle_beta 117.178084
_cell_angle_gamma 90.000000
_cell_volume 1224.178709
_symmetry_space_group_name_H-M "P 21/M"
_symmetry_group_IT_number 11
_symmetry_cell_setting 'monoclinic'
loop_
_space_group_symop_operation_xyz
x,y,z
-x,1/2+y,-z
-x,-y,-z
x,1/2-y,z
loop_
_atom_site_type_symbol
_atom_site_label
_atom_site_fract_x
_atom_site_fract_y
_atom_site_fract_z
Si Si1 0.830326 0.568840 0.508444
Si Si2 0.511891 0.932152 0.837023
Si Si3 0.312620 0.932042 0.923107
Si Si4 0.095671 0.567377 0.685497
Si Si5 0.424866 0.567724 0.563055
O O1 0.814562 0.750000 0.501229
O O2 0.853493 0.511053 0.398146
O O3 0.712185 0.489959 0.500056
O O4 0.954280 0.532143 0.627633
O O5 0.517180 0.750000 0.840148
O O6 0.402695 0.976789 0.866903
O O7 0.482148 0.981377 0.703298
O O8 0.632700 0.996271 0.945304
O O9 0.317709 0.750000 0.935390
O O10 0.179314 0.975423 0.823705
O O11 0.107212 0.750000 0.675892
O O12 0.500000 0.500000 0.500000
O O13 0.426611 0.750000 0.559967
#
# Coordination Sequence:
#
# PCOD9158135 Si02
#       5
#     4   4   4   4   4
#     4  10  19  30  49  75 101 132 169 202 246 299
#     4   9  18  31  47  70 100 130 161 202 248 291
#     4   9  16  29  49  72 101 131 158 198 249 295
#     4   9  17  31  49  73 105 134 160 203 252 294
#     4  11  22  37  53  71 101 134 169 209 248 292
#
# _framework density 16.337482999999999
#
# number of rings (size 3 to 8) (size 9 to 14) (size 15 to 20)
#    0.000    2.400    2.000    1.200    0.000    3.200 
#    0.000    0.000    0.000    1.200    0.000    0.000 
#    0.000    0.000    0.000    0.000    0.000    0.000 
#
# Total GULP energy -111491.828671 kJ/mol
# GULP energy per Si atom -5574.591434 kJ/mol
# Density = 1.630030 g / cm^3
# Si number density = 16.337483 Si / 1000 Ang^3
#
#
#
# Elastic Constant Matrix: (Units=GPa)
#
#
# Indices 1 2 3 4 5 6 
#
# 1 113.0983 40.0146 72.6742 0.0000 15.3498 0.0000
# 2 40.0146 27.9046 34.8676 0.0000 6.3064 0.0000
# 3 72.6742 34.8676 120.0256 0.0000 25.9303 0.0000
# 4 0.0000 0.0000 0.0000 27.3303 0.0000 1.9702
# 5 15.3498 6.3064 25.9303 0.0000 30.8171 0.0000
# 6 0.0000 0.0000 0.0000 1.9702 0.0000 24.5590
#
#
#
# Elastic Compliance Matrix: (Units=1/GPa)
#
#
# Indices 1 2 3 4 5 6 
#
# 1 0.020426 -0.021775 -0.005875 0.000000 -0.000775 0.000000
# 2 -0.021775 0.079659 -0.010728 0.000000 0.003571 0.000000
# 3 -0.005875 -0.010728 0.016987 0.000000 -0.009171 0.000000
# 4 0.000000 0.000000 0.000000 0.036802 0.000000 -0.002952
# 5 -0.000775 0.003571 -0.009171 0.000000 0.039822 0.000000
# 6 0.000000 0.000000 0.000000 -0.002952 0.000000 0.040955
#
#
# Mechanical properties :
#
#
# Convention : Reuss Voigt Hill
#
# Bulk Modulus (GPa) = 24.80389 61.79347 43.29868
# Shear Modulus (GPa) = 15.39197 24.10608 19.74902
#
# Velocity S-wave (km/s) = 3.07274 3.84540 3.48058
# Velocity P-wave (km/s) = 5.27296 7.59087 6.53550
#
# Compressibility (1/GPa) = 0.04031625
#
# Stress axis : x y z
#
# Youngs Moduli (GPa) = 48.95736 12.55351 58.86994
#
# Poissons Ratio (x) = 0.27335 0.34584
# Poissons Ratio (y) = 1.06603 0.63157
# Poissons Ratio (z) = 0.28761 0.13468
#
# Static dielectric constant tensor:
#      x y z
#    x 1.535370 0.000000 0.034140 
#    y 0.000000 1.541110 0.000000 
#    z 0.034140 0.000000 1.552610 
# 
# From -- ./inp_files/33413.got.cif
#   From: 2010.05.17/outbox.cif.g08.bks.cpg/sg11_17_cif.got.tgz:33413.got - 2010.06.03 12:22:45.
