data_PCOD9158152
_publ_section_title
;
Structure prediction by ZEFSAII (Michael W. Deem and Ramdas Pophale) SiO2 
 PCOD9158152
Probable space group: P 21/M
;
_chemical_formula_sum "Si O2"
_cell_formula_units_Z 32
_cell_length_a 30.015822
_cell_length_b 9.502917
_cell_length_c 12.783315
_cell_angle_alpha 90.000000
_cell_angle_beta 151.668549
_cell_angle_gamma 90.000000
_cell_volume 1730.422996
_symmetry_space_group_name_H-M "P 21/M"
_symmetry_group_IT_number 11
_symmetry_cell_setting 'monoclinic'
loop_
_space_group_symop_operation_xyz
x,y,z
-x,1/2+y,-z
-x,-y,-z
x,1/2-y,z
loop_
_atom_site_type_symbol
_atom_site_label
_atom_site_fract_x
_atom_site_fract_y
_atom_site_fract_z
Si Si1 0.664087 0.594390 0.681595
Si Si2 0.185325 0.916583 0.903379
Si Si3 0.537543 0.087258 0.675383
Si Si4 0.404961 0.418727 0.834457
Si Si5 0.127179 0.416977 0.576338
Si Si6 0.764441 0.911027 0.664843
Si Si7 0.672269 0.586053 0.092652
Si Si8 0.919474 0.417011 0.092219
O O1 0.679891 0.750000 0.762431
O O2 0.553389 0.579517 0.436978
O O3 0.713302 0.591049 0.671640
O O4 0.712971 0.478887 0.855140
O O5 0.189218 0.750000 0.893090
O O6 0.121893 0.942823 0.876010
O O7 0.146115 0.997448 0.721755
O O8 0.555562 0.250000 0.687286
O O9 0.500000 0.000000 0.500000
O O10 0.624328 0.013757 0.909137
O O11 0.418138 0.250000 0.844917
O O12 0.314669 0.463631 0.578829
O O13 0.374238 0.440241 0.891065
O O14 0.500000 0.500000 0.000000
O O15 0.120903 0.250000 0.588942
O O16 0.216000 0.435738 0.683395
O O17 0.028412 0.458421 0.320969
O O18 0.788723 0.750000 0.686146
O O19 0.856754 0.002120 0.877675
O O20 0.654587 0.750000 0.028958
O O21 0.911810 0.250000 0.058016
#
# Coordination Sequence:
#
# PCOD9158152 Si02
#       8
#     4   4   4   4   4   4   4   4
#     4   9  18  32  49  70  99 135 169 205 257 317
#     4  10  19  30  49  78 106 134 174 220 259 301
#     4  11  22  35  52  75 106 142 178 215 258 312
#     4  10  21  38  60  84 108 136 173 218 267 318
#     4  10  20  35  52  71 103 144 178 211 258 314
#     4   9  18  34  55  77 101 130 168 214 262 310
#     4  10  22  38  55  77 106 141 179 217 262 318
#     4   9  19  34  52  76 105 138 176 216 259 308
#
# _framework density 18.492588999999999
#
# number of rings (size 3 to 8) (size 9 to 14) (size 15 to 20)
#    0.000    2.250    0.000    2.625    0.000    7.500 
#    0.000    3.125    0.000    0.000    0.000    0.000 
#    0.000    0.000    0.000    0.000    0.000    0.000 
#
# Total GULP energy -178535.046990 kJ/mol
# GULP energy per Si atom -5579.220218 kJ/mol
# Density = 1.845050 g / cm^3
# Si number density = 18.492589 Si / 1000 Ang^3
#
#
#
# Elastic Constant Matrix: (Units=GPa)
#
#
# Indices 1 2 3 4 5 6 
#
# 1 49.7249 43.6384 43.0984 0.0000 11.2549 0.0000
# 2 43.6384 69.4457 62.3956 0.0000 2.1718 0.0000
# 3 43.0984 62.3956 134.1241 0.0000 7.2085 0.0000
# 4 0.0000 0.0000 0.0000 32.2469 0.0000 1.8552
# 5 11.2549 2.1718 7.2085 0.0000 27.3174 0.0000
# 6 0.0000 0.0000 0.0000 1.8552 0.0000 17.2854
#
#
#
# Elastic Compliance Matrix: (Units=1/GPa)
#
#
# Indices 1 2 3 4 5 6 
#
# 1 0.053583 -0.031832 -0.001378 0.000000 -0.019182 0.000000
# 2 -0.031832 0.043683 -0.010764 0.000000 0.012482 0.000000
# 3 -0.001378 -0.010764 0.013014 0.000000 -0.002010 0.000000
# 4 0.000000 0.000000 0.000000 0.031203 0.000000 -0.003349
# 5 -0.019182 0.012482 -0.002010 0.000000 0.044048 0.000000
# 6 0.000000 0.000000 0.000000 -0.003349 0.000000 0.058212
#
#
# Mechanical properties :
#
#
# Convention : Reuss Voigt Hill
#
# Bulk Modulus (GPa) = 44.78003 61.28438 53.03220
# Shear Modulus (GPa) = 14.74333 22.31409 18.52871
#
# Velocity S-wave (km/s) = 2.82664 3.47746 3.16880
# Velocity P-wave (km/s) = 5.90939 7.02392 6.49062
#
# Compressibility (1/GPa) = 0.02233138
#
# Stress axis : x y z
#
# Youngs Moduli (GPa) = 18.66266 22.89206 76.83880
#
# Poissons Ratio (x) = 0.72870 0.10592
# Poissons Ratio (y) = 0.59407 0.82709
# Poissons Ratio (z) = 0.02573 0.24641
#
# Static dielectric constant tensor:
#      x y z
#    x 1.664530 0.000000 0.022620 
#    y 0.000000 1.610350 0.000000 
#    z 0.022620 0.000000 1.622410 
# 
# From -- ./inp_files/45254.got.cif
#   From: 2010.05.17/outbox.cif.g08.bks.cpg/sg11_23_cif.got.tgz:45254.got - 2010.06.03 12:22:45.
