data_PCOD9158017
_publ_section_title
;
Structure prediction by ZEFSAII (Michael W. Deem and Ramdas Pophale) SiO2 
 PCOD9158017
Probable space group: P 21/M
;
_chemical_formula_sum "Si O2"
_cell_formula_units_Z 32
_cell_length_a 5.109761
_cell_length_b 13.236842
_cell_length_c 27.952525
_cell_angle_alpha 90.000000
_cell_angle_beta 85.349751
_cell_angle_gamma 90.000000
_cell_volume 1884.404057
_symmetry_space_group_name_H-M "P 21/M"
_symmetry_group_IT_number 11
_symmetry_cell_setting 'monoclinic'
loop_
_space_group_symop_operation_xyz
x,y,z
-x,1/2+y,-z
-x,-y,-z
x,1/2-y,z
loop_
_atom_site_type_symbol
_atom_site_label
_atom_site_fract_x
_atom_site_fract_y
_atom_site_fract_z
Si Si1 0.048658 0.631787 0.865689
Si Si2 0.436859 0.039158 0.178393
Si Si3 0.192521 0.552100 0.559181
Si Si4 0.757216 0.631833 0.724128
Si Si5 0.285473 0.867342 0.659915
Si Si6 0.931407 0.971335 0.054942
Si Si7 0.583058 0.370212 0.898261
Si Si8 0.278498 0.133179 0.492951
O O1 0.090810 0.750000 0.867665
O O2 0.757852 0.606964 0.851293
O O3 0.088828 0.575460 0.915174
O O4 0.267844 0.581562 0.828310
O O5 0.325446 0.055511 0.232943
O O6 0.429153 0.930288 0.152367
O O7 0.240755 0.564159 0.614472
O O8 0.425644 0.611121 0.528298
O O9 0.209803 0.438730 0.538576
O O10 0.916653 0.599071 0.546721
O O11 0.728190 0.750000 0.740993
O O12 0.561257 0.618642 0.682343
O O13 0.052824 0.618076 0.701622
O O14 0.270163 0.750000 0.643839
O O15 0.157216 0.906126 0.077634
O O16 0.661929 0.910880 0.066970
O O17 0.000000 0.000000 0.000000
O O18 0.575420 0.250000 0.892515
O O19 0.241812 0.250000 0.504030
#
# Coordination Sequence:
#
# PCOD9158017 Si02
#       8
#     4   4   4   4   4   4   4   4
#     4  10  19  31  50  73  99 130 158 196 246 290
#     4  10  20  34  51  73 100 126 166 207 238 292
#     4  10  20  32  49  73 100 130 165 205 246 294
#     4  10  19  30  48  71  96 128 158 197 254 301
#     4  10  19  30  46  70  99 128 158 196 248 301
#     4  10  21  36  52  78 106 130 166 204 244 297
#     4  10  21  37  57  76 100 137 173 209 246 283
#     4  10  19  32  51  72  96 131 169 204 243 288
#
# _framework density 16.981494999999999
#
# number of rings (size 3 to 8) (size 9 to 14) (size 15 to 20)
#    0.000    2.000    0.000    4.500    0.000    3.000 
#    0.000    0.000    0.000    1.500    0.000    0.000 
#    0.000    0.000    0.000    0.000    0.000    0.000 
#
# Total GULP energy -178589.901290 kJ/mol
# GULP energy per Si atom -5580.934415 kJ/mol
# Density = 1.694284 g / cm^3
# Si number density = 16.981495 Si / 1000 Ang^3
#
#
#
# Elastic Constant Matrix: (Units=GPa)
#
#
# Indices 1 2 3 4 5 6 
#
# 1 46.4478 -6.0750 -24.6933 0.0000 1.1197 0.0000
# 2 -6.0750 103.2793 25.0163 0.0000 0.4463 0.0000
# 3 -24.6933 25.0163 51.7069 0.0000 -3.6477 0.0000
# 4 0.0000 0.0000 0.0000 7.7639 0.0000 0.6306
# 5 1.1197 0.4463 -3.6477 0.0000 12.4980 0.0000
# 6 0.0000 0.0000 0.0000 0.6306 0.0000 12.7337
#
#
#
# Elastic Compliance Matrix: (Units=1/GPa)
#
#
# Indices 1 2 3 4 5 6 
#
# 1 0.029215 -0.001926 0.015013 0.000000 0.001833 0.000000
# 2 -0.001926 0.011143 -0.006460 0.000000 -0.002111 0.000000
# 3 0.015013 -0.006460 0.030177 0.000000 0.007693 0.000000
# 4 0.000000 0.000000 0.000000 0.129322 0.000000 -0.006405
# 5 0.001833 -0.002111 0.007693 0.000000 0.082169 0.000000
# 6 0.000000 0.000000 0.000000 -0.006405 0.000000 0.078849
#
#
# Mechanical properties :
#
#
# Convention : Reuss Voigt Hill
#
# Bulk Modulus (GPa) = 11.93456 21.10333 16.51895
# Shear Modulus (GPa) = 13.31377 20.41151 16.86264
#
# Velocity S-wave (km/s) = 2.80307 3.47073 3.15461
# Velocity P-wave (km/s) = 4.18563 5.33999 4.79765
#
# Compressibility (1/GPa) = 0.08379027
#
# Stress axis : x y z
#
# Youngs Moduli (GPa) = 34.22902 89.74248 33.13730
#
# Poissons Ratio (x) = 0.17284 -0.49749
# Poissons Ratio (y) = 0.06592 0.21406
# Poissons Ratio (z) = -0.51388 0.57971
#
# Static dielectric constant tensor:
#      x y z
#    x 1.583170 0.000000 -0.004650 
#    y 0.000000 1.550470 0.000000 
#    z -0.004650 0.000000 1.568880 
# 
# From -- ./inp_files/67579.got.cif
#   From: 2010.05.17/outbox.cif.g08.bks.cpg/sg11_34_cif.got.tgz:67579.got - 2010.06.03 12:22:45.
