data_PCOD9158132
_publ_section_title
;
Structure prediction by ZEFSAII (Michael W. Deem and Ramdas Pophale) SiO2 
 PCOD9158132
Probable space group: P 21/M
;
_chemical_formula_sum "Si O2"
_cell_formula_units_Z 28
_cell_length_a 27.937216
_cell_length_b 9.219013
_cell_length_c 9.685296
_cell_angle_alpha 90.000000
_cell_angle_beta 140.033577
_cell_angle_gamma 90.000000
_cell_volume 1602.302296
_symmetry_space_group_name_H-M "P 21/M"
_symmetry_group_IT_number 11
_symmetry_cell_setting 'monoclinic'
loop_
_space_group_symop_operation_xyz
x,y,z
-x,1/2+y,-z
-x,-y,-z
x,1/2-y,z
loop_
_atom_site_type_symbol
_atom_site_label
_atom_site_fract_x
_atom_site_fract_y
_atom_site_fract_z
Si Si1 0.188821 0.576035 0.259613
Si Si2 0.259256 0.421958 0.928385
Si Si3 0.576509 0.078133 0.207011
Si Si4 0.960376 0.080078 0.210316
Si Si5 0.704929 0.080806 0.261836
Si Si6 0.313279 0.423480 0.350862
Si Si7 0.102315 0.919783 0.616519
O O1 0.198403 0.750000 0.255403
O O2 0.221615 0.547096 0.483829
O O3 0.241094 0.488891 0.269340
O O4 0.102871 0.540998 0.040725
O O5 0.249572 0.250000 0.897680
O O6 0.299010 0.483190 0.881062
O O7 0.178719 0.497057 0.760214
O O8 0.303493 0.453410 0.167321
O O9 0.566353 0.250000 0.207958
O O10 0.635554 0.061655 0.211967
O O11 0.616167 0.001944 0.424709
O O12 0.500000 0.000000 0.000000
O O13 0.979614 0.250000 0.237592
O O14 0.921509 0.063622 0.275185
O O15 0.034457 0.985069 0.377955
O O16 0.708449 0.250000 0.229912
O O17 0.316871 0.250000 0.380192
O O18 0.111878 0.750000 0.609537
#
# Coordination Sequence:
#
# PCOD9158132 Si02
#       7
#     4   4   4   4   4   4   4
#     4   9  17  33  54  77 103 138 182 227 272 319
#     4  11  22  35  52  78 111 144 181 222 265 315
#     4  10  21  39  63  88 112 139 173 214 259 313
#     4   9  17  30  49  74 104 136 177 229 277 320
#     4   9  20  36  56  80 108 140 175 215 264 319
#     4  10  20  33  54  82 109 140 179 220 259 311
#     4  10  19  30  49  74 104 141 179 225 276 321
#
# _framework density 17.474855000000002
#
# number of rings (size 3 to 8) (size 9 to 14) (size 15 to 20)
#    0.000    2.286    1.429    2.571    0.000    5.714 
#    0.000    1.429    0.000    0.000    0.000    0.000 
#    0.000    0.000    0.000    0.000    0.000    0.000 
#
# Total GULP energy -156245.748501 kJ/mol
# GULP energy per Si atom -5580.205304 kJ/mol
# Density = 1.743508 g / cm^3
# Si number density = 17.474855 Si / 1000 Ang^3
#
#
#
# Elastic Constant Matrix: (Units=GPa)
#
#
# Indices 1 2 3 4 5 6 
#
# 1 37.1013 46.7967 49.3336 0.0000 -6.9586 0.0000
# 2 46.7967 90.2962 84.6982 0.0000 -6.5273 0.0000
# 3 49.3336 84.6982 150.3241 0.0000 7.4131 0.0000
# 4 0.0000 0.0000 0.0000 31.1433 0.0000 1.6445
# 5 -6.9586 -6.5273 7.4131 0.0000 24.2591 0.0000
# 6 0.0000 0.0000 0.0000 1.6445 0.0000 25.9129
#
#
#
# Elastic Compliance Matrix: (Units=1/GPa)
#
#
# Indices 1 2 3 4 5 6 
#
# 1 0.087512 -0.034267 -0.010352 0.000000 0.019045 0.000000
# 2 -0.034267 0.039888 -0.011445 0.000000 0.004401 0.000000
# 3 -0.010352 -0.011445 0.017054 0.000000 -0.011260 0.000000
# 4 0.000000 0.000000 0.000000 0.032218 0.000000 -0.002045
# 5 0.019045 0.004401 -0.011260 0.000000 0.051310 0.000000
# 6 0.000000 0.000000 0.000000 -0.002045 0.000000 0.038721
#
#
# Mechanical properties :
#
#
# Convention : Reuss Voigt Hill
#
# Bulk Modulus (GPa) = 30.93593 71.04208 50.98900
# Shear Modulus (GPa) = 12.83353 22.72261 17.77807
#
# Velocity S-wave (km/s) = 2.71292 3.60988 3.19305
# Velocity P-wave (km/s) = 5.24927 7.62346 6.54492
#
# Compressibility (1/GPa) = 0.03232487
#
# Stress axis : x y z
#
# Youngs Moduli (GPa) = 11.42703 25.07027 58.63858
#
# Poissons Ratio (x) = 0.85908 0.60701
# Poissons Ratio (y) = 0.39157 0.67115
# Poissons Ratio (z) = 0.11829 0.28694
#
# Static dielectric constant tensor:
#      x y z
#    x 1.574600 0.000000 -0.011180 
#    y 0.000000 1.582190 0.000000 
#    z -0.011180 0.000000 1.596130 
# 
# From -- ./inp_files/28610.got.cif
#   From: 2010.05.17/outbox.cif.g08.bks.cpg/sg11_15_cif.got.tgz:28610.got - 2010.06.03 12:22:45.
