data_PCOD9158251
_publ_section_title
;
Structure prediction by ZEFSAII (Michael W. Deem and Ramdas Pophale) SiO2 
 PCOD9158251
Probable space group: P 21/M
;
_chemical_formula_sum "Si O2"
_cell_formula_units_Z 32
_cell_length_a 14.786666
_cell_length_b 8.515926
_cell_length_c 16.181565
_cell_angle_alpha 90.000000
_cell_angle_beta 90.000067
_cell_angle_gamma 90.000000
_cell_volume 2037.617511
_symmetry_space_group_name_H-M "P 21/M"
_symmetry_group_IT_number 11
_symmetry_cell_setting 'monoclinic'
loop_
_space_group_symop_operation_xyz
x,y,z
-x,1/2+y,-z
-x,-y,-z
x,1/2-y,z
loop_
_atom_site_type_symbol
_atom_site_label
_atom_site_fract_x
_atom_site_fract_y
_atom_site_fract_z
Si Si1 0.103016 0.061514 0.818895
Si Si2 0.101859 0.560359 0.500001
Si Si3 0.896985 0.938486 0.818894
Si Si4 0.787785 0.439964 0.337076
Si Si5 0.787786 0.439964 0.662923
Si Si6 0.597391 0.060751 0.596154
Si Si7 0.402609 0.560751 0.596154
Si Si8 0.102636 0.439159 0.000000
O O1 0.099676 0.250000 0.816446
O O2 0.138893 0.010895 0.910134
O O3 0.165334 0.001165 0.745309
O O4 0.000001 1.000000 0.809129
O O5 0.101134 0.750000 0.500001
O O6 0.154654 0.509665 0.582485
O O7 0.154654 0.509665 0.417516
O O8 0.000000 0.500000 0.500000
O O9 0.900325 0.750000 0.816445
O O10 0.834667 0.998835 0.745308
O O11 0.861108 0.989106 0.910133
O O12 0.788853 0.250000 0.335421
O O13 0.684256 0.491304 0.351654
O O14 0.788854 0.250000 0.664578
O O15 0.684257 0.491304 0.648346
O O16 0.595985 0.250000 0.596663
O O17 0.609658 0.011479 0.500000
O O18 0.500000 0.000000 0.624547
O O19 0.404015 0.750000 0.596663
O O20 0.102845 0.250000 0.000000
O O21 0.000000 0.500000 0.000000
#
# Coordination Sequence:
#
# PCOD9158251 Si02
#       8
#     4   4   4   4   4   4   4   4
#     4  10  19  31  47  68  93 122 155 190 228 271
#     4  10  20  32  43  58  88 126 157 182 215 258
#     4  10  19  31  47  68  93 122 155 190 228 271
#     4  10  19  32  47  65  92 124 154 187 227 269
#     4  10  19  32  47  65  92 124 154 187 227 269
#     4   9  17  31  49  67  89 118 151 190 232 270
#     4   9  17  31  49  67  89 118 151 190 232 270
#     4   8  16  30  46  64  89 118 149 188 231 270
#
# _framework density 15.704615
#
# number of rings (size 3 to 8) (size 9 to 14) (size 15 to 20)
#    0.000    2.500    1.250    1.500    0.000    5.000 
#    0.000    0.000    0.000    0.000    0.000    0.875 
#    0.000    0.000    0.000    0.000    0.000    0.000 
#
# Total GULP energy -178302.812780 kJ/mol
# GULP energy per Si atom -5571.962899 kJ/mol
# Density = 1.566887 g / cm^3
# Si number density = 15.704615 Si / 1000 Ang^3
#
#
#
# Elastic Constant Matrix: (Units=GPa)
#
#
# Indices 1 2 3 4 5 6 
#
# 1 133.5912 23.2670 85.6958 0.0000 -0.0017 0.0000
# 2 23.2670 12.1621 25.0583 0.0000 -0.0003 0.0000
# 3 85.6958 25.0583 159.0226 0.0000 -0.0019 0.0000
# 4 0.0000 0.0000 0.0000 18.0145 0.0000 -0.0002
# 5 -0.0017 -0.0003 -0.0019 0.0000 7.0296 0.0000
# 6 0.0000 0.0000 0.0000 -0.0002 0.0000 24.5779
#
#
#
# Elastic Compliance Matrix: (Units=1/GPa)
#
#
# Indices 1 2 3 4 5 6 
#
# 1 0.013192 -0.015681 -0.004638 0.000000 0.000001 0.000000
# 2 -0.015681 0.140391 -0.013672 0.000000 -0.000001 0.000000
# 3 -0.004638 -0.013672 0.010942 0.000000 0.000001 0.000000
# 4 0.000000 0.000000 0.000000 0.055511 0.000000 0.000000
# 5 0.000001 -0.000001 0.000001 0.000000 0.142256 0.000000
# 6 0.000000 0.000000 0.000000 0.000000 0.000000 0.040687
#
#
# Mechanical properties :
#
#
# Convention : Reuss Voigt Hill
#
# Bulk Modulus (GPa) = 10.35811 63.64647 37.00229
# Shear Modulus (GPa) = 9.93756 21.30804 15.62280
#
# Velocity S-wave (km/s) = 2.51824 3.68747 3.15745
# Velocity P-wave (km/s) = 3.88140 7.66454 6.07497
#
# Compressibility (1/GPa) = 0.09654272
#
# Stress axis : x y z
#
# Youngs Moduli (GPa) = 75.80493 7.12298 91.38959
#
# Poissons Ratio (x) = 0.11170 0.42386
# Poissons Ratio (y) = 1.18869 1.24948
# Poissons Ratio (z) = 0.35158 0.09739
#
# Static dielectric constant tensor:
#      x y z
#    x 1.500740 0.000000 0.000000 
#    y 0.000000 1.542140 0.000000 
#    z 0.000000 0.000000 1.542930 
# 
# From -- ./inp_files/51320.got.cif
#   From: 2010.05.17/outbox.cif.g08.bks.cpg/sg11_26_cif.got.tgz:51320.got - 2010.06.03 12:22:45.
