data_PCOD9158087
_publ_section_title
;
Structure prediction by ZEFSAII (Michael W. Deem and Ramdas Pophale) SiO2 
 PCOD9158087
Probable space group: P 21/M
;
_chemical_formula_sum "Si O2"
_cell_formula_units_Z 32
_cell_length_a 31.835568
_cell_length_b 8.662160
_cell_length_c 15.426307
_cell_angle_alpha 90.000000
_cell_angle_beta 151.334765
_cell_angle_gamma 90.000000
_cell_volume 2040.621769
_symmetry_space_group_name_H-M "P 21/M"
_symmetry_group_IT_number 11
_symmetry_cell_setting 'monoclinic'
loop_
_space_group_symop_operation_xyz
x,y,z
-x,1/2+y,-z
-x,-y,-z
x,1/2-y,z
loop_
_atom_site_type_symbol
_atom_site_label
_atom_site_fract_x
_atom_site_fract_y
_atom_site_fract_z
Si Si1 0.564189 0.064265 0.735628
Si Si2 0.299001 0.435250 0.677761
Si Si3 0.619852 0.064652 0.352507
Si Si4 0.743609 0.435881 0.739391
Si Si5 0.085278 0.563622 0.045673
Si Si6 0.891156 0.936219 0.719205
Si Si7 0.628412 0.934191 0.679003
Si Si8 0.570159 0.435297 0.944712
O O1 0.567334 0.250000 0.735587
O O2 0.464278 0.015295 0.532358
O O3 0.585483 0.018900 0.872330
O O4 0.624939 0.995499 0.770664
O O5 0.304501 0.250000 0.693566
O O6 0.341454 0.489401 0.664034
O O7 0.196803 0.482223 0.489720
O O8 0.352941 0.509604 0.853382
O O9 0.622233 0.250000 0.348067
O O10 0.679211 0.020814 0.543045
O O11 0.521213 0.008736 0.189668
O O12 0.742514 0.250000 0.743463
O O13 0.841190 0.487050 0.889285
O O14 0.705634 0.503682 0.758834
O O15 0.087967 0.750000 0.053418
O O16 0.110727 0.502908 0.186981
O O17 0.984559 0.516280 0.847694
O O18 0.890888 0.750000 0.725069
O O19 0.629985 0.750000 0.682372
O O20 0.561802 0.250000 0.933120
#
# Coordination Sequence:
#
# PCOD9158087 Si02
#       8
#     4   4   4   4   4   4   4   4
#     4   9  19  34  49  68  93 123 158 196 238 282
#     4  11  22  34  48  69  97 131 167 203 240 281
#     4  11  21  33  48  69  97 132 168 201 233 275
#     4  10  19  30  48  72  99 129 159 192 235 287
#     4   9  17  31  49  70  95 125 160 196 239 287
#     4   9  18  31  48  69  95 125 159 201 242 280
#     4  10  19  31  50  72  96 123 155 194 238 286
#     4  11  22  36  51  68  94 130 167 203 237 279
#
# _framework density 15.681495
#
# number of rings (size 3 to 8) (size 9 to 14) (size 15 to 20)
#    0.000    2.000    2.500    1.875    0.000    3.000 
#    0.000    0.000    0.000    0.000    0.000    0.875 
#    0.000    0.000    0.000    0.000    0.000    0.000 
#
# Total GULP energy -178540.484499 kJ/mol
# GULP energy per Si atom -5579.390141 kJ/mol
# Density = 1.564580 g / cm^3
# Si number density = 15.681495 Si / 1000 Ang^3
#
#
#
# Elastic Constant Matrix: (Units=GPa)
#
#
# Indices 1 2 3 4 5 6 
#
# 1 115.9860 17.3672 59.8072 0.0000 18.6726 0.0000
# 2 17.3672 15.5364 16.9741 0.0000 2.7136 0.0000
# 3 59.8072 16.9741 92.4629 0.0000 13.5361 0.0000
# 4 0.0000 0.0000 0.0000 14.7698 0.0000 -2.7806
# 5 18.6726 2.7136 13.5361 0.0000 23.6877 0.0000
# 6 0.0000 0.0000 0.0000 -2.7806 0.0000 19.9492
#
#
#
# Elastic Compliance Matrix: (Units=1/GPa)
#
#
# Indices 1 2 3 4 5 6 
#
# 1 0.014370 -0.007271 -0.007010 0.000000 -0.006489 0.000000
# 2 -0.007271 0.084208 -0.011112 0.000000 0.002435 0.000000
# 3 -0.007010 -0.011112 0.017891 0.000000 -0.003425 0.000000
# 4 0.000000 0.000000 0.000000 0.069530 0.000000 0.009691
# 5 -0.006489 0.002435 -0.003425 0.000000 0.049009 0.000000
# 6 0.000000 0.000000 0.000000 0.009691 0.000000 0.051478
#
#
# Mechanical properties :
#
#
# Convention : Reuss Voigt Hill
#
# Bulk Modulus (GPa) = 15.22486 45.80915 30.51700
# Shear Modulus (GPa) = 13.92116 20.33713 17.12914
#
# Velocity S-wave (km/s) = 2.98274 3.60514 3.30861
# Velocity P-wave (km/s) = 4.64674 6.82679 5.83940
#
# Compressibility (1/GPa) = 0.06568205
#
# Stress axis : x y z
#
# Youngs Moduli (GPa) = 69.59083 11.87537 55.89523
#
# Poissons Ratio (x) = 0.08635 0.39182
# Poissons Ratio (y) = 0.50600 0.62111
# Poissons Ratio (z) = 0.48783 0.13196
#
# Static dielectric constant tensor:
#      x y z
#    x 1.508720 0.000000 0.017730 
#    y 0.000000 1.524960 0.000000 
#    z 0.017730 0.000000 1.521610 
# 
# From -- ./inp_files/51269.got.cif
#   From: 2010.05.17/outbox.cif.g08.bks.cpg/sg11_26_cif.got.tgz:51269.got - 2010.06.03 12:22:45.
