data_PCOD9158194
_publ_section_title
;
Structure prediction by ZEFSAII (Michael W. Deem and Ramdas Pophale) SiO2 
 PCOD9158194
Probable space group: P 21/M
;
_chemical_formula_sum "Si O2"
_cell_formula_units_Z 28
_cell_length_a 14.784263
_cell_length_b 8.002629
_cell_length_c 10.953303
_cell_angle_alpha 90.000000
_cell_angle_beta 80.174717
_cell_angle_gamma 90.000000
_cell_volume 1276.910206
_symmetry_space_group_name_H-M "P 21/M"
_symmetry_group_IT_number 11
_symmetry_cell_setting 'monoclinic'
loop_
_space_group_symop_operation_xyz
x,y,z
-x,1/2+y,-z
-x,-y,-z
x,1/2-y,z
loop_
_atom_site_type_symbol
_atom_site_label
_atom_site_fract_x
_atom_site_fract_y
_atom_site_fract_z
Si Si1 0.117344 0.552857 0.238954
Si Si2 0.553834 0.951011 0.611063
Si Si3 0.612284 0.447391 0.206615
Si Si4 0.944890 0.549413 0.134610
Si Si5 0.777480 0.947406 0.024265
Si Si6 0.102720 0.440285 0.497449
Si Si7 0.721071 0.545458 0.425428
O O1 0.112281 0.750000 0.267747
O O2 0.147191 0.457629 0.352979
O O3 0.014628 0.490618 0.223526
O O4 0.184069 0.528191 0.108131
O O5 0.554781 0.750000 0.619967
O O6 0.490009 0.013336 0.736899
O O7 0.657177 0.004217 0.556040
O O8 0.500000 0.000000 0.500000
O O9 0.606697 0.250000 0.187465
O O10 0.672430 0.522296 0.083841
O O11 0.671317 0.481094 0.316032
O O12 0.941669 0.750000 0.149044
O O13 0.842472 0.492937 0.122806
O O14 0.000000 0.500000 0.000000
O O15 0.792955 0.750000 0.007956
O O16 0.094589 0.250000 0.537389
O O17 0.175542 0.516707 0.575223
O O18 0.000000 0.500000 0.500000
O O19 0.721695 0.750000 0.417314
#
# Coordination Sequence:
#
# PCOD9158194 Si02
#       7
#     4   4   4   4   4   4   4
#     4  10  20  36  54  73 101 136 177 219 261 305
#     4   8  15  30  51  75 103 134 168 211 261 310
#     4  10  19  30  51  84 112 133 167 215 265 312
#     4   8  16  29  46  67  92 126 164 202 245 295
#     4  10  19  32  51  76 106 139 172 208 260 316
#     4  11  24  39  55  76 103 140 182 218 255 303
#     4   9  19  36  55  74 103 142 178 213 258 311
#
# _framework density 21.927931000000001
#
# number of rings (size 3 to 8) (size 9 to 14) (size 15 to 20)
#    0.000    2.571    0.000    1.714    2.000    2.857 
#    0.000    0.000    0.000    0.857    0.000    0.000 
#    0.000    0.000    0.000    0.000    0.000    0.000 
#
# Total GULP energy -156044.337204 kJ/mol
# GULP energy per Si atom -5573.012043 kJ/mol
# Density = 2.187802 g / cm^3
# Si number density = 21.927931 Si / 1000 Ang^3
#
#
#
# Elastic Constant Matrix: (Units=GPa)
#
#
# Indices 1 2 3 4 5 6 
#
# 1 55.1355 4.6785 9.3297 0.0000 -21.4937 0.0000
# 2 4.6785 21.2886 -3.2262 0.0000 -4.8752 0.0000
# 3 9.3297 -3.2262 72.4120 0.0000 -19.1464 0.0000
# 4 0.0000 0.0000 0.0000 24.1868 0.0000 -6.6999
# 5 -21.4937 -4.8752 -19.1464 0.0000 39.9495 0.0000
# 6 0.0000 0.0000 0.0000 -6.6999 0.0000 13.5064
#
#
#
# Elastic Compliance Matrix: (Units=1/GPa)
#
#
# Indices 1 2 3 4 5 6 
#
# 1 0.023060 -0.002249 0.000156 0.000000 0.012208 0.000000
# 2 -0.002249 0.049714 0.004339 0.000000 0.006936 0.000000
# 3 0.000156 0.004339 0.016198 0.000000 0.008377 0.000000
# 4 0.000000 0.000000 0.000000 0.047931 0.000000 0.023777
# 5 0.012208 0.006936 0.008377 0.000000 0.036461 0.000000
# 6 0.000000 0.000000 0.000000 0.023777 0.000000 0.085833
#
#
# Mechanical properties :
#
#
# Convention : Reuss Voigt Hill
#
# Bulk Modulus (GPa) = 10.69917 18.93333 14.81625
# Shear Modulus (GPa) = 17.49113 24.73214 21.11164
#
# Velocity S-wave (km/s) = 2.82736 3.36204 3.10623
# Velocity P-wave (km/s) = 3.94315 4.87075 4.43129
#
# Compressibility (1/GPa) = 0.09346517
#
# Stress axis : x y z
#
# Youngs Moduli (GPa) = 43.36435 20.11517 61.73642
#
# Poissons Ratio (x) = 0.04523 -0.00966
# Poissons Ratio (y) = 0.09751 -0.26785
# Poissons Ratio (z) = -0.00679 -0.08727
#
# Static dielectric constant tensor:
#      x y z
#    x 1.859890 0.000000 -0.039760 
#    y 0.000000 1.808380 0.000000 
#    z -0.039760 0.000000 1.839270 
# 
# From -- ./inp_files/37502.got.cif
#   From: 2010.05.17/outbox.cif.g08.bks.cpg/sg11_19_cif.got.tgz:37502.got - 2010.06.03 12:22:45.
