data_PCOD9158613
_publ_section_title
;
Structure prediction by ZEFSAII (Michael W. Deem and Ramdas Pophale) SiO2 
 PCOD9158613
Probable space group: P 21/M
;
_chemical_formula_sum "Si O2"
_cell_formula_units_Z 32
_cell_length_a 30.119585
_cell_length_b 8.268522
_cell_length_c 12.688007
_cell_angle_alpha 90.000000
_cell_angle_beta 146.082412
_cell_angle_gamma 90.000000
_cell_volume 1763.211369
_symmetry_space_group_name_H-M "P 21/M"
_symmetry_group_IT_number 11
_symmetry_cell_setting 'monoclinic'
loop_
_space_group_symop_operation_xyz
x,y,z
-x,1/2+y,-z
-x,-y,-z
x,1/2-y,z
loop_
_atom_site_type_symbol
_atom_site_label
_atom_site_fract_x
_atom_site_fract_y
_atom_site_fract_z
Si Si1 0.012395 0.945706 0.692151
Si Si2 0.629019 0.556602 0.240802
Si Si3 0.460832 0.945246 0.314699
Si Si4 0.873576 0.445399 0.262093
Si Si5 0.512084 0.554199 0.189311
Si Si6 0.781762 0.442319 0.428952
Si Si7 0.719860 0.447614 0.077260
Si Si8 0.960282 0.557974 0.814581
O O1 0.013436 0.750000 0.695559
O O2 0.088791 0.000621 0.774681
O O3 0.003462 0.006256 0.793642
O O4 0.935234 0.999415 0.473678
O O5 0.635387 0.750000 0.254392
O O6 0.587991 0.502309 0.269542
O O7 0.714187 0.484147 0.380661
O O8 0.566234 0.505649 0.026632
O O9 0.459887 0.750000 0.311774
O O10 0.507641 0.999000 0.301567
O O11 0.500000 0.000000 0.500000
O O12 0.369407 0.001704 0.123032
O O13 0.873220 0.250000 0.261069
O O14 0.785674 0.499661 0.121644
O O15 0.509761 0.750000 0.182448
O O16 0.790402 0.250000 0.439218
O O17 0.749717 0.500539 0.251669
O O18 0.867542 0.513306 0.624219
O O19 0.718524 0.250000 0.076249
O O20 0.967031 0.750000 0.825251
O O21 0.000000 0.500000 0.000000
#
# Coordination Sequence:
#
# PCOD9158613 Si02
#       8
#     4   4   4   4   4   4   4   4
#     4   9  18  31  50  78 109 134 169 218 261 307
#     4  10  19  31  53  83 109 138 179 227 270 317
#     4  10  20  36  53  75 107 144 180 219 267 320
#     4   9  16  30  53  79 104 135 171 212 263 316
#     4   9  18  34  53  75 110 147 179 219 271 323
#     4  11  20  35  57  81 107 140 180 225 275 325
#     4   9  17  31  54  78 103 136 175 213 261 321
#     4  11  23  38  54  78 111 148 184 222 267 320
#
# _framework density 18.148703999999999
#
# number of rings (size 3 to 8) (size 9 to 14) (size 15 to 20)
#    0.000    2.250    2.500    1.125    0.000    1.500 
#    0.000    1.875    0.000    1.500    0.000    0.000 
#    0.000    0.000    0.000    0.000    0.000    0.000 
#
# Total GULP energy -178488.261521 kJ/mol
# GULP energy per Si atom -5577.758173 kJ/mol
# Density = 1.810740 g / cm^3
# Si number density = 18.148704 Si / 1000 Ang^3
#
#
#
# Elastic Constant Matrix: (Units=GPa)
#
#
# Indices 1 2 3 4 5 6 
#
# 1 182.7346 17.3768 88.2512 0.0000 -9.4779 0.0000
# 2 17.3768 10.6545 11.5262 0.0000 -2.9883 0.0000
# 3 88.2512 11.5262 116.6119 0.0000 -9.3015 0.0000
# 4 0.0000 0.0000 0.0000 27.8147 0.0000 -0.3475
# 5 -9.4779 -2.9883 -9.3015 0.0000 26.1095 0.0000
# 6 0.0000 0.0000 0.0000 -0.3475 0.0000 17.7774
#
#
#
# Elastic Compliance Matrix: (Units=1/GPa)
#
#
# Indices 1 2 3 4 5 6 
#
# 1 0.009254 -0.008371 -0.006159 0.000000 0.000207 0.000000
# 2 -0.008371 0.114565 -0.004308 0.000000 0.008539 0.000000
# 3 -0.006159 -0.004308 0.013838 0.000000 0.002201 0.000000
# 4 0.000000 0.000000 0.000000 0.035961 0.000000 0.000703
# 5 0.000207 0.008539 0.002201 0.000000 0.040137 0.000000
# 6 0.000000 0.000000 0.000000 0.000703 0.000000 0.056265
#
#
# Mechanical properties :
#
#
# Convention : Reuss Voigt Hill
#
# Bulk Modulus (GPa) = 10.00188 60.47880 35.24034
# Shear Modulus (GPa) = 14.66178 27.19678 20.92928
#
# Velocity S-wave (km/s) = 2.84539 3.87531 3.39958
# Velocity P-wave (km/s) = 4.03956 7.30893 5.90502
#
# Compressibility (1/GPa) = 0.09998118
#
# Stress axis : x y z
#
# Youngs Moduli (GPa) = 108.06368 8.72865 72.26420
#
# Poissons Ratio (x) = 0.07307 0.44510
# Poissons Ratio (y) = 0.90461 0.31128
# Poissons Ratio (z) = 0.66560 0.03760
#
# Static dielectric constant tensor:
#      x y z
#    x 1.681780 0.000000 -0.005620 
#    y 0.000000 1.632180 0.000000 
#    z -0.005620 0.000000 1.577020 
# 
# From -- ./inp_files/45283.got.cif
#   From: 2010.05.17/outbox.cif.g08.bks.cpg/sg11_23_cif.got.tgz:45283.got - 2010.06.03 12:22:45.
