data_PCOD9158120
_publ_section_title
;
Structure prediction by ZEFSAII (Michael W. Deem and Ramdas Pophale) SiO2 
 PCOD9158120
Probable space group: P 21/M
;
_chemical_formula_sum "Si O2"
_cell_formula_units_Z 24
_cell_length_a 13.151858
_cell_length_b 8.315844
_cell_length_c 12.176568
_cell_angle_alpha 90.000000
_cell_angle_beta 90.203978
_cell_angle_gamma 90.000000
_cell_volume 1331.728184
_symmetry_space_group_name_H-M "P 21/M"
_symmetry_group_IT_number 11
_symmetry_cell_setting 'monoclinic'
loop_
_space_group_symop_operation_xyz
x,y,z
-x,1/2+y,-z
-x,-y,-z
x,1/2-y,z
loop_
_atom_site_type_symbol
_atom_site_label
_atom_site_fract_x
_atom_site_fract_y
_atom_site_fract_z
Si Si1 0.307298 0.055801 0.731392
Si Si2 0.613915 0.943595 0.501895
Si Si3 0.305680 0.442584 0.265625
Si Si4 0.114814 0.942371 0.373059
Si Si5 0.115079 0.557441 0.626012
Si Si6 0.497517 0.557399 0.124931
O O1 0.307246 0.250000 0.736530
O O2 0.340386 0.997065 0.611033
O O3 0.397906 0.000828 0.813298
O O4 0.190267 0.000528 0.723768
O O5 0.621614 0.750000 0.502376
O O6 0.658577 0.005264 0.615153
O O7 0.500000 0.000000 0.500000
O O8 0.308490 0.250000 0.260973
O O9 0.188136 0.494968 0.275699
O O10 0.391818 0.502209 0.181579
O O11 0.120558 0.750000 0.374557
O O12 0.140751 0.000816 0.499539
O O13 0.999261 0.997558 0.354395
O O14 0.117368 0.750000 0.623083
O O15 0.498699 0.750000 0.129583
O O16 0.500000 0.500000 0.000000
#
# Coordination Sequence:
#
# PCOD9158120 Si02
#       6
#     4   4   4   4   4   4
#     4  10  20  35  54  78 111 147 181 223 273 328
#     4  10  19  30  48  77 111 143 176 217 270 330
#     4  11  21  34  55  81 112 146 182 225 273 328
#     4  10  20  33  51  78 115 153 185 220 267 324
#     4  10  20  32  51  80 114 150 186 223 266 323
#     4  11  24  41  59  80 108 144 188 233 279 327
#
# _framework density 18.021695000000001
#
# number of rings (size 3 to 8) (size 9 to 14) (size 15 to 20)
#    0.000    1.667    3.333    2.000    0.000    4.000 
#    0.000    0.000    0.000    1.000    0.000    0.000 
#    0.000    0.000    0.000    0.000    0.000    0.000 
#
# Total GULP energy -133610.241015 kJ/mol
# GULP energy per Si atom -5567.093376 kJ/mol
# Density = 1.798068 g / cm^3
# Si number density = 18.021695 Si / 1000 Ang^3
#
#
#
# Elastic Constant Matrix: (Units=GPa)
#
#
# Indices 1 2 3 4 5 6 
#
# 1 148.8923 25.0746 70.4032 0.0000 -3.5228 0.0000
# 2 25.0746 38.0956 24.7175 0.0000 -2.3083 0.0000
# 3 70.4032 24.7175 104.1314 0.0000 -4.9269 0.0000
# 4 0.0000 0.0000 0.0000 21.9179 0.0000 -2.3632
# 5 -3.5228 -2.3083 -4.9269 0.0000 15.3927 0.0000
# 6 0.0000 0.0000 0.0000 -2.3632 0.0000 33.6704
#
#
#
# Elastic Compliance Matrix: (Units=1/GPa)
#
#
# Indices 1 2 3 4 5 6 
#
# 1 0.010089 -0.002620 -0.006202 0.000000 -0.000069 0.000000
# 2 -0.002620 0.031792 -0.005663 0.000000 0.002355 0.000000
# 3 -0.006202 -0.005663 0.015265 0.000000 0.002617 0.000000
# 4 0.000000 0.000000 0.000000 0.045973 0.000000 0.003227
# 5 -0.000069 0.002355 0.002617 0.000000 0.066141 0.000000
# 6 0.000000 0.000000 0.000000 0.003227 0.000000 0.029926
#
#
# Mechanical properties :
#
#
# Convention : Reuss Voigt Hill
#
# Bulk Modulus (GPa) = 35.49467 59.05666 47.27566
# Shear Modulus (GPa) = 21.04843 25.59114 23.31978
#
# Velocity S-wave (km/s) = 3.42123 3.77240 3.60110
# Velocity P-wave (km/s) = 5.94514 7.19830 6.60153
#
# Compressibility (1/GPa) = 0.02817325
#
# Stress axis : x y z
#
# Youngs Moduli (GPa) = 99.12191 31.45476 65.51080
#
# Poissons Ratio (x) = 0.08242 0.40631
# Poissons Ratio (y) = 0.25974 0.37101
# Poissons Ratio (z) = 0.61477 0.17814
#
# Static dielectric constant tensor:
#      x y z
#    x 1.733170 0.000000 0.009370 
#    y 0.000000 1.619610 0.000000 
#    z 0.009370 0.000000 1.617830 
# 
# From -- ./inp_files/33783.got.cif
#   From: 2010.05.17/outbox.cif.g08.bks.cpg/sg11_17_cif.got.tgz:33783.got - 2010.06.03 12:22:45.
