data_PCOD9158320
_publ_section_title
;
Structure prediction by ZEFSAII (Michael W. Deem and Ramdas Pophale) SiO2 
 PCOD9158320
Probable space group: P 21/M
;
_chemical_formula_sum "Si O2"
_cell_formula_units_Z 32
_cell_length_a 24.929412
_cell_length_b 7.400635
_cell_length_c 22.699123
_cell_angle_alpha 90.000000
_cell_angle_beta 19.909174
_cell_angle_gamma 90.000000
_cell_volume 1426.085639
_symmetry_space_group_name_H-M "P 21/M"
_symmetry_group_IT_number 11
_symmetry_cell_setting 'monoclinic'
loop_
_space_group_symop_operation_xyz
x,y,z
-x,1/2+y,-z
-x,-y,-z
x,1/2-y,z
loop_
_atom_site_type_symbol
_atom_site_label
_atom_site_fract_x
_atom_site_fract_y
_atom_site_fract_z
Si Si1 0.969264 0.530226 0.346661
Si Si2 0.320088 0.036076 0.687196
Si Si3 0.174681 0.954480 0.960588
Si Si4 0.913401 0.465579 0.650492
Si Si5 0.556412 0.034213 0.008044
Si Si6 0.616601 0.970840 0.696134
Si Si7 0.691261 0.030199 0.059328
Si Si8 0.918517 0.534541 0.148476
O O1 0.967173 0.750000 0.345614
O O2 0.798640 0.471365 0.497511
O O3 0.985859 0.471986 0.397624
O O4 0.138487 0.476197 0.144048
O O5 0.286326 0.250000 0.727407
O O6 0.252061 0.971263 0.694576
O O7 0.500000 0.000000 0.500000
O O8 0.255776 0.948394 0.813144
O O9 0.139982 0.750000 0.016783
O O10 0.286480 0.028526 0.895670
O O11 0.009589 0.042530 0.110523
O O12 0.901121 0.250000 0.670175
O O13 0.734061 0.536155 0.834758
O O14 0.000000 0.500000 0.500000
O O15 0.563935 0.250000 0.007051
O O16 0.437996 0.973008 0.181612
O O17 0.500000 0.000000 0.000000
O O18 0.619491 0.750000 0.690785
O O19 0.470976 0.030476 0.804343
O O20 0.683093 0.250000 0.063059
O O21 0.917138 0.750000 0.159087
O O22 0.000000 0.500000 0.000000
#
# Coordination Sequence:
#
# PCOD9158320 Si02
#       8
#     4   4   4   4   4   4   4   4
#     4   9  16  28  46  68  96 129 163 205 254 300
#     4  10  19  32  50  74 105 136 166 202 245 293
#     4   9  17  31  51  75 101 128 162 206 247 290
#     4  10  19  31  48  71 100 129 165 212 256 307
#     4  10  19  31  48  71 100 128 164 211 257 308
#     4   9  16  28  46  69  97 130 164 205 255 301
#     4   9  16  29  47  70  99 129 165 206 248 299
#     4   8  15  28  46  68  94 124 157 193 237 284
#
# _framework density 22.439046000000001
#
# number of rings (size 3 to 8) (size 9 to 14) (size 15 to 20)
#    0.000    2.750    1.250    1.125    0.000    2.000 
#    2.250    0.000    0.000    1.500    0.000    0.000 
#    0.000    0.000    0.000    0.000    0.000    0.000 
#
# Total GULP energy -178160.598673 kJ/mol
# GULP energy per Si atom -5567.518709 kJ/mol
# Density = 2.238797 g / cm^3
# Si number density = 22.439046 Si / 1000 Ang^3
#
#
#
# Elastic Constant Matrix: (Units=GPa)
#
#
# Indices 1 2 3 4 5 6 
#
# 1 147.6503 1.0956 53.1591 0.0000 -50.3511 0.0000
# 2 1.0956 77.5271 0.5139 0.0000 -3.6335 0.0000
# 3 53.1591 0.5139 122.9933 0.0000 -51.9547 0.0000
# 4 0.0000 0.0000 0.0000 2.2882 0.0000 1.7210
# 5 -50.3511 -3.6335 -51.9547 0.0000 43.4409 0.0000
# 6 0.0000 0.0000 0.0000 1.7210 0.0000 9.6849
#
#
#
# Elastic Compliance Matrix: (Units=1/GPa)
#
#
# Indices 1 2 3 4 5 6 
#
# 1 0.011324 0.000524 0.001347 0.000000 0.014780 0.000000
# 2 0.000524 0.013014 0.000880 0.000000 0.002748 0.000000
# 3 0.001347 0.000880 0.016644 0.000000 0.021540 0.000000
# 4 0.000000 0.000000 0.000000 0.504444 0.000000 -0.089637
# 5 0.014780 0.002748 0.021540 0.000000 0.066143 0.000000
# 6 0.000000 0.000000 0.000000 -0.089637 0.000000 0.119182
#
#
# Mechanical properties :
#
#
# Convention : Reuss Voigt Hill
#
# Bulk Modulus (GPa) = 21.51288 50.85644 36.18466
# Shear Modulus (GPa) = 6.74997 30.64293 18.69645
#
# Velocity S-wave (km/s) = 1.73628 3.69942 2.88967
# Velocity P-wave (km/s) = 3.69156 6.40009 5.22440
#
# Compressibility (1/GPa) = 0.04648378
#
# Stress axis : x y z
#
# Youngs Moduli (GPa) = 88.30593 76.83860 60.08224
#
# Poissons Ratio (x) = -0.04024 -0.08092
# Poissons Ratio (y) = -0.04625 -0.05288
# Poissons Ratio (z) = -0.11893 -0.06763
#
# Static dielectric constant tensor:
#      x y z
#    x 1.861720 0.000000 -0.036190 
#    y 0.000000 1.852270 0.000000 
#    z -0.036190 0.000000 1.913850 
# 
# From -- ./inp_files/69948.got.cif
#   From: 2010.05.17/outbox.cif.g08.bks.cpg/sg11_35_cif.got.tgz:69948.got - 2010.06.03 12:22:45.
