data_PCOD9158163
_publ_section_title
;
Structure prediction by ZEFSAII (Michael W. Deem and Ramdas Pophale) SiO2 
 PCOD9158163
Probable space group: P 21/M
;
_chemical_formula_sum "Si O2"
_cell_formula_units_Z 28
_cell_length_a 12.750237
_cell_length_b 7.837026
_cell_length_c 15.524561
_cell_angle_alpha 90.000000
_cell_angle_beta 121.296114
_cell_angle_gamma 90.000000
_cell_volume 1325.555522
_symmetry_space_group_name_H-M "P 21/M"
_symmetry_group_IT_number 11
_symmetry_cell_setting 'monoclinic'
loop_
_space_group_symop_operation_xyz
x,y,z
-x,1/2+y,-z
-x,-y,-z
x,1/2-y,z
loop_
_atom_site_type_symbol
_atom_site_label
_atom_site_fract_x
_atom_site_fract_y
_atom_site_fract_z
Si Si1 0.123879 0.955951 0.320448
Si Si2 0.960911 0.435912 0.890291
Si Si3 0.792051 0.451846 0.074950
Si Si4 0.348122 0.459367 0.688492
Si Si5 0.865576 0.956113 0.288040
Si Si6 0.532104 0.045254 0.915544
Si Si7 0.385508 0.047231 0.511679
O O1 0.112114 0.750000 0.309352
O O2 0.117167 0.024982 0.218729
O O3 0.004729 0.015848 0.325506
O O4 0.254382 0.995957 0.416432
O O5 0.905376 0.250000 0.880994
O O6 0.092196 0.435921 0.899727
O O7 0.000000 0.500000 0.000000
O O8 0.816268 0.250000 0.071077
O O9 0.780965 0.481957 0.172290
O O10 0.674511 0.505461 0.970092
O O11 0.350249 0.250000 0.689409
O O12 0.209721 0.509408 0.658974
O O13 0.443660 0.518841 0.802708
O O14 0.387267 0.519960 0.610740
O O15 0.868044 0.750000 0.288948
O O16 0.528501 0.250000 0.909337
O O17 0.500000 0.000000 0.000000
O O18 0.387460 0.250000 0.518789
O O19 0.500000 0.000000 0.500000
#
# Coordination Sequence:
#
# PCOD9158163 Si02
#       7
#     4   4   4   4   4   4   4
#     4   9  20  38  60  85 114 149 186 236 296 347
#     4  10  21  37  58  83 113 151 192 238 289 345
#     4  10  19  30  49  82 118 150 185 230 282 339
#     4   9  19  36  58  83 114 154 195 235 291 351
#     4   9  17  34  59  83 112 149 186 227 289 357
#     4  10  19  32  53  81 115 151 185 226 279 342
#     4  11  24  42  62  83 112 154 201 248 292 344
#
# _framework density 21.123218999999999
#
# number of rings (size 3 to 8) (size 9 to 14) (size 15 to 20)
#    0.000    2.286    1.429    2.143    0.000    5.143 
#    0.000    5.714    0.000    0.000    0.000    0.000 
#    0.000    0.000    0.000    0.000    0.000    0.000 
#
# Total GULP energy -155961.081223 kJ/mol
# GULP energy per Si atom -5570.038615 kJ/mol
# Density = 2.107514 g / cm^3
# Si number density = 21.123219 Si / 1000 Ang^3
#
#
#
# Elastic Constant Matrix: (Units=GPa)
#
#
# Indices 1 2 3 4 5 6 
#
# 1 110.0853 3.6971 88.0362 0.0000 -4.7556 0.0000
# 2 3.6971 23.5308 1.0786 0.0000 -0.1290 0.0000
# 3 88.0362 1.0786 163.8952 0.0000 -1.8887 0.0000
# 4 0.0000 0.0000 0.0000 21.7991 0.0000 1.8135
# 5 -4.7556 -0.1290 -1.8887 0.0000 39.7634 0.0000
# 6 0.0000 0.0000 0.0000 1.8135 0.0000 21.2337
#
#
#
# Elastic Compliance Matrix: (Units=1/GPa)
#
#
# Indices 1 2 3 4 5 6 
#
# 1 0.016120 -0.002129 -0.008627 0.000000 0.001511 0.000000
# 2 -0.002129 0.042792 0.000861 0.000000 -0.000075 0.000000
# 3 -0.008627 0.000861 0.010724 0.000000 -0.000520 0.000000
# 4 0.000000 0.000000 0.000000 0.046202 0.000000 -0.003946
# 5 0.001511 -0.000075 -0.000520 0.000000 0.025305 0.000000
# 6 0.000000 0.000000 0.000000 -0.003946 0.000000 0.047432
#
#
# Mechanical properties :
#
#
# Convention : Reuss Voigt Hill
#
# Bulk Modulus (GPa) = 20.06196 53.68166 36.87181
# Shear Modulus (GPa) = 22.22416 30.20588 26.21502
#
# Velocity S-wave (km/s) = 3.24716 3.78562 3.52668
# Velocity P-wave (km/s) = 4.85561 6.67657 5.83753
#
# Compressibility (1/GPa) = 0.04984559
#
# Stress axis : x y z
#
# Youngs Moduli (GPa) = 62.03428 23.36878 93.24834
#
# Poissons Ratio (x) = 0.04975 0.80450
# Poissons Ratio (y) = 0.13207 -0.08030
# Poissons Ratio (z) = 0.53520 -0.02012
#
# Static dielectric constant tensor:
#      x y z
#    x 1.881610 0.000000 -0.196020 
#    y 0.000000 1.783100 0.000000 
#    z -0.196020 0.000000 2.329180 
# 
# From -- ./inp_files/37908.got.cif
#   From: 2010.05.17/outbox.cif.g08.bks.cpg/sg11_19_cif.got.tgz:37908.got - 2010.06.03 12:22:45.
