data_PCOD9158162
_publ_section_title
;
Structure prediction by ZEFSAII (Michael W. Deem and Ramdas Pophale) SiO2 
 PCOD9158162
Probable space group: P 21/M
;
_chemical_formula_sum "Si O2"
_cell_formula_units_Z 32
_cell_length_a 9.354143
_cell_length_b 24.777208
_cell_length_c 15.036071
_cell_angle_alpha 90.000000
_cell_angle_beta 28.639326
_cell_angle_gamma 90.000000
_cell_volume 1670.294542
_symmetry_space_group_name_H-M "P 21/M"
_symmetry_group_IT_number 11
_symmetry_cell_setting 'monoclinic'
loop_
_space_group_symop_operation_xyz
x,y,z
-x,1/2+y,-z
-x,-y,-z
x,1/2-y,z
loop_
_atom_site_type_symbol
_atom_site_label
_atom_site_fract_x
_atom_site_fract_y
_atom_site_fract_z
Si Si1 0.931772 0.394554 0.460391
Si Si2 0.579764 0.686148 0.293505
Si Si3 0.558090 0.515606 0.230928
Si Si4 0.616376 0.599912 0.626959
Si Si5 0.030054 0.112231 0.030262
Si Si6 0.128606 0.930379 0.692468
Si Si7 0.209286 0.387879 0.665222
Si Si8 0.733765 0.025403 0.943018
O O1 0.745559 0.340670 0.540997
O O2 0.709797 0.442041 0.614756
O O3 0.042888 0.413273 0.303299
O O4 0.169267 0.390799 0.407930
O O5 0.574448 0.750000 0.297773
O O6 0.737504 0.661490 0.295856
O O7 0.756725 0.660123 0.114228
O O8 0.473176 0.463998 0.337467
O O9 0.842960 0.556317 0.083777
O O10 0.594205 0.489051 0.114315
O O11 0.754187 0.621744 0.460226
O O12 0.299060 0.625437 0.822117
O O13 0.990501 0.102395 0.157004
O O14 0.481016 0.921642 0.484097
O O15 0.034904 0.990574 0.764972
O O16 0.885124 0.415646 0.855478
O O17 0.500000 0.000000 0.000000
#
# Coordination Sequence:
#
# PCOD9158162 Si02
#       8
#     4   4   4   4   4   4   4   4
#     4  10  20  35  56  81 113 148 185 224 271 325
#     4  10  22  43  61  74 100 144 191 237 281 324
#     4  10  19  30  49  80 120 157 178 206 265 335
#     4  11  19  33  55  86 118 142 176 225 273 329
#     4   9  20  35  54  80 107 143 187 226 268 328
#     4   9  19  34  51  78 114 148 179 216 268 336
#     4  10  21  35  55  80 109 148 186 220 267 331
#     4  11  19  29  50  83 120 150 180 218 266 322
#
# _framework density 19.158297000000001
#
# number of rings (size 3 to 8) (size 9 to 14) (size 15 to 20)
#    0.000    2.000    0.000    4.125    0.000    7.000 
#    0.000    6.875    0.000    0.000    0.000    0.000 
#    0.000    0.000    0.000    0.000    0.000    0.000 
#
# Total GULP energy -178384.179255 kJ/mol
# GULP energy per Si atom -5574.505602 kJ/mol
# Density = 1.911469 g / cm^3
# Si number density = 19.158297 Si / 1000 Ang^3
#
#
#
# Elastic Constant Matrix: (Units=GPa)
#
#
# Indices 1 2 3 4 5 6 
#
# 1 121.0731 17.5510 31.8528 0.0000 4.3506 0.0000
# 2 17.5510 99.6945 30.8881 0.0000 5.5252 0.0000
# 3 31.8528 30.8881 67.0808 0.0000 14.6545 0.0000
# 4 0.0000 0.0000 0.0000 12.4593 0.0000 0.0591
# 5 4.3506 5.5252 14.6545 0.0000 22.1272 0.0000
# 6 0.0000 0.0000 0.0000 0.0591 0.0000 16.6953
#
#
#
# Elastic Compliance Matrix: (Units=1/GPa)
#
#
# Indices 1 2 3 4 5 6 
#
# 1 0.009478 -0.000301 -0.004643 0.000000 0.001287 0.000000
# 2 -0.000301 0.011720 -0.005410 0.000000 0.000716 0.000000
# 3 -0.004643 -0.005410 0.022341 0.000000 -0.012532 0.000000
# 4 0.000000 0.000000 0.000000 0.080262 0.000000 -0.000284
# 5 0.001287 0.000716 -0.012532 0.000000 0.053062 0.000000
# 6 0.000000 0.000000 0.000000 -0.000284 0.000000 0.059898
#
#
# Mechanical properties :
#
#
# Convention : Reuss Voigt Hill
#
# Bulk Modulus (GPa) = 43.80034 49.82581 46.81308
# Shear Modulus (GPa) = 18.86217 24.09346 21.47781
#
# Velocity S-wave (km/s) = 3.14115 3.55011 3.35187
# Velocity P-wave (km/s) = 6.00564 6.54739 6.28236
#
# Compressibility (1/GPa) = 0.02283087
#
# Stress axis : x y z
#
# Youngs Moduli (GPa) = 105.50231 85.32295 44.76080
#
# Poissons Ratio (x) = 0.02572 0.20783
# Poissons Ratio (y) = 0.03180 0.24215
# Poissons Ratio (z) = 0.48985 0.46159
#
# Static dielectric constant tensor:
#      x y z
#    x 1.724050 0.000000 -0.013510 
#    y 0.000000 1.653480 0.000000 
#    z -0.013510 0.000000 1.718550 
# 
# From -- ./inp_files/48512.got.cif
#   From: 2010.05.17/outbox.cif.g08.bks.cpg/sg11_25_cif.got.tgz:48512.got - 2010.06.03 12:22:45.
