data_PCOD9158127
_publ_section_title
;
Structure prediction by ZEFSAII (Michael W. Deem and Ramdas Pophale) SiO2 
 PCOD9158127
Probable space group: P 21/M
;
_chemical_formula_sum "Si O2"
_cell_formula_units_Z 32
_cell_length_a 14.754784
_cell_length_b 8.899671
_cell_length_c 17.099234
_cell_angle_alpha 90.000000
_cell_angle_beta 63.974070
_cell_angle_gamma 90.000000
_cell_volume 2017.658837
_symmetry_space_group_name_H-M "P 21/M"
_symmetry_group_IT_number 11
_symmetry_cell_setting 'monoclinic'
loop_
_space_group_symop_operation_xyz
x,y,z
-x,1/2+y,-z
-x,-y,-z
x,1/2-y,z
loop_
_atom_site_type_symbol
_atom_site_label
_atom_site_fract_x
_atom_site_fract_y
_atom_site_fract_z
Si Si1 0.009716 0.571203 0.583491
Si Si2 0.782084 0.573675 0.452625
Si Si3 0.440108 0.929040 0.909302
Si Si4 0.180550 0.924323 0.264064
Si Si5 0.446537 0.073864 0.742823
Si Si6 0.655145 0.570390 0.903786
Si Si7 0.685655 0.080860 0.630886
Si Si8 0.594754 0.568278 0.416846
O O1 0.006174 0.750000 0.576657
O O2 0.114939 0.518508 0.581298
O O3 0.000000 0.500000 0.500000
O O4 0.918937 0.512098 0.671813
O O5 0.804829 0.750000 0.435662
O O6 0.726090 0.541228 0.555643
O O7 0.700064 0.528830 0.418510
O O8 0.430333 0.750000 0.919723
O O9 0.556526 0.968258 0.887901
O O10 0.416026 0.983510 0.831273
O O11 0.371727 0.008452 0.000451
O O12 0.157073 0.750000 0.256525
O O13 0.253556 0.928830 0.311999
O O14 0.245278 0.997235 0.170288
O O15 0.420781 0.250000 0.763092
O O16 0.567639 0.063381 0.690022
O O17 0.406312 0.022155 0.673663
O O18 0.664288 0.750000 0.901357
O O19 0.702544 0.250000 0.591551
O O20 0.500000 0.500000 0.500000
O O21 0.583956 0.750000 0.423210
#
# Coordination Sequence:
#
# PCOD9158127 Si02
#       8
#     4   4   4   4   4   4   4   4
#     4  12  24  37  53  74 101 136 176 216 260 308
#     4  11  22  35  51  73 103 137 177 220 258 301
#     4  10  20  32  49  74 103 135 173 213 254 302
#     4  11  21  34  52  76 104 136 173 213 256 305
#     4  10  19  33  50  72 103 139 175 210 254 305
#     4  10  20  33  50  73 104 138 171 209 256 307
#     4  10  19  30  49  72 102 139 174 209 254 304
#     4  10  21  34  51  75 103 138 177 216 257 305
#
# _framework density 15.859965000000001
#
# number of rings (size 3 to 8) (size 9 to 14) (size 15 to 20)
#    0.000    1.500    3.750    2.625    0.000    3.000 
#    0.000    0.000    0.000    0.000    0.000    0.875 
#    0.000    0.000    0.000    0.000    0.000    0.000 
#
# Total GULP energy -178634.926603 kJ/mol
# GULP energy per Si atom -5582.341456 kJ/mol
# Density = 1.582387 g / cm^3
# Si number density = 15.859965 Si / 1000 Ang^3
#
#
#
# Elastic Constant Matrix: (Units=GPa)
#
#
# Indices 1 2 3 4 5 6 
#
# 1 94.1483 48.0438 53.2620 0.0000 -0.8733 0.0000
# 2 48.0438 82.7510 55.7596 0.0000 -6.2889 0.0000
# 3 53.2620 55.7596 117.9305 0.0000 -0.6897 0.0000
# 4 0.0000 0.0000 0.0000 27.0586 0.0000 -5.1265
# 5 -0.8733 -6.2889 -0.6897 0.0000 20.7870 0.0000
# 6 0.0000 0.0000 0.0000 -5.1265 0.0000 20.4920
#
#
#
# Elastic Compliance Matrix: (Units=1/GPa)
#
#
# Indices 1 2 3 4 5 6 
#
# 1 0.016487 -0.006845 -0.004219 0.000000 -0.001518 0.000000
# 2 -0.006845 0.021131 -0.006865 0.000000 0.005878 0.000000
# 3 -0.004219 -0.006865 0.013620 0.000000 -0.001802 0.000000
# 4 0.000000 0.000000 0.000000 0.038796 0.000000 0.009705
# 5 -0.001518 0.005878 -0.001802 0.000000 0.049762 0.000000
# 6 0.000000 0.000000 0.000000 0.009705 0.000000 0.051227
#
#
# Mechanical properties :
#
#
# Convention : Reuss Voigt Hill
#
# Bulk Modulus (GPa) = 65.01624 67.66228 66.33926
# Shear Modulus (GPa) = 21.55098 22.85183 22.20141
#
# Velocity S-wave (km/s) = 3.69023 3.79997 3.74550
# Velocity P-wave (km/s) = 7.69675 7.87451 7.78614
#
# Compressibility (1/GPa) = 0.01538077
#
# Stress axis : x y z
#
# Youngs Moduli (GPa) = 60.65397 47.32336 73.41891
#
# Poissons Ratio (x) = 0.32392 0.30973
# Poissons Ratio (y) = 0.41516 0.50406
# Poissons Ratio (z) = 0.25588 0.32490
#
# Static dielectric constant tensor:
#      x y z
#    x 1.530490 0.000000 0.005180 
#    y 0.000000 1.527600 0.000000 
#    z 0.005180 0.000000 1.510390 
# 
# From -- ./inp_files/51692.got.cif
#   From: 2010.05.17/outbox.cif.g08.bks.cpg/sg11_26_cif.got.tgz:51692.got - 2010.06.03 12:22:45.
