data_PCOD9158154
_publ_section_title
;
Structure prediction by ZEFSAII (Michael W. Deem and Ramdas Pophale) SiO2 
 PCOD9158154
Probable space group: P 21/M
;
_chemical_formula_sum "Si O2"
_cell_formula_units_Z 32
_cell_length_a 14.887456
_cell_length_b 7.634430
_cell_length_c 24.227275
_cell_angle_alpha 90.000000
_cell_angle_beta 150.536660
_cell_angle_gamma 90.000000
_cell_volume 1354.406366
_symmetry_space_group_name_H-M "P 21/M"
_symmetry_group_IT_number 11
_symmetry_cell_setting 'monoclinic'
loop_
_space_group_symop_operation_xyz
x,y,z
-x,1/2+y,-z
-x,-y,-z
x,1/2-y,z
loop_
_atom_site_type_symbol
_atom_site_label
_atom_site_fract_x
_atom_site_fract_y
_atom_site_fract_z
Si Si1 0.215913 0.555092 0.702163
Si Si2 0.073801 0.048729 0.959594
Si Si3 0.687368 0.037801 0.765835
Si Si4 0.461860 0.040041 0.543372
Si Si5 0.527604 0.958546 0.793261
Si Si6 0.947474 0.964694 0.650678
Si Si7 0.498649 0.446393 0.936570
Si Si8 0.925801 0.048985 0.160323
O O1 0.156510 0.750000 0.652127
O O2 0.339532 0.470150 0.719717
O O3 0.372513 0.567127 0.832856
O O4 0.050719 0.474993 0.650161
O O5 0.091208 0.250000 0.985999
O O6 0.890992 0.969424 0.888740
O O7 0.013921 0.047156 0.862758
O O8 0.276294 0.970787 0.078310
O O9 0.699062 0.250000 0.771140
O O10 0.611419 0.973811 0.666602
O O11 0.546993 0.988407 0.738776
O O12 0.460470 0.250000 0.546877
O O13 0.262124 0.980703 0.456201
O O14 0.500000 0.000000 0.500000
O O15 0.521749 0.750000 0.801875
O O16 0.960374 0.750000 0.656275
O O17 0.034624 0.018689 0.756697
O O18 0.427645 0.250000 0.891392
O O19 0.500000 0.500000 0.000000
O O20 0.709593 0.450199 0.035283
O O21 0.993948 0.250000 0.195123
#
# Coordination Sequence:
#
# PCOD9158154 Si02
#       8
#     4   4   4   4   4   4   4   4
#     4  10  19  35  54  76 108 144 184 225 267 322
#     4  10  20  34  52  78 110 143 179 222 271 321
#     4  10  22  38  56  79 109 141 178 226 275 319
#     4  10  21  39  62  85 108 140 178 221 273 321
#     4  10  21  35  55  79 105 143 183 221 270 323
#     4   9  18  34  55  78 108 144 182 220 267 326
#     4  11  20  30  47  74 110 149 184 218 266 321
#     4  10  19  30  49  78 108 143 180 215 263 321
#
# _framework density 23.626588000000002
#
# number of rings (size 3 to 8) (size 9 to 14) (size 15 to 20)
#    0.000    2.000    2.500    1.500    0.000    2.500 
#    0.000    1.250    0.000    0.000    0.000    0.000 
#    0.000    0.000    0.000    0.000    0.000    0.000 
#
# Total GULP energy -178476.996138 kJ/mol
# GULP energy per Si atom -5577.406129 kJ/mol
# Density = 2.357281 g / cm^3
# Si number density = 23.626588 Si / 1000 Ang^3
#
#
#
# Elastic Constant Matrix: (Units=GPa)
#
#
# Indices 1 2 3 4 5 6 
#
# 1 170.4306 8.2922 48.6076 0.0000 9.3576 0.0000
# 2 8.2922 54.4474 4.1066 0.0000 9.8306 0.0000
# 3 48.6076 4.1066 82.8390 0.0000 11.4950 0.0000
# 4 0.0000 0.0000 0.0000 6.1967 0.0000 -6.5376
# 5 9.3576 9.8306 11.4950 0.0000 39.1654 0.0000
# 6 0.0000 0.0000 0.0000 -6.5376 0.0000 19.9382
#
#
#
# Elastic Compliance Matrix: (Units=1/GPa)
#
#
# Indices 1 2 3 4 5 6 
#
# 1 0.007082 -0.000714 -0.004076 0.000000 -0.000317 0.000000
# 2 -0.000714 0.019317 0.000115 0.000000 -0.004712 0.000000
# 3 -0.004076 0.000115 0.014935 0.000000 -0.003438 0.000000
# 4 0.000000 0.000000 0.000000 0.246726 0.000000 0.080900
# 5 -0.000317 -0.004712 -0.003438 0.000000 0.027800 0.000000
# 6 0.000000 0.000000 0.000000 0.080900 0.000000 0.076681
#
#
# Mechanical properties :
#
#
# Convention : Reuss Voigt Hill
#
# Bulk Modulus (GPa) = 31.26571 47.74775 39.50673
# Shear Modulus (GPa) = 12.11965 29.50744 20.81354
#
# Velocity S-wave (km/s) = 2.26733 3.53782 2.97128
# Velocity P-wave (km/s) = 4.48513 6.07795 5.34125
#
# Compressibility (1/GPa) = 0.03198393
#
# Stress axis : x y z
#
# Youngs Moduli (GPa) = 141.19929 51.76749 66.95738
#
# Poissons Ratio (x) = 0.03696 0.27294
# Poissons Ratio (y) = 0.10082 -0.00771
# Poissons Ratio (z) = 0.57557 -0.00596
#
# Static dielectric constant tensor:
#      x y z
#    x 1.992820 0.000000 0.022530 
#    y 0.000000 2.039370 0.000000 
#    z 0.022530 0.000000 1.862840 
# 
# From -- ./inp_files/51621.got.cif
#   From: 2010.05.17/outbox.cif.g08.bks.cpg/sg11_26_cif.got.tgz:51621.got - 2010.06.03 12:22:45.
