data_PCOD9158733
_publ_section_title
;
Structure prediction by ZEFSAII (Michael W. Deem and Ramdas Pophale) SiO2 
 PCOD9158733
Probable space group: P 21/M
;
_chemical_formula_sum "Si O2"
_cell_formula_units_Z 28
_cell_length_a 12.416814
_cell_length_b 17.532303
_cell_length_c 7.603631
_cell_angle_alpha 90.000000
_cell_angle_beta 118.409641
_cell_angle_gamma 90.000000
_cell_volume 1455.927863
_symmetry_space_group_name_H-M "P 21/M"
_symmetry_group_IT_number 11
_symmetry_cell_setting 'monoclinic'
loop_
_space_group_symop_operation_xyz
x,y,z
-x,1/2+y,-z
-x,-y,-z
x,1/2-y,z
loop_
_atom_site_type_symbol
_atom_site_label
_atom_site_fract_x
_atom_site_fract_y
_atom_site_fract_z
Si Si1 0.256073 0.162762 0.628987
Si Si2 0.117624 0.964338 0.994895
Si Si3 0.531945 0.590715 0.730888
Si Si4 0.056923 0.338419 0.206445
Si Si5 0.802143 0.624293 0.031493
Si Si6 0.372746 0.921996 0.276186
Si Si7 0.477084 0.658759 0.050557
O O1 0.274349 0.250000 0.586121
O O2 0.166086 0.128606 0.414066
O O3 0.195463 0.160770 0.774857
O O4 0.392377 0.131606 0.763937
O O5 0.062522 0.889883 0.861157
O O6 0.231458 0.941253 0.206794
O O7 0.170381 0.034126 0.921908
O O8 0.000000 0.000000 0.000000
O O9 0.664533 0.631823 0.846501
O O10 0.563655 0.501144 0.736761
O O11 0.449379 0.609940 0.499001
O O12 0.465043 0.614437 0.858164
O O13 0.035564 0.250000 0.233436
O O14 0.105234 0.344391 0.042910
O O15 0.377693 0.864813 0.116150
O O16 0.482669 0.750000 0.025572
#
# Coordination Sequence:
#
# PCOD9158733 Si02
#       7
#     4   4   4   4   4   4   4
#     4   9  18  31  50  77 102 128 166 206 249 301
#     4   9  20  36  52  74 100 132 176 213 245 294
#     4   9  19  34  55  80 104 132 169 215 262 313
#     4  10  19  32  50  71  99 134 169 207 249 294
#     4   9  17  33  53  74 100 128 164 211 256 296
#     4  10  19  35  56  75 103 140 173 211 262 310
#     4  10  20  33  52  81 110 133 165 210 262 319
#
# _framework density 19.231722000000001
#
# number of rings (size 3 to 8) (size 9 to 14) (size 15 to 20)
#    0.000    2.571    0.000    1.714    0.000    3.429 
#    0.000    2.857    0.000    0.000    0.000    0.000 
#    0.000    0.000    0.000    0.000    0.000    0.000 
#
# Total GULP energy -155983.322421 kJ/mol
# GULP energy per Si atom -5570.832944 kJ/mol
# Density = 1.918795 g / cm^3
# Si number density = 19.231722 Si / 1000 Ang^3
#
#
#
# Elastic Constant Matrix: (Units=GPa)
#
#
# Indices 1 2 3 4 5 6 
#
# 1 65.2469 11.1276 32.4094 0.0000 2.0857 0.0000
# 2 11.1276 44.9974 21.4346 0.0000 7.2440 0.0000
# 3 32.4094 21.4346 71.6279 0.0000 -3.2774 0.0000
# 4 0.0000 0.0000 0.0000 20.4968 0.0000 -2.4427
# 5 2.0857 7.2440 -3.2774 0.0000 7.8805 0.0000
# 6 0.0000 0.0000 0.0000 -2.4427 0.0000 17.3352
#
#
#
# Elastic Compliance Matrix: (Units=1/GPa)
#
#
# Indices 1 2 3 4 5 6 
#
# 1 0.020514 0.001628 -0.010282 0.000000 -0.011202 0.000000
# 2 0.001628 0.033650 -0.012479 0.000000 -0.036553 0.000000
# 3 -0.010282 -0.012479 0.023443 0.000000 0.023942 0.000000
# 4 0.000000 0.000000 0.000000 0.049621 0.000000 0.006992
# 5 -0.011202 -0.036553 0.023942 0.000000 0.173417 0.000000
# 6 0.000000 0.000000 0.000000 0.006992 0.000000 0.058671
#
#
# Mechanical properties :
#
#
# Convention : Reuss Voigt Hill
#
# Bulk Modulus (GPa) = 28.29515 34.64618 31.47066
# Shear Modulus (GPa) = 12.09593 16.93587 14.51590
#
# Velocity S-wave (km/s) = 2.51062 2.97075 2.75032
# Velocity P-wave (km/s) = 4.81134 5.46089 5.14637
#
# Compressibility (1/GPa) = 0.03534175
#
# Stress axis : x y z
#
# Youngs Moduli (GPa) = 48.74729 29.71794 42.65667
#
# Poissons Ratio (x) = -0.04838 0.43858
# Poissons Ratio (y) = -0.07937 0.53231
# Poissons Ratio (z) = 0.50121 0.37085
#
# Static dielectric constant tensor:
#      x y z
#    x 1.700800 0.000000 0.018680 
#    y 0.000000 1.718150 0.000000 
#    z 0.018680 0.000000 1.670170 
# 
# From -- ./inp_files/5091.got.cif
#   From: 2010.05.17/outbox.cif.g08.bks.cpg/sg11_3_cif.got.tgz:5091.got - 2010.06.03 12:22:45.
