data_PCOD9158801
_publ_section_title
;
Structure prediction by ZEFSAII (Michael W. Deem and Ramdas Pophale) SiO2 
 PCOD9158801
Probable space group: P 21/M
;
_chemical_formula_sum "Si O2"
_cell_formula_units_Z 32
_cell_length_a 10.760218
_cell_length_b 21.413896
_cell_length_c 19.768226
_cell_angle_alpha 90.000000
_cell_angle_beta 23.278050
_cell_angle_gamma 90.000000
_cell_volume 1800.090658
_symmetry_space_group_name_H-M "P 21/M"
_symmetry_group_IT_number 11
_symmetry_cell_setting 'monoclinic'
loop_
_space_group_symop_operation_xyz
x,y,z
-x,1/2+y,-z
-x,-y,-z
x,1/2-y,z
loop_
_atom_site_type_symbol
_atom_site_label
_atom_site_fract_x
_atom_site_fract_y
_atom_site_fract_z
Si Si1 0.194775 0.677507 0.831975
Si Si2 0.769621 0.601387 0.584215
Si Si3 0.378228 0.320841 0.141419
Si Si4 0.805238 0.322492 0.526742
Si Si5 0.637774 0.438923 0.777529
Si Si6 0.230395 0.398618 0.853824
Si Si7 0.621815 0.820841 0.019636
Si Si8 0.362200 0.561081 0.915326
O O1 0.271106 0.750000 0.804153
O O2 0.509588 0.637006 0.670390
O O3 0.963059 0.671579 0.883983
O O4 0.996190 0.651180 0.995018
O O5 0.579696 0.568186 0.739523
O O6 0.996214 0.651185 0.508778
O O7 0.001381 0.557180 0.426365
O O8 0.485527 0.250000 0.105400
O O9 0.360637 0.325634 0.069676
O O10 0.590630 0.375463 0.066207
O O11 0.036996 0.328420 0.347016
O O12 0.728883 0.250000 0.575259
O O13 0.490442 0.362997 0.679958
O O14 0.420300 0.431826 0.819211
O O15 0.499985 0.500000 0.882616
O O16 0.590578 0.375464 0.843172
O O17 0.998632 0.442817 0.927731
O O18 0.514531 0.750000 0.090913
#
# Coordination Sequence:
#
# PCOD9158801 Si02
#       8
#     4   4   4   4   4   4   4   4
#     4   9  16  28  48  71  96 124 155 196 242 289
#     4   9  18  29  46  74 100 123 156 197 244 290
#     4   9  19  35  51  68  94 129 165 200 240 284
#     4   9  16  28  48  71  96 124 155 196 242 289
#     4  10  19  32  51  73 100 131 161 197 241 290
#     4   9  18  29  46  74 100 123 156 197 244 290
#     4   9  19  35  51  68  94 129 165 200 240 284
#     4  10  19  32  51  73 100 131 161 197 241 290
#
# _framework density 17.776883000000002
#
# number of rings (size 3 to 8) (size 9 to 14) (size 15 to 20)
#    0.000    2.750    0.000    1.500    0.000    7.500 
#    0.000    1.250    0.000    4.500    0.000    0.000 
#    0.000    0.000    0.000    0.000    0.000    0.000 
#
# Total GULP energy -178359.422786 kJ/mol
# GULP energy per Si atom -5573.731962 kJ/mol
# Density = 1.773642 g / cm^3
# Si number density = 17.776883 Si / 1000 Ang^3
#
#
#
# Elastic Constant Matrix: (Units=GPa)
#
#
# Indices 1 2 3 4 5 6 
#
# 1 33.8554 11.2989 9.3941 0.0000 6.4592 0.0000
# 2 11.2989 63.9473 5.4859 0.0000 3.4988 0.0000
# 3 9.3941 5.4859 40.7699 0.0000 -10.6265 0.0000
# 4 0.0000 0.0000 0.0000 21.9032 0.0000 -4.0900
# 5 6.4592 3.4988 -10.6265 0.0000 17.1519 0.0000
# 6 0.0000 0.0000 0.0000 -4.0900 0.0000 15.1094
#
#
#
# Elastic Compliance Matrix: (Units=1/GPa)
#
#
# Indices 1 2 3 4 5 6 
#
# 1 0.039399 -0.004472 -0.014437 0.000000 -0.022870 0.000000
# 2 -0.004472 0.016762 -0.002001 0.000000 -0.002975 0.000000
# 3 -0.014437 -0.002001 0.035357 0.000000 0.027751 0.000000
# 4 0.000000 0.000000 0.000000 0.048086 0.000000 0.013017
# 5 -0.022870 -0.002975 0.027751 0.000000 0.084715 0.000000
# 6 0.000000 0.000000 0.000000 0.013017 0.000000 0.069707
#
#
# Mechanical properties :
#
#
# Convention : Reuss Voigt Hill
#
# Bulk Modulus (GPa) = 20.12113 21.21447 20.66780
# Shear Modulus (GPa) = 14.18794 18.32582 16.25688
#
# Velocity S-wave (km/s) = 2.82815 3.21421 3.02734
# Velocity P-wave (km/s) = 4.69125 5.07292 4.88582
#
# Compressibility (1/GPa) = 0.04969900
#
# Stress axis : x y z
#
# Youngs Moduli (GPa) = 25.38130 59.65747 28.28313
#
# Poissons Ratio (x) = 0.26676 0.40834
# Poissons Ratio (y) = 0.11349 0.05658
# Poissons Ratio (z) = 0.36644 0.11935
#
# Static dielectric constant tensor:
#      x y z
#    x 1.589730 0.000000 -0.005410 
#    y 0.000000 1.665490 0.000000 
#    z -0.005410 0.000000 1.598710 
# 
# From -- ./inp_files/19196.got.cif
#   From: 2010.05.17/outbox.cif.g08.bks.cpg/sg11_10_cif.got.tgz:19196.got - 2010.06.03 12:22:45.
