data_PCOD9158136
_publ_section_title
;
Structure prediction by ZEFSAII (Michael W. Deem and Ramdas Pophale) SiO2 
 PCOD9158136
Probable space group: P 21/M
;
_chemical_formula_sum "Si O2"
_cell_formula_units_Z 32
_cell_length_a 13.641401
_cell_length_b 18.454298
_cell_length_c 7.294308
_cell_angle_alpha 90.000000
_cell_angle_beta 108.944606
_cell_angle_gamma 90.000000
_cell_volume 1736.820820
_symmetry_space_group_name_H-M "P 21/M"
_symmetry_group_IT_number 11
_symmetry_cell_setting 'monoclinic'
loop_
_space_group_symop_operation_xyz
x,y,z
-x,1/2+y,-z
-x,-y,-z
x,1/2-y,z
loop_
_atom_site_type_symbol
_atom_site_label
_atom_site_fract_x
_atom_site_fract_y
_atom_site_fract_z
Si Si1 0.015548 0.917351 0.707608
Si Si2 0.506621 0.520680 0.717016
Si Si3 0.887207 0.926164 0.275671
Si Si4 0.232410 0.632274 0.766435
Si Si5 0.599719 0.168223 0.413391
Si Si6 0.748679 0.165568 0.799293
Si Si7 0.332001 0.022665 0.877698
Si Si8 0.980257 0.337161 0.913927
O O1 0.108849 0.870657 0.671468
O O2 0.922356 0.924650 0.508731
O O3 0.065323 0.997165 0.771162
O O4 0.988172 0.877019 0.878334
O O5 0.500000 0.500000 0.500000
O O6 0.474589 0.605997 0.709638
O O7 0.614827 0.514185 0.891369
O O8 0.424677 0.472517 0.785724
O O9 0.944885 0.863439 0.199999
O O10 0.763345 0.921845 0.179960
O O11 0.299850 0.672256 0.657392
O O12 0.255736 0.658887 0.985534
O O13 0.273620 0.550638 0.785350
O O14 0.556214 0.250000 0.405127
O O15 0.648350 0.137487 0.632621
O O16 0.748308 0.250000 0.751243
O O17 0.861114 0.136774 0.807132
O O18 0.979364 0.250000 0.935273
#
# Coordination Sequence:
#
# PCOD9158136 Si02
#       8
#     4   4   4   4   4   4   4   4
#     4   9  19  32  51  78 106 137 172 206 247 302
#     4  10  20  36  55  73  97 127 162 211 260 301
#     4  10  19  34  53  75 104 136 173 215 252 296
#     4   9  16  30  49  72 101 127 155 199 247 294
#     4  10  19  30  49  75  98 124 159 200 252 304
#     4   9  17  28  44  71 103 131 158 190 239 297
#     4   9  20  34  52  75  93 123 171 207 248 303
#     4  10  20  32  49  75 108 143 173 203 244 297
#
# _framework density 18.424468999999998
#
# number of rings (size 3 to 8) (size 9 to 14) (size 15 to 20)
#    0.000    2.500    0.000    2.250    0.000    3.000 
#    0.000    0.625    0.000    0.750    0.000    0.000 
#    0.000    0.000    0.000    0.000    0.000    0.000 
#
# Total GULP energy -178232.794900 kJ/mol
# GULP energy per Si atom -5569.774841 kJ/mol
# Density = 1.838253 g / cm^3
# Si number density = 18.424469 Si / 1000 Ang^3
#
#
#
# Elastic Constant Matrix: (Units=GPa)
#
#
# Indices 1 2 3 4 5 6 
#
# 1 31.6361 -14.3712 7.5129 0.0000 5.0999 0.0000
# 2 -14.3712 39.7619 -12.6808 0.0000 -6.2800 0.0000
# 3 7.5129 -12.6808 43.9847 0.0000 -4.9192 0.0000
# 4 0.0000 0.0000 0.0000 29.3484 0.0000 -8.8517
# 5 5.0999 -6.2800 -4.9192 0.0000 19.1804 0.0000
# 6 0.0000 0.0000 0.0000 -8.8517 0.0000 26.3835
#
#
#
# Elastic Compliance Matrix: (Units=1/GPa)
#
#
# Indices 1 2 3 4 5 6 
#
# 1 0.039106 0.011581 -0.004200 0.000000 -0.007683 0.000000
# 2 0.011581 0.033802 0.008916 0.000000 0.010275 0.000000
# 3 -0.004200 0.008916 0.027256 0.000000 0.011026 0.000000
# 4 0.000000 0.000000 0.000000 0.037909 0.000000 0.012719
# 5 -0.007683 0.010275 0.011026 0.000000 0.060371 0.000000
# 6 0.000000 0.000000 0.000000 0.012719 0.000000 0.042170
#
#
# Mechanical properties :
#
#
# Convention : Reuss Voigt Hill
#
# Bulk Modulus (GPa) = 7.53244 8.47827 8.00536
# Shear Modulus (GPa) = 19.81978 23.97726 21.89852
#
# Velocity S-wave (km/s) = 3.28339 3.61138 3.45128
# Velocity P-wave (km/s) = 4.29783 4.69053 4.49847
#
# Compressibility (1/GPa) = 0.13275909
#
# Stress axis : x y z
#
# Youngs Moduli (GPa) = 25.57127 29.58418 36.68878
#
# Poissons Ratio (x) = -0.34262 0.15409
# Poissons Ratio (y) = -0.29615 -0.32712
# Poissons Ratio (z) = 0.10740 -0.26377
#
# Static dielectric constant tensor:
#      x y z
#    x 1.664160 0.000000 0.006020 
#    y 0.000000 1.669400 0.000000 
#    z 0.006020 0.000000 1.658370 
# 
# From -- ./inp_files/7085.got.cif
#   From: 2010.05.17/outbox.cif.g08.bks.cpg/sg11_4_cif.got.tgz:7085.got - 2010.06.03 12:22:45.
