data_PCOD9158663
_publ_section_title
;
Structure prediction by ZEFSAII (Michael W. Deem and Ramdas Pophale) SiO2 
 PCOD9158663
Probable space group: P 21/M
;
_chemical_formula_sum "Si O2"
_cell_formula_units_Z 28
_cell_length_a 13.868637
_cell_length_b 7.492444
_cell_length_c 23.730246
_cell_angle_alpha 90.000000
_cell_angle_beta 147.851432
_cell_angle_gamma 90.000000
_cell_volume 1312.097863
_symmetry_space_group_name_H-M "P 21/M"
_symmetry_group_IT_number 11
_symmetry_cell_setting 'monoclinic'
loop_
_space_group_symop_operation_xyz
x,y,z
-x,1/2+y,-z
-x,-y,-z
x,1/2-y,z
loop_
_atom_site_type_symbol
_atom_site_label
_atom_site_fract_x
_atom_site_fract_y
_atom_site_fract_z
Si Si1 0.705406 0.531368 0.445442
Si Si2 0.061080 0.542745 0.675343
Si Si3 0.705037 0.464596 0.757270
Si Si4 0.704762 0.964955 0.316754
Si Si5 0.919661 0.038732 0.099226
Si Si6 0.713529 0.464578 0.107355
Si Si7 0.714085 0.467083 0.888541
O O1 0.706926 0.750000 0.446291
O O2 0.499698 0.475120 0.356800
O O3 0.749059 0.477485 0.402468
O O4 0.862060 0.466205 0.564466
O O5 0.031741 0.750000 0.675184
O O6 0.168419 0.535088 0.669545
O O7 0.185451 0.466139 0.786593
O O8 0.698583 0.250000 0.756226
O O9 0.754826 0.529397 0.845226
O O10 0.864870 0.514771 0.794357
O O11 0.716024 0.750000 0.320974
O O12 0.494934 0.013414 0.202344
O O13 0.883186 0.250000 0.080120
O O14 0.815171 0.966897 0.101822
O O15 0.840651 0.965756 0.001222
O O16 0.729663 0.250000 0.115705
O O17 0.500000 0.500000 0.000000
O O18 0.724148 0.250000 0.891960
#
# Coordination Sequence:
#
# PCOD9158663 Si02
#       7
#     4   4   4   4   4   4   4
#     4   8  16  31  50  71  99 130 159 193 240 291
#     4  10  19  32  49  71  98 129 162 199 241 284
#     4   9  17  31  50  71  92 121 159 195 232 285
#     4   9  16  29  50  74  98 128 161 195 237 289
#     4  10  19  32  48  68  95 126 156 195 242 281
#     4  10  22  37  53  72  97 128 162 198 239 285
#     4   8  15  28  47  69  95 124 154 189 238 291
#
# _framework density 21.339870000000001
#
# number of rings (size 3 to 8) (size 9 to 14) (size 15 to 20)
#    0.000    2.857    0.000    3.429    0.000    2.286 
#    0.000    5.000    0.000    0.000    0.000    0.000 
#    0.000    0.000    0.000    0.000    0.000    0.000 
#
# Total GULP energy -156283.129800 kJ/mol
# GULP energy per Si atom -5581.540350 kJ/mol
# Density = 2.129130 g / cm^3
# Si number density = 21.339870 Si / 1000 Ang^3
#
#
#
# Elastic Constant Matrix: (Units=GPa)
#
#
# Indices 1 2 3 4 5 6 
#
# 1 128.3159 -1.1812 93.8065 0.0000 25.1907 0.0000
# 2 -1.1812 57.4425 3.4552 0.0000 -5.2925 0.0000
# 3 93.8065 3.4552 185.8765 0.0000 1.2022 0.0000
# 4 0.0000 0.0000 0.0000 9.7637 0.0000 5.6292
# 5 25.1907 -5.2925 1.2022 0.0000 16.4509 0.0000
# 6 0.0000 0.0000 0.0000 5.6292 0.0000 13.5902
#
#
#
# Elastic Compliance Matrix: (Units=1/GPa)
#
#
# Indices 1 2 3 4 5 6 
#
# 1 0.022849 -0.002061 -0.011267 0.000000 -0.034827 0.000000
# 2 -0.002061 0.018152 0.000645 0.000000 0.008949 0.000000
# 3 -0.011267 0.000645 0.010947 0.000000 0.016661 0.000000
# 4 0.000000 0.000000 0.000000 0.134553 0.000000 -0.055733
# 5 -0.034827 0.008949 0.016661 0.000000 0.115777 0.000000
# 6 0.000000 0.000000 0.000000 -0.055733 0.000000 0.096668
#
#
# Mechanical properties :
#
#
# Convention : Reuss Voigt Hill
#
# Bulk Modulus (GPa) = 37.62270 62.64399 50.13335
# Shear Modulus (GPa) = 11.54275 26.33126 18.93701
#
# Velocity S-wave (km/s) = 2.32825 3.51650 2.98216
# Velocity P-wave (km/s) = 4.98961 6.77546 5.94992
#
# Compressibility (1/GPa) = 0.02657970
#
# Stress axis : x y z
#
# Youngs Moduli (GPa) = 43.76627 55.09029 91.35312
#
# Poissons Ratio (x) = 0.11355 1.02932
# Poissons Ratio (y) = 0.09021 -0.05892
# Poissons Ratio (z) = 0.49314 -0.03553
#
# Static dielectric constant tensor:
#      x y z
#    x 1.745160 0.000000 -0.006970 
#    y 0.000000 1.819890 0.000000 
#    z -0.006970 0.000000 1.783830 
# 
# From -- ./inp_files/64657.got.cif
#   From: 2010.05.17/outbox.cif.g08.bks.cpg/sg11_33_cif.got.tgz:64657.got - 2010.06.03 12:22:45.
