data_PCOD9158861
_publ_section_title
;
Structure prediction by ZEFSAII (Michael W. Deem and Ramdas Pophale) SiO2 
 PCOD9158861
Probable space group: P 21/M
;
_chemical_formula_sum "Si O2"
_cell_formula_units_Z 32
_cell_length_a 24.472950
_cell_length_b 7.746627
_cell_length_c 24.376842
_cell_angle_alpha 90.000000
_cell_angle_beta 160.793408
_cell_angle_gamma 90.000000
_cell_volume 1520.336417
_symmetry_space_group_name_H-M "P 21/M"
_symmetry_group_IT_number 11
_symmetry_cell_setting 'monoclinic'
loop_
_space_group_symop_operation_xyz
x,y,z
-x,1/2+y,-z
-x,-y,-z
x,1/2-y,z
loop_
_atom_site_type_symbol
_atom_site_label
_atom_site_fract_x
_atom_site_fract_y
_atom_site_fract_z
Si Si1 0.159395 0.455807 0.722097
Si Si2 0.988689 0.538392 0.166012
Si Si3 0.653138 0.461575 0.476067
Si Si4 0.555331 0.047032 0.921754
Si Si5 0.361494 0.047733 0.121476
Si Si6 0.463356 0.042786 0.402573
Si Si7 0.791173 0.957963 0.355860
Si Si8 0.907003 0.957246 0.967853
O O1 0.175951 0.250000 0.737443
O O2 0.195830 0.521984 0.694816
O O3 0.965931 0.497037 0.550376
O O4 0.296035 0.523602 0.893833
O O5 0.988876 0.750000 0.167722
O O6 0.158824 0.481033 0.355591
O O7 0.989277 0.485031 0.102620
O O8 0.818086 0.476302 0.031618
O O9 0.654554 0.250000 0.475901
O O10 0.515464 0.523718 0.302522
O O11 0.594997 0.514970 0.481913
O O12 0.533574 0.250000 0.891436
O O13 0.378829 0.978861 0.777474
O O14 0.604708 0.966922 0.910657
O O15 0.353927 0.250000 0.129193
O O16 0.459555 0.250000 0.395143
O O17 0.500000 0.000000 0.500000
O O18 0.281250 0.976563 0.213888
O O19 0.782099 0.750000 0.344976
O O20 0.900125 0.750000 0.964567
O O21 0.000000 0.000000 0.000000
#
# Coordination Sequence:
#
# PCOD9158861 Si02
#       8
#     4   4   4   4   4   4   4   4
#     4  10  20  36  61  90 118 153 198 244 284 334
#     4   9  17  32  54  76 101 134 173 223 279 326
#     4   9  17  32  54  75  99 133 173 222 277 323
#     4  11  23  38  57  83 119 159 193 233 292 350
#     4  10  20  36  55  77 103 139 191 239 272 329
#     4  10  19  32  51  77 106 135 170 216 268 327
#     4   9  20  38  59  86 122 159 193 235 292 346
#     4  10  19  32  51  77 107 136 171 217 269 329
#
# _framework density 21.047972000000001
#
# number of rings (size 3 to 8) (size 9 to 14) (size 15 to 20)
#    0.000    2.250    1.250    1.875    0.000    4.000 
#    0.000    2.500    0.000    1.500    0.000    0.000 
#    0.000    0.000    0.000    0.000    0.000    0.000 
#
# Total GULP energy -178652.816588 kJ/mol
# GULP energy per Si atom -5582.900518 kJ/mol
# Density = 2.100007 g / cm^3
# Si number density = 21.047972 Si / 1000 Ang^3
#
#
#
# Elastic Constant Matrix: (Units=GPa)
#
#
# Indices 1 2 3 4 5 6 
#
# 1 103.3229 -7.2006 78.4530 0.0000 19.3959 0.0000
# 2 -7.2006 27.0763 0.6626 0.0000 3.2610 0.0000
# 3 78.4530 0.6626 183.5443 0.0000 31.3302 0.0000
# 4 0.0000 0.0000 0.0000 12.0635 0.0000 1.1250
# 5 19.3959 3.2610 31.3302 0.0000 21.3135 0.0000
# 6 0.0000 0.0000 0.0000 1.1250 0.0000 18.1627
#
#
#
# Elastic Compliance Matrix: (Units=1/GPa)
#
#
# Indices 1 2 3 4 5 6 
#
# 1 0.015458 0.005065 -0.005463 0.000000 -0.006812 0.000000
# 2 0.005065 0.039462 -0.000654 0.000000 -0.009686 0.000000
# 3 -0.005463 -0.000654 0.009238 0.000000 -0.008508 0.000000
# 4 0.000000 0.000000 0.000000 0.083376 0.000000 -0.005164
# 5 -0.006812 -0.009686 -0.008508 0.000000 0.067106 0.000000
# 6 0.000000 0.000000 0.000000 -0.005164 0.000000 0.055378
#
#
# Mechanical properties :
#
#
# Convention : Reuss Voigt Hill
#
# Bulk Modulus (GPa) = 16.11493 50.86371 33.48932
# Shear Modulus (GPa) = 17.07609 26.44318 21.75964
#
# Velocity S-wave (km/s) = 2.85141 3.54832 3.21878
# Velocity P-wave (km/s) = 4.30275 6.40355 5.45523
#
# Compressibility (1/GPa) = 0.06205425
#
# Stress axis : x y z
#
# Youngs Moduli (GPa) = 64.69135 25.34075 108.24976
#
# Poissons Ratio (x) = -0.12835 0.59134
# Poissons Ratio (y) = -0.32766 0.07081
# Poissons Ratio (z) = 0.35339 0.01658
#
# Static dielectric constant tensor:
#      x y z
#    x 1.730470 0.000000 0.016680 
#    y 0.000000 1.776140 0.000000 
#    z 0.016680 0.000000 1.761940 
# 
# From -- ./inp_files/70008.got.cif
#   From: 2010.05.17/outbox.cif.g08.bks.cpg/sg11_36_cif.got.tgz:70008.got - 2010.06.03 12:22:45.
