data_PCOD9158007
_publ_section_title
;
Structure prediction by ZEFSAII (Michael W. Deem and Ramdas Pophale) SiO2 
 PCOD9158007
Probable space group: P 21/M
;
_chemical_formula_sum "Si O2"
_cell_formula_units_Z 24
_cell_length_a 21.145606
_cell_length_b 7.875627
_cell_length_c 12.465100
_cell_angle_alpha 90.000000
_cell_angle_beta 39.030417
_cell_angle_gamma 90.000000
_cell_volume 1307.246252
_symmetry_space_group_name_H-M "P 21/M"
_symmetry_group_IT_number 11
_symmetry_cell_setting 'monoclinic'
loop_
_space_group_symop_operation_xyz
x,y,z
-x,1/2+y,-z
-x,-y,-z
x,1/2-y,z
loop_
_atom_site_type_symbol
_atom_site_label
_atom_site_fract_x
_atom_site_fract_y
_atom_site_fract_z
Si Si1 0.884042 0.547386 0.656640
Si Si2 0.285030 0.950843 0.967380
Si Si3 0.564408 0.946774 0.049530
Si Si4 0.385370 0.545590 0.620019
Si Si5 0.358619 0.954456 0.414683
Si Si6 0.731979 0.954935 0.674093
O O1 0.875402 0.750000 0.670981
O O2 0.823069 0.487390 0.630650
O O3 0.000000 0.500000 0.500000
O O4 0.825046 0.479321 0.838636
O O5 0.307110 0.750000 0.944676
O O6 0.310715 0.009693 0.813553
O O7 0.360779 0.044539 0.947968
O O8 0.545556 0.750000 0.047456
O O9 0.460553 0.025356 0.225644
O O10 0.629902 0.022460 0.866434
O O11 0.500000 0.500000 0.500000
O O12 0.381039 0.750000 0.621971
O O13 0.355583 0.481970 0.540867
O O14 0.367417 0.750000 0.409012
O O15 0.270773 0.994583 0.446332
O O16 0.730055 0.750000 0.681645
#
# Coordination Sequence:
#
# PCOD9158007 Si02
#       6
#     4   4   4   4   4   4
#     4  10  21  38  59  80 101 126 161 212 265 311
#     4  10  19  31  50  77 104 134 173 212 251 299
#     4   9  17  30  46  67 101 138 171 210 250 293
#     4  10  20  32  48  72 104 142 180 212 244 289
#     4  10  19  30  46  69 102 141 174 207 247 293
#     4   9  19  32  47  72 101 129 164 206 255 306
#
# _framework density 18.359203000000001
#
# number of rings (size 3 to 8) (size 9 to 14) (size 15 to 20)
#    0.000    2.333    1.667    2.500    0.000    5.333 
#    0.000    0.000    0.000    1.000    0.000    0.000 
#    0.000    0.000    0.000    0.000    0.000    0.000 
#
# Total GULP energy -133795.261343 kJ/mol
# GULP energy per Si atom -5574.802556 kJ/mol
# Density = 1.831742 g / cm^3
# Si number density = 18.359203 Si / 1000 Ang^3
#
#
#
# Elastic Constant Matrix: (Units=GPa)
#
#
# Indices 1 2 3 4 5 6 
#
# 1 120.1786 5.2407 91.7447 0.0000 31.9754 0.0000
# 2 5.2407 26.1220 3.3790 0.0000 2.4960 0.0000
# 3 91.7447 3.3790 116.1253 0.0000 13.3343 0.0000
# 4 0.0000 0.0000 0.0000 14.8142 0.0000 -0.7397
# 5 31.9754 2.4960 13.3343 0.0000 32.3132 0.0000
# 6 0.0000 0.0000 0.0000 -0.7397 0.0000 23.7055
#
#
#
# Elastic Compliance Matrix: (Units=1/GPa)
#
#
# Indices 1 2 3 4 5 6 
#
# 1 0.030567 -0.001303 -0.021677 0.000000 -0.021202 0.000000
# 2 -0.001303 0.038696 0.000103 0.000000 -0.001743 0.000000
# 3 -0.021677 0.000103 0.024430 0.000000 0.011362 0.000000
# 4 0.000000 0.000000 0.000000 0.067608 0.000000 0.002110
# 5 -0.021202 -0.001743 0.011362 0.000000 0.047374 0.000000
# 6 0.000000 0.000000 0.000000 0.002110 0.000000 0.042250
#
#
# Mechanical properties :
#
#
# Convention : Reuss Voigt Hill
#
# Bulk Modulus (GPa) = 20.85925 51.46162 36.16043
# Shear Modulus (GPa) = 15.99186 24.97067 20.48126
#
# Velocity S-wave (km/s) = 2.95456 3.69198 3.34366
# Velocity P-wave (km/s) = 4.79851 6.80188 5.88605
#
# Compressibility (1/GPa) = 0.04794037
#
# Stress axis : x y z
#
# Youngs Moduli (GPa) = 32.71461 25.84224 40.93345
#
# Poissons Ratio (x) = 0.03366 0.88733
# Poissons Ratio (y) = 0.04261 -0.00423
# Poissons Ratio (z) = 0.70916 -0.00267
#
# Static dielectric constant tensor:
#      x y z
#    x 1.654760 0.000000 0.030350 
#    y 0.000000 1.666330 0.000000 
#    z 0.030350 0.000000 1.649390 
# 
# From -- ./inp_files/36995.got.cif
#   From: 2010.05.17/outbox.cif.g08.bks.cpg/sg11_19_cif.got.tgz:36995.got - 2010.06.03 12:22:45.
