data_PCOD9158907
_publ_section_title
;
Structure prediction by ZEFSAII (Michael W. Deem and Ramdas Pophale) SiO2 
 PCOD9158907
Probable space group: P 21/M
;
_chemical_formula_sum "Si O2"
_cell_formula_units_Z 28
_cell_length_a 18.584288
_cell_length_b 8.920605
_cell_length_c 20.066614
_cell_angle_alpha 90.000000
_cell_angle_beta 29.026034
_cell_angle_gamma 90.000000
_cell_volume 1614.140640
_symmetry_space_group_name_H-M "P 21/M"
_symmetry_group_IT_number 11
_symmetry_cell_setting 'monoclinic'
loop_
_space_group_symop_operation_xyz
x,y,z
-x,1/2+y,-z
-x,-y,-z
x,1/2-y,z
loop_
_atom_site_type_symbol
_atom_site_label
_atom_site_fract_x
_atom_site_fract_y
_atom_site_fract_z
Si Si1 0.915528 0.426654 0.006054
Si Si2 0.357340 0.573534 0.688840
Si Si3 0.985296 0.071123 0.212108
Si Si4 0.853367 0.930277 0.652022
Si Si5 0.779846 0.930507 0.864964
Si Si6 0.304955 0.071944 0.591728
Si Si7 0.522670 0.930270 0.908194
O O1 0.950782 0.250000 0.973808
O O2 0.743804 0.444460 0.164962
O O3 0.000000 0.500000 0.000000
O O4 0.953523 0.505258 0.906552
O O5 0.353128 0.750000 0.673049
O O6 0.527129 0.531446 0.563644
O O7 0.294237 0.481781 0.677277
O O8 0.979585 0.250000 0.212636
O O9 0.093338 0.029072 0.184995
O O10 0.819679 0.006903 0.350975
O O11 0.867425 0.750000 0.637504
O O12 0.832872 0.971880 0.746995
O O13 0.691976 0.970245 0.750279
O O14 0.000000 0.000000 0.500000
O O15 0.759466 0.750000 0.881570
O O16 0.622421 0.005931 0.011064
O O17 0.286778 0.250000 0.603065
O O18 0.515331 0.750000 0.917302
O O19 0.500000 0.000000 0.000000
#
# Coordination Sequence:
#
# PCOD9158907 Si02
#       7
#     4   4   4   4   4   4   4
#     4  11  21  34  53  77 103 133 173 220 266 315
#     4   9  19  34  51  72  99 129 168 219 269 314
#     4  11  22  36  53  75 106 141 176 220 268 313
#     4   9  18  33  54  82 109 136 172 212 255 305
#     4   9  20  37  54  75 106 142 179 216 260 313
#     4  10  19  32  52  75  98 131 172 214 263 320
#     4   9  17  31  53  79 107 137 173 212 252 303
#
# _framework density 17.346692000000001
#
# number of rings (size 3 to 8) (size 9 to 14) (size 15 to 20)
#    0.000    2.286    1.429    2.571    0.000    5.143 
#    0.000    1.429    0.000    6.857    0.000    0.000 
#    0.000    0.000    0.000    0.000    0.000    0.000 
#
# Total GULP energy -156057.487765 kJ/mol
# GULP energy per Si atom -5573.481706 kJ/mol
# Density = 1.730721 g / cm^3
# Si number density = 17.346692 Si / 1000 Ang^3
#
#
#
# Elastic Constant Matrix: (Units=GPa)
#
#
# Indices 1 2 3 4 5 6 
#
# 1 101.4447 38.4463 54.2335 0.0000 -29.6883 0.0000
# 2 38.4463 45.4438 38.6612 0.0000 -16.6393 0.0000
# 3 54.2335 38.6612 128.9050 0.0000 -26.7501 0.0000
# 4 0.0000 0.0000 0.0000 31.1315 0.0000 -4.6665
# 5 -29.6883 -16.6393 -26.7501 0.0000 29.1542 0.0000
# 6 0.0000 0.0000 0.0000 -4.6665 0.0000 24.7843
#
#
#
# Elastic Compliance Matrix: (Units=1/GPa)
#
#
# Indices 1 2 3 4 5 6 
#
# 1 0.017713 -0.008914 -0.002583 0.000000 0.010580 0.000000
# 2 -0.008914 0.037056 -0.006001 0.000000 0.006565 0.000000
# 3 -0.002583 -0.006001 0.011596 0.000000 0.004584 0.000000
# 4 0.000000 0.000000 0.000000 0.033055 0.000000 0.006224
# 5 0.010580 0.006565 0.004584 0.000000 0.053027 0.000000
# 6 0.000000 0.000000 0.000000 0.006224 0.000000 0.041520
#
#
# Mechanical properties :
#
#
# Convention : Reuss Voigt Hill
#
# Bulk Modulus (GPa) = 31.87980 59.83062 45.85521
# Shear Modulus (GPa) = 20.88386 26.64417 23.76401
#
# Velocity S-wave (km/s) = 3.47350 3.92341 3.70529
# Velocity P-wave (km/s) = 5.87409 7.42227 6.69310
#
# Compressibility (1/GPa) = 0.03136782
#
# Stress axis : x y z
#
# Youngs Moduli (GPa) = 56.45476 26.98617 86.23995
#
# Poissons Ratio (x) = 0.24056 0.22279
# Poissons Ratio (y) = 0.50325 0.51752
# Poissons Ratio (z) = 0.14584 0.16194
#
# Static dielectric constant tensor:
#      x y z
#    x 1.587940 0.000000 -0.032660 
#    y 0.000000 1.565920 0.000000 
#    z -0.032660 0.000000 1.625250 
# 
# From -- ./inp_files/65990.got.cif
#   From: 2010.05.17/outbox.cif.g08.bks.cpg/sg11_33_cif.got.tgz:65990.got - 2010.06.03 12:22:45.
