data_PCOD9158719
_publ_section_title
;
Structure prediction by ZEFSAII (Michael W. Deem and Ramdas Pophale) SiO2 
 PCOD9158719
Probable space group: P 21/M
;
_chemical_formula_sum "Si O2"
_cell_formula_units_Z 28
_cell_length_a 15.533687
_cell_length_b 8.516759
_cell_length_c 12.959283
_cell_angle_alpha 90.000000
_cell_angle_beta 73.979632
_cell_angle_gamma 90.000000
_cell_volume 1647.886211
_symmetry_space_group_name_H-M "P 21/M"
_symmetry_group_IT_number 11
_symmetry_cell_setting 'monoclinic'
loop_
_space_group_symop_operation_xyz
x,y,z
-x,1/2+y,-z
-x,-y,-z
x,1/2-y,z
loop_
_atom_site_type_symbol
_atom_site_label
_atom_site_fract_x
_atom_site_fract_y
_atom_site_fract_z
Si Si1 0.721120 0.937445 0.297538
Si Si2 0.097328 0.562649 0.844328
Si Si3 0.591538 0.441504 0.750655
Si Si4 0.713803 0.439702 0.896160
Si Si5 0.096522 0.939566 0.085575
Si Si6 0.610494 0.560215 0.130430
Si Si7 0.406249 0.561987 0.485981
O O1 0.714905 0.750000 0.304909
O O2 0.666221 0.989350 0.213349
O O3 0.823264 0.988483 0.247900
O O4 0.673035 0.007801 0.413115
O O5 0.103941 0.750000 0.837300
O O6 0.997776 0.508978 0.847087
O O7 0.109412 0.514296 0.960865
O O8 0.592372 0.250000 0.749995
O O9 0.666443 0.494590 0.806938
O O10 0.492661 0.488855 0.821752
O O11 0.605037 0.493100 0.628397
O O12 0.714574 0.250000 0.895187
O O13 0.816085 0.491553 0.880510
O O14 0.655442 0.493202 0.013214
O O15 0.090697 0.750000 0.090481
O O16 0.613098 0.750000 0.124713
O O17 0.500000 0.500000 0.500000
O O18 0.410379 0.750000 0.483645
#
# Coordination Sequence:
#
# PCOD9158719 Si02
#       7
#     4   4   4   4   4   4   4
#     4  11  21  34  53  77 107 139 171 215 261 302
#     4  10  19  32  51  77 104 135 171 211 259 310
#     4   9  19  35  52  73 104 140 174 212 256 303
#     4  10  19  33  53  76 105 138 173 209 253 310
#     4   9  18  31  49  76 105 134 168 208 257 312
#     4  10  19  32  49  74 108 140 170 205 256 307
#     4  11  21  36  55  76 103 138 179 218 258 301
#
# _framework density 16.991464000000001
#
# number of rings (size 3 to 8) (size 9 to 14) (size 15 to 20)
#    0.000    2.000    2.857    1.714    0.000    1.714 
#    0.000    1.429    0.000    0.857    0.000    0.000 
#    0.000    0.000    0.000    0.000    0.000    0.000 
#
# Total GULP energy -156284.673154 kJ/mol
# GULP energy per Si atom -5581.595470 kJ/mol
# Density = 1.695279 g / cm^3
# Si number density = 16.991464 Si / 1000 Ang^3
#
#
#
# Elastic Constant Matrix: (Units=GPa)
#
#
# Indices 1 2 3 4 5 6 
#
# 1 158.9063 25.3830 92.0341 0.0000 -1.0284 0.0000
# 2 25.3830 19.0238 21.9865 0.0000 -0.8647 0.0000
# 3 92.0341 21.9865 108.9472 0.0000 5.3527 0.0000
# 4 0.0000 0.0000 0.0000 24.3768 0.0000 -7.7788
# 5 -1.0284 -0.8647 5.3527 0.0000 28.9080 0.0000
# 6 0.0000 0.0000 0.0000 -7.7788 0.0000 18.9125
#
#
#
# Elastic Compliance Matrix: (Units=1/GPa)
#
#
# Indices 1 2 3 4 5 6 
#
# 1 0.012950 -0.005763 -0.009880 0.000000 0.002118 0.000000
# 2 -0.005763 0.071747 -0.009795 0.000000 0.003755 0.000000
# 3 -0.009880 -0.009795 0.019713 0.000000 -0.004295 0.000000
# 4 0.000000 0.000000 0.000000 0.047220 0.000000 0.019422
# 5 0.002118 0.003755 -0.004295 0.000000 0.035575 0.000000
# 6 0.000000 0.000000 0.000000 0.019422 0.000000 0.060864
#
#
# Mechanical properties :
#
#
# Convention : Reuss Voigt Hill
#
# Bulk Modulus (GPa) = 18.68036 62.85382 40.76709
# Shear Modulus (GPa) = 15.78330 24.27102 20.02716
#
# Velocity S-wave (km/s) = 3.05109 3.78355 3.43689
# Velocity P-wave (km/s) = 4.84045 7.49391 6.30828
#
# Compressibility (1/GPa) = 0.05353216
#
# Stress axis : x y z
#
# Youngs Moduli (GPa) = 77.22146 13.93792 50.72763
#
# Poissons Ratio (x) = 0.08033 0.50121
# Poissons Ratio (y) = 0.44503 0.49689
# Poissons Ratio (z) = 0.76298 0.13652
#
# Static dielectric constant tensor:
#      x y z
#    x 1.575050 0.000000 0.012260 
#    y 0.000000 1.578000 0.000000 
#    z 0.012260 0.000000 1.548930 
# 
# From -- ./inp_files/37410.got.cif
#   From: 2010.05.17/outbox.cif.g08.bks.cpg/sg11_19_cif.got.tgz:37410.got - 2010.06.03 12:22:45.
