data_PCOD9158698
_publ_section_title
;
Structure prediction by ZEFSAII (Michael W. Deem and Ramdas Pophale) SiO2 
 PCOD9158698
Probable space group: P 21/M
;
_chemical_formula_sum "Si O2"
_cell_formula_units_Z 32
_cell_length_a 17.320901
_cell_length_b 8.094789
_cell_length_c 31.139720
_cell_angle_alpha 90.000000
_cell_angle_beta 25.881084
_cell_angle_gamma 90.000000
_cell_volume 1905.810512
_symmetry_space_group_name_H-M "P 21/M"
_symmetry_group_IT_number 11
_symmetry_cell_setting 'monoclinic'
loop_
_space_group_symop_operation_xyz
x,y,z
-x,1/2+y,-z
-x,-y,-z
x,1/2-y,z
loop_
_atom_site_type_symbol
_atom_site_label
_atom_site_fract_x
_atom_site_fract_y
_atom_site_fract_z
Si Si1 0.100091 0.948907 0.905869
Si Si2 0.706480 0.946477 0.945834
Si Si3 0.825355 0.441434 0.973408
Si Si4 0.859297 0.450862 0.685684
Si Si5 0.506311 0.059210 0.811829
Si Si6 0.511877 0.441138 0.272397
Si Si7 0.296516 0.950039 0.148557
Si Si8 0.116542 0.049472 0.483264
O O1 0.103593 0.750000 0.904060
O O2 0.302349 0.013310 0.804265
O O3 0.000000 0.000000 0.000000
O O4 0.992737 0.009692 0.918256
O O5 0.709628 0.750000 0.949856
O O6 0.755856 0.989447 0.872333
O O7 0.500990 0.003228 0.054295
O O8 0.829154 0.025681 0.920760
O O9 0.786488 0.250000 0.000502
O O10 0.660694 0.545769 0.073691
O O11 0.866911 0.250000 0.683296
O O12 0.681244 0.494513 0.749076
O O13 0.828688 0.506933 0.749831
O O14 0.020417 0.506485 0.575154
O O15 0.529542 0.250000 0.786744
O O16 0.474655 0.952022 0.785747
O O17 0.507915 0.250000 0.288266
O O18 0.318616 0.512833 0.379851
O O19 0.298151 0.750000 0.147337
O O20 0.120369 0.250000 0.480973
O O21 0.000000 0.000000 0.500000
#
# Coordination Sequence:
#
# PCOD9158698 Si02
#       8
#     4   4   4   4   4   4   4   4
#     4  11  22  35  50  71  98 132 169 210 250 293
#     4  10  19  32  49  72 100 130 162 200 245 294
#     4  12  23  34  49  72  99 133 170 206 247 296
#     4   9  17  30  48  71  99 133 168 198 240 291
#     4  11  19  30  49  71  98 134 169 204 244 289
#     4  10  21  34  48  70 100 130 168 211 249 288
#     4   9  17  31  48  70  99 131 164 198 239 294
#     4  10  19  32  49  72  99 132 168 205 243 289
#
# _framework density 16.790756999999999
#
# number of rings (size 3 to 8) (size 9 to 14) (size 15 to 20)
#    0.000    1.750    3.750    2.250    0.000    1.000 
#    0.000    0.625    0.000    0.000    0.000    0.875 
#    0.000    0.000    0.000    0.000    0.000    0.000 
#
# Total GULP energy -178488.607147 kJ/mol
# GULP energy per Si atom -5577.768973 kJ/mol
# Density = 1.675254 g / cm^3
# Si number density = 16.790757 Si / 1000 Ang^3
#
#
#
# Elastic Constant Matrix: (Units=GPa)
#
#
# Indices 1 2 3 4 5 6 
#
# 1 129.5065 10.8884 66.0260 0.0000 1.4059 0.0000
# 2 10.8884 28.5747 6.9644 0.0000 -1.3872 0.0000
# 3 66.0260 6.9644 94.2281 0.0000 -3.7105 0.0000
# 4 0.0000 0.0000 0.0000 10.9802 0.0000 -0.4521
# 5 1.4059 -1.3872 -3.7105 0.0000 29.2149 0.0000
# 6 0.0000 0.0000 0.0000 -0.4521 0.0000 18.3302
#
#
#
# Elastic Compliance Matrix: (Units=1/GPa)
#
#
# Indices 1 2 3 4 5 6 
#
# 1 0.012295 -0.002704 -0.008486 0.000000 -0.001798 0.000000
# 2 -0.002704 0.036287 -0.000718 0.000000 0.001762 0.000000
# 3 -0.008486 -0.000718 0.016710 0.000000 0.002497 0.000000
# 4 0.000000 0.000000 0.000000 0.091165 0.000000 0.002249
# 5 -0.001798 0.001762 0.002497 0.000000 0.034716 0.000000
# 6 0.000000 0.000000 0.000000 0.002249 0.000000 0.054610
#
#
# Mechanical properties :
#
#
# Convention : Reuss Voigt Hill
#
# Bulk Modulus (GPa) = 24.11028 46.67411 35.39220
# Shear Modulus (GPa) = 17.64134 22.93376 20.28755
#
# Velocity S-wave (km/s) = 3.24490 3.69976 3.47977
# Velocity P-wave (km/s) = 5.33194 6.79035 6.10485
#
# Compressibility (1/GPa) = 0.04147608
#
# Stress axis : x y z
#
# Youngs Moduli (GPa) = 81.33460 27.55816 59.84403
#
# Poissons Ratio (x) = 0.07452 0.50784
# Poissons Ratio (y) = 0.21993 0.04296
# Poissons Ratio (z) = 0.69021 0.01978
#
# Static dielectric constant tensor:
#      x y z
#    x 1.556760 0.000000 -0.000830 
#    y 0.000000 1.579190 0.000000 
#    z -0.000830 0.000000 1.587750 
# 
# From -- ./inp_files/56462.got.cif
#   From: 2010.05.17/outbox.cif.g08.bks.cpg/sg11_29_cif.got.tgz:56462.got - 2010.06.03 12:22:45.
