data_PCOD9158005
_publ_section_title
;
Structure prediction by ZEFSAII (Michael W. Deem and Ramdas Pophale) SiO2 
 PCOD9158005
Probable space group: P 21/M
;
_chemical_formula_sum "Si O2"
_cell_formula_units_Z 32
_cell_length_a 11.977521
_cell_length_b 8.923529
_cell_length_c 21.533403
_cell_angle_alpha 90.000000
_cell_angle_beta 120.660806
_cell_angle_gamma 90.000000
_cell_volume 1979.777347
_symmetry_space_group_name_H-M "P 21/M"
_symmetry_group_IT_number 11
_symmetry_cell_setting 'monoclinic'
loop_
_space_group_symop_operation_xyz
x,y,z
-x,1/2+y,-z
-x,-y,-z
x,1/2-y,z
loop_
_atom_site_type_symbol
_atom_site_label
_atom_site_fract_x
_atom_site_fract_y
_atom_site_fract_z
Si Si1 0.365542 0.932034 0.218410
Si Si2 0.612795 0.569960 0.491213
Si Si3 0.959992 0.579116 0.085242
Si Si4 0.204418 0.922186 0.059002
Si Si5 0.072365 0.430403 0.580436
Si Si6 0.368555 0.067908 0.645647
Si Si7 0.109135 0.430173 0.370036
Si Si8 0.865673 0.571169 0.767337
O O1 0.356804 0.750000 0.217686
O O2 0.319222 0.978677 0.136319
O O3 0.510509 0.979273 0.277675
O O4 0.261426 0.995204 0.238218
O O5 0.500000 0.500000 0.500000
O O6 0.600348 0.750000 0.488718
O O7 0.606233 0.519347 0.418011
O O8 0.752876 0.532777 0.559360
O O9 0.939491 0.750000 0.098935
O O10 0.079846 0.578082 0.070045
O O11 0.011686 0.481147 0.156874
O O12 0.837841 0.515688 0.012747
O O13 0.229102 0.750000 0.048106
O O14 0.066540 0.250000 0.574117
O O15 0.223571 0.477584 0.623291
O O16 0.000000 0.500000 0.500000
O O17 0.000490 0.487330 0.621560
O O18 0.368883 0.250000 0.645892
O O19 0.090928 0.250000 0.369754
O O20 0.115826 0.470149 0.299344
O O21 0.850870 0.750000 0.767316
#
# Coordination Sequence:
#
# PCOD9158005 Si02
#       8
#     4   4   4   4   4   4   4   4
#     4   9  17  30  48  70  98 129 160 194 236 290
#     4  10  19  32  48  68  97 126 156 192 233 285
#     4   9  16  26  42  64  93 128 163 193 227 281
#     4   8  14  24  40  64  93 125 158 190 229 280
#     4  11  21  36  56  73  92 123 164 207 247 287
#     4   9  18  33  51  69  94 125 156 198 243 280
#     4  10  21  36  50  69  98 128 160 202 246 284
#     4  10  19  30  46  69 101 131 157 197 242 283
#
# _framework density 16.163433999999999
#
# number of rings (size 3 to 8) (size 9 to 14) (size 15 to 20)
#    0.000    2.500    1.250    2.625    0.000    4.500 
#    0.000    1.250    0.000    0.000    0.000    0.875 
#    0.000    0.000    0.000    0.000    0.000    0.000 
#
# Total GULP energy -178357.660963 kJ/mol
# GULP energy per Si atom -5573.676905 kJ/mol
# Density = 1.612665 g / cm^3
# Si number density = 16.163434 Si / 1000 Ang^3
#
#
#
# Elastic Constant Matrix: (Units=GPa)
#
#
# Indices 1 2 3 4 5 6 
#
# 1 91.5797 21.5528 49.2729 0.0000 22.8179 0.0000
# 2 21.5528 25.1625 26.5438 0.0000 7.7542 0.0000
# 3 49.2729 26.5438 125.8099 0.0000 32.8665 0.0000
# 4 0.0000 0.0000 0.0000 20.0425 0.0000 -2.0236
# 5 22.8179 7.7542 32.8665 0.0000 13.4436 0.0000
# 6 0.0000 0.0000 0.0000 -2.0236 0.0000 21.8128
#
#
#
# Elastic Compliance Matrix: (Units=1/GPa)
#
#
# Indices 1 2 3 4 5 6 
#
# 1 0.021145 -0.010318 0.004751 0.000000 -0.041551 0.000000
# 2 -0.010318 0.056518 -0.010910 0.000000 0.011585 0.000000
# 3 0.004751 -0.010910 0.024499 0.000000 -0.061664 0.000000
# 4 0.000000 0.000000 0.000000 0.050366 0.000000 0.004672
# 5 -0.041551 0.011585 -0.061664 0.000000 0.288981 0.000000
# 6 0.000000 0.000000 0.000000 0.004672 0.000000 0.046278
#
#
# Mechanical properties :
#
#
# Convention : Reuss Voigt Hill
#
# Bulk Modulus (GPa) = 14.44943 48.58790 31.51867
# Shear Modulus (GPa) = 9.19439 20.73863 14.96651
#
# Velocity S-wave (km/s) = 2.38762 3.58587 3.04624
# Velocity P-wave (km/s) = 4.06939 6.87533 5.64934
#
# Compressibility (1/GPa) = 0.06920687
#
# Stress axis : x y z
#
# Youngs Moduli (GPa) = 47.29324 17.69346 40.81826
#
# Poissons Ratio (x) = 0.18256 -0.19391
# Poissons Ratio (y) = 0.48797 0.44533
# Poissons Ratio (z) = -0.22467 0.19303
#
# Static dielectric constant tensor:
#      x y z
#    x 1.512310 0.000000 0.015620 
#    y 0.000000 1.546570 0.000000 
#    z 0.015620 0.000000 1.556740 
# 
# From -- ./inp_files/64227.got.cif
#   From: 2010.05.17/outbox.cif.g08.bks.cpg/sg11_33_cif.got.tgz:64227.got - 2010.06.03 12:22:45.
