data_PCOD9158112
_publ_section_title
;
Structure prediction by ZEFSAII (Michael W. Deem and Ramdas Pophale) SiO2 
 PCOD9158112
Probable space group: P 21/M
;
_chemical_formula_sum "Si O2"
_cell_formula_units_Z 28
_cell_length_a 31.095738
_cell_length_b 8.655964
_cell_length_c 9.960554
_cell_angle_alpha 90.000000
_cell_angle_beta 36.916080
_cell_angle_gamma 90.000000
_cell_volume 1610.339347
_symmetry_space_group_name_H-M "P 21/M"
_symmetry_group_IT_number 11
_symmetry_cell_setting 'monoclinic'
loop_
_space_group_symop_operation_xyz
x,y,z
-x,1/2+y,-z
-x,-y,-z
x,1/2-y,z
loop_
_atom_site_type_symbol
_atom_site_label
_atom_site_fract_x
_atom_site_fract_y
_atom_site_fract_z
Si Si1 0.500064 0.936141 0.651141
Si Si2 0.059651 0.434260 0.950397
Si Si3 0.784437 0.436935 0.444284
Si Si4 0.343490 0.936945 0.041457
Si Si5 0.058354 0.935602 0.252486
Si Si6 0.221647 0.564551 0.851659
Si Si7 0.656688 0.935011 0.260502
O O1 0.500026 0.750000 0.648585
O O2 0.577703 0.984215 0.513060
O O3 0.500000 0.000000 0.500000
O O4 0.422286 0.984004 0.900758
O O5 0.057305 0.250000 0.957335
O O6 0.138875 0.491490 0.711662
O O7 0.046813 0.498273 0.132386
O O8 0.000000 0.500000 0.000000
O O9 0.790944 0.250000 0.433141
O O10 0.721236 0.486354 0.701410
O O11 0.767620 0.478458 0.331518
O O12 0.341924 0.750000 0.038977
O O13 0.335791 0.999598 0.909381
O O14 0.054803 0.750000 0.255711
O O15 0.139690 0.978642 0.091097
O O16 0.000000 0.000000 0.500000
O O17 0.227168 0.750000 0.847390
O O18 0.280038 0.491917 0.802753
O O19 0.657975 0.750000 0.249693
#
# Coordination Sequence:
#
# PCOD9158112 Si02
#       7
#     4   4   4   4   4   4   4
#     4   8  15  28  46  70  98 129 164 205 251 295
#     4  11  22  37  57  79 105 137 171 211 257 307
#     4   9  19  36  55  75 100 132 170 211 254 304
#     4   9  17  32  54  74  97 131 169 209 255 302
#     4  10  21  38  58  80 105 135 172 213 256 306
#     4   9  19  35  52  71 100 135 167 200 247 303
#     4  10  19  30  48  75 104 131 167 211 249 293
#
# _framework density 17.387639
#
# number of rings (size 3 to 8) (size 9 to 14) (size 15 to 20)
#    0.000    2.571    0.000    3.000    0.000    5.143 
#    0.000    2.143    0.000    0.000    0.000    0.000 
#    0.000    0.000    0.000    0.000    0.000    0.000 
#
# Total GULP energy -156053.531111 kJ/mol
# GULP energy per Si atom -5573.340397 kJ/mol
# Density = 1.734806 g / cm^3
# Si number density = 17.387639 Si / 1000 Ang^3
#
#
#
# Elastic Constant Matrix: (Units=GPa)
#
#
# Indices 1 2 3 4 5 6 
#
# 1 141.0118 39.7883 96.4129 0.0000 -35.5527 0.0000
# 2 39.7883 40.2232 46.9777 0.0000 -11.1747 0.0000
# 3 96.4129 46.9777 184.1752 0.0000 -27.5883 0.0000
# 4 0.0000 0.0000 0.0000 24.9940 0.0000 -0.7544
# 5 -35.5527 -11.1747 -27.5883 0.0000 17.7297 0.0000
# 6 0.0000 0.0000 0.0000 -0.7544 0.0000 22.9306
#
#
#
# Elastic Compliance Matrix: (Units=1/GPa)
#
#
# Indices 1 2 3 4 5 6 
#
# 1 0.018211 -0.005920 -0.004058 0.000000 0.026472 0.000000
# 2 -0.005920 0.038987 -0.006445 0.000000 0.002672 0.000000
# 3 -0.004058 -0.006445 0.009610 0.000000 0.002756 0.000000
# 4 0.000000 0.000000 0.000000 0.040049 0.000000 0.001318
# 5 0.026472 0.002672 0.002756 0.000000 0.115457 0.000000
# 6 0.000000 0.000000 0.000000 0.001318 0.000000 0.043653
#
#
# Mechanical properties :
#
#
# Convention : Reuss Voigt Hill
#
# Bulk Modulus (GPa) = 29.44437 81.30753 55.37595
# Shear Modulus (GPa) = 16.12201 25.27961 20.70081
#
# Velocity S-wave (km/s) = 3.04832 3.81712 3.45417
# Velocity P-wave (km/s) = 5.41853 8.14189 6.91559
#
# Compressibility (1/GPa) = 0.03396235
#
# Stress axis : x y z
#
# Youngs Moduli (GPa) = 54.91318 25.64935 104.05434
#
# Poissons Ratio (x) = 0.15186 0.42220
# Poissons Ratio (y) = 0.32511 0.67063
# Poissons Ratio (z) = 0.22281 0.16531
#
# Static dielectric constant tensor:
#      x y z
#    x 1.570140 0.000000 -0.030830 
#    y 0.000000 1.658120 0.000000 
#    z -0.030830 0.000000 1.602360 
# 
# From -- ./inp_files/28322.got.cif
#   From: 2010.05.17/outbox.cif.g08.bks.cpg/sg11_15_cif.got.tgz:28322.got - 2010.06.03 12:22:45.
