data_PCOD9158364
_publ_section_title
;
Structure prediction by ZEFSAII (Michael W. Deem and Ramdas Pophale) SiO2 
 PCOD9158364
Probable space group: P 21/M
;
_chemical_formula_sum "Si O2"
_cell_formula_units_Z 32
_cell_length_a 17.085419
_cell_length_b 9.295118
_cell_length_c 14.613377
_cell_angle_alpha 90.000000
_cell_angle_beta 142.745505
_cell_angle_gamma 90.000000
_cell_volume 1404.889908
_symmetry_space_group_name_H-M "P 21/M"
_symmetry_group_IT_number 11
_symmetry_cell_setting 'monoclinic'
loop_
_space_group_symop_operation_xyz
x,y,z
-x,1/2+y,-z
-x,-y,-z
x,1/2-y,z
loop_
_atom_site_type_symbol
_atom_site_label
_atom_site_fract_x
_atom_site_fract_y
_atom_site_fract_z
Si Si1 0.941135 0.411493 0.804167
Si Si2 0.832740 0.089586 0.913065
Si Si3 0.511106 0.076613 0.820596
Si Si4 0.299693 0.579357 0.731906
Si Si5 0.281031 0.409338 0.470293
Si Si6 0.953726 0.925107 0.550893
Si Si7 0.218092 0.580566 0.868761
Si Si8 0.619016 0.906199 0.640347
O O1 0.982081 0.250000 0.817933
O O2 0.887083 0.403714 0.859116
O O3 0.829350 0.470540 0.634474
O O4 0.057280 0.523668 0.921386
O O5 0.796240 0.250000 0.906390
O O6 0.710741 0.986730 0.795338
O O7 0.510500 0.250000 0.837809
O O8 0.417451 0.054980 0.645545
O O9 0.435303 0.989711 0.828715
O O10 0.660967 0.028171 0.957957
O O11 0.293243 0.750000 0.704525
O O12 0.269561 0.564298 0.811738
O O13 0.190799 0.487531 0.575879
O O14 0.237766 0.250000 0.463917
O O15 0.304999 0.391860 0.384353
O O16 0.953274 0.750000 0.542779
O O17 0.069117 0.971434 0.727650
O O18 0.000000 0.000000 0.500000
O O19 0.206603 0.750000 0.876633
O O20 0.578529 0.750000 0.635973
O O21 0.500000 0.000000 0.500000
#
# Coordination Sequence:
#
# PCOD9158364 Si02
#       8
#     4   4   4   4   4   4   4   4
#     4   9  16  27  46  70  96 122 151 190 238 286
#     4   9  16  27  46  72  96 120 152 193 237 285
#     4  10  19  33  52  73 100 135 171 212 258 305
#     4  10  19  31  48  75 105 134 171 215 258 306
#     4   9  19  33  50  71  97 128 165 203 249 303
#     4   9  16  29  49  73  99 130 167 212 260 307
#     4   8  16  30  50  75 101 130 171 216 257 301
#     4  10  19  32  50  73  98 127 164 208 253 302
#
# _framework density 22.777585999999999
#
# number of rings (size 3 to 8) (size 9 to 14) (size 15 to 20)
#    0.000    2.750    0.000    3.000    0.000    4.000 
#    0.000    3.125    2.750    0.000    0.000    0.000 
#    0.000    0.000    0.000    0.000    0.000    0.000 
#
# Total GULP energy -178557.790141 kJ/mol
# GULP energy per Si atom -5579.930942 kJ/mol
# Density = 2.272574 g / cm^3
# Si number density = 22.777586 Si / 1000 Ang^3
#
#
#
# Elastic Constant Matrix: (Units=GPa)
#
#
# Indices 1 2 3 4 5 6 
#
# 1 49.4928 4.6577 18.5805 0.0000 -13.9684 0.0000
# 2 4.6577 126.9406 60.3000 0.0000 4.4045 0.0000
# 3 18.5805 60.3000 179.8017 0.0000 8.1743 0.0000
# 4 0.0000 0.0000 0.0000 33.3134 0.0000 9.4820
# 5 -13.9684 4.4045 8.1743 0.0000 40.1399 0.0000
# 6 0.0000 0.0000 0.0000 9.4820 0.0000 9.8058
#
#
#
# Elastic Compliance Matrix: (Units=1/GPa)
#
#
# Indices 1 2 3 4 5 6 
#
# 1 0.023783 0.000213 -0.002931 0.000000 0.008850 0.000000
# 2 0.000213 0.009379 -0.003153 0.000000 -0.000313 0.000000
# 3 -0.002931 -0.003153 0.007018 0.000000 -0.002103 0.000000
# 4 0.000000 0.000000 0.000000 0.041417 0.000000 -0.040050
# 5 0.008850 -0.000313 -0.002103 0.000000 0.028455 0.000000
# 6 0.000000 0.000000 0.000000 -0.040050 0.000000 0.140708
#
#
# Mechanical properties :
#
#
# Convention : Reuss Voigt Hill
#
# Bulk Modulus (GPa) = 35.16665 58.14572 46.65619
# Shear Modulus (GPa) = 18.38358 34.83161 26.60760
#
# Velocity S-wave (km/s) = 2.84402 3.91475 3.42153
# Velocity P-wave (km/s) = 5.12418 6.78356 6.01140
#
# Compressibility (1/GPa) = 0.02843603
#
# Stress axis : x y z
#
# Youngs Moduli (GPa) = 42.04647 106.62665 142.49756
#
# Poissons Ratio (x) = -0.02269 0.41772
# Poissons Ratio (y) = -0.00895 0.44930
# Poissons Ratio (z) = 0.12326 0.33620
#
# Static dielectric constant tensor:
#      x y z
#    x 1.904020 0.000000 -0.032720 
#    y 0.000000 1.771490 0.000000 
#    z -0.032720 0.000000 1.823310 
# 
# From -- ./inp_files/67175.got.cif
#   From: 2010.05.17/outbox.cif.g08.bks.cpg/sg11_34_cif.got.tgz:67175.got - 2010.06.03 12:22:45.
