data_PCOD9158641
_publ_section_title
;
Structure prediction by ZEFSAII (Michael W. Deem and Ramdas Pophale) SiO2 
 PCOD9158641
Probable space group: P 21/M
;
_chemical_formula_sum "Si O2"
_cell_formula_units_Z 30
_cell_length_a 13.676098
_cell_length_b 7.707427
_cell_length_c 25.455295
_cell_angle_alpha 90.000000
_cell_angle_beta 153.476118
_cell_angle_gamma 90.000000
_cell_volume 1198.229704
_symmetry_space_group_name_H-M "P 21/M"
_symmetry_group_IT_number 11
_symmetry_cell_setting 'monoclinic'
loop_
_space_group_symop_operation_xyz
x,y,z
-x,1/2+y,-z
-x,-y,-z
x,1/2-y,z
loop_
_atom_site_type_symbol
_atom_site_label
_atom_site_fract_x
_atom_site_fract_y
_atom_site_fract_z
Si Si1 0.205414 0.750000 0.240766
Si Si2 0.168255 0.946160 0.685462
Si Si3 0.899939 0.462598 0.047381
Si Si4 0.456094 0.556210 0.203679
Si Si5 0.714932 0.043682 0.069911
Si Si6 0.486448 0.444629 0.419945
Si Si7 0.753184 0.438664 0.439083
Si Si8 0.934538 0.539329 0.679933
O O1 0.317833 0.598255 0.332010
O O2 0.100170 0.592579 0.152686
O O3 0.248114 0.750000 0.732089
O O4 0.067922 0.013671 0.691620
O O5 0.365834 0.054520 0.757563
O O6 0.963447 0.940156 0.546469
O O7 0.942804 0.250000 0.068998
O O8 0.767142 0.504081 0.930469
O O9 0.745258 0.507921 0.023959
O O10 0.423699 0.750000 0.208237
O O11 0.582407 0.458188 0.310187
O O12 0.727805 0.250000 0.076086
O O13 0.922495 0.976469 0.202566
O O14 0.500000 0.000000 0.000000
O O15 0.392799 0.250000 0.381671
O O16 0.613618 0.452135 0.424962
O O17 0.687330 0.475488 0.556412
O O18 0.856821 0.250000 0.486069
O O19 0.928553 0.750000 0.675816
#
# Coordination Sequence:
#
# PCOD9158641 Si02
#       8
#     2   4   4   4   4   4   4   4
#     4  12  24  44  74  82 126 156 218 258 330 348
#     4  10  19  31  55  91 126 164 200 243 302 374
#     4  10  25  44  63  91 126 166 205 257 307 372
#     4  11  22  36  57  83 127 163 205 246 308 371
#     4  10  21  38  64  96 135 167 206 247 300 375
#     4  10  22  41  68  94 117 160 205 266 318 364
#     4  10  21  36  59  88 123 156 204 253 307 369
#     4   9  18  36  62  92 126 163 210 250 305 373
#
# _framework density 25.036935
#
# number of rings (size 3 to 8) (size 9 to 14) (size 15 to 20)
#    0.000    1.867    0.667    2.800    4.667    1.067 
#    0.000    1.333    0.000    0.000    0.000    0.000 
#    0.000    0.000    0.000    0.000    0.000    0.000 
#
# Total GULP energy -167303.974098 kJ/mol
# GULP energy per Si atom -5576.799137 kJ/mol
# Density = 2.497995 g / cm^3
# Si number density = 25.036935 Si / 1000 Ang^3
#
#
#
# Elastic Constant Matrix: (Units=GPa)
#
#
# Indices 1 2 3 4 5 6 
#
# 1 41.8333 -3.2283 9.2760 0.0000 3.0390 0.0000
# 2 -3.2283 113.1816 42.6765 0.0000 6.9864 0.0000
# 3 9.2760 42.6765 153.2677 0.0000 -17.4735 0.0000
# 4 0.0000 0.0000 0.0000 27.8901 0.0000 21.8229
# 5 3.0390 6.9864 -17.4735 0.0000 31.5817 0.0000
# 6 0.0000 0.0000 0.0000 21.8229 0.0000 -13.0901
#
#
#
# Elastic Compliance Matrix: (Units=1/GPa)
#
#
# Indices 1 2 3 4 5 6 
#
# 1 0.024919 0.001923 -0.002525 0.000000 -0.004220 0.000000
# 2 0.001923 0.010506 -0.003552 0.000000 -0.004474 0.000000
# 3 -0.002525 -0.003552 0.008308 0.000000 0.005625 0.000000
# 4 0.000000 0.000000 0.000000 0.015559 0.000000 0.025939
# 5 -0.004220 -0.004474 0.005625 0.000000 0.036172 0.000000
# 6 0.000000 0.000000 0.000000 0.025939 0.000000 -0.033150
#
#
# Mechanical properties :
#
#
# Convention : Reuss Voigt Hill
#
# Bulk Modulus (GPa) = 28.22789 45.08125 36.65457
# Shear Modulus (GPa) = 60.65878 26.58023 43.61951
#
# Velocity S-wave (km/s) = 4.92751 3.26182 4.17850
# Velocity P-wave (km/s) = 6.60853 5.67723 6.16051
#
# Compressibility (1/GPa) = 0.03542596
#
# Stress axis : x y z
#
# Youngs Moduli (GPa) = 40.12962 95.18719 120.37189
#
# Poissons Ratio (x) = -0.18307 0.30392
# Poissons Ratio (y) = -0.07718 0.42753
# Poissons Ratio (z) = 0.10132 0.33808
#
# Static dielectric constant tensor:
#      x y z
#    x 2.045270 0.000000 -0.005260 
#    y 0.000000 1.900350 0.000000 
#    z -0.005260 0.000000 1.953320 
# 
# From -- ./inp_files/73540.got.cif
#   From: 2010.05.17/outbox.cif.g08.bks.cpg/sg11_37_cif.got.tgz:73540.got - 2010.06.03 12:22:45.
