data_PCOD9158985
_publ_section_title
;
Structure prediction by ZEFSAII (Michael W. Deem and Ramdas Pophale) SiO2 
 PCOD9158985
Probable space group: P 21/M
;
_chemical_formula_sum "Si O2"
_cell_formula_units_Z 28
_cell_length_a 15.626034
_cell_length_b 8.748345
_cell_length_c 20.121923
_cell_angle_alpha 90.000000
_cell_angle_beta 35.071678
_cell_angle_gamma 90.000000
_cell_volume 1580.557667
_symmetry_space_group_name_H-M "P 21/M"
_symmetry_group_IT_number 11
_symmetry_cell_setting 'monoclinic'
loop_
_space_group_symop_operation_xyz
x,y,z
-x,1/2+y,-z
-x,-y,-z
x,1/2-y,z
loop_
_atom_site_type_symbol
_atom_site_label
_atom_site_fract_x
_atom_site_fract_y
_atom_site_fract_z
Si Si1 0.351280 0.433463 0.127598
Si Si2 0.118861 0.568026 0.744710
Si Si3 0.844398 0.068598 0.122838
Si Si4 0.401618 0.431349 0.502566
Si Si5 0.486936 0.066583 0.173895
Si Si6 0.466284 0.068244 0.716121
Si Si7 0.213715 0.065442 0.082483
O O1 0.360095 0.250000 0.122083
O O2 0.363707 0.480225 0.196680
O O3 0.224952 0.474039 0.154178
O O4 0.500000 0.500000 0.000000
O O5 0.130552 0.750000 0.723426
O O6 0.165066 0.544302 0.791828
O O7 0.232449 0.477903 0.626153
O O8 0.946964 0.522779 0.843925
O O9 0.839405 0.250000 0.113325
O O10 0.704985 0.987877 0.177104
O O11 0.000000 0.000000 0.000000
O O12 0.500000 0.500000 0.500000
O O13 0.421137 0.250000 0.489405
O O14 0.455505 0.499371 0.398568
O O15 0.488340 0.250000 0.179048
O O16 0.463840 0.992249 0.260000
O O17 0.647656 0.011989 0.043206
O O18 0.471086 0.250000 0.710508
O O19 0.230396 0.250000 0.064905
#
# Coordination Sequence:
#
# PCOD9158985 Si02
#       7
#     4   4   4   4   4   4   4
#     4   8  15  28  49  77 110 145 177 216 263 317
#     4  10  21  36  55  78 107 142 179 220 264 316
#     4  11  22  35  53  79 113 145 176 214 264 321
#     4  12  24  40  60  79 102 136 181 227 271 322
#     4  10  19  32  52  81 114 145 181 223 270 321
#     4  12  24  38  56  77 105 142 183 227 271 317
#     4   9  17  32  54  82 114 146 180 216 265 325
#
# _framework density 17.715264999999999
#
# number of rings (size 3 to 8) (size 9 to 14) (size 15 to 20)
#    0.000    1.714    1.429    4.286    0.000    2.857 
#    0.000    0.000    0.000    0.857    0.000    0.000 
#    0.000    0.000    0.000    0.000    0.000    0.000 
#
# Total GULP energy -156280.475665 kJ/mol
# GULP energy per Si atom -5581.445559 kJ/mol
# Density = 1.767494 g / cm^3
# Si number density = 17.715265 Si / 1000 Ang^3
#
#
#
# Elastic Constant Matrix: (Units=GPa)
#
#
# Indices 1 2 3 4 5 6 
#
# 1 75.4633 26.3423 2.8202 0.0000 30.4728 0.0000
# 2 26.3423 75.2826 31.6866 0.0000 18.7723 0.0000
# 3 2.8202 31.6866 64.5394 0.0000 23.9946 0.0000
# 4 0.0000 0.0000 0.0000 29.5911 0.0000 2.3057
# 5 30.4728 18.7723 23.9946 0.0000 30.2810 0.0000
# 6 0.0000 0.0000 0.0000 2.3057 0.0000 21.2911
#
#
#
# Elastic Compliance Matrix: (Units=1/GPa)
#
#
# Indices 1 2 3 4 5 6 
#
# 1 0.032554 -0.008687 0.018458 0.000000 -0.042001 0.000000
# 2 -0.008687 0.019728 -0.011354 0.000000 0.005509 0.000000
# 3 0.018458 -0.011354 0.034805 0.000000 -0.039115 0.000000
# 4 0.000000 0.000000 0.000000 0.034082 0.000000 -0.003691
# 5 -0.042001 0.005509 -0.039115 0.000000 0.102870 0.000000
# 6 0.000000 0.000000 0.000000 -0.003691 0.000000 0.047368
#
#
# Mechanical properties :
#
#
# Convention : Reuss Voigt Hill
#
# Bulk Modulus (GPa) = 11.91605 37.44260 24.67933
# Shear Modulus (GPa) = 16.52635 26.52839 21.52737
#
# Velocity S-wave (km/s) = 3.05763 3.87394 3.48974
# Velocity P-wave (km/s) = 4.38253 6.41806 5.49536
#
# Compressibility (1/GPa) = 0.08392043
#
# Stress axis : x y z
#
# Youngs Moduli (GPa) = 30.71777 50.68847 28.73189
#
# Poissons Ratio (x) = 0.44032 -0.53032
# Poissons Ratio (y) = 0.26684 0.32623
# Poissons Ratio (z) = -0.56698 0.57553
#
# Static dielectric constant tensor:
#      x y z
#    x 1.642760 0.000000 0.015510 
#    y 0.000000 1.589840 0.000000 
#    z 0.015510 0.000000 1.579800 
# 
# From -- ./inp_files/60076.got.cif
#   From: 2010.05.17/outbox.cif.g08.bks.cpg/sg11_31_cif.got.tgz:60076.got - 2010.06.03 12:22:45.
