data_PCOD9158150
_publ_section_title
;
Structure prediction by ZEFSAII (Michael W. Deem and Ramdas Pophale) SiO2 
 PCOD9158150
Probable space group: P 21/M
;
_chemical_formula_sum "Si O2"
_cell_formula_units_Z 28
_cell_length_a 9.785344
_cell_length_b 9.045299
_cell_length_c 28.838816
_cell_angle_alpha 90.000000
_cell_angle_beta 39.089474
_cell_angle_gamma 90.000000
_cell_volume 1609.475716
_symmetry_space_group_name_H-M "P 21/M"
_symmetry_group_IT_number 11
_symmetry_cell_setting 'monoclinic'
loop_
_space_group_symop_operation_xyz
x,y,z
-x,1/2+y,-z
-x,-y,-z
x,1/2-y,z
loop_
_atom_site_type_symbol
_atom_site_label
_atom_site_fract_x
_atom_site_fract_y
_atom_site_fract_z
Si Si1 0.316218 0.925802 0.194614
Si Si2 0.928578 0.425890 0.243150
Si Si3 0.183395 0.924755 0.558321
Si Si4 0.251804 0.575138 0.321725
Si Si5 0.253168 0.427876 0.797691
Si Si6 0.365224 0.425394 0.603612
Si Si7 0.193532 0.072326 0.920865
O O1 0.293975 0.750000 0.191426
O O2 0.259026 0.947825 0.264019
O O3 0.567877 0.968430 0.122968
O O4 0.152016 0.015386 0.206242
O O5 0.922184 0.250000 0.245355
O O6 0.889315 0.489576 0.202441
O O7 0.740008 0.492402 0.325523
O O8 0.174787 0.750000 0.570811
O O9 0.377510 0.948446 0.470648
O O10 0.254840 0.011791 0.585927
O O11 0.948937 0.984059 0.605672
O O12 0.218581 0.750000 0.338378
O O13 0.491663 0.535582 0.276192
O O14 0.233413 0.250000 0.797892
O O15 0.191775 0.466414 0.866713
O O16 0.322864 0.250000 0.618136
O O17 0.178559 0.250000 0.927467
O O18 0.000000 0.000000 0.000000
#
# Coordination Sequence:
#
# PCOD9158150 Si02
#       7
#     4   4   4   4   4   4   4
#     4   9  18  34  56  80 107 143 178 213 263 324
#     4  12  23  34  52  82 110 139 182 229 271 312
#     4  10  19  30  49  78 105 134 181 232 273 310
#     4   9  17  32  55  77 100 139 185 222 267 322
#     4   9  20  38  57  78 108 147 180 211 265 330
#     4  10  20  33  49  71 106 147 179 219 273 325
#     4   9  19  37  62  88 111 139 176 213 260 317
#
# _framework density 17.39697
#
# number of rings (size 3 to 8) (size 9 to 14) (size 15 to 20)
#    0.000    2.286    1.429    3.857    0.000    3.429 
#    0.000    4.286    0.000    0.000    0.000    0.000 
#    0.000    0.000    0.000    0.000    0.000    0.000 
#
# Total GULP energy -156252.906518 kJ/mol
# GULP energy per Si atom -5580.460947 kJ/mol
# Density = 1.735737 g / cm^3
# Si number density = 17.396970 Si / 1000 Ang^3
#
#
#
# Elastic Constant Matrix: (Units=GPa)
#
#
# Indices 1 2 3 4 5 6 
#
# 1 91.9861 54.7130 41.1825 0.0000 -3.8504 0.0000
# 2 54.7130 72.2850 51.6158 0.0000 -7.0453 0.0000
# 3 41.1825 51.6158 107.2646 0.0000 -15.8610 0.0000
# 4 0.0000 0.0000 0.0000 32.2670 0.0000 -5.6603
# 5 -3.8504 -7.0453 -15.8610 0.0000 17.9962 0.0000
# 6 0.0000 0.0000 0.0000 -5.6603 0.0000 21.5811
#
#
#
# Elastic Compliance Matrix: (Units=1/GPa)
#
#
# Indices 1 2 3 4 5 6 
#
# 1 0.019880 -0.014593 -0.000950 0.000000 -0.002297 0.000000
# 2 -0.014593 0.031797 -0.009566 0.000000 0.000895 0.000000
# 3 -0.000950 -0.009566 0.015761 0.000000 0.009943 0.000000
# 4 0.000000 0.000000 0.000000 0.032486 0.000000 0.008520
# 5 -0.002297 0.000895 0.009943 0.000000 0.064189 0.000000
# 6 0.000000 0.000000 0.000000 0.008520 0.000000 0.048572
#
#
# Mechanical properties :
#
#
# Convention : Reuss Voigt Hill
#
# Bulk Modulus (GPa) = 58.07003 62.95093 60.51048
# Shear Modulus (GPa) = 18.61204 22.63717 20.62461
#
# Velocity S-wave (km/s) = 3.27439 3.61115 3.44689
# Velocity P-wave (km/s) = 6.90995 7.32467 7.12033
#
# Compressibility (1/GPa) = 0.01722059
#
# Stress axis : x y z
#
# Youngs Moduli (GPa) = 50.30114 31.44917 63.44822
#
# Poissons Ratio (x) = 0.45893 0.06029
# Poissons Ratio (y) = 0.73403 0.60694
# Poissons Ratio (z) = 0.04780 0.30084
#
# Static dielectric constant tensor:
#      x y z
#    x 1.585530 0.000000 -0.013810 
#    y 0.000000 1.574020 0.000000 
#    z -0.013810 0.000000 1.588830 
# 
# From -- ./inp_files/28292.got.cif
#   From: 2010.05.17/outbox.cif.g08.bks.cpg/sg11_15_cif.got.tgz:28292.got - 2010.06.03 12:22:45.
