data_PCOD9158999
_publ_section_title
;
Structure prediction by ZEFSAII (Michael W. Deem and Ramdas Pophale) SiO2 
 PCOD9158999
Probable space group: P 21/M
;
_chemical_formula_sum "Si O2"
_cell_formula_units_Z 30
_cell_length_a 18.278654
_cell_length_b 9.572603
_cell_length_c 10.747374
_cell_angle_alpha 90.000000
_cell_angle_beta 137.915303
_cell_angle_gamma 90.000000
_cell_volume 1260.374080
_symmetry_space_group_name_H-M "P 21/M"
_symmetry_group_IT_number 11
_symmetry_cell_setting 'monoclinic'
loop_
_space_group_symop_operation_xyz
x,y,z
-x,1/2+y,-z
-x,-y,-z
x,1/2-y,z
loop_
_atom_site_type_symbol
_atom_site_label
_atom_site_fract_x
_atom_site_fract_y
_atom_site_fract_z
Si Si1 0.524012 0.589027 0.856154
Si Si2 0.670219 0.081878 0.542548
Si Si3 0.155976 0.532964 0.888507
Si Si4 0.921319 0.068184 0.835868
Si Si5 0.060667 0.591382 0.433226
Si Si6 0.648117 0.902003 0.748099
Si Si7 0.287124 0.907040 0.815527
Si Si8 0.047912 0.750000 0.946315
O O1 0.525387 0.750000 0.900364
O O2 0.402168 0.539769 0.668609
O O3 0.578356 0.587413 0.786012
O O4 0.602557 0.495042 0.039519
O O5 0.661745 0.250000 0.536648
O O6 0.793785 0.029059 0.687020
O O7 0.628638 0.019303 0.620688
O O8 0.240968 0.599199 0.899028
O O9 0.052669 0.483160 0.677398
O O10 0.106665 0.631430 0.930990
O O11 0.226487 0.415764 0.046690
O O12 0.892330 0.250000 0.841434
O O13 0.949939 0.094788 0.729436
O O14 0.977415 0.897089 0.928050
O O15 0.061029 0.750000 0.484053
O O16 0.181354 0.531028 0.611090
O O17 0.628687 0.750000 0.666938
O O18 0.306159 0.750000 0.792849
#
# Coordination Sequence:
#
# PCOD9158999 Si02
#       8
#     4   4   4   4   4   4   4   2
#     4   9  21  37  57  81 111 148 192 238 282 334
#     4  11  20  37  58  81 112 153 191 227 281 344
#     4  11  20  36  57  85 116 151 189 231 279 346
#     4  12  22  37  57  85 116 150 186 230 278 347
#     4  11  22  37  56  83 114 153 191 233 287 334
#     4  10  19  32  52  87 119 146 181 235 290 332
#     4  10  22  39  60  82 113 152 192 238 285 333
#     4  12  20  36  58  86 114 154 190 218 286 338
#
# _framework density 23.802455999999999
#
# number of rings (size 3 to 8) (size 9 to 14) (size 15 to 20)
#    0.000    1.333    4.667    1.200    0.000    1.600 
#    2.400    0.667    0.000    0.000    0.000    0.000 
#    0.000    0.000    0.000    0.000    0.000    0.000 
#
# Total GULP energy -167036.282227 kJ/mol
# GULP energy per Si atom -5567.876074 kJ/mol
# Density = 2.374828 g / cm^3
# Si number density = 23.802456 Si / 1000 Ang^3
#
#
#
# Elastic Constant Matrix: (Units=GPa)
#
#
# Indices 1 2 3 4 5 6 
#
# 1 61.6113 9.7072 17.6982 0.0000 13.6048 0.0000
# 2 9.7072 79.5707 50.7673 0.0000 13.8691 0.0000
# 3 17.6982 50.7673 169.8711 0.0000 23.1313 0.0000
# 4 0.0000 0.0000 0.0000 46.1898 0.0000 -0.3187
# 5 13.6048 13.8691 23.1313 0.0000 37.2522 0.0000
# 6 0.0000 0.0000 0.0000 -0.3187 0.0000 14.6098
#
#
#
# Elastic Compliance Matrix: (Units=1/GPa)
#
#
# Indices 1 2 3 4 5 6 
#
# 1 0.017851 -0.000605 -0.000898 0.000000 -0.005736 0.000000
# 2 -0.000605 0.015899 -0.004274 0.000000 -0.003044 0.000000
# 3 -0.000898 -0.004274 0.007643 0.000000 -0.002826 0.000000
# 4 0.000000 0.000000 0.000000 0.021653 0.000000 0.000472
# 5 -0.005736 -0.003044 -0.002826 0.000000 0.031828 0.000000
# 6 0.000000 0.000000 0.000000 0.000472 0.000000 0.068458
#
#
# Mechanical properties :
#
#
# Convention : Reuss Voigt Hill
#
# Bulk Modulus (GPa) = 33.51369 51.93314 42.72342
# Shear Modulus (GPa) = 27.05192 35.13572 31.09382
#
# Velocity S-wave (km/s) = 3.37489 3.84622 3.61824
# Velocity P-wave (km/s) = 5.41267 6.44906 5.95346
#
# Compressibility (1/GPa) = 0.02983855
#
# Stress axis : x y z
#
# Youngs Moduli (GPa) = 56.02009 62.89838 130.84705
#
# Poissons Ratio (x) = 0.03805 0.11748
# Poissons Ratio (y) = 0.03389 0.55922
# Poissons Ratio (z) = 0.05030 0.26882
#
# Static dielectric constant tensor:
#      x y z
#    x 1.979890 0.000000 0.014770 
#    y 0.000000 2.163750 0.000000 
#    z 0.014770 0.000000 1.943540 
# 
# From -- ./inp_files/55473.got.cif
#   From: 2010.05.17/outbox.cif.g08.bks.cpg/sg11_28_cif.got.tgz:55473.got - 2010.06.03 12:22:45.
