data_PCOD9158257
_publ_section_title
;
Structure prediction by ZEFSAII (Michael W. Deem and Ramdas Pophale) SiO2 
 PCOD9158257
Probable space group: P 21/M
;
_chemical_formula_sum "Si O2"
_cell_formula_units_Z 28
_cell_length_a 16.600843
_cell_length_b 9.127390
_cell_length_c 18.948977
_cell_angle_alpha 90.000000
_cell_angle_beta 37.181399
_cell_angle_gamma 90.000000
_cell_volume 1735.178714
_symmetry_space_group_name_H-M "P 21/M"
_symmetry_group_IT_number 11
_symmetry_cell_setting 'monoclinic'
loop_
_space_group_symop_operation_xyz
x,y,z
-x,1/2+y,-z
-x,-y,-z
x,1/2-y,z
loop_
_atom_site_type_symbol
_atom_site_label
_atom_site_fract_x
_atom_site_fract_y
_atom_site_fract_z
Si Si1 0.474989 0.575425 0.747693
Si Si2 0.296143 0.425189 0.155918
Si Si3 0.221445 0.424078 0.514864
Si Si4 0.994481 0.573894 0.580382
Si Si5 0.694847 0.081272 0.405484
Si Si6 0.451438 0.926287 0.925452
Si Si7 0.614192 0.581604 0.326488
O O1 0.451578 0.750000 0.757832
O O2 0.631943 0.552338 0.621565
O O3 0.445393 0.527937 0.848209
O O4 0.391919 0.492227 0.745822
O O5 0.304535 0.250000 0.140274
O O6 0.148433 0.460798 0.284802
O O7 0.405813 0.465455 0.138990
O O8 0.340868 0.503647 0.053046
O O9 0.196373 0.250000 0.532737
O O10 0.228768 0.487860 0.588879
O O11 0.111836 0.508352 0.546126
O O12 0.005871 0.750000 0.566538
O O13 0.000000 0.500000 0.500000
O O14 0.739043 0.250000 0.373460
O O15 0.539627 0.080621 0.538706
O O16 0.695891 0.008714 0.327706
O O17 0.440879 0.750000 0.934740
O O18 0.657575 0.750000 0.293203
#
# Coordination Sequence:
#
# PCOD9158257 Si02
#       7
#     4   4   4   4   4   4   4
#     4   9  17  29  45  67  96 126 154 190 235 277
#     4   9  19  34  49  67  92 121 153 192 235 273
#     4  10  19  31  47  68  96 127 158 192 231 275
#     4  11  22  35  50  69  95 125 157 192 231 275
#     4   9  16  27  42  62  91 125 158 190 229 276
#     4   9  17  31  50  69  90 119 155 192 231 275
#     4   9  16  25  40  64  92 122 156 192 230 274
#
# _framework density 16.136665000000001
#
# number of rings (size 3 to 8) (size 9 to 14) (size 15 to 20)
#    0.000    2.571    0.000    2.571    0.000    8.000 
#    0.000    2.857    0.000    0.000    0.000    1.000 
#    0.000    0.000    0.000    0.000    0.000    0.000 
#
# Total GULP energy -156115.017610 kJ/mol
# GULP energy per Si atom -5575.536343 kJ/mol
# Density = 1.609994 g / cm^3
# Si number density = 16.136665 Si / 1000 Ang^3
#
#
#
# Elastic Constant Matrix: (Units=GPa)
#
#
# Indices 1 2 3 4 5 6 
#
# 1 133.3451 63.5030 61.8640 0.0000 33.3615 0.0000
# 2 63.5030 76.2150 49.6392 0.0000 13.7802 0.0000
# 3 61.8640 49.6392 70.3239 0.0000 23.4170 0.0000
# 4 0.0000 0.0000 0.0000 22.8085 0.0000 4.5690
# 5 33.3615 13.7802 23.4170 0.0000 29.9388 0.0000
# 6 0.0000 0.0000 0.0000 4.5690 0.0000 32.4936
#
#
#
# Elastic Compliance Matrix: (Units=1/GPa)
#
#
# Indices 1 2 3 4 5 6 
#
# 1 0.016575 -0.008694 -0.004903 0.000000 -0.010633 0.000000
# 2 -0.008694 0.029049 -0.015726 0.000000 0.008618 0.000000
# 3 -0.004903 -0.015726 0.034351 0.000000 -0.014166 0.000000
# 4 0.000000 0.000000 0.000000 0.045114 0.000000 -0.006344
# 5 -0.010633 0.008618 -0.014166 0.000000 0.052363 0.000000
# 6 0.000000 0.000000 0.000000 -0.006344 0.000000 0.031667
#
#
# Mechanical properties :
#
#
# Convention : Reuss Voigt Hill
#
# Bulk Modulus (GPa) = 46.88783 69.98849 58.43816
# Shear Modulus (GPa) = 18.18998 24.04002 21.11500
#
# Velocity S-wave (km/s) = 3.36109 3.86395 3.62126
# Velocity P-wave (km/s) = 6.64698 7.96074 7.33334
#
# Compressibility (1/GPa) = 0.02132750
#
# Stress axis : x y z
#
# Youngs Moduli (GPa) = 60.33207 34.42422 29.11124
#
# Poissons Ratio (x) = 0.29929 0.14274
# Poissons Ratio (y) = 0.52455 0.45781
# Poissons Ratio (z) = 0.29583 0.54136
#
# Static dielectric constant tensor:
#      x y z
#    x 1.529970 0.000000 0.005180 
#    y 0.000000 1.539720 0.000000 
#    z 0.005180 0.000000 1.517230 
# 
# From -- ./inp_files/42301.got.cif
#   From: 2010.05.17/outbox.cif.g08.bks.cpg/sg11_22_cif.got.tgz:42301.got - 2010.06.03 12:22:45.
