data_PCOD9158895
_publ_section_title
;
Structure prediction by ZEFSAII (Michael W. Deem and Ramdas Pophale) SiO2 
 PCOD9158895
Probable space group: P 21/M
;
_chemical_formula_sum "Si O2"
_cell_formula_units_Z 28
_cell_length_a 22.048031
_cell_length_b 8.780502
_cell_length_c 28.587021
_cell_angle_alpha 90.000000
_cell_angle_beta 16.840118
_cell_angle_gamma 90.000000
_cell_volume 1603.280831
_symmetry_space_group_name_H-M "P 21/M"
_symmetry_group_IT_number 11
_symmetry_cell_setting 'monoclinic'
loop_
_space_group_symop_operation_xyz
x,y,z
-x,1/2+y,-z
-x,-y,-z
x,1/2-y,z
loop_
_atom_site_type_symbol
_atom_site_label
_atom_site_fract_x
_atom_site_fract_y
_atom_site_fract_z
Si Si1 0.284591 0.069350 0.762982
Si Si2 0.167950 0.566540 0.339320
Si Si3 0.110678 0.568237 0.087850
Si Si4 0.650473 0.069931 0.428397
Si Si5 0.365946 0.934521 0.990848
Si Si6 0.117006 0.431027 0.986225
Si Si7 0.268277 0.933099 0.163877
O O1 0.236566 0.250000 0.793994
O O2 0.518814 0.045962 0.572914
O O3 0.246218 0.024088 0.844705
O O4 0.119220 0.982369 0.852297
O O5 0.161512 0.750000 0.346952
O O6 0.403262 0.508070 0.176915
O O7 0.135796 0.520884 0.307818
O O8 0.000000 0.500000 0.500000
O O9 0.105774 0.750000 0.090941
O O10 0.874933 0.506463 0.265109
O O11 0.192631 0.508503 0.977661
O O12 0.247302 0.518436 0.031341
O O13 0.674111 0.250000 0.402507
O O14 0.500000 0.000000 0.500000
O O15 0.390805 0.750000 0.972201
O O16 0.229189 0.974564 0.138354
O O17 0.122807 0.250000 0.987378
O O18 0.277001 0.750000 0.159190
O O19 0.500000 0.000000 0.000000
#
# Coordination Sequence:
#
# PCOD9158895 Si02
#       7
#     4   4   4   4   4   4   4
#     4   9  19  34  51  72  98 127 169 219 265 313
#     4  10  19  32  55  84 111 138 172 212 255 306
#     4  11  22  35  52  76 106 139 174 217 266 315
#     4  11  21  34  53  76 101 131 171 220 265 312
#     4   9  19  36  55  75 104 140 177 216 260 307
#     4  10  19  32  52  74  98 133 171 213 263 314
#     4   8  15  30  52  76 101 133 172 210 248 298
#
# _framework density 17.464191
#
# number of rings (size 3 to 8) (size 9 to 14) (size 15 to 20)
#    0.000    2.286    1.429    1.714    0.000    2.857 
#    0.000    1.429    0.000    5.143    0.000    0.000 
#    0.000    0.000    0.000    0.000    0.000    0.000 
#
# Total GULP energy -156006.396356 kJ/mol
# GULP energy per Si atom -5571.657013 kJ/mol
# Density = 1.742444 g / cm^3
# Si number density = 17.464191 Si / 1000 Ang^3
#
#
#
# Elastic Constant Matrix: (Units=GPa)
#
#
# Indices 1 2 3 4 5 6 
#
# 1 157.7368 39.0090 56.2158 0.0000 20.3320 0.0000
# 2 39.0090 33.6786 23.4206 0.0000 7.0834 0.0000
# 3 56.2158 23.4206 79.9558 0.0000 22.6096 0.0000
# 4 0.0000 0.0000 0.0000 26.6635 0.0000 3.2059
# 5 20.3320 7.0834 22.6096 0.0000 28.1536 0.0000
# 6 0.0000 0.0000 0.0000 3.2059 0.0000 24.4317
#
#
#
# Elastic Compliance Matrix: (Units=1/GPa)
#
#
# Indices 1 2 3 4 5 6 
#
# 1 0.010151 -0.008500 -0.004113 0.000000 -0.001889 0.000000
# 2 -0.008500 0.044419 -0.007259 0.000000 0.000792 0.000000
# 3 -0.004113 -0.007259 0.020919 0.000000 -0.012003 0.000000
# 4 0.000000 0.000000 0.000000 0.038106 0.000000 -0.005000
# 5 -0.001889 0.000792 -0.012003 0.000000 0.046324 0.000000
# 6 0.000000 0.000000 0.000000 -0.005000 0.000000 0.041587
#
#
# Mechanical properties :
#
#
# Convention : Reuss Voigt Hill
#
# Bulk Modulus (GPa) = 27.97568 56.51798 42.24683
# Shear Modulus (GPa) = 19.74993 26.03148 22.89070
#
# Velocity S-wave (km/s) = 3.36651 3.86497 3.62432
# Velocity P-wave (km/s) = 5.58255 7.23532 6.46199
#
# Compressibility (1/GPa) = 0.03574533
#
# Stress axis : x y z
#
# Youngs Moduli (GPa) = 98.51068 22.51268 47.80302
#
# Poissons Ratio (x) = 0.19136 0.19662
# Poissons Ratio (y) = 0.83736 0.34700
# Poissons Ratio (z) = 0.40518 0.16342
#
# Static dielectric constant tensor:
#      x y z
#    x 1.627870 0.000000 0.051970 
#    y 0.000000 1.588400 0.000000 
#    z 0.051970 0.000000 1.587400 
# 
# From -- ./inp_files/71926.got.cif
#   From: 2010.05.17/outbox.cif.g08.bks.cpg/sg11_36_cif.got.tgz:71926.got - 2010.06.03 12:22:45.
