data_PCOD9158045
_publ_section_title
;
Structure prediction by ZEFSAII (Michael W. Deem and Ramdas Pophale) SiO2 
 PCOD9158045
Probable space group: P 21/M
;
_chemical_formula_sum "Si O2"
_cell_formula_units_Z 32
_cell_length_a 26.694751
_cell_length_b 8.709549
_cell_length_c 14.898808
_cell_angle_alpha 90.000000
_cell_angle_beta 32.784817
_cell_angle_gamma 90.000000
_cell_volume 1875.684775
_symmetry_space_group_name_H-M "P 21/M"
_symmetry_group_IT_number 11
_symmetry_cell_setting 'monoclinic'
loop_
_space_group_symop_operation_xyz
x,y,z
-x,1/2+y,-z
-x,-y,-z
x,1/2-y,z
loop_
_atom_site_type_symbol
_atom_site_label
_atom_site_fract_x
_atom_site_fract_y
_atom_site_fract_z
Si Si1 0.278578 0.433765 0.875591
Si Si2 0.527588 0.434666 0.055317
Si Si3 0.535687 0.066493 0.352373
Si Si4 0.338104 0.065848 0.585056
Si Si5 0.902521 0.064499 0.541933
Si Si6 0.724008 0.063435 0.702140
Si Si7 0.658206 0.066568 0.603660
Si Si8 0.896153 0.066495 0.760759
O O1 0.282499 0.250000 0.870438
O O2 0.362718 0.496547 0.810549
O O3 0.296163 0.483217 0.744905
O O4 0.182484 0.492852 0.059351
O O5 0.520859 0.250000 0.069496
O O6 0.447491 0.506782 0.235432
O O7 0.500000 0.500000 0.000000
O O8 0.635883 0.477389 0.897951
O O9 0.544026 0.250000 0.342614
O O10 0.448088 0.028898 0.422541
O O11 0.500000 0.000000 0.500000
O O12 0.329475 0.250000 0.593068
O O13 0.297962 0.993222 0.554949
O O14 0.909596 0.250000 0.526077
O O15 0.819681 0.012190 0.601973
O O16 0.881043 0.025511 0.678311
O O17 0.001471 0.992622 0.369741
O O18 0.725336 0.250000 0.697888
O O19 0.704773 0.013538 0.627990
O O20 0.658296 0.250000 0.604243
O O21 0.892072 0.250000 0.774436
#
# Coordination Sequence:
#
# PCOD9158045 Si02
#       8
#     4   4   4   4   4   4   4   4
#     4  10  20  34  52  73  99 133 168 202 245 296
#     4   9  16  28  45  66  95 128 164 202 239 284
#     4   9  17  30  47  68  96 129 165 203 241 283
#     4   9  19  33  48  69  99 135 169 199 240 289
#     4   9  18  35  55  72  96 128 158 195 247 303
#     4   8  16  31  50  71  95 128 166 199 240 292
#     4  10  19  30  47  72 100 132 170 207 242 284
#     4  10  20  33  52  78 101 123 156 200 249 298
#
# _framework density 17.060435999999999
#
# number of rings (size 3 to 8) (size 9 to 14) (size 15 to 20)
#    0.000    2.750    0.000    3.375    0.000    4.500 
#    0.000    6.250    0.000    0.750    0.000    0.000 
#    0.000    0.000    0.000    0.000    0.000    0.000 
#
# Total GULP energy -178145.686927 kJ/mol
# GULP energy per Si atom -5567.052716 kJ/mol
# Density = 1.702161 g / cm^3
# Si number density = 17.060436 Si / 1000 Ang^3
#
#
#
# Elastic Constant Matrix: (Units=GPa)
#
#
# Indices 1 2 3 4 5 6 
#
# 1 108.2506 29.7472 66.4659 0.0000 -8.2515 0.0000
# 2 29.7472 26.7159 31.1232 0.0000 -1.4984 0.0000
# 3 66.4659 31.1232 120.4464 0.0000 -7.4965 0.0000
# 4 0.0000 0.0000 0.0000 29.3061 0.0000 -1.1634
# 5 -8.2515 -1.4984 -7.4965 0.0000 24.3337 0.0000
# 6 0.0000 0.0000 0.0000 -1.1634 0.0000 19.7333
#
#
#
# Elastic Compliance Matrix: (Units=1/GPa)
#
#
# Indices 1 2 3 4 5 6 
#
# 1 0.016053 -0.010878 -0.005863 0.000000 0.002968 0.000000
# 2 -0.010878 0.060945 -0.009932 0.000000 -0.002996 0.000000
# 3 -0.005863 -0.009932 0.014215 0.000000 0.001780 0.000000
# 4 0.000000 0.000000 0.000000 0.034203 0.000000 0.002016
# 5 0.002968 -0.002996 0.001780 0.000000 0.042465 0.000000
# 6 0.000000 0.000000 0.000000 0.002016 0.000000 0.050795
#
#
# Mechanical properties :
#
#
# Convention : Reuss Voigt Hill
#
# Bulk Modulus (GPa) = 26.40769 56.67618 41.54194
# Shear Modulus (GPa) = 17.56578 23.21308 20.38943
#
# Velocity S-wave (km/s) = 3.21225 3.69268 3.46081
# Velocity P-wave (km/s) = 5.41023 7.17455 6.35393
#
# Compressibility (1/GPa) = 0.03786775
#
# Stress axis : x y z
#
# Youngs Moduli (GPa) = 62.29284 16.40815 70.34812
#
# Poissons Ratio (x) = 0.17849 0.41246
# Poissons Ratio (y) = 0.67762 0.69869
# Poissons Ratio (z) = 0.36523 0.16296
#
# Static dielectric constant tensor:
#      x y z
#    x 1.593300 0.000000 0.002770 
#    y 0.000000 1.574570 0.000000 
#    z 0.002770 0.000000 1.577380 
# 
# From -- ./inp_files/56172.got.cif
#   From: 2010.05.17/outbox.cif.g08.bks.cpg/sg11_29_cif.got.tgz:56172.got - 2010.06.03 12:22:45.
