data_PCOD9158725
_publ_section_title
;
Structure prediction by ZEFSAII (Michael W. Deem and Ramdas Pophale) SiO2 
 PCOD9158725
Probable space group: P 21/M
;
_chemical_formula_sum "Si O2"
_cell_formula_units_Z 32
_cell_length_a 21.425760
_cell_length_b 7.575471
_cell_length_c 11.111266
_cell_angle_alpha 90.000000
_cell_angle_beta 124.446390
_cell_angle_gamma 90.000000
_cell_volume 1487.243697
_symmetry_space_group_name_H-M "P 21/M"
_symmetry_group_IT_number 11
_symmetry_cell_setting 'monoclinic'
loop_
_space_group_symop_operation_xyz
x,y,z
-x,1/2+y,-z
-x,-y,-z
x,1/2-y,z
loop_
_atom_site_type_symbol
_atom_site_label
_atom_site_fract_x
_atom_site_fract_y
_atom_site_fract_z
Si Si1 0.840450 0.962722 0.373868
Si Si2 0.874492 0.044281 0.057513
Si Si3 0.977952 0.965861 0.668336
Si Si4 0.119814 0.037115 0.204402
Si Si5 0.419538 0.036632 0.050854
Si Si6 0.259746 0.462447 0.496471
Si Si7 0.740143 0.543858 0.047100
Si Si8 0.587340 0.541331 0.233284
O O1 0.847245 0.750000 0.368634
O O2 0.924234 0.028801 0.501069
O O3 0.786884 0.992985 0.431134
O O4 0.794642 0.034064 0.210182
O O5 0.867961 0.250000 0.074233
O O6 0.936726 0.969106 0.218675
O O7 0.790977 0.967556 0.984091
O O8 0.902737 0.022367 0.952360
O O9 0.979656 0.750000 0.665788
O O10 0.934185 0.015042 0.744221
O O11 0.119635 0.250000 0.203261
O O12 0.204408 0.972449 0.331039
O O13 0.422098 0.250000 0.052386
O O14 0.502072 0.981333 0.186212
O O15 0.345181 0.974474 0.041331
O O16 0.410740 0.972820 0.902457
O O17 0.263952 0.250000 0.484571
O O18 0.344442 0.530560 0.610942
O O19 0.731777 0.750000 0.068361
O O20 0.601797 0.750000 0.237710
#
# Coordination Sequence:
#
# PCOD9158725 Si02
#       8
#     4   4   4   4   4   4   4   4
#     4   8  13  26  48  71  93 121 157 193 231 273
#     4  11  22  33  45  67  99 129 157 195 243 281
#     4   8  16  30  50  73  94 118 153 201 245 279
#     4   9  17  32  54  73  89 118 163 202 232 275
#     4   9  17  28  44  70 100 126 152 186 225 274
#     4   8  13  25  49  76  95 115 152 199 234 270
#     4  10  19  32  50  68  93 130 167 193 218 273
#     4   9  15  26  47  74  99 121 148 185 234 281
#
# _framework density 21.516311000000002
#
# number of rings (size 3 to 8) (size 9 to 14) (size 15 to 20)
#    0.000    3.000    1.250    2.250    0.000    1.000 
#    0.000    1.250    0.000    4.500    0.000    0.000 
#    0.000    0.000    0.000    0.000    0.000    0.000 
#
# Total GULP energy -178413.277911 kJ/mol
# GULP energy per Si atom -5575.414935 kJ/mol
# Density = 2.146734 g / cm^3
# Si number density = 21.516311 Si / 1000 Ang^3
#
#
#
# Elastic Constant Matrix: (Units=GPa)
#
#
# Indices 1 2 3 4 5 6 
#
# 1 84.0020 -3.4662 17.9684 0.0000 37.8777 0.0000
# 2 -3.4662 46.5381 2.8224 0.0000 4.6170 0.0000
# 3 17.9684 2.8224 62.1863 0.0000 27.5265 0.0000
# 4 0.0000 0.0000 0.0000 10.2740 0.0000 0.5225
# 5 37.8777 4.6170 27.5265 0.0000 42.3180 0.0000
# 6 0.0000 0.0000 0.0000 0.5225 0.0000 7.7955
#
#
#
# Elastic Compliance Matrix: (Units=1/GPa)
#
#
# Indices 1 2 3 4 5 6 
#
# 1 0.020907 0.003464 0.003163 0.000000 -0.021149 0.000000
# 2 0.003464 0.022297 0.000613 0.000000 -0.005931 0.000000
# 3 0.003163 0.000613 0.023062 0.000000 -0.017899 0.000000
# 4 0.000000 0.000000 0.000000 0.097666 0.000000 -0.006546
# 5 -0.021149 -0.005931 -0.017899 0.000000 0.054850 0.000000
# 6 0.000000 0.000000 0.000000 -0.006546 0.000000 0.128718
#
#
# Mechanical properties :
#
#
# Convention : Reuss Voigt Hill
#
# Bulk Modulus (GPa) = 12.38468 25.26395 18.82432
# Shear Modulus (GPa) = 13.89135 23.77097 18.83116
#
# Velocity S-wave (km/s) = 2.54366 3.32744 2.96159
# Velocity P-wave (km/s) = 3.79413 5.15070 4.52356
#
# Compressibility (1/GPa) = 0.08074493
#
# Stress axis : x y z
#
# Youngs Moduli (GPa) = 47.83075 44.84908 43.36160
#
# Poissons Ratio (x) = -0.15534 -0.13716
# Poissons Ratio (y) = -0.16566 -0.02657
# Poissons Ratio (z) = -0.15130 -0.02748
#
# Static dielectric constant tensor:
#      x y z
#    x 1.805090 0.000000 0.035150 
#    y 0.000000 1.829110 0.000000 
#    z 0.035150 0.000000 1.804690 
# 
# From -- ./inp_files/42507.got.cif
#   From: 2010.05.17/outbox.cif.g08.bks.cpg/sg11_22_cif.got.tgz:42507.got - 2010.06.03 12:22:45.
