data_PCOD9158600
_publ_section_title
;
Structure prediction by ZEFSAII (Michael W. Deem and Ramdas Pophale) SiO2 
 PCOD9158600
Probable space group: P 21/M
;
_chemical_formula_sum "Si O2"
_cell_formula_units_Z 32
_cell_length_a 27.171988
_cell_length_b 8.876740
_cell_length_c 21.868949
_cell_angle_alpha 90.000000
_cell_angle_beta 159.426922
_cell_angle_gamma 90.000000
_cell_volume 1853.560551
_symmetry_space_group_name_H-M "P 21/M"
_symmetry_group_IT_number 11
_symmetry_cell_setting 'monoclinic'
loop_
_space_group_symop_operation_xyz
x,y,z
-x,1/2+y,-z
-x,-y,-z
x,1/2-y,z
loop_
_atom_site_type_symbol
_atom_site_label
_atom_site_fract_x
_atom_site_fract_y
_atom_site_fract_z
Si Si1 0.550667 0.077340 0.739149
Si Si2 0.649432 0.431810 0.982915
Si Si3 0.848404 0.930177 0.313074
Si Si4 0.234182 0.076907 0.425149
Si Si5 0.353575 0.571779 0.678299
Si Si6 0.652381 0.429243 0.187273
Si Si7 0.557475 0.429310 0.504662
Si Si8 0.136341 0.569333 0.190078
O O1 0.585302 0.250000 0.763269
O O2 0.394343 0.077280 0.586356
O O3 0.538564 0.979755 0.664293
O O4 0.646679 0.027126 0.907606
O O5 0.650445 0.250000 0.988162
O O6 0.774941 0.503278 0.167030
O O7 0.504093 0.492659 0.842765
O O8 0.852934 0.750000 0.315164
O O9 0.754706 0.985467 0.260751
O O10 0.000000 0.000000 0.500000
O O11 0.188442 0.250000 0.377255
O O12 0.246000 0.997202 0.504319
O O13 0.148433 0.989863 0.273639
O O14 0.370844 0.750000 0.686842
O O15 0.309742 0.550876 0.697436
O O16 0.650654 0.250000 0.171915
O O17 0.500000 0.500000 0.000000
O O18 0.500000 0.500000 0.500000
O O19 0.556444 0.250000 0.508541
O O20 0.717932 0.475833 0.674568
O O21 0.129225 0.750000 0.181236
O O22 0.000000 0.500000 0.000000
#
# Coordination Sequence:
#
# PCOD9158600 Si02
#       8
#     4   4   4   4   4   4   4   4
#     4   8  16  30  50  77 106 137 174 219 265 314
#     4  10  19  33  55  81 109 141 180 225 273 325
#     4  12  25  40  58  80 110 148 186 228 277 332
#     4   9  17  30  50  77 108 142 178 220 268 318
#     4  10  19  31  52  82 112 141 177 226 274 318
#     4  11  22  36  57  85 114 144 183 228 274 325
#     4  10  20  33  53  80 109 141 177 220 266 313
#     4  10  20  34  54  80 109 143 181 221 265 322
#
# _framework density 17.264071999999999
#
# number of rings (size 3 to 8) (size 9 to 14) (size 15 to 20)
#    0.000    2.000    1.250    4.125    0.000    6.500 
#    0.000    0.000    2.750    0.000    0.000    0.000 
#    0.000    0.000    0.000    0.000    0.000    0.000 
#
# Total GULP energy -178537.904453 kJ/mol
# GULP energy per Si atom -5579.309514 kJ/mol
# Density = 1.722478 g / cm^3
# Si number density = 17.264072 Si / 1000 Ang^3
#
#
#
# Elastic Constant Matrix: (Units=GPa)
#
#
# Indices 1 2 3 4 5 6 
#
# 1 100.4945 61.0486 65.1003 0.0000 -23.5942 0.0000
# 2 61.0486 108.5068 62.1080 0.0000 -19.5046 0.0000
# 3 65.1003 62.1080 136.1339 0.0000 -27.4396 0.0000
# 4 0.0000 0.0000 0.0000 31.2369 0.0000 -6.8820
# 5 -23.5942 -19.5046 -27.4396 0.0000 30.5493 0.0000
# 6 0.0000 0.0000 0.0000 -6.8820 0.0000 30.5428
#
#
#
# Elastic Compliance Matrix: (Units=1/GPa)
#
#
# Indices 1 2 3 4 5 6 
#
# 1 0.018298 -0.006649 -0.004547 0.000000 0.005803 0.000000
# 2 -0.006649 0.015200 -0.003461 0.000000 0.001461 0.000000
# 3 -0.004547 -0.003461 0.012145 0.000000 0.005187 0.000000
# 4 0.000000 0.000000 0.000000 0.033686 0.000000 0.007590
# 5 0.005803 0.001461 0.005187 0.000000 0.042807 0.000000
# 6 0.000000 0.000000 0.000000 0.007590 0.000000 0.034451
#
#
# Mechanical properties :
#
#
# Convention : Reuss Voigt Hill
#
# Bulk Modulus (GPa) = 61.24030 80.18320 70.71175
# Shear Modulus (GPa) = 26.13091 28.92434 27.52763
#
# Velocity S-wave (km/s) = 3.89472 4.09761 3.99746
# Velocity P-wave (km/s) = 7.46826 8.30260 7.89646
#
# Compressibility (1/GPa) = 0.01632912
#
# Stress axis : x y z
#
# Youngs Moduli (GPa) = 54.65081 65.78732 82.34157
#
# Poissons Ratio (x) = 0.43743 0.37442
# Poissons Ratio (y) = 0.36338 0.28496
# Poissons Ratio (z) = 0.24850 0.22767
#
# Static dielectric constant tensor:
#      x y z
#    x 1.534120 0.000000 -0.093310 
#    y 0.000000 1.571890 0.000000 
#    z -0.093310 0.000000 1.450740 
# 
# From -- ./inp_files/67131.got.cif
#   From: 2010.05.17/outbox.cif.g08.bks.cpg/sg11_34_cif.got.tgz:67131.got - 2010.06.03 12:22:45.
