data_PCOD9158653
_publ_section_title
;
Structure prediction by ZEFSAII (Michael W. Deem and Ramdas Pophale) SiO2 
 PCOD9158653
Probable space group: P 21/M
;
_chemical_formula_sum "Si O2"
_cell_formula_units_Z 28
_cell_length_a 13.762831
_cell_length_b 8.954299
_cell_length_c 14.724568
_cell_angle_alpha 90.000000
_cell_angle_beta 76.729397
_cell_angle_gamma 90.000000
_cell_volume 1766.148499
_symmetry_space_group_name_H-M "P 21/M"
_symmetry_group_IT_number 11
_symmetry_cell_setting 'monoclinic'
loop_
_space_group_symop_operation_xyz
x,y,z
-x,1/2+y,-z
-x,-y,-z
x,1/2-y,z
loop_
_atom_site_type_symbol
_atom_site_label
_atom_site_fract_x
_atom_site_fract_y
_atom_site_fract_z
Si Si1 0.252081 0.072979 0.288259
Si Si2 0.586995 0.074084 0.618418
Si Si3 0.274413 0.926768 0.575129
Si Si4 0.366213 0.927166 0.110099
Si Si5 0.579551 0.427108 0.106012
Si Si6 0.359700 0.074397 0.725742
Si Si7 0.107584 0.570819 0.460841
O O1 0.239897 0.250000 0.288318
O O2 0.347950 0.027003 0.328623
O O3 0.278674 0.007319 0.184104
O O4 0.160055 0.996275 0.360012
O O5 0.609829 0.250000 0.632524
O O6 0.628263 0.044290 0.508864
O O7 0.470803 0.050823 0.660215
O O8 0.271264 0.750000 0.594811
O O9 0.181123 0.964490 0.530061
O O10 0.283722 0.014880 0.666495
O O11 0.363036 0.750000 0.127596
O O12 0.472884 0.989706 0.122143
O O13 0.366186 0.953632 0.001980
O O14 0.561616 0.250000 0.118623
O O15 0.639478 0.487967 0.179266
O O16 0.346683 0.250000 0.744189
O O17 0.102269 0.750000 0.454783
O O18 0.000000 0.500000 0.500000
#
# Coordination Sequence:
#
# PCOD9158653 Si02
#       7
#     4   4   4   4   4   4   4
#     4  11  20  30  50  75  99 132 168 202 246 298
#     4   9  18  31  44  64  96 133 167 204 241 279
#     4   9  19  33  48  67  96 129 163 200 242 292
#     4  10  19  32  47  67  97 131 170 211 247 286
#     4  10  20  31  46  67  95 134 173 208 246 287
#     4  11  20  29  45  68  98 134 169 204 242 285
#     4  10  21  38  57  77 101 127 159 205 252 296
#
# _framework density 15.853707
#
# number of rings (size 3 to 8) (size 9 to 14) (size 15 to 20)
#    0.000    2.000    1.429    4.286    0.000    5.143 
#    0.000    0.000    0.000    0.000    0.000    1.000 
#    0.000    0.000    0.000    0.000    0.000    0.000 
#
# Total GULP energy -156236.186662 kJ/mol
# GULP energy per Si atom -5579.863809 kJ/mol
# Density = 1.581762 g / cm^3
# Si number density = 15.853707 Si / 1000 Ang^3
#
#
#
# Elastic Constant Matrix: (Units=GPa)
#
#
# Indices 1 2 3 4 5 6 
#
# 1 56.0866 44.0115 46.9432 0.0000 -10.4612 0.0000
# 2 44.0115 85.8700 67.5593 0.0000 -4.1815 0.0000
# 3 46.9432 67.5593 121.0946 0.0000 0.4037 0.0000
# 4 0.0000 0.0000 0.0000 27.9998 0.0000 0.1603
# 5 -10.4612 -4.1815 0.4037 0.0000 19.2128 0.0000
# 6 0.0000 0.0000 0.0000 0.1603 0.0000 22.4048
#
#
#
# Elastic Compliance Matrix: (Units=1/GPa)
#
#
# Indices 1 2 3 4 5 6 
#
# 1 0.037035 -0.012081 -0.007676 0.000000 0.017697 0.000000
# 2 -0.012081 0.025142 -0.009340 0.000000 -0.000910 0.000000
# 3 -0.007676 -0.009340 0.016467 0.000000 -0.006558 0.000000
# 4 0.000000 0.000000 0.000000 0.035716 0.000000 -0.000256
# 5 0.017697 -0.000910 -0.006558 0.000000 0.061624 0.000000
# 6 0.000000 0.000000 0.000000 -0.000256 0.000000 0.044635
#
#
# Mechanical properties :
#
#
# Convention : Reuss Voigt Hill
#
# Bulk Modulus (GPa) = 48.90245 64.45324 56.67785
# Shear Modulus (GPa) = 17.50518 20.89263 19.19891
#
# Velocity S-wave (km/s) = 3.32651 3.63414 3.48372
# Velocity P-wave (km/s) = 6.75776 7.63889 7.21179
#
# Compressibility (1/GPa) = 0.02044887
#
# Stress axis : x y z
#
# Youngs Moduli (GPa) = 27.00151 39.77428 60.72905
#
# Poissons Ratio (x) = 0.48051 0.46615
# Poissons Ratio (y) = 0.32620 0.56724
# Poissons Ratio (z) = 0.20726 0.37151
#
# Static dielectric constant tensor:
#      x y z
#    x 1.504580 0.000000 0.000690 
#    y 0.000000 1.527830 0.000000 
#    z 0.000690 0.000000 1.551460 
# 
# From -- ./inp_files/50989.got.cif
#   From: 2010.05.17/outbox.cif.g08.bks.cpg/sg11_26_cif.got.tgz:50989.got - 2010.06.03 12:22:45.
