data_PCOD9158318
_publ_section_title
;
Structure prediction by ZEFSAII (Michael W. Deem and Ramdas Pophale) SiO2 
 PCOD9158318
Probable space group: P 21/M
;
_chemical_formula_sum "Si O2"
_cell_formula_units_Z 28
_cell_length_a 19.560295
_cell_length_b 8.760903
_cell_length_c 25.153576
_cell_angle_alpha 90.000000
_cell_angle_beta 157.268727
_cell_angle_gamma 90.000000
_cell_volume 1665.604278
_symmetry_space_group_name_H-M "P 21/M"
_symmetry_group_IT_number 11
_symmetry_cell_setting 'monoclinic'
loop_
_space_group_symop_operation_xyz
x,y,z
-x,1/2+y,-z
-x,-y,-z
x,1/2-y,z
loop_
_atom_site_type_symbol
_atom_site_label
_atom_site_fract_x
_atom_site_fract_y
_atom_site_fract_z
Si Si1 0.200139 0.930372 0.894132
Si Si2 0.650388 0.566174 0.490602
Si Si3 0.639662 0.066634 0.642620
Si Si4 0.072829 0.568198 0.226766
Si Si5 0.916945 0.930871 0.387428
Si Si6 0.460562 0.931490 0.913594
Si Si7 0.084726 0.430560 0.405342
O O1 0.233638 0.750000 0.920369
O O2 0.064041 0.956857 0.747109
O O3 0.101362 0.985468 0.876590
O O4 0.378883 0.018888 0.009246
O O5 0.678418 0.750000 0.518727
O O6 0.449717 0.530279 0.364556
O O7 0.778425 0.476257 0.622744
O O8 0.726930 0.533302 0.487227
O O9 0.638192 0.250000 0.636676
O O10 0.834350 0.018583 0.762252
O O11 0.500000 0.000000 0.500000
O O12 0.044413 0.750000 0.206238
O O13 0.901619 0.750000 0.380921
O O14 0.724661 0.002643 0.239233
O O15 0.000000 0.000000 0.500000
O O16 0.036297 0.974798 0.422212
O O17 0.450040 0.750000 0.910232
O O18 0.500000 0.000000 0.000000
O O19 0.079529 0.250000 0.414455
#
# Coordination Sequence:
#
# PCOD9158318 Si02
#       7
#     4   4   4   4   4   4   4
#     4  10  19  31  48  70  98 131 168 207 251 298
#     4   8  14  24  38  56  84 122 162 200 242 294
#     4   8  13  21  33  52  81 120 159 196 239 289
#     4   9  15  22  35  58  89 122 160 202 245 291
#     4  12  25  40  57  76 103 136 171 214 262 309
#     4  12  23  37  57  80 104 132 171 213 257 307
#     4   9  17  30  48  69  96 128 168 211 253 301
#
# _framework density 16.810717
#
# number of rings (size 3 to 8) (size 9 to 14) (size 15 to 20)
#    0.000    2.286    1.429    4.286    0.000    2.857 
#    0.000    0.000    0.000    0.000    0.000    0.000 
#    0.000    1.143    0.000    3.143    0.000    6.857 
#
# Total GULP energy -155946.654952 kJ/mol
# GULP energy per Si atom -5569.523391 kJ/mol
# Density = 1.677245 g / cm^3
# Si number density = 16.810717 Si / 1000 Ang^3
#
#
#
# Elastic Constant Matrix: (Units=GPa)
#
#
# Indices 1 2 3 4 5 6 
#
# 1 123.3141 61.2809 62.1266 0.0000 39.0052 0.0000
# 2 61.2809 91.2712 40.5192 0.0000 10.0831 0.0000
# 3 62.1266 40.5192 65.1326 0.0000 12.3664 0.0000
# 4 0.0000 0.0000 0.0000 18.5172 0.0000 5.2135
# 5 39.0052 10.0831 12.3664 0.0000 25.2715 0.0000
# 6 0.0000 0.0000 0.0000 5.2135 0.0000 25.9328
#
#
#
# Elastic Compliance Matrix: (Units=1/GPa)
#
#
# Indices 1 2 3 4 5 6 
#
# 1 0.038753 -0.011656 -0.021211 0.000000 -0.044784 0.000000
# 2 -0.011656 0.018700 -0.002772 0.000000 0.011885 0.000000
# 3 -0.021211 -0.002772 0.034047 0.000000 0.017183 0.000000
# 4 0.000000 0.000000 0.000000 0.057244 0.000000 -0.011508
# 5 -0.044784 0.011885 0.017183 0.000000 0.095541 0.000000
# 6 0.000000 0.000000 0.000000 -0.011508 0.000000 0.040875
#
#
# Mechanical properties :
#
#
# Convention : Reuss Voigt Hill
#
# Bulk Modulus (GPa) = 49.44824 67.50791 58.47808
# Shear Modulus (GPa) = 13.76733 21.66369 17.71551
#
# Velocity S-wave (km/s) = 2.86485 3.59372 3.24978
# Velocity P-wave (km/s) = 6.35781 7.58054 6.99594
#
# Compressibility (1/GPa) = 0.02022317
#
# Stress axis : x y z
#
# Youngs Moduli (GPa) = 25.80425 53.47655 29.37099
#
# Poissons Ratio (x) = 0.62331 0.62298
# Poissons Ratio (y) = 0.30077 0.08142
# Poissons Ratio (z) = 0.54733 0.14824
#
# Static dielectric constant tensor:
#      x y z
#    x 1.626580 0.000000 0.048560 
#    y 0.000000 1.561730 0.000000 
#    z 0.048560 0.000000 1.545650 
# 
# From -- ./inp_files/71945.got.cif
#   From: 2010.05.17/outbox.cif.g08.bks.cpg/sg11_36_cif.got.tgz:71945.got - 2010.06.03 12:22:45.
