data_PCOD9158053
_publ_section_title
;
Structure prediction by ZEFSAII (Michael W. Deem and Ramdas Pophale) SiO2 
 PCOD9158053
Probable space group: P 21/M
;
_chemical_formula_sum "Si O2"
_cell_formula_units_Z 28
_cell_length_a 7.686844
_cell_length_b 17.400949
_cell_length_c 16.706614
_cell_angle_alpha 90.000000
_cell_angle_beta 34.212144
_cell_angle_gamma 90.000000
_cell_volume 1256.451123
_symmetry_space_group_name_H-M "P 21/M"
_symmetry_group_IT_number 11
_symmetry_cell_setting 'monoclinic'
loop_
_space_group_symop_operation_xyz
x,y,z
-x,1/2+y,-z
-x,-y,-z
x,1/2-y,z
loop_
_atom_site_type_symbol
_atom_site_label
_atom_site_fract_x
_atom_site_fract_y
_atom_site_fract_z
Si Si1 0.392138 0.073252 0.143342
Si Si2 0.703703 0.158458 0.658647
Si Si3 0.872524 0.341750 0.246143
Si Si4 0.259666 0.089450 0.555437
Si Si5 0.961495 0.445331 0.438762
Si Si6 0.802109 0.406172 0.854091
Si Si7 0.735488 0.660357 0.043962
O O1 0.154129 0.134247 0.196328
O O2 0.294678 0.072129 0.272797
O O3 0.301263 0.989219 0.142914
O O4 0.723788 0.091968 0.978065
O O5 0.692546 0.250000 0.662461
O O6 0.778312 0.126744 0.542541
O O7 0.396753 0.128280 0.822033
O O8 0.989294 0.130122 0.605100
O O9 0.837281 0.250000 0.255799
O O10 0.572086 0.378598 0.399713
O O11 0.979421 0.371477 0.117081
O O12 0.143709 0.106828 0.689770
O O13 0.227454 0.998182 0.551052
O O14 0.000000 0.500000 0.500000
O O15 0.559991 0.348426 0.903537
O O16 0.802573 0.750000 0.031331
#
# Coordination Sequence:
#
# PCOD9158053 Si02
#       7
#     4   4   4   4   4   4   4
#     4   9  17  30  48  69  93 119 147 187 234 276
#     4   9  16  29  49  67  87 121 161 194 223 266
#     4  10  19  30  47  72  97 118 146 191 243 284
#     4   9  17  30  48  70  94 120 152 191 234 279
#     4   9  18  30  46  69  95 121 155 191 222 265
#     4   8  15  28  47  68  89 116 152 189 228 271
#     4   8  15  28  46  68  92 119 153 191 229 269
#
# _framework density 22.284990000000001
#
# number of rings (size 3 to 8) (size 9 to 14) (size 15 to 20)
#    0.000    3.143    0.000    1.286    0.000    3.429 
#    0.000    0.714    0.000    3.429    0.000    0.000 
#    0.000    0.000    0.000    0.000    0.000    0.000 
#
# Total GULP energy -155895.869137 kJ/mol
# GULP energy per Si atom -5567.709612 kJ/mol
# Density = 2.223427 g / cm^3
# Si number density = 22.284990 Si / 1000 Ang^3
#
#
#
# Elastic Constant Matrix: (Units=GPa)
#
#
# Indices 1 2 3 4 5 6 
#
# 1 28.3436 -1.0183 34.6133 0.0000 2.8327 0.0000
# 2 -1.0183 67.0138 56.5626 0.0000 18.5828 0.0000
# 3 34.6133 56.5626 290.2358 0.0000 57.5009 0.0000
# 4 0.0000 0.0000 0.0000 28.7560 0.0000 3.9864
# 5 2.8327 18.5828 57.5009 0.0000 47.7548 0.0000
# 6 0.0000 0.0000 0.0000 3.9864 0.0000 14.0996
#
#
#
# Elastic Compliance Matrix: (Units=1/GPa)
#
#
# Indices 1 2 3 4 5 6 
#
# 1 0.043698 0.005571 -0.007031 0.000000 0.003707 0.000000
# 2 0.005571 0.019061 -0.003735 0.000000 -0.003250 0.000000
# 3 -0.007031 -0.003735 0.006095 0.000000 -0.005469 0.000000
# 4 0.000000 0.000000 0.000000 0.036194 0.000000 -0.010233
# 5 0.003707 -0.003250 -0.005469 0.000000 0.028570 0.000000
# 6 0.000000 0.000000 0.000000 -0.010233 0.000000 0.073817
#
#
# Mechanical properties :
#
#
# Convention : Reuss Voigt Hill
#
# Bulk Modulus (GPa) = 17.10480 62.87870 39.99175
# Shear Modulus (GPa) = 21.06910 37.81780 29.44345
#
# Velocity S-wave (km/s) = 3.07814 4.12394 3.63881
# Velocity P-wave (km/s) = 4.50837 7.13813 5.96985
#
# Compressibility (1/GPa) = 0.05846313
#
# Stress axis : x y z
#
# Youngs Moduli (GPa) = 22.88441 52.46348 164.05682
#
# Poissons Ratio (x) = -0.29228 1.15355
# Poissons Ratio (y) = -0.12749 0.61278
# Poissons Ratio (z) = 0.16091 0.19596
#
# Static dielectric constant tensor:
#      x y z
#    x 1.900160 0.000000 0.044800 
#    y 0.000000 1.841340 0.000000 
#    z 0.044800 0.000000 1.928800 
# 
# From -- ./inp_files/25272.got.cif
#   From: 2010.05.17/outbox.cif.g08.bks.cpg/sg11_13_cif.got.tgz:25272.got - 2010.06.03 12:22:45.
