data_PCOD9158350
_publ_section_title
;
Structure prediction by ZEFSAII (Michael W. Deem and Ramdas Pophale) SiO2 
 PCOD9158350
Probable space group: P 21/M
;
_chemical_formula_sum "Si O2"
_cell_formula_units_Z 32
_cell_length_a 21.702722
_cell_length_b 8.804513
_cell_length_c 12.922315
_cell_angle_alpha 90.000000
_cell_angle_beta 126.782530
_cell_angle_gamma 90.000000
_cell_volume 1977.633203
_symmetry_space_group_name_H-M "P 21/M"
_symmetry_group_IT_number 11
_symmetry_cell_setting 'monoclinic'
loop_
_space_group_symop_operation_xyz
x,y,z
-x,1/2+y,-z
-x,-y,-z
x,1/2-y,z
loop_
_atom_site_type_symbol
_atom_site_label
_atom_site_fract_x
_atom_site_fract_y
_atom_site_fract_z
Si Si1 0.003421 0.432018 0.618949
Si Si2 0.162260 0.931213 0.789528
Si Si3 0.402181 0.569278 0.506791
Si Si4 0.321829 0.068043 0.000146
Si Si5 0.418464 0.068238 0.301842
Si Si6 0.321505 0.070177 0.618339
Si Si7 0.167679 0.568983 0.547197
Si Si8 0.415190 0.931548 0.901944
O O1 0.010809 0.250000 0.620820
O O2 0.080156 0.503635 0.743666
O O3 0.000000 0.500000 0.500000
O O4 0.918776 0.466364 0.578755
O O5 0.164158 0.750000 0.803888
O O6 0.169889 0.962913 0.673217
O O7 0.234651 0.009314 0.916175
O O8 0.392354 0.750000 0.505949
O O9 0.491325 0.531820 0.623987
O O10 0.391506 0.516236 0.378095
O O11 0.347060 0.485161 0.531225
O O12 0.323433 0.250000 0.987745
O O13 0.363025 0.989834 0.944132
O O14 0.368768 0.030271 0.151242
O O15 0.413694 0.250000 0.314186
O O16 0.330065 0.250000 0.636812
O O17 0.234904 0.020815 0.558783
O O18 0.376457 0.988895 0.757334
O O19 0.180660 0.750000 0.548670
O O20 0.418491 0.750000 0.905192
O O21 0.500000 0.000000 0.000000
#
# Coordination Sequence:
#
# PCOD9158350 Si02
#       8
#     4   4   4   4   4   4   4   4
#     4   9  17  29  47  69  98 134 172 210 253 304
#     4  10  19  31  48  72 104 138 172 212 253 304
#     4  10  20  36  57  76 100 133 171 219 265 305
#     4  11  21  34  53  76 104 138 173 212 259 306
#     4   9  20  37  55  76 100 129 171 219 262 307
#     4  12  23  34  52  76 104 138 174 212 257 306
#     4   9  18  32  48  70 102 137 171 211 254 301
#     4  12  24  37  51  71 103 138 175 211 253 310
#
# _framework density 16.180959000000001
#
# number of rings (size 3 to 8) (size 9 to 14) (size 15 to 20)
#    0.000    1.750    1.250    5.250    0.000    5.000 
#    0.000    0.000    0.000    0.000    0.000    0.875 
#    0.000    0.000    0.000    0.000    0.000    0.000 
#
# Total GULP energy -178647.901035 kJ/mol
# GULP energy per Si atom -5582.746907 kJ/mol
# Density = 1.614413 g / cm^3
# Si number density = 16.180959 Si / 1000 Ang^3
#
#
#
# Elastic Constant Matrix: (Units=GPa)
#
#
# Indices 1 2 3 4 5 6 
#
# 1 73.4830 40.7523 13.4186 0.0000 6.9022 0.0000
# 2 40.7523 76.4073 16.5425 0.0000 -0.2795 0.0000
# 3 13.4186 16.5425 21.1290 0.0000 1.2731 0.0000
# 4 0.0000 0.0000 0.0000 24.2234 0.0000 4.6501
# 5 6.9022 -0.2795 1.2731 0.0000 20.6537 0.0000
# 6 0.0000 0.0000 0.0000 4.6501 0.0000 26.9276
#
#
#
# Elastic Compliance Matrix: (Units=1/GPa)
#
#
# Indices 1 2 3 4 5 6 
#
# 1 0.020679 -0.009992 -0.004903 0.000000 -0.006744 0.000000
# 2 -0.009992 0.020607 -0.010043 0.000000 0.004237 0.000000
# 3 -0.004903 -0.010043 0.058432 0.000000 -0.002099 0.000000
# 4 0.000000 0.000000 0.000000 0.042698 0.000000 -0.007373
# 5 -0.006744 0.004237 -0.002099 0.000000 0.050858 0.000000
# 6 0.000000 0.000000 0.000000 -0.007373 0.000000 0.038410
#
#
# Mechanical properties :
#
#
# Convention : Reuss Voigt Hill
#
# Bulk Modulus (GPa) = 20.06406 34.71623 27.39015
# Shear Modulus (GPa) = 16.76871 21.04801 18.90836
#
# Velocity S-wave (km/s) = 3.22269 3.61056 3.42212
# Velocity P-wave (km/s) = 5.12585 6.23563 5.70778
#
# Compressibility (1/GPa) = 0.04984036
#
# Stress axis : x y z
#
# Youngs Moduli (GPa) = 48.35835 48.52680 17.11397
#
# Poissons Ratio (x) = 0.48490 0.08391
# Poissons Ratio (y) = 0.48321 0.17188
# Poissons Ratio (z) = 0.23711 0.48737
#
# Static dielectric constant tensor:
#      x y z
#    x 1.537830 0.000000 0.018670 
#    y 0.000000 1.535970 0.000000 
#    z 0.018670 0.000000 1.510210 
# 
# From -- ./inp_files/42917.got.cif
#   From: 2010.05.17/outbox.cif.g08.bks.cpg/sg11_22_cif.got.tgz:42917.got - 2010.06.03 12:22:45.
