data_PCOD9158248
_publ_section_title
;
Structure prediction by ZEFSAII (Michael W. Deem and Ramdas Pophale) SiO2 
 PCOD9158248
Probable space group: P 21/M
;
_chemical_formula_sum "Si O2"
_cell_formula_units_Z 28
_cell_length_a 13.898420
_cell_length_b 9.025618
_cell_length_c 16.468132
_cell_angle_alpha 90.000000
_cell_angle_beta 65.417204
_cell_angle_gamma 90.000000
_cell_volume 1878.551364
_symmetry_space_group_name_H-M "P 21/M"
_symmetry_group_IT_number 11
_symmetry_cell_setting 'monoclinic'
loop_
_space_group_symop_operation_xyz
x,y,z
-x,1/2+y,-z
-x,-y,-z
x,1/2-y,z
loop_
_atom_site_type_symbol
_atom_site_label
_atom_site_fract_x
_atom_site_fract_y
_atom_site_fract_z
Si Si1 0.106883 0.426996 0.997318
Si Si2 0.373785 0.573303 0.456458
Si Si3 0.965365 0.426464 0.637283
Si Si4 0.206381 0.572191 0.817577
Si Si5 0.167672 0.073249 0.454674
Si Si6 0.013803 0.427101 0.196268
Si Si7 0.597218 0.427497 0.364619
O O1 0.102091 0.250000 0.989593
O O2 0.100404 0.459225 0.095613
O O3 0.196877 0.493969 0.908192
O O4 0.000000 0.500000 0.000000
O O5 0.369403 0.750000 0.448156
O O6 0.277512 0.497275 0.443816
O O7 0.487209 0.510749 0.388942
O O8 0.366692 0.539758 0.555615
O O9 0.950509 0.250000 0.641499
O O10 0.077971 0.459367 0.554256
O O11 0.966681 0.488116 0.727600
O O12 0.877100 0.503958 0.612549
O O13 0.204146 0.750000 0.829726
O O14 0.101476 0.534725 0.801424
O O15 0.310459 0.532107 0.730453
O O16 0.176825 0.250000 0.443908
O O17 0.013546 0.250000 0.211027
O O18 0.580098 0.250000 0.365882
#
# Coordination Sequence:
#
# PCOD9158248 Si02
#       7
#     4   4   4   4   4   4   4
#     4   9  17  28  42  62  89 119 150 183 221 265
#     4  10  19  31  47  66  90 119 152 188 220 258
#     4  10  20  31  46  68  89 115 152 186 218 262
#     4   9  17  29  45  65  91 122 152 183 221 264
#     4  10  20  33  47  64  90 120 148 183 225 264
#     4   9  17  29  44  64  92 122 148 180 224 265
#     4   9  18  31  46  66  92 121 151 183 223 265
#
# _framework density 14.905101999999999
#
# number of rings (size 3 to 8) (size 9 to 14) (size 15 to 20)
#    0.000    2.571    0.000    3.429    0.000    6.857 
#    0.000    0.000    0.000    0.000    0.000    1.000 
#    0.000    0.000    0.000    0.000    0.000    0.000 
#
# Total GULP energy -156073.137099 kJ/mol
# GULP energy per Si atom -5574.040611 kJ/mol
# Density = 1.487118 g / cm^3
# Si number density = 14.905102 Si / 1000 Ang^3
#
#
#
# Elastic Constant Matrix: (Units=GPa)
#
#
# Indices 1 2 3 4 5 6 
#
# 1 103.9086 51.3859 64.3008 0.0000 0.2579 0.0000
# 2 51.3859 50.3719 60.5350 0.0000 1.9228 0.0000
# 3 64.3008 60.5350 139.5274 0.0000 -2.7240 0.0000
# 4 0.0000 0.0000 0.0000 28.9465 0.0000 1.6386
# 5 0.2579 1.9228 -2.7240 0.0000 21.9686 0.0000
# 6 0.0000 0.0000 0.0000 1.6386 0.0000 24.4941
#
#
#
# Elastic Compliance Matrix: (Units=1/GPa)
#
#
# Indices 1 2 3 4 5 6 
#
# 1 0.019499 -0.019174 -0.000640 0.000000 0.001370 0.000000
# 2 -0.019174 0.061105 -0.017818 0.000000 -0.007333 0.000000
# 3 -0.000640 -0.017818 0.015260 0.000000 0.003459 0.000000
# 4 0.000000 0.000000 0.000000 0.034678 0.000000 -0.002320
# 5 0.001370 -0.007333 0.003459 0.000000 0.046574 0.000000
# 6 0.000000 0.000000 0.000000 -0.002320 0.000000 0.040981
#
#
# Mechanical properties :
#
#
# Convention : Reuss Voigt Hill
#
# Bulk Modulus (GPa) = 48.54487 71.80570 60.17529
# Shear Modulus (GPa) = 16.65402 22.92092 19.78747
#
# Velocity S-wave (km/s) = 3.34628 3.92572 3.64753
# Velocity P-wave (km/s) = 6.89711 8.29628 7.62884
#
# Compressibility (1/GPa) = 0.02059950
#
# Stress axis : x y z
#
# Youngs Moduli (GPa) = 51.28497 16.36533 65.53049
#
# Poissons Ratio (x) = 0.31379 0.04197
# Poissons Ratio (y) = 0.98334 1.16760
# Poissons Ratio (z) = 0.03285 0.29159
#
# Static dielectric constant tensor:
#      x y z
#    x 1.463850 0.000000 -0.010970 
#    y 0.000000 1.493740 0.000000 
#    z -0.010970 0.000000 1.505160 
# 
# From -- ./inp_files/37402.got.cif
#   From: 2010.05.17/outbox.cif.g08.bks.cpg/sg11_19_cif.got.tgz:37402.got - 2010.06.03 12:22:45.
