data_PCOD9158511
_publ_section_title
;
Structure prediction by ZEFSAII (Michael W. Deem and Ramdas Pophale) SiO2 
 PCOD9158511
Probable space group: P 21/M
;
_chemical_formula_sum "Si O2"
_cell_formula_units_Z 28
_cell_length_a 18.439793
_cell_length_b 8.971120
_cell_length_c 22.189465
_cell_angle_alpha 90.000000
_cell_angle_beta 154.235426
_cell_angle_gamma 90.000000
_cell_volume 1595.561509
_symmetry_space_group_name_H-M "P 21/M"
_symmetry_group_IT_number 11
_symmetry_cell_setting 'monoclinic'
loop_
_space_group_symop_operation_xyz
x,y,z
-x,1/2+y,-z
-x,-y,-z
x,1/2-y,z
loop_
_atom_site_type_symbol
_atom_site_label
_atom_site_fract_x
_atom_site_fract_y
_atom_site_fract_z
Si Si1 0.828360 0.426555 0.082008
Si Si2 0.267770 0.927185 0.209557
Si Si3 0.967280 0.572718 0.068025
Si Si4 0.107963 0.571250 0.527994
Si Si5 0.488695 0.925798 0.795042
Si Si6 0.413423 0.573473 0.597481
Si Si7 0.929971 0.572404 0.629936
O O1 0.837398 0.250000 0.077631
O O2 0.930274 0.510886 0.106107
O O3 0.913382 0.457381 0.209735
O O4 0.638657 0.481167 0.934906
O O5 0.287802 0.750000 0.216885
O O6 0.154242 0.954362 0.183510
O O7 0.446021 0.006412 0.340597
O O8 0.157715 0.992035 0.072084
O O9 0.935597 0.750000 0.041813
O O10 0.091490 0.750000 0.514987
O O11 0.305287 0.536761 0.682660
O O12 0.056483 0.506117 0.424573
O O13 0.000000 0.500000 0.500000
O O14 0.519748 0.750000 0.827930
O O15 0.478145 0.949095 0.714861
O O16 0.392542 0.750000 0.572782
O O17 0.236384 0.491403 0.462755
O O18 0.912648 0.750000 0.608754
#
# Coordination Sequence:
#
# PCOD9158511 Si02
#       7
#     4   4   4   4   4   4   4
#     4  11  22  35  54  81 111 146 186 226 274 325
#     4  10  19  31  50  76 105 141 185 233 280 324
#     4  10  20  32  49  75 108 144 183 230 280 327
#     4  10  21  39  63  89 113 142 178 219 267 322
#     4   9  19  34  55  82 110 140 179 222 266 321
#     4  10  19  33  54  80 106 141 187 232 276 326
#     4  10  22  38  56  81 113 146 182 225 270 325
#
# _framework density 17.548683
#
# number of rings (size 3 to 8) (size 9 to 14) (size 15 to 20)
#    0.000    2.000    1.429    3.429    0.000    6.857 
#    0.000    1.429    0.000    0.000    0.000    0.000 
#    0.000    0.000    0.000    0.000    0.000    0.000 
#
# Total GULP energy -156322.016161 kJ/mol
# GULP energy per Si atom -5582.929149 kJ/mol
# Density = 1.750874 g / cm^3
# Si number density = 17.548683 Si / 1000 Ang^3
#
#
#
# Elastic Constant Matrix: (Units=GPa)
#
#
# Indices 1 2 3 4 5 6 
#
# 1 106.6333 54.1421 46.3696 0.0000 19.3073 0.0000
# 2 54.1421 83.0188 59.1654 0.0000 7.0480 0.0000
# 3 46.3696 59.1654 83.4153 0.0000 5.1079 0.0000
# 4 0.0000 0.0000 0.0000 28.1593 0.0000 5.3869
# 5 19.3073 7.0480 5.1079 0.0000 20.4576 0.0000
# 6 0.0000 0.0000 0.0000 5.3869 0.0000 30.9540
#
#
#
# Elastic Compliance Matrix: (Units=1/GPa)
#
#
# Indices 1 2 3 4 5 6 
#
# 1 0.016954 -0.007730 -0.003173 0.000000 -0.012546 0.000000
# 2 -0.007730 0.028234 -0.015822 0.000000 0.001519 0.000000
# 3 -0.003173 -0.015822 0.024837 0.000000 0.002244 0.000000
# 4 0.000000 0.000000 0.000000 0.036735 0.000000 -0.006393
# 5 -0.012546 0.001519 0.002244 0.000000 0.059638 0.000000
# 6 0.000000 0.000000 0.000000 -0.006393 0.000000 0.033419
#
#
# Mechanical properties :
#
#
# Convention : Reuss Voigt Hill
#
# Bulk Modulus (GPa) = 60.33501 65.82462 63.07981
# Shear Modulus (GPa) = 19.32052 23.47354 21.39703
#
# Velocity S-wave (km/s) = 3.32168 3.66132 3.49563
# Velocity P-wave (km/s) = 7.01196 7.44747 7.23299
#
# Compressibility (1/GPa) = 0.01657413
#
# Stress axis : x y z
#
# Youngs Moduli (GPa) = 58.98139 35.41876 40.26271
#
# Poissons Ratio (x) = 0.27380 0.12777
# Poissons Ratio (y) = 0.45595 0.63702
# Poissons Ratio (z) = 0.18718 0.56038
#
# Static dielectric constant tensor:
#      x y z
#    x 1.586110 0.000000 0.013060 
#    y 0.000000 1.563610 0.000000 
#    z 0.013060 0.000000 1.588450 
# 
# From -- ./inp_files/69838.got.cif
#   From: 2010.05.17/outbox.cif.g08.bks.cpg/sg11_35_cif.got.tgz:69838.got - 2010.06.03 12:22:45.
