data_PCOD9158713
_publ_section_title
;
Structure prediction by ZEFSAII (Michael W. Deem and Ramdas Pophale) SiO2 
 PCOD9158713
Probable space group: P 21/M
;
_chemical_formula_sum "Si O2"
_cell_formula_units_Z 28
_cell_length_a 9.821768
_cell_length_b 8.692582
_cell_length_c 18.789171
_cell_angle_alpha 90.000000
_cell_angle_beta 95.894997
_cell_angle_gamma 90.000000
_cell_volume 1595.670998
_symmetry_space_group_name_H-M "P 21/M"
_symmetry_group_IT_number 11
_symmetry_cell_setting 'monoclinic'
loop_
_space_group_symop_operation_xyz
x,y,z
-x,1/2+y,-z
-x,-y,-z
x,1/2-y,z
loop_
_atom_site_type_symbol
_atom_site_label
_atom_site_fract_x
_atom_site_fract_y
_atom_site_fract_z
Si Si1 0.407094 0.565147 0.430812
Si Si2 0.153893 0.935351 0.505625
Si Si3 0.291671 0.937481 0.799771
Si Si4 0.072037 0.566274 0.898742
Si Si5 0.799135 0.429635 0.941303
Si Si6 0.360465 0.936086 0.644606
Si Si7 0.518582 0.931178 0.922758
O O1 0.500000 0.500000 0.500000
O O2 0.412807 0.750000 0.430996
O O3 0.250790 0.520554 0.443005
O O4 0.489620 0.500983 0.367614
O O5 0.144247 0.750000 0.505364
O O6 0.246131 0.980812 0.579470
O O7 0.000000 0.000000 0.500000
O O8 0.294619 0.750000 0.799126
O O9 0.151548 0.980012 0.831934
O O10 0.313407 0.987397 0.720217
O O11 0.412732 0.991320 0.858449
O O12 0.044133 0.750000 0.895876
O O13 0.934764 0.473995 0.906038
O O14 0.167716 0.540339 0.973379
O O15 0.766943 0.250000 0.932668
O O16 0.672574 0.529999 0.909496
O O17 0.369073 0.750000 0.643066
O O18 0.496517 0.750000 0.927369
O O19 0.500000 0.000000 0.000000
#
# Coordination Sequence:
#
# PCOD9158713 Si02
#       7
#     4   4   4   4   4   4   4
#     4   9  17  31  51  76 104 134 168 204 243 295
#     4   9  18  31  51  78 103 130 164 202 243 288
#     4   9  18  34  54  74 100 132 171 214 259 306
#     4   9  17  32  51  71  96 131 168 209 258 306
#     4  10  19  32  49  73  99 127 168 215 260 308
#     4   9  18  34  54  76 101 133 172 212 251 301
#     4  11  20  33  52  75  99 130 169 215 262 308
#
# _framework density 17.547478000000002
#
# number of rings (size 3 to 8) (size 9 to 14) (size 15 to 20)
#    0.000    2.571    1.429    2.143    0.000    3.429 
#    0.000    3.571    0.000    6.857    0.000    0.000 
#    0.000    0.000    0.000    0.000    0.000    0.000 
#
# Total GULP energy -155987.189602 kJ/mol
# GULP energy per Si atom -5570.971057 kJ/mol
# Density = 1.750754 g / cm^3
# Si number density = 17.547478 Si / 1000 Ang^3
#
#
#
# Elastic Constant Matrix: (Units=GPa)
#
#
# Indices 1 2 3 4 5 6 
#
# 1 111.7541 19.3970 52.7469 0.0000 -21.8335 0.0000
# 2 19.3970 17.8186 18.0465 0.0000 -3.6766 0.0000
# 3 52.7469 18.0465 104.3629 0.0000 -29.5121 0.0000
# 4 0.0000 0.0000 0.0000 18.6249 0.0000 -5.1517
# 5 -21.8335 -3.6766 -29.5121 0.0000 29.5910 0.0000
# 6 0.0000 0.0000 0.0000 -5.1517 0.0000 31.5719
#
#
#
# Elastic Compliance Matrix: (Units=1/GPa)
#
#
# Indices 1 2 3 4 5 6 
#
# 1 0.013344 -0.009815 -0.003632 0.000000 0.005004 0.000000
# 2 -0.009815 0.075702 -0.010471 0.000000 -0.008279 0.000000
# 3 -0.003632 -0.010471 0.016857 0.000000 0.012831 0.000000
# 4 0.000000 0.000000 0.000000 0.056229 0.000000 0.009175
# 5 0.005004 -0.008279 0.012831 0.000000 0.049254 0.000000
# 6 0.000000 0.000000 0.000000 0.009175 0.000000 0.033171
#
#
# Mechanical properties :
#
#
# Convention : Reuss Voigt Hill
#
# Bulk Modulus (GPa) = 17.22156 46.03515 31.62836
# Shear Modulus (GPa) = 16.03861 25.54056 20.78958
#
# Velocity S-wave (km/s) = 3.02654 3.81926 3.44577
# Velocity P-wave (km/s) = 4.69562 6.76317 5.82191
#
# Compressibility (1/GPa) = 0.05806674
#
# Stress axis : x y z
#
# Youngs Moduli (GPa) = 74.94245 13.20968 59.32383
#
# Poissons Ratio (x) = 0.12965 0.21546
# Poissons Ratio (y) = 0.73554 0.62119
# Poissons Ratio (z) = 0.27219 0.13832
#
# Static dielectric constant tensor:
#      x y z
#    x 1.618380 0.000000 -0.022460 
#    y 0.000000 1.611310 0.000000 
#    z -0.022460 0.000000 1.616720 
# 
# From -- ./inp_files/25565.got.cif
#   From: 2010.05.17/outbox.cif.g08.bks.cpg/sg11_13_cif.got.tgz:25565.got - 2010.06.03 12:22:45.
