data_PCOD9158778
_publ_section_title
;
Structure prediction by ZEFSAII (Michael W. Deem and Ramdas Pophale) SiO2 
 PCOD9158778
Probable space group: P 21/M
;
_chemical_formula_sum "Si O2"
_cell_formula_units_Z 32
_cell_length_a 17.257684
_cell_length_b 8.549979
_cell_length_c 26.390766
_cell_angle_alpha 90.000000
_cell_angle_beta 153.414132
_cell_angle_gamma 90.000000
_cell_volume 1742.729523
_symmetry_space_group_name_H-M "P 21/M"
_symmetry_group_IT_number 11
_symmetry_cell_setting 'monoclinic'
loop_
_space_group_symop_operation_xyz
x,y,z
-x,1/2+y,-z
-x,-y,-z
x,1/2-y,z
loop_
_atom_site_type_symbol
_atom_site_label
_atom_site_fract_x
_atom_site_fract_y
_atom_site_fract_z
Si Si1 0.586070 0.928827 0.000979
Si Si2 0.425752 0.062119 0.650896
Si Si3 0.145946 0.935206 0.919161
Si Si4 0.407198 0.061199 0.155848
Si Si5 0.552553 0.437239 0.450200
Si Si6 0.058312 0.061612 0.479179
Si Si7 0.232196 0.937792 0.328047
Si Si8 0.304109 0.569783 0.748768
O O1 0.642532 0.750000 0.042542
O O2 0.739581 0.021771 0.063371
O O3 0.431821 0.929267 0.870159
O O4 0.500000 0.000000 0.000000
O O5 0.431962 0.250000 0.657003
O O6 0.238967 0.002744 0.562733
O O7 0.572353 0.995315 0.774611
O O8 0.440077 0.010196 0.601174
O O9 0.136897 0.750000 0.919799
O O10 0.955750 0.003822 0.798657
O O11 0.247362 0.004406 0.027607
O O12 0.406701 0.250000 0.153809
O O13 0.581795 0.996324 0.229567
O O14 0.552672 0.250000 0.445708
O O15 0.709252 0.482388 0.580300
O O16 0.378525 0.491875 0.376881
O O17 0.076763 0.250000 0.491203
O O18 0.885800 0.011862 0.347593
O O19 0.000000 0.000000 0.500000
O O20 0.238043 0.750000 0.328368
O O21 0.276243 0.750000 0.716403
#
# Coordination Sequence:
#
# PCOD9158778 Si02
#       8
#     4   4   4   4   4   4   4   4
#     4  10  20  35  53  78 112 151 192 237 286 336
#     4  11  22  34  54  86 122 155 194 242 292 348
#     4  11  22  37  60  87 115 151 194 238 290 351
#     4  10  19  35  57  79 112 154 195 238 285 341
#     4  10  22  40  63  89 117 152 189 234 292 349
#     4  10  19  32  50  76 107 145 189 232 276 329
#     4  10  21  41  66  90 117 147 190 239 290 352
#     4   8  16  31  50  71 102 144 186 227 277 330
#
# _framework density 18.361999999999998
#
# number of rings (size 3 to 8) (size 9 to 14) (size 15 to 20)
#    0.000    2.000    1.250    3.750    0.000    3.000 
#    0.000    2.500    0.000    0.000    0.000    0.000 
#    0.000    0.000    0.000    0.000    0.000    0.000 
#
# Total GULP energy -178329.679524 kJ/mol
# GULP energy per Si atom -5572.802485 kJ/mol
# Density = 1.832021 g / cm^3
# Si number density = 18.362000 Si / 1000 Ang^3
#
#
#
# Elastic Constant Matrix: (Units=GPa)
#
#
# Indices 1 2 3 4 5 6 
#
# 1 93.9571 17.8658 51.0363 0.0000 -19.9705 0.0000
# 2 17.8658 56.3396 26.7618 0.0000 -8.0270 0.0000
# 3 51.0363 26.7618 127.6692 0.0000 1.4612 0.0000
# 4 0.0000 0.0000 0.0000 25.0124 0.0000 -1.9610
# 5 -19.9705 -8.0270 1.4612 0.0000 21.4215 0.0000
# 6 0.0000 0.0000 0.0000 -1.9610 0.0000 31.1552
#
#
#
# Elastic Compliance Matrix: (Units=1/GPa)
#
#
# Indices 1 2 3 4 5 6 
#
# 1 0.018587 0.000327 -0.007704 0.000000 0.017976 0.000000
# 2 0.000327 0.021065 -0.004644 0.000000 0.008515 0.000000
# 3 -0.007704 -0.004644 0.011997 0.000000 -0.009741 0.000000
# 4 0.000000 0.000000 0.000000 0.040178 0.000000 0.002529
# 5 0.017976 0.008515 -0.009741 0.000000 0.067295 0.000000
# 6 0.000000 0.000000 0.000000 0.002529 0.000000 0.032257
#
#
# Mechanical properties :
#
#
# Convention : Reuss Voigt Hill
#
# Bulk Modulus (GPa) = 36.22346 52.14377 44.18361
# Shear Modulus (GPa) = 22.25949 27.67130 24.96540
#
# Velocity S-wave (km/s) = 3.48553 3.88621 3.69131
# Velocity P-wave (km/s) = 5.99740 6.97109 6.50249
#
# Compressibility (1/GPa) = 0.02760642
#
# Stress axis : x y z
#
# Youngs Moduli (GPa) = 53.80225 47.47256 83.35115
#
# Poissons Ratio (x) = -0.01551 0.64216
# Poissons Ratio (y) = -0.01758 0.38705
# Poissons Ratio (z) = 0.41451 0.22044
#
# Static dielectric constant tensor:
#      x y z
#    x 1.638040 0.000000 -0.014950 
#    y 0.000000 1.644690 0.000000 
#    z -0.014950 0.000000 1.682870 
# 
# From -- ./inp_files/69147.got.cif
#   From: 2010.05.17/outbox.cif.g08.bks.cpg/sg11_35_cif.got.tgz:69147.got - 2010.06.03 12:22:45.
