data_PCOD9158585
_publ_section_title
;
Structure prediction by ZEFSAII (Michael W. Deem and Ramdas Pophale) SiO2 
 PCOD9158585
Probable space group: P 21/M
;
_chemical_formula_sum "Si O2"
_cell_formula_units_Z 32
_cell_length_a 22.664266
_cell_length_b 8.491700
_cell_length_c 29.180135
_cell_angle_alpha 90.000000
_cell_angle_beta 161.319027
_cell_angle_gamma 90.000000
_cell_volume 1798.781425
_symmetry_space_group_name_H-M "P 21/M"
_symmetry_group_IT_number 11
_symmetry_cell_setting 'monoclinic'
loop_
_space_group_symop_operation_xyz
x,y,z
-x,1/2+y,-z
-x,-y,-z
x,1/2-y,z
loop_
_atom_site_type_symbol
_atom_site_label
_atom_site_fract_x
_atom_site_fract_y
_atom_site_fract_z
Si Si1 0.804115 0.940308 0.338916
Si Si2 0.125061 0.558591 0.949608
Si Si3 0.702232 0.940024 0.161625
Si Si4 0.419566 0.559236 0.094835
Si Si5 0.945504 0.559408 0.910081
Si Si6 0.540173 0.562049 0.580421
Si Si7 0.125095 0.438843 0.804791
Si Si8 0.169753 0.061801 0.344893
O O1 0.806851 0.750000 0.341066
O O2 0.763050 0.993834 0.256656
O O3 0.629708 0.991155 0.241698
O O4 0.000000 0.000000 0.500000
O O5 0.126364 0.750000 0.951175
O O6 0.080667 0.505711 0.968313
O O7 0.957404 0.512362 0.792250
O O8 0.313156 0.507953 0.062768
O O9 0.696049 0.750000 0.157928
O O10 0.837684 0.987771 0.220052
O O11 0.500000 0.000000 0.000000
O O12 0.414797 0.750000 0.090045
O O13 0.294487 0.499438 0.960691
O O14 0.947810 0.750000 0.912203
O O15 0.739009 0.507503 0.744602
O O16 0.000000 0.500000 0.000000
O O17 0.500000 0.500000 0.500000
O O18 0.545287 0.750000 0.582105
O O19 0.371725 0.507905 0.488067
O O20 0.120313 0.250000 0.803715
O O21 0.941315 0.506920 0.692298
O O22 0.180207 0.250000 0.351670
#
# Coordination Sequence:
#
# PCOD9158585 Si02
#       8
#     4   4   4   4   4   4   4   4
#     4  10  21  36  53  78 109 145 184 225 273 325
#     4   8  15  31  53  76 103 135 172 221 269 315
#     4  10  20  34  54  80 110 141 178 223 274 324
#     4   9  17  32  55  77 103 139 179 222 271 324
#     4  10  21  37  54  78 111 145 181 223 272 326
#     4  11  21  35  56  83 113 143 182 228 277 327
#     4  10  19  31  51  82 113 140 175 225 278 326
#     4  10  19  34  55  80 110 144 182 226 277 326
#
# _framework density 17.789821
#
# number of rings (size 3 to 8) (size 9 to 14) (size 15 to 20)
#    0.000    2.250    2.500    1.875    0.000    2.500 
#    0.000    1.875    0.000    3.000    0.000    0.000 
#    0.000    0.000    0.000    0.000    0.000    0.000 
#
# Total GULP energy -178492.091500 kJ/mol
# GULP energy per Si atom -5577.877859 kJ/mol
# Density = 1.774933 g / cm^3
# Si number density = 17.789821 Si / 1000 Ang^3
#
#
#
# Elastic Constant Matrix: (Units=GPa)
#
#
# Indices 1 2 3 4 5 6 
#
# 1 176.4402 23.5541 93.7849 0.0000 13.6687 0.0000
# 2 23.5541 14.4214 20.3373 0.0000 3.6745 0.0000
# 3 93.7849 20.3373 132.5986 0.0000 13.2947 0.0000
# 4 0.0000 0.0000 0.0000 27.5383 0.0000 0.9177
# 5 13.6687 3.6745 13.2947 0.0000 29.9371 0.0000
# 6 0.0000 0.0000 0.0000 0.9177 0.0000 24.5985
#
#
#
# Elastic Compliance Matrix: (Units=1/GPa)
#
#
# Indices 1 2 3 4 5 6 
#
# 1 0.009769 -0.007780 -0.005615 0.000000 -0.001012 0.000000
# 2 -0.007780 0.095412 -0.008701 0.000000 -0.004295 0.000000
# 3 -0.005615 -0.008701 0.013065 0.000000 -0.002170 0.000000
# 4 0.000000 0.000000 0.000000 0.036358 0.000000 -0.001356
# 5 -0.001012 -0.004295 -0.002170 0.000000 0.035356 0.000000
# 6 0.000000 0.000000 0.000000 -0.001356 0.000000 0.040704
#
#
# Mechanical properties :
#
#
# Convention : Reuss Voigt Hill
#
# Bulk Modulus (GPa) = 13.50333 66.53475 40.01904
# Shear Modulus (GPa) = 16.69223 28.80036 22.74629
#
# Velocity S-wave (km/s) = 3.06649 4.02795 3.57965
# Velocity P-wave (km/s) = 4.48830 7.68857 6.29520
#
# Compressibility (1/GPa) = 0.07405579
#
# Stress axis : x y z
#
# Youngs Moduli (GPa) = 102.36329 10.48082 76.54056
#
# Poissons Ratio (x) = 0.08154 0.42977
# Poissons Ratio (y) = 0.79635 0.66596
# Poissons Ratio (z) = 0.57476 0.09119
#
# Static dielectric constant tensor:
#      x y z
#    x 1.629250 0.000000 0.024330 
#    y 0.000000 1.597760 0.000000 
#    z 0.024330 0.000000 1.577370 
# 
# From -- ./inp_files/72069.got.cif
#   From: 2010.05.17/outbox.cif.g08.bks.cpg/sg11_37_cif.got.tgz:72069.got - 2010.06.03 12:22:45.
