data_PCOD9158908
_publ_section_title
;
Structure prediction by ZEFSAII (Michael W. Deem and Ramdas Pophale) SiO2 
 PCOD9158908
Probable space group: P 21/M
;
_chemical_formula_sum "Si O2"
_cell_formula_units_Z 32
_cell_length_a 22.143491
_cell_length_b 8.988652
_cell_length_c 22.068359
_cell_angle_alpha 90.000000
_cell_angle_beta 25.118590
_cell_angle_gamma 90.000000
_cell_volume 1864.581854
_symmetry_space_group_name_H-M "P 21/M"
_symmetry_group_IT_number 11
_symmetry_cell_setting 'monoclinic'
loop_
_space_group_symop_operation_xyz
x,y,z
-x,1/2+y,-z
-x,-y,-z
x,1/2-y,z
loop_
_atom_site_type_symbol
_atom_site_label
_atom_site_fract_x
_atom_site_fract_y
_atom_site_fract_z
Si Si1 0.240457 0.426866 0.433645
Si Si2 0.691639 0.571731 0.871913
Si Si3 0.944610 0.572030 0.111854
Si Si4 0.995864 0.573507 0.820929
Si Si5 0.704812 0.927868 0.484070
Si Si6 0.385283 0.426915 0.560958
Si Si7 0.938420 0.929172 0.741571
Si Si8 0.633240 0.072533 0.800759
O O1 0.233234 0.250000 0.431262
O O2 0.330492 0.455056 0.413758
O O3 0.305760 0.503686 0.315801
O O4 0.082745 0.489925 0.589986
O O5 0.697128 0.750000 0.857831
O O6 0.810859 0.531082 0.812502
O O7 0.709359 0.492388 0.791302
O O8 0.533979 0.534829 0.039544
O O9 0.955351 0.750000 0.099947
O O10 0.029853 0.510855 0.092861
O O11 0.777369 0.532930 0.273501
O O12 0.000000 0.500000 0.000000
O O13 0.989303 0.750000 0.837107
O O14 0.154582 0.522889 0.657541
O O15 0.907378 0.535870 0.840581
O O16 0.739327 0.750000 0.447245
O O17 0.598599 0.962737 0.525451
O O18 0.500000 0.500000 0.500000
O O19 0.397657 0.250000 0.556057
O O20 0.960906 0.750000 0.718149
O O21 0.647610 0.250000 0.786456
#
# Coordination Sequence:
#
# PCOD9158908 Si02
#       8
#     4   4   4   4   4   4   4   4
#     4  10  19  32  52  75  99 128 162 201 243 286
#     4   9  19  36  54  71  96 131 165 198 241 291
#     4  10  20  34  51  72  99 131 166 203 242 287
#     4   9  16  28  49  74  98 126 159 197 244 293
#     4   8  16  31  48  68  97 130 163 199 238 284
#     4   9  18  32  50  72  98 127 161 200 241 286
#     4   9  18  33  53  76 100 125 159 203 245 287
#     4  10  20  34  52  73  98 129 164 200 240 289
#
# _framework density 17.162023999999999
#
# number of rings (size 3 to 8) (size 9 to 14) (size 15 to 20)
#    0.000    2.750    0.000    2.250    0.000    5.000 
#    0.000    1.250    0.000    4.500    0.000    0.000 
#    0.000    0.000    0.000    0.000    0.000    0.000 
#
# Total GULP energy -178251.497403 kJ/mol
# GULP energy per Si atom -5570.359294 kJ/mol
# Density = 1.712296 g / cm^3
# Si number density = 17.162024 Si / 1000 Ang^3
#
#
#
# Elastic Constant Matrix: (Units=GPa)
#
#
# Indices 1 2 3 4 5 6 
#
# 1 201.7823 62.6289 70.5073 0.0000 20.0616 0.0000
# 2 62.6289 40.0652 33.4382 0.0000 13.2314 0.0000
# 3 70.5073 33.4382 54.2072 0.0000 23.8548 0.0000
# 4 0.0000 0.0000 0.0000 20.7819 0.0000 1.5415
# 5 20.0616 13.2314 23.8548 0.0000 32.1524 0.0000
# 6 0.0000 0.0000 0.0000 1.5415 0.0000 29.3637
#
#
#
# Elastic Compliance Matrix: (Units=1/GPa)
#
#
# Indices 1 2 3 4 5 6 
#
# 1 0.011489 -0.010923 -0.010437 0.000000 0.005070 0.000000
# 2 -0.010923 0.062100 -0.023537 0.000000 -0.001277 0.000000
# 3 -0.010437 -0.023537 0.058521 0.000000 -0.027220 0.000000
# 4 0.000000 0.000000 0.000000 0.048307 0.000000 -0.002536
# 5 0.005070 -0.001277 -0.027220 0.000000 0.048659 0.000000
# 6 0.000000 0.000000 0.000000 -0.002536 0.000000 0.034189
#
#
# Mechanical properties :
#
#
# Convention : Reuss Voigt Hill
#
# Bulk Modulus (GPa) = 23.63216 69.91150 46.77183
# Shear Modulus (GPa) = 13.61794 25.09164 19.35479
#
# Velocity S-wave (km/s) = 2.81996 3.82782 3.36187
# Velocity P-wave (km/s) = 4.93992 7.76922 6.51013
#
# Compressibility (1/GPa) = 0.04231521
#
# Stress axis : x y z
#
# Youngs Moduli (GPa) = 87.04087 16.10317 17.08802
#
# Poissons Ratio (x) = 0.17589 0.17834
# Poissons Ratio (y) = 0.95075 0.40220
# Poissons Ratio (z) = 0.90842 0.37902
#
# Static dielectric constant tensor:
#      x y z
#    x 1.612440 0.000000 0.009000 
#    y 0.000000 1.571890 0.000000 
#    z 0.009000 0.000000 1.559860 
# 
# From -- ./inp_files/66406.got.cif
#   From: 2010.05.17/outbox.cif.g08.bks.cpg/sg11_34_cif.got.tgz:66406.got - 2010.06.03 12:22:45.
