data_PCOD9158156
_publ_section_title
;
Structure prediction by ZEFSAII (Michael W. Deem and Ramdas Pophale) SiO2 
 PCOD9158156
Probable space group: P 21/M
;
_chemical_formula_sum "Si O2"
_cell_formula_units_Z 28
_cell_length_a 14.538647
_cell_length_b 7.708081
_cell_length_c 12.157907
_cell_angle_alpha 90.000000
_cell_angle_beta 69.610418
_cell_angle_gamma 90.000000
_cell_volume 1277.111189
_symmetry_space_group_name_H-M "P 21/M"
_symmetry_group_IT_number 11
_symmetry_cell_setting 'monoclinic'
loop_
_space_group_symop_operation_xyz
x,y,z
-x,1/2+y,-z
-x,-y,-z
x,1/2-y,z
loop_
_atom_site_type_symbol
_atom_site_label
_atom_site_fract_x
_atom_site_fract_y
_atom_site_fract_z
Si Si1 0.996940 0.957000 0.129247
Si Si2 0.193046 0.036439 0.662954
Si Si3 0.493053 0.543911 0.133154
Si Si4 0.664094 0.948447 0.217775
Si Si5 0.793828 0.049683 0.972016
Si Si6 0.721660 0.956254 0.779876
Si Si7 0.116362 0.458611 0.457455
O O1 0.993572 0.750000 0.146961
O O2 0.902211 0.026182 0.229380
O O3 0.104088 0.019239 0.120788
O O4 0.000000 0.000000 0.000000
O O5 0.195976 0.250000 0.663864
O O6 0.289975 0.976688 0.688785
O O7 0.168965 0.983859 0.548663
O O8 0.504920 0.750000 0.131175
O O9 0.576818 0.470224 0.180847
O O10 0.385867 0.493483 0.222633
O O11 0.500000 0.500000 0.000000
O O12 0.636202 0.750000 0.254462
O O13 0.754680 0.948949 0.093338
O O14 0.806209 0.250000 0.000571
O O15 0.720902 0.038419 0.900983
O O16 0.731172 0.750000 0.789284
O O17 0.813552 0.022670 0.670242
O O18 0.121330 0.250000 0.453996
O O19 0.000000 0.500000 0.500000
#
# Coordination Sequence:
#
# PCOD9158156 Si02
#       7
#     4   4   4   4   4   4   4
#     4  10  19  30  49  78 110 144 180 224 283 347
#     4   9  18  36  58  79 111 153 191 234 289 349
#     4  11  22  36  58  88 119 153 194 245 297 350
#     4  10  20  35  57  82 112 149 188 233 292 355
#     4  11  21  32  52  83 116 149 188 239 291 343
#     4  11  23  38  58  84 115 156 199 240 292 351
#     4  10  22  41  64  87 115 154 200 243 289 346
#
# _framework density 21.924481
#
# number of rings (size 3 to 8) (size 9 to 14) (size 15 to 20)
#    0.000    1.714    2.857    2.143    0.000    3.429 
#    0.000    2.143    0.000    0.000    0.000    0.000 
#    0.000    0.000    0.000    0.000    0.000    0.000 
#
# Total GULP energy -156170.812595 kJ/mol
# GULP energy per Si atom -5577.529021 kJ/mol
# Density = 2.187458 g / cm^3
# Si number density = 21.924481 Si / 1000 Ang^3
#
#
#
# Elastic Constant Matrix: (Units=GPa)
#
#
# Indices 1 2 3 4 5 6 
#
# 1 146.4938 -1.7810 35.2714 0.0000 15.8588 0.0000
# 2 -1.7810 44.7319 -8.0024 0.0000 1.3573 0.0000
# 3 35.2714 -8.0024 80.1524 0.0000 17.6684 0.0000
# 4 0.0000 0.0000 0.0000 12.8759 0.0000 -2.7103
# 5 15.8588 1.3573 17.6684 0.0000 37.4141 0.0000
# 6 0.0000 0.0000 0.0000 -2.7103 0.0000 20.8976
#
#
#
# Elastic Compliance Matrix: (Units=1/GPa)
#
#
# Indices 1 2 3 4 5 6 
#
# 1 0.007752 -0.000175 -0.003020 0.000000 -0.001853 0.000000
# 2 -0.000175 0.022918 0.002826 0.000000 -0.002092 0.000000
# 3 -0.003020 0.002826 0.015435 0.000000 -0.006111 0.000000
# 4 0.000000 0.000000 0.000000 0.079844 0.000000 0.010355
# 5 -0.001853 -0.002092 -0.006111 0.000000 0.030475 0.000000
# 6 0.000000 0.000000 0.000000 0.010355 0.000000 0.049195
#
#
# Mechanical properties :
#
#
# Convention : Reuss Voigt Hill
#
# Bulk Modulus (GPa) = 22.04325 35.81714 28.93019
# Shear Modulus (GPa) = 22.57548 30.63020 26.60284
#
# Velocity S-wave (km/s) = 3.21236 3.74180 3.48715
# Velocity P-wave (km/s) = 4.88211 5.91948 5.42564
#
# Compressibility (1/GPa) = 0.04536537
#
# Stress axis : x y z
#
# Youngs Moduli (GPa) = 129.00058 43.63470 64.78948
#
# Poissons Ratio (x) = 0.00766 0.19568
# Poissons Ratio (y) = 0.02263 -0.18312
# Poissons Ratio (z) = 0.38962 -0.12333
#
# Static dielectric constant tensor:
#      x y z
#    x 1.918760 0.000000 0.015030 
#    y 0.000000 1.801580 0.000000 
#    z 0.015030 0.000000 1.775210 
# 
# From -- ./inp_files/37428.got.cif
#   From: 2010.05.17/outbox.cif.g08.bks.cpg/sg11_19_cif.got.tgz:37428.got - 2010.06.03 12:22:45.
