data_PCOD9158632
_publ_section_title
;
Structure prediction by ZEFSAII (Michael W. Deem and Ramdas Pophale) SiO2 
 PCOD9158632
Probable space group: P 21/M
;
_chemical_formula_sum "Si O2"
_cell_formula_units_Z 32
_cell_length_a 7.273304
_cell_length_b 14.174068
_cell_length_c 18.272960
_cell_angle_alpha 90.000000
_cell_angle_beta 45.271660
_cell_angle_gamma 90.000000
_cell_volume 1338.349597
_symmetry_space_group_name_H-M "P 21/M"
_symmetry_group_IT_number 11
_symmetry_cell_setting 'monoclinic'
loop_
_space_group_symop_operation_xyz
x,y,z
-x,1/2+y,-z
-x,-y,-z
x,1/2-y,z
loop_
_atom_site_type_symbol
_atom_site_label
_atom_site_fract_x
_atom_site_fract_y
_atom_site_fract_z
Si Si1 0.030131 0.350349 0.322138
Si Si2 0.797686 0.139878 0.125911
Si Si3 0.060782 0.575757 0.346917
Si Si4 0.143078 0.360470 0.899699
Si Si5 0.549629 0.517376 0.275844
Si Si6 0.520382 0.584383 0.551736
Si Si7 0.286835 0.387215 0.098632
Si Si8 0.622504 0.100714 0.876985
O O1 0.085001 0.250000 0.347871
O O2 0.724275 0.348882 0.388135
O O3 0.045090 0.459356 0.347893
O O4 0.200135 0.345829 0.200527
O O5 0.732699 0.250000 0.146127
O O6 0.575171 0.069595 0.212066
O O7 0.035367 0.123886 0.116169
O O8 0.894843 0.114260 0.017612
O O9 0.311960 0.586681 0.327333
O O10 0.133407 0.616303 0.246082
O O11 0.808596 0.620168 0.454284
O O12 0.138334 0.250000 0.885439
O O13 0.193865 0.422228 0.813976
O O14 0.382536 0.381750 0.888190
O O15 0.514133 0.467235 0.361733
O O16 0.500000 0.500000 0.500000
O O17 0.344784 0.493832 0.106180
O O18 0.524882 0.352147 0.980473
#
# Coordination Sequence:
#
# PCOD9158632 Si02
#       8
#     4   4   4   4   4   4   4   4
#     4  10  19  34  56  83 111 145 189 244 295 342
#     4  10  19  31  54  88 120 150 189 239 293 357
#     4   9  20  36  54  79 111 151 190 236 288 350
#     4   9  19  35  54  81 117 155 197 239 288 353
#     4  11  20  35  58  84 114 157 196 239 298 345
#     4  10  21  37  56  80 111 150 198 242 286 346
#     4   9  15  28  51  82 111 143 184 227 287 347
#     4   8  16  30  52  78 110 147 183 231 286 343
#
# _framework density 23.910046000000001
#
# number of rings (size 3 to 8) (size 9 to 14) (size 15 to 20)
#    0.000    2.500    1.250    1.125    0.000    1.000 
#    0.000    5.000    0.000    3.750    0.000    1.750 
#    0.000    0.000    0.000    0.000    0.000    0.000 
#
# Total GULP energy -178385.068876 kJ/mol
# GULP energy per Si atom -5574.533402 kJ/mol
# Density = 2.385563 g / cm^3
# Si number density = 23.910046 Si / 1000 Ang^3
#
#
#
# Elastic Constant Matrix: (Units=GPa)
#
#
# Indices 1 2 3 4 5 6 
#
# 1 40.4267 4.7103 18.4360 0.0000 0.8809 0.0000
# 2 4.7103 70.8962 47.2368 0.0000 -13.8733 0.0000
# 3 18.4360 47.2368 170.4656 0.0000 -2.7004 0.0000
# 4 0.0000 0.0000 0.0000 -43.8739 0.0000 5.1544
# 5 0.8809 -13.8733 -2.7004 0.0000 16.1386 0.0000
# 6 0.0000 0.0000 0.0000 5.1544 0.0000 12.1278
#
#
#
# Elastic Compliance Matrix: (Units=1/GPa)
#
#
# Indices 1 2 3 4 5 6 
#
# 1 0.026082 -0.000309 -0.002769 0.000000 -0.002153 0.000000
# 2 -0.000309 0.021233 -0.005576 0.000000 0.017337 0.000000
# 3 -0.002769 -0.005576 0.007658 0.000000 -0.003361 0.000000
# 4 0.000000 0.000000 0.000000 -0.021709 0.000000 0.009226
# 5 -0.002153 0.017337 -0.003361 0.000000 0.076422 0.000000
# 6 0.000000 0.000000 0.000000 0.009226 0.000000 0.078534
#
#
# Mechanical properties :
#
#
# Convention : Reuss Voigt Hill
#
# Bulk Modulus (GPa) = 26.55005 46.95052 36.75029
# Shear Modulus (GPa) = 22.92705 10.97219 16.94962
#
# Velocity S-wave (km/s) = 3.09995 2.14451 2.66539
# Velocity P-wave (km/s) = 4.89297 5.08044 4.98758
#
# Compressibility (1/GPa) = 0.03766471
#
# Stress axis : x y z
#
# Youngs Moduli (GPa) = 38.34076 47.09597 130.58896
#
# Poissons Ratio (x) = 0.01455 0.36163
# Poissons Ratio (y) = 0.01185 0.72813
# Poissons Ratio (z) = 0.10618 0.26260
#
# Static dielectric constant tensor:
#      x y z
#    x 1.956780 0.000000 -0.083910 
#    y 0.000000 1.914590 0.000000 
#    z -0.083910 0.000000 1.927380 
# 
# From -- ./inp_files/47595.got.cif
#   From: 2010.05.17/outbox.cif.g08.bks.cpg/sg11_24_cif.got.tgz:47595.got - 2010.06.03 12:22:45.
