data_PCOD9158911
_publ_section_title
;
Structure prediction by ZEFSAII (Michael W. Deem and Ramdas Pophale) SiO2 
 PCOD9158911
Probable space group: P 21/M
;
_chemical_formula_sum "Si O2"
_cell_formula_units_Z 32
_cell_length_a 14.531682
_cell_length_b 7.797928
_cell_length_c 14.312897
_cell_angle_alpha 90.000000
_cell_angle_beta 120.334630
_cell_angle_gamma 90.000000
_cell_volume 1399.841824
_symmetry_space_group_name_H-M "P 21/M"
_symmetry_group_IT_number 11
_symmetry_cell_setting 'monoclinic'
loop_
_space_group_symop_operation_xyz
x,y,z
-x,1/2+y,-z
-x,-y,-z
x,1/2-y,z
loop_
_atom_site_type_symbol
_atom_site_label
_atom_site_fract_x
_atom_site_fract_y
_atom_site_fract_z
Si Si1 0.694152 0.046823 0.997697
Si Si2 0.161086 0.960636 0.272238
Si Si3 0.348776 0.539445 0.232273
Si Si4 0.421036 0.051590 0.669056
Si Si5 0.188703 0.946010 0.496389
Si Si6 0.381531 0.945957 0.848886
Si Si7 0.850115 0.550703 0.325673
Si Si8 0.931990 0.544581 0.176261
O O1 0.672569 0.250000 0.986556
O O2 0.624741 0.977622 0.049672
O O3 0.819901 0.024164 0.082368
O O4 0.672131 0.977693 0.883779
O O5 0.163667 0.750000 0.273290
O O6 0.255486 0.017829 0.253187
O O7 0.178182 0.018948 0.387481
O O8 0.040999 0.014939 0.184405
O O9 0.347914 0.750000 0.230542
O O10 0.469197 0.489159 0.319977
O O11 0.402813 0.250000 0.636036
O O12 0.314728 0.953784 0.585591
O O13 0.435003 0.040776 0.789175
O O14 0.151817 0.750000 0.474200
O O15 0.129303 0.027636 0.554548
O O16 0.418688 0.750000 0.869098
O O17 0.256091 0.946759 0.755095
O O18 0.821773 0.750000 0.297117
O O19 0.935525 0.506928 0.289946
O O20 0.927704 0.750000 0.164144
#
# Coordination Sequence:
#
# PCOD9158911 Si02
#       8
#     4   4   4   4   4   4   4   4
#     4   9  18  33  53  76 101 130 163 199 243 294
#     4   9  19  35  52  71  98 133 170 203 241 294
#     4   9  19  35  52  71  98 133 170 203 241 294
#     4  10  19  32  52  75  99 130 165 202 246 293
#     4  10  19  32  52  75  99 130 165 202 246 293
#     4   9  16  28  48  74 102 128 157 197 245 295
#     4   9  16  28  48  74 102 128 157 197 245 295
#     4   9  18  33  53  76 101 130 163 199 243 294
#
# _framework density 22.859724
#
# number of rings (size 3 to 8) (size 9 to 14) (size 15 to 20)
#    0.000    2.750    0.000    3.000    0.000    3.000 
#    0.000    2.500    0.000    5.250    0.000    0.000 
#    0.000    0.000    0.000    0.000    0.000    0.000 
#
# Total GULP energy -178600.667931 kJ/mol
# GULP energy per Si atom -5581.270873 kJ/mol
# Density = 2.280769 g / cm^3
# Si number density = 22.859724 Si / 1000 Ang^3
#
#
#
# Elastic Constant Matrix: (Units=GPa)
#
#
# Indices 1 2 3 4 5 6 
#
# 1 130.0817 3.1526 7.2879 0.0000 11.0946 0.0000
# 2 3.1526 39.4320 -4.3964 0.0000 -0.1535 0.0000
# 3 7.2879 -4.3964 52.7174 0.0000 0.5847 0.0000
# 4 0.0000 0.0000 0.0000 11.3725 0.0000 0.2829
# 5 11.0946 -0.1535 0.5847 0.0000 18.4020 0.0000
# 6 0.0000 0.0000 0.0000 0.2829 0.0000 11.7951
#
#
#
# Elastic Compliance Matrix: (Units=1/GPa)
#
#
# Indices 1 2 3 4 5 6 
#
# 1 0.008190 -0.000801 -0.001145 0.000000 -0.004908 0.000000
# 2 -0.000801 0.025677 0.002245 0.000000 0.000626 0.000000
# 3 -0.001145 0.002245 0.019313 0.000000 0.000095 0.000000
# 4 0.000000 0.000000 0.000000 0.087984 0.000000 -0.002110
# 5 -0.004908 0.000626 0.000095 0.000000 0.057303 0.000000
# 6 0.000000 0.000000 0.000000 -0.002110 0.000000 0.084832
#
#
# Mechanical properties :
#
#
# Convention : Reuss Voigt Hill
#
# Bulk Modulus (GPa) = 18.59485 26.03548 22.31516
# Shear Modulus (GPa) = 16.63191 22.72637 19.67914
#
# Velocity S-wave (km/s) = 2.70027 3.15646 2.93723
# Velocity P-wave (km/s) = 4.22775 4.96974 4.61369
#
# Compressibility (1/GPa) = 0.05377833
#
# Stress axis : x y z
#
# Youngs Moduli (GPa) = 122.10594 38.94543 51.77729
#
# Poissons Ratio (x) = 0.03121 0.05926
# Poissons Ratio (y) = 0.09786 -0.11625
# Poissons Ratio (z) = 0.13976 -0.08744
#
# Static dielectric constant tensor:
#      x y z
#    x 1.862570 0.000000 0.006010 
#    y 0.000000 1.800910 0.000000 
#    z 0.006010 0.000000 1.889340 
# 
# From -- ./inp_files/51763.got.cif
#   From: 2010.05.17/outbox.cif.g08.bks.cpg/sg11_26_cif.got.tgz:51763.got - 2010.06.03 12:22:45.
