data_PCOD9158377
_publ_section_title
;
Structure prediction by ZEFSAII (Michael W. Deem and Ramdas Pophale) SiO2 
 PCOD9158377
Probable space group: P 21/M
;
_chemical_formula_sum "Si O2"
_cell_formula_units_Z 28
_cell_length_a 32.271212
_cell_length_b 7.588665
_cell_length_c 32.271212
_cell_angle_alpha 90.000000
_cell_angle_beta 170.466374
_cell_angle_gamma 90.000000
_cell_volume 1308.957454
_symmetry_space_group_name_H-M "P 21/M"
_symmetry_group_IT_number 11
_symmetry_cell_setting 'monoclinic'
loop_
_space_group_symop_operation_xyz
x,y,z
-x,1/2+y,-z
-x,-y,-z
x,1/2-y,z
loop_
_atom_site_type_symbol
_atom_site_label
_atom_site_fract_x
_atom_site_fract_y
_atom_site_fract_z
Si Si1 0.452748 0.465687 0.547283
Si Si2 0.167007 0.461208 0.832990
Si Si3 0.024380 0.961217 0.975588
Si Si4 0.595428 0.534218 0.404560
Si Si5 0.118220 0.960948 0.881769
Si Si6 0.737366 0.457267 0.262633
Si Si7 0.309858 0.966653 0.690144
O O1 0.453120 0.250000 0.546911
O O2 0.713425 0.526414 0.784429
O O3 0.428657 0.518492 0.571357
O O4 0.215612 0.526414 0.286613
O O5 0.169102 0.250000 0.830896
O O6 0.927375 0.525348 0.570875
O O7 0.142668 0.502454 0.857325
O O8 0.429123 0.525348 0.072624
O O9 0.026772 0.750000 0.973192
O O10 0.000000 0.000000 0.000000
O O11 0.595819 0.750000 0.404169
O O12 0.358404 0.473279 0.144005
O O13 0.855984 0.473280 0.641584
O O14 0.115585 0.750000 0.884403
O O15 0.734623 0.250000 0.265377
O O16 0.713957 0.530896 0.286041
O O17 0.000000 0.500000 0.500000
O O18 0.500000 0.500000 0.000000
O O19 0.310009 0.750000 0.689994
#
# Coordination Sequence:
#
# PCOD9158377 Si02
#       7
#     4   4   4   4   4   4   4
#     4   9  17  30  49  71  92 123 164 198 228 284
#     4  10  19  34  54  74  98 135 176 208 244 302
#     4  10  19  31  49  71  95 122 157 197 238 282
#     4   9  17  30  49  71  96 125 160 198 241 290
#     4  10  19  31  49  74 100 125 155 203 256 292
#     4  11  22  39  61  86 115 148 189 235 282 333
#     4   9  19  35  55  75 101 140 179 211 251 311
#
# _framework density 21.391069000000002
#
# number of rings (size 3 to 8) (size 9 to 14) (size 15 to 20)
#    0.000    2.286    0.000    3.429    0.000    5.714 
#    0.000    4.286    0.000    5.143    0.000    0.000 
#    0.000    0.000    0.000    0.000    0.000    0.000 
#
# Total GULP energy -156509.094608 kJ/mol
# GULP energy per Si atom -5589.610522 kJ/mol
# Density = 2.134238 g / cm^3
# Si number density = 21.391069 Si / 1000 Ang^3
#
#
#
# Elastic Constant Matrix: (Units=GPa)
#
#
# Indices 1 2 3 4 5 6 
#
# 1 254.8893 -1.5373 173.0547 0.0000 1.4958 0.0000
# 2 -1.5373 44.6777 11.3929 0.0000 1.1402 0.0000
# 3 173.0547 11.3929 283.8566 0.0000 1.0712 0.0000
# 4 0.0000 0.0000 0.0000 -0.8993 0.0000 -2.4924
# 5 1.4958 1.1402 1.0712 0.0000 49.3247 0.0000
# 6 0.0000 0.0000 0.0000 -2.4924 0.0000 27.3600
#
#
#
# Elastic Compliance Matrix: (Units=1/GPa)
#
#
# Indices 1 2 3 4 5 6 
#
# 1 0.006769 0.001302 -0.004178 0.000000 -0.000145 0.000000
# 2 0.001302 0.022877 -0.001710 0.000000 -0.000531 0.000000
# 3 -0.004178 -0.001710 0.006139 0.000000 0.000033 0.000000
# 4 0.000000 0.000000 0.000000 -0.887807 0.000000 -0.080877
# 5 -0.000145 -0.000531 0.000033 0.000000 0.020290 0.000000
# 6 0.000000 0.000000 0.000000 -0.080877 0.000000 0.029182
#
#
# Mechanical properties :
#
#
# Convention : Reuss Voigt Hill
#
# Bulk Modulus (GPa) = 37.57705 105.47158 71.52431
# Shear Modulus (GPa) = -6.37342 41.85796 17.74227
#
# Velocity S-wave (km/s) = -1.72799 4.42837 2.88310
# Velocity P-wave (km/s) = 3.69101 8.69256 6.67773
#
# Compressibility (1/GPa) = 0.02661199
#
# Stress axis : x y z
#
# Youngs Moduli (GPa) = 147.73561 43.71210 162.89860
#
# Poissons Ratio (x) = -0.05692 0.68065
# Poissons Ratio (y) = -0.19237 0.27856
# Poissons Ratio (z) = 0.61730 0.07475
#
# Static dielectric constant tensor:
#      x y z
#    x 1.726990 0.000000 0.001990 
#    y 0.000000 1.806840 0.000000 
#    z 0.001990 0.000000 1.749560 
# 
# From -- ./inp_files/9643.got.cif
#   From: 2010.05.17/outbox.cif.g08.bks.cpg/sg11_5_cif.got.tgz:9643.got - 2010.06.03 12:22:45.
