data_PCOD9158969
_publ_section_title
;
Structure prediction by ZEFSAII (Michael W. Deem and Ramdas Pophale) SiO2 
 PCOD9158969
Probable space group: P 21/M
;
_chemical_formula_sum "Si O2"
_cell_formula_units_Z 32
_cell_length_a 21.227418
_cell_length_b 8.736274
_cell_length_c 14.673261
_cell_angle_alpha 90.000000
_cell_angle_beta 136.489236
_cell_angle_gamma 90.000000
_cell_volume 1873.476398
_symmetry_space_group_name_H-M "P 21/M"
_symmetry_group_IT_number 11
_symmetry_cell_setting 'monoclinic'
loop_
_space_group_symop_operation_xyz
x,y,z
-x,1/2+y,-z
-x,-y,-z
x,1/2-y,z
loop_
_atom_site_type_symbol
_atom_site_label
_atom_site_fract_x
_atom_site_fract_y
_atom_site_fract_z
Si Si1 0.779151 0.936473 0.921694
Si Si2 0.599593 0.433700 0.080066
Si Si3 0.313591 0.433790 0.360814
Si Si4 0.547429 0.433122 0.360904
Si Si5 0.982819 0.933736 0.082639
Si Si6 0.358050 0.435414 0.072644
Si Si7 0.698775 0.066229 0.367018
Si Si8 0.838416 0.932601 0.646461
O O1 0.778830 0.750000 0.919526
O O2 0.716333 0.986512 0.770541
O O3 0.732288 0.982396 0.966917
O O4 0.883280 0.984822 0.014033
O O5 0.593379 0.250000 0.072523
O O6 0.668716 0.477815 0.234097
O O7 0.500000 0.500000 0.000000
O O8 0.631325 0.494687 0.015810
O O9 0.319763 0.250000 0.366295
O O10 0.406682 0.497706 0.501098
O O11 0.231331 0.475583 0.344272
O O12 0.547405 0.250000 0.370324
O O13 0.445943 0.480959 0.226093
O O14 0.614750 0.472804 0.347101
O O15 0.982742 0.750000 0.076933
O O16 0.064982 0.989743 0.232670
O O17 0.000000 0.000000 0.000000
O O18 0.360236 0.250000 0.067008
O O19 0.710425 0.250000 0.382958
O O20 0.787937 0.986945 0.502050
O O21 0.848416 0.750000 0.658300
#
# Coordination Sequence:
#
# PCOD9158969 Si02
#       8
#     4   4   4   4   4   4   4   4
#     4   9  19  35  53  73 104 143 179 213 263 318
#     4  11  21  35  56  81 108 138 177 220 263 311
#     4   9  17  31  48  71 103 139 177 211 250 308
#     4   9  17  30  47  72 103 137 173 209 254 304
#     4  11  20  34  55  79 105 140 180 222 266 314
#     4  10  20  36  54  74 105 144 179 216 261 315
#     4   9  18  33  51  76 106 136 169 212 263 312
#     4  10  19  32  52  80 107 134 171 220 268 313
#
# _framework density 17.080545999999998
#
# number of rings (size 3 to 8) (size 9 to 14) (size 15 to 20)
#    0.000    2.250    2.500    1.125    0.000    2.500 
#    0.000    1.875    0.000    0.750    0.000    0.000 
#    0.000    0.000    0.000    0.000    0.000    0.000 
#
# Total GULP energy -178531.157705 kJ/mol
# GULP energy per Si atom -5579.098678 kJ/mol
# Density = 1.704167 g / cm^3
# Si number density = 17.080546 Si / 1000 Ang^3
#
#
#
# Elastic Constant Matrix: (Units=GPa)
#
#
# Indices 1 2 3 4 5 6 
#
# 1 118.1255 30.9310 72.8276 0.0000 -2.7968 0.0000
# 2 30.9310 23.1366 36.2158 0.0000 -0.1592 0.0000
# 3 72.8276 36.2158 130.5326 0.0000 -2.7170 0.0000
# 4 0.0000 0.0000 0.0000 30.8118 0.0000 -3.7905
# 5 -2.7968 -0.1592 -2.7170 0.0000 22.0265 0.0000
# 6 0.0000 0.0000 0.0000 -3.7905 0.0000 17.3686
#
#
#
# Elastic Compliance Matrix: (Units=1/GPa)
#
#
# Indices 1 2 3 4 5 6 
#
# 1 0.014585 -0.012005 -0.004782 0.000000 0.001175 0.000000
# 2 -0.012005 0.086377 -0.017330 0.000000 -0.003038 0.000000
# 3 -0.004782 -0.017330 0.015161 0.000000 0.001138 0.000000
# 4 0.000000 0.000000 0.000000 0.033351 0.000000 0.007278
# 5 0.001175 -0.003038 0.001138 0.000000 0.045667 0.000000
# 6 0.000000 0.000000 0.000000 0.007278 0.000000 0.059164
#
#
# Mechanical properties :
#
#
# Convention : Reuss Voigt Hill
#
# Bulk Modulus (GPa) = 20.88196 61.30482 41.09339
# Shear Modulus (GPa) = 14.77088 22.82938 18.80013
#
# Velocity S-wave (km/s) = 2.94390 3.65988 3.32124
# Velocity P-wave (km/s) = 4.87930 7.33684 6.23044
#
# Compressibility (1/GPa) = 0.04788822
#
# Stress axis : x y z
#
# Youngs Moduli (GPa) = 68.56196 11.57710 65.95854
#
# Poissons Ratio (x) = 0.13898 0.31543
# Poissons Ratio (y) = 0.82309 1.14309
# Poissons Ratio (z) = 0.32789 0.20064
#
# Static dielectric constant tensor:
#      x y z
#    x 1.573980 0.000000 0.001260 
#    y 0.000000 1.580020 0.000000 
#    z 0.001260 0.000000 1.574570 
# 
# From -- ./inp_files/54316.got.cif
#   From: 2010.05.17/outbox.cif.g08.bks.cpg/sg11_28_cif.got.tgz:54316.got - 2010.06.03 12:22:45.
