data_PCOD9158803
_publ_section_title
;
Structure prediction by ZEFSAII (Michael W. Deem and Ramdas Pophale) SiO2 
 PCOD9158803
Probable space group: P 21/M
;
_chemical_formula_sum "Si O2"
_cell_formula_units_Z 32
_cell_length_a 22.558344
_cell_length_b 9.172357
_cell_length_c 27.520908
_cell_angle_alpha 90.000000
_cell_angle_beta 18.572645
_cell_angle_gamma 90.000000
_cell_volume 1813.717312
_symmetry_space_group_name_H-M "P 21/M"
_symmetry_group_IT_number 11
_symmetry_cell_setting 'monoclinic'
loop_
_space_group_symop_operation_xyz
x,y,z
-x,1/2+y,-z
-x,-y,-z
x,1/2-y,z
loop_
_atom_site_type_symbol
_atom_site_label
_atom_site_fract_x
_atom_site_fract_y
_atom_site_fract_z
Si Si1 0.717158 0.425510 0.074186
Si Si2 0.718537 0.423123 0.717327
Si Si3 0.707607 0.416845 0.234692
Si Si4 0.038091 0.923954 0.651972
Si Si5 0.542844 0.423790 0.643913
Si Si6 0.966482 0.916892 0.100901
Si Si7 0.695516 0.575682 0.987223
Si Si8 0.020080 0.076254 0.562282
O O1 0.697292 0.250000 0.091260
O O2 0.565305 0.498742 0.227603
O O3 0.920307 0.461795 0.939129
O O4 0.697273 0.488604 0.036089
O O5 0.744414 0.250000 0.688053
O O6 0.814589 0.510543 0.598977
O O7 0.831472 0.457990 0.678628
O O8 0.499613 0.452593 0.888338
O O9 0.649686 0.250000 0.286347
O O10 0.545276 0.512185 0.336887
O O11 0.800659 0.483324 0.210465
O O12 0.872994 0.418219 0.065619
O O13 0.027327 0.750000 0.651376
O O14 0.238693 0.953302 0.520006
O O15 0.870308 0.964154 0.818096
O O16 0.021924 0.005838 0.613590
O O17 0.511295 0.250000 0.670747
O O18 0.902723 0.750000 0.155291
O O19 0.704443 0.750000 0.990378
O O20 0.039007 0.250000 0.550880
#
# Coordination Sequence:
#
# PCOD9158803 Si02
#       8
#     4   4   4   4   4   4   4   4
#     4  10  20  33  51  77 104 130 167 212 254 298
#     4   9  19  36  56  78 104 134 167 205 252 302
#     4   9  16  26  44  72 101 127 162 208 252 295
#     4  10  22  37  52  73 102 137 173 208 249 299
#     4  10  19  32  51  73 100 135 170 205 251 303
#     4   8  15  27  43  67 100 131 158 198 253 304
#     4  10  21  37  54  72 100 137 173 208 249 300
#     4  10  20  34  55  81 105 131 166 208 252 299
#
# _framework density 17.643322999999999
#
# number of rings (size 3 to 8) (size 9 to 14) (size 15 to 20)
#    0.000    2.500    0.000    3.000    0.000    9.500 
#    0.000    0.000    0.000    0.750    0.000    0.000 
#    0.000    0.000    0.000    0.000    0.000    0.000 
#
# Total GULP energy -178499.243735 kJ/mol
# GULP energy per Si atom -5578.101367 kJ/mol
# Density = 1.760317 g / cm^3
# Si number density = 17.643323 Si / 1000 Ang^3
#
#
#
# Elastic Constant Matrix: (Units=GPa)
#
#
# Indices 1 2 3 4 5 6 
#
# 1 52.9449 41.3357 65.0329 0.0000 -30.3277 0.0000
# 2 41.3357 60.2765 60.2787 0.0000 -19.7210 0.0000
# 3 65.0329 60.2787 114.2607 0.0000 -24.1842 0.0000
# 4 0.0000 0.0000 0.0000 14.1185 0.0000 -7.7977
# 5 -30.3277 -19.7210 -24.1842 0.0000 13.2612 0.0000
# 6 0.0000 0.0000 0.0000 -7.7977 0.0000 32.3542
#
#
#
# Elastic Compliance Matrix: (Units=1/GPa)
#
#
# Indices 1 2 3 4 5 6 
#
# 1 -0.049946 -0.015824 0.012407 0.000000 -0.115129 0.000000
# 2 -0.015824 0.039387 -0.011457 0.000000 0.001491 0.000000
# 3 0.012407 -0.011457 0.016504 0.000000 0.041436 0.000000
# 4 0.000000 0.000000 0.000000 0.081705 0.000000 0.019692
# 5 -0.115129 0.001491 0.041436 0.000000 -0.110101 0.000000
# 6 0.000000 0.000000 0.000000 0.019692 0.000000 0.035654
#
#
# Mechanical properties :
#
#
# Convention : Reuss Voigt Hill
#
# Bulk Modulus (GPa) = -42.01507 62.30855 10.14674
# Shear Modulus (GPa) = 142.79408 16.00244 79.39826
#
# Velocity S-wave (km/s) = 9.00608 3.01491 6.71562
# Velocity P-wave (km/s) = 9.18045 6.89289 8.11765
#
# Compressibility (1/GPa) = -0.02380098
#
# Stress axis : x y z
#
# Youngs Moduli (GPa) = -20.02171 25.38932 60.58954
#
# Poissons Ratio (x) = 0.40176 -0.75175
# Poissons Ratio (y) = -0.31682 0.69415
# Poissons Ratio (z) = 0.24842 0.29088
#
# Static dielectric constant tensor:
#      x y z
#    x 1.587590 0.000000 -0.026430 
#    y 0.000000 1.590450 0.000000 
#    z -0.026430 0.000000 1.586880 
# 
# From -- ./inp_files/71994.got.cif
#   From: 2010.05.17/outbox.cif.g08.bks.cpg/sg11_36_cif.got.tgz:71994.got - 2010.06.03 12:22:45.
