data_PCOD9158844
_publ_section_title
;
Structure prediction by ZEFSAII (Michael W. Deem and Ramdas Pophale) SiO2 
 PCOD9158844
Probable space group: P 21/M
;
_chemical_formula_sum "Si O2"
_cell_formula_units_Z 28
_cell_length_a 6.453941
_cell_length_b 14.360425
_cell_length_c 15.938512
_cell_angle_alpha 90.000000
_cell_angle_beta 58.170121
_cell_angle_gamma 90.000000
_cell_volume 1255.057573
_symmetry_space_group_name_H-M "P 21/M"
_symmetry_group_IT_number 11
_symmetry_cell_setting 'monoclinic'
loop_
_space_group_symop_operation_xyz
x,y,z
-x,1/2+y,-z
-x,-y,-z
x,1/2-y,z
loop_
_atom_site_type_symbol
_atom_site_label
_atom_site_fract_x
_atom_site_fract_y
_atom_site_fract_z
Si Si1 0.790083 0.472562 0.698973
Si Si2 0.106153 0.966454 0.067554
Si Si3 0.895644 0.352285 0.520036
Si Si4 0.290192 0.950072 0.598468
Si Si5 0.590846 0.645164 0.668372
Si Si6 0.380953 0.142699 0.042687
Si Si7 0.648595 0.646040 0.151117
O O1 0.802818 0.432610 0.600890
O O2 0.675596 0.575504 0.722560
O O3 0.607352 0.405534 0.783937
O O4 0.069992 0.479626 0.663848
O O5 0.344945 0.899921 0.004825
O O6 0.871980 0.907845 0.147601
O O7 0.197444 0.055810 0.102548
O O8 0.000000 0.000000 0.000000
O O9 0.821120 0.250000 0.565744
O O10 0.804676 0.371791 0.445816
O O11 0.187235 0.353683 0.446646
O O12 0.372913 0.902181 0.665651
O O13 0.500000 0.000000 0.500000
O O14 0.543821 0.750000 0.705963
O O15 0.358837 0.250000 0.081141
O O16 0.324900 0.151285 0.955103
O O17 0.638459 0.750000 0.187241
#
# Coordination Sequence:
#
# PCOD9158844 Si02
#       7
#     4   4   4   4   4   4   4
#     4  11  21  34  53  77 110 142 181 227 278 333
#     4   9  18  35  60  85 114 150 184 217 264 321
#     4  10  19  32  51  76 101 133 179 229 279 331
#     4  11  18  34  52  72 100 140 189 237 280 321
#     4  10  20  35  54  71  97 139 189 238 280 323
#     4   9  18  35  60  89 117 147 186 222 262 322
#     4  10  21  36  55  84 120 150 174 217 281 337
#
# _framework density 22.309733000000001
#
# number of rings (size 3 to 8) (size 9 to 14) (size 15 to 20)
#    0.000    2.000    2.857    2.143    0.000    2.286 
#    0.000    0.714    0.000    4.286    0.000    0.000 
#    0.000    0.000    0.000    0.000    0.000    0.000 
#
# Total GULP energy -156207.910739 kJ/mol
# GULP energy per Si atom -5578.853955 kJ/mol
# Density = 2.225895 g / cm^3
# Si number density = 22.309733 Si / 1000 Ang^3
#
#
#
# Elastic Constant Matrix: (Units=GPa)
#
#
# Indices 1 2 3 4 5 6 
#
# 1 111.9275 51.4025 13.9086 0.0000 -22.3489 0.0000
# 2 51.4025 178.8409 26.7548 0.0000 -28.9846 0.0000
# 3 13.9086 26.7548 31.4844 0.0000 -15.4776 0.0000
# 4 0.0000 0.0000 0.0000 19.1112 0.0000 -3.0307
# 5 -22.3489 -28.9846 -15.4776 0.0000 32.2795 0.0000
# 6 0.0000 0.0000 0.0000 -3.0307 0.0000 22.9475
#
#
#
# Elastic Compliance Matrix: (Units=1/GPa)
#
#
# Indices 1 2 3 4 5 6 
#
# 1 0.011109 -0.002255 -0.000269 0.000000 0.005537 0.000000
# 2 -0.002255 0.007310 -0.003606 0.000000 0.003273 0.000000
# 3 -0.000269 -0.003606 0.043520 0.000000 0.017443 0.000000
# 4 0.000000 0.000000 0.000000 0.053445 0.000000 0.007058
# 5 0.005537 0.003273 0.017443 0.000000 0.046116 0.000000
# 6 0.000000 0.000000 0.000000 0.007058 0.000000 0.044510
#
#
# Mechanical properties :
#
#
# Convention : Reuss Voigt Hill
#
# Bulk Modulus (GPa) = 20.12982 56.26497 38.19740
# Shear Modulus (GPa) = 21.29204 30.21343 25.75274
#
# Velocity S-wave (km/s) = 3.09266 3.68404 3.40123
# Velocity P-wave (km/s) = 4.66853 6.58565 5.70815
#
# Compressibility (1/GPa) = 0.04967754
#
# Stress axis : x y z
#
# Youngs Moduli (GPa) = 90.01540 136.80362 22.97799
#
# Poissons Ratio (x) = 0.30854 0.00618
# Poissons Ratio (y) = 0.20301 0.08287
# Poissons Ratio (z) = 0.02421 0.49337
#
# Static dielectric constant tensor:
#      x y z
#    x 1.858190 0.000000 -0.011310 
#    y 0.000000 1.887970 0.000000 
#    z -0.011310 0.000000 1.843540 
# 
# From -- ./inp_files/7876.got.cif
#   From: 2010.05.17/outbox.cif.g08.bks.cpg/sg11_4_cif.got.tgz:7876.got - 2010.06.03 12:22:45.
