data_PCOD9158877
_publ_section_title
;
Structure prediction by ZEFSAII (Michael W. Deem and Ramdas Pophale) SiO2 
 PCOD9158877
Probable space group: P 21/M
;
_chemical_formula_sum "Si O2"
_cell_formula_units_Z 32
_cell_length_a 24.496198
_cell_length_b 8.156393
_cell_length_c 24.525214
_cell_angle_alpha 90.000000
_cell_angle_beta 161.014037
_cell_angle_gamma 90.000000
_cell_volume 1594.198599
_symmetry_space_group_name_H-M "P 21/M"
_symmetry_group_IT_number 11
_symmetry_cell_setting 'monoclinic'
loop_
_space_group_symop_operation_xyz
x,y,z
-x,1/2+y,-z
-x,-y,-z
x,1/2-y,z
loop_
_atom_site_type_symbol
_atom_site_label
_atom_site_fract_x
_atom_site_fract_y
_atom_site_fract_z
Si Si1 0.468923 0.947448 0.409023
Si Si2 0.209349 0.056578 0.653497
Si Si3 0.340821 0.450443 0.517562
Si Si4 0.450019 0.440815 0.077741
Si Si5 0.021406 0.950461 0.844507
Si Si6 0.092213 0.552539 0.032275
Si Si7 0.624387 0.448590 0.870299
Si Si8 0.152851 0.941569 0.721032
O O1 0.470675 0.750000 0.409827
O O2 0.599998 0.002591 0.486963
O O3 0.284546 0.003348 0.216874
O O4 0.500000 0.000000 0.500000
O O5 0.186014 0.250000 0.642735
O O6 0.042488 0.002814 0.462545
O O7 0.385170 0.031175 0.789609
O O8 0.207850 0.965946 0.710133
O O9 0.343124 0.250000 0.520287
O O10 0.476501 0.504787 0.690059
O O11 0.149692 0.502810 0.346282
O O12 0.490684 0.250000 0.115431
O O13 0.409349 0.496744 0.100359
O O14 0.287050 0.471389 0.886248
O O15 0.024268 0.750000 0.846951
O O16 0.015877 0.002519 0.902690
O O17 0.194338 0.005053 0.980415
O O18 0.091277 0.750000 0.030415
O O19 0.000000 0.500000 0.000000
O O20 0.625489 0.250000 0.869767
O O21 0.157678 0.750000 0.740084
#
# Coordination Sequence:
#
# PCOD9158877 Si02
#       8
#     4   4   4   4   4   4   4   4
#     4  10  19  32  51  78 109 139 175 222 275 337
#     4  10  21  39  64  93 125 161 202 249 297 347
#     4   9  17  32  55  78 102 135 177 229 286 337
#     4  12  25  39  58  86 123 164 202 244 298 358
#     4   9  17  32  55  78 102 135 177 229 286 337
#     4  10  19  32  51  78 109 139 175 222 275 337
#     4  10  20  37  57  78 104 142 195 246 284 342
#     4  10  21  39  64  93 125 161 202 249 297 347
#
# _framework density 20.072780999999999
#
# number of rings (size 3 to 8) (size 9 to 14) (size 15 to 20)
#    0.000    2.000    1.250    3.000    0.000    4.000 
#    0.000    3.750    0.000    1.500    0.000    0.000 
#    0.000    0.000    0.000    0.000    0.000    0.000 
#
# Total GULP energy -178676.363350 kJ/mol
# GULP energy per Si atom -5583.636355 kJ/mol
# Density = 2.002709 g / cm^3
# Si number density = 20.072781 Si / 1000 Ang^3
#
#
#
# Elastic Constant Matrix: (Units=GPa)
#
#
# Indices 1 2 3 4 5 6 
#
# 1 91.4925 -4.5802 68.7941 0.0000 -6.0109 0.0000
# 2 -4.5802 12.3626 4.4490 0.0000 0.9198 0.0000
# 3 68.7941 4.4490 166.8734 0.0000 4.9587 0.0000
# 4 0.0000 0.0000 0.0000 14.2768 0.0000 -5.9072
# 5 -6.0109 0.9198 4.9587 0.0000 14.8709 0.0000
# 6 0.0000 0.0000 0.0000 -5.9072 0.0000 25.9753
#
#
#
# Elastic Compliance Matrix: (Units=1/GPa)
#
#
# Indices 1 2 3 4 5 6 
#
# 1 0.017924 0.008789 -0.007901 0.000000 0.009336 0.000000
# 2 0.008789 0.086265 -0.005929 0.000000 0.000194 0.000000
# 3 -0.007901 -0.005929 0.009587 0.000000 -0.006024 0.000000
# 4 0.000000 0.000000 0.000000 0.077319 0.000000 0.017584
# 5 0.009336 0.000194 -0.006024 0.000000 0.073016 0.000000
# 6 0.000000 0.000000 0.000000 0.017584 0.000000 0.042497
#
#
# Mechanical properties :
#
#
# Convention : Reuss Voigt Hill
#
# Bulk Modulus (GPa) = 9.64374 45.33937 27.49155
# Shear Modulus (GPa) = 14.23473 24.49563 19.36518
#
# Velocity S-wave (km/s) = 2.66589 3.49713 3.10941
# Velocity P-wave (km/s) = 3.78031 6.24044 5.15916
#
# Compressibility (1/GPa) = 0.10369424
#
# Stress axis : x y z
#
# Youngs Moduli (GPa) = 55.79085 11.59222 104.30941
#
# Poissons Ratio (x) = -0.10189 0.82415
# Poissons Ratio (y) = -0.49037 0.61847
# Poissons Ratio (z) = 0.44080 0.06873
#
# Static dielectric constant tensor:
#      x y z
#    x 1.673570 0.000000 0.009350 
#    y 0.000000 1.703920 0.000000 
#    z 0.009350 0.000000 1.721950 
# 
# From -- ./inp_files/70032.got.cif
#   From: 2010.05.17/outbox.cif.g08.bks.cpg/sg11_36_cif.got.tgz:70032.got - 2010.06.03 12:22:45.
