data_PCOD9158427
_publ_section_title
;
Structure prediction by ZEFSAII (Michael W. Deem and Ramdas Pophale) SiO2 
 PCOD9158427
Probable space group: P 21/M
;
_chemical_formula_sum "Si O2"
_cell_formula_units_Z 24
_cell_length_a 16.818492
_cell_length_b 8.968627
_cell_length_c 15.568150
_cell_angle_alpha 90.000000
_cell_angle_beta 143.522303
_cell_angle_gamma 90.000000
_cell_volume 1396.076009
_symmetry_space_group_name_H-M "P 21/M"
_symmetry_group_IT_number 11
_symmetry_cell_setting 'monoclinic'
loop_
_space_group_symop_operation_xyz
x,y,z
-x,1/2+y,-z
-x,-y,-z
x,1/2-y,z
loop_
_atom_site_type_symbol
_atom_site_label
_atom_site_fract_x
_atom_site_fract_y
_atom_site_fract_z
Si Si1 0.635247 0.073700 0.584143
Si Si2 0.091124 0.070204 0.861993
Si Si3 0.200601 0.427715 0.422984
Si Si4 0.131401 0.926006 0.073010
Si Si5 0.823741 0.079587 0.422649
Si Si6 0.852021 0.921307 0.275913
O O1 0.618065 0.250000 0.553155
O O2 0.747970 0.056316 0.755562
O O3 0.500000 0.000000 0.500000
O O4 0.690388 0.992893 0.547242
O O5 0.079522 0.250000 0.855203
O O6 0.166871 0.030506 0.839119
O O7 0.942131 0.001060 0.726744
O O8 0.157159 0.005807 0.004737
O O9 0.191422 0.250000 0.408676
O O10 0.227701 0.478073 0.544397
O O11 0.107878 0.750000 0.039086
O O12 0.000000 0.000000 0.000000
O O13 0.780672 0.250000 0.396930
O O14 0.986106 0.077185 0.572070
O O15 0.792914 0.019730 0.300868
O O16 0.808629 0.750000 0.248217
#
# Coordination Sequence:
#
# PCOD9158427 Si02
#       6
#     4   4   4   4   4   4
#     4  11  24  40  56  77 106 139 179 223 265 314
#     4  10  19  31  49  74 105 137 174 217 260 310
#     4  11  20  31  50  73 101 138 176 215 263 314
#     4  11  22  35  55  79 106 139 177 218 264 317
#     4   9  16  26  42  65  97 133 169 211 257 309
#     4   8  15  26  40  64  98 133 167 208 256 306
#
# _framework density 17.191040999999998
#
# number of rings (size 3 to 8) (size 9 to 14) (size 15 to 20)
#    0.000    2.000    1.667    4.500    0.000    6.667 
#    0.000    0.000    0.000    0.000    0.000    1.167 
#    0.000    0.000    0.000    0.000    0.000    0.000 
#
# Total GULP energy -133896.371196 kJ/mol
# GULP energy per Si atom -5579.015467 kJ/mol
# Density = 1.715191 g / cm^3
# Si number density = 17.191041 Si / 1000 Ang^3
#
#
#
# Elastic Constant Matrix: (Units=GPa)
#
#
# Indices 1 2 3 4 5 6 
#
# 1 116.7302 73.4050 38.8912 0.0000 -27.7479 0.0000
# 2 73.4050 128.3896 41.9519 0.0000 -13.0043 0.0000
# 3 38.8912 41.9519 32.8564 0.0000 -11.0321 0.0000
# 4 0.0000 0.0000 0.0000 21.9272 0.0000 -7.7749
# 5 -27.7479 -13.0043 -11.0321 0.0000 30.5274 0.0000
# 6 0.0000 0.0000 0.0000 -7.7749 0.0000 33.0849
#
#
#
# Elastic Compliance Matrix: (Units=1/GPa)
#
#
# Indices 1 2 3 4 5 6 
#
# 1 0.018272 -0.005947 -0.010594 0.000000 0.010246 0.000000
# 2 -0.005947 0.015308 -0.013807 0.000000 -0.003874 0.000000
# 3 -0.010594 -0.013807 0.063047 0.000000 0.007273 0.000000
# 4 0.000000 0.000000 0.000000 0.049751 0.000000 0.011691
# 5 0.010246 -0.003874 0.007273 0.000000 0.043049 0.000000
# 6 0.000000 0.000000 0.000000 0.011691 0.000000 0.032973
#
#
# Mechanical properties :
#
#
# Convention : Reuss Voigt Hill
#
# Bulk Modulus (GPa) = 27.83196 65.16362 46.49779
# Shear Modulus (GPa) = 16.94497 25.35644 21.15070
#
# Velocity S-wave (km/s) = 3.14297 3.84471 3.51142
# Velocity P-wave (km/s) = 5.42180 7.59585 6.59897
#
# Compressibility (1/GPa) = 0.03592992
#
# Stress axis : x y z
#
# Youngs Moduli (GPa) = 54.72875 65.32437 15.86126
#
# Poissons Ratio (x) = 0.38850 0.16803
# Poissons Ratio (y) = 0.32549 0.21900
# Poissons Ratio (z) = 0.57980 0.90195
#
# Static dielectric constant tensor:
#      x y z
#    x 1.586910 0.000000 -0.028630 
#    y 0.000000 1.581160 0.000000 
#    z -0.028630 0.000000 1.574480 
# 
# From -- ./inp_files/25948.got.cif
#   From: 2010.05.17/outbox.cif.g08.bks.cpg/sg11_13_cif.got.tgz:25948.got - 2010.06.03 12:22:45.
