data_PCOD9158208
_publ_section_title
;
Structure prediction by ZEFSAII (Michael W. Deem and Ramdas Pophale) SiO2 
 PCOD9158208
Probable space group: P 21/M
;
_chemical_formula_sum "Si O2"
_cell_formula_units_Z 28
_cell_length_a 20.444746
_cell_length_b 9.029369
_cell_length_c 16.099513
_cell_angle_alpha 90.000000
_cell_angle_beta 149.596346
_cell_angle_gamma 90.000000
_cell_volume 1504.106403
_symmetry_space_group_name_H-M "P 21/M"
_symmetry_group_IT_number 11
_symmetry_cell_setting 'monoclinic'
loop_
_space_group_symop_operation_xyz
x,y,z
-x,1/2+y,-z
-x,-y,-z
x,1/2-y,z
loop_
_atom_site_type_symbol
_atom_site_label
_atom_site_fract_x
_atom_site_fract_y
_atom_site_fract_z
Si Si1 0.660063 0.927452 0.947090
Si Si2 0.629222 0.571803 0.105102
Si Si3 0.966012 0.917206 0.046709
Si Si4 0.951046 0.930746 0.213961
Si Si5 0.085847 0.428861 0.520274
Si Si6 0.507236 0.577709 0.369095
Si Si7 0.664240 0.581796 0.686752
O O1 0.657544 0.750000 0.940735
O O2 0.648538 0.973425 0.030145
O O3 0.800211 0.972723 0.064103
O O4 0.541730 0.987871 0.763215
O O5 0.615621 0.750000 0.092460
O O6 0.763001 0.535071 0.298735
O O7 0.500000 0.500000 0.000000
O O8 0.017716 0.750000 0.098530
O O9 0.997399 0.977753 0.172756
O O10 0.810926 0.912060 0.874089
O O11 0.000000 0.000000 0.000000
O O12 0.957399 0.750000 0.225137
O O13 0.034145 0.003606 0.377763
O O14 0.072256 0.250000 0.507304
O O15 0.000000 0.500000 0.500000
O O16 0.502131 0.750000 0.342994
O O17 0.641577 0.546276 0.564548
O O18 0.407735 0.533555 0.333467
O O19 0.611086 0.750000 0.641399
#
# Coordination Sequence:
#
# PCOD9158208 Si02
#       7
#     4   4   4   4   4   4   4
#     4  10  19  37  60  81 114 151 187 234 292 350
#     4  10  23  42  62  86 119 158 193 239 298 356
#     4  10  21  38  58  78 111 154 192 239 294 346
#     4  10  20  38  62  86 115 153 199 246 295 353
#     4  11  22  39  64  94 124 156 199 250 300 357
#     4  10  19  30  53  85 108 135 184 234 275 330
#     4   9  18  35  53  73 108 148 179 223 285 334
#
# _framework density 18.615704999999998
#
# number of rings (size 3 to 8) (size 9 to 14) (size 15 to 20)
#    0.000    2.000    2.857    0.857    0.000    4.000 
#    2.571    0.000    0.000    0.000    0.000    0.000 
#    0.000    0.000    0.000    0.000    0.000    0.000 
#
# Total GULP energy -156071.833935 kJ/mol
# GULP energy per Si atom -5573.994069 kJ/mol
# Density = 1.857333 g / cm^3
# Si number density = 18.615705 Si / 1000 Ang^3
#
#
#
# Elastic Constant Matrix: (Units=GPa)
#
#
# Indices 1 2 3 4 5 6 
#
# 1 110.2216 32.3628 46.2251 0.0000 -28.1263 0.0000
# 2 32.3628 24.1338 27.4326 0.0000 -10.5872 0.0000
# 3 46.2251 27.4326 121.4364 0.0000 -34.4098 0.0000
# 4 0.0000 0.0000 0.0000 34.7647 0.0000 -4.7702
# 5 -28.1263 -10.5872 -34.4098 0.0000 37.3903 0.0000
# 6 0.0000 0.0000 0.0000 -4.7702 0.0000 29.6094
#
#
#
# Elastic Compliance Matrix: (Units=1/GPa)
#
#
# Indices 1 2 3 4 5 6 
#
# 1 0.016421 -0.018970 0.000017 0.000000 0.006997 0.000000
# 2 -0.018970 0.078571 -0.011184 0.000000 -0.002315 0.000000
# 3 0.000017 -0.011184 0.013340 0.000000 0.009122 0.000000
# 4 0.000000 0.000000 0.000000 0.029415 0.000000 0.004739
# 5 0.006997 -0.002315 0.009122 0.000000 0.039748 0.000000
# 6 0.000000 0.000000 0.000000 0.004739 0.000000 0.034537
#
#
# Mechanical properties :
#
#
# Convention : Reuss Voigt Hill
#
# Bulk Modulus (GPa) = 20.80827 51.98140 36.39484
# Shear Modulus (GPa) = 17.34159 30.33765 23.83962
#
# Velocity S-wave (km/s) = 3.05545 4.04131 3.58246
# Velocity P-wave (km/s) = 4.86311 7.05410 6.05847
#
# Compressibility (1/GPa) = 0.04805782
#
# Stress axis : x y z
#
# Youngs Moduli (GPa) = 60.89889 12.72729 74.96471
#
# Poissons Ratio (x) = 0.24144 -0.00130
# Poissons Ratio (y) = 1.15525 0.83843
# Poissons Ratio (z) = -0.00106 0.14235
#
# Static dielectric constant tensor:
#      x y z
#    x 1.644150 0.000000 -0.013950 
#    y 0.000000 1.653460 0.000000 
#    z -0.013950 0.000000 1.674710 
# 
# From -- ./inp_files/54584.got.cif
#   From: 2010.05.17/outbox.cif.g08.bks.cpg/sg11_28_cif.got.tgz:54584.got - 2010.06.03 12:22:45.
