data_PCOD9158062
_publ_section_title
;
Structure prediction by ZEFSAII (Michael W. Deem and Ramdas Pophale) SiO2 
 PCOD9158062
Probable space group: P 21/M
;
_chemical_formula_sum "Si O2"
_cell_formula_units_Z 32
_cell_length_a 11.124264
_cell_length_b 7.440763
_cell_length_c 24.262211
_cell_angle_alpha 90.000000
_cell_angle_beta 139.696014
_cell_angle_gamma 90.000000
_cell_volume 1299.026188
_symmetry_space_group_name_H-M "P 21/M"
_symmetry_group_IT_number 11
_symmetry_cell_setting 'monoclinic'
loop_
_space_group_symop_operation_xyz
x,y,z
-x,1/2+y,-z
-x,-y,-z
x,1/2-y,z
loop_
_atom_site_type_symbol
_atom_site_label
_atom_site_fract_x
_atom_site_fract_y
_atom_site_fract_z
Si Si1 0.780921 0.464476 0.380271
Si Si2 0.246891 0.955738 0.274840
Si Si3 0.612492 0.034983 0.789579
Si Si4 0.190728 0.546438 0.489839
Si Si5 0.865490 0.032710 0.648811
Si Si6 0.705560 0.462854 0.170016
Si Si7 0.170382 0.969021 0.903568
Si Si8 0.692260 0.046084 0.931746
O O1 0.812409 0.250000 0.394606
O O2 0.606143 0.501965 0.281456
O O3 0.739713 0.533965 0.428095
O O4 0.968463 0.548582 0.422772
O O5 0.313717 0.750000 0.303025
O O6 0.339436 0.042181 0.253633
O O7 0.244902 0.034243 0.335766
O O8 0.031219 0.958517 0.182271
O O9 0.645574 0.250000 0.799334
O O10 0.720214 0.964100 0.880850
O O11 0.263739 0.750000 0.512984
O O12 0.211150 0.464245 0.436478
O O13 0.852338 0.250000 0.643575
O O14 0.086103 0.994009 0.733822
O O15 0.673683 0.250000 0.161996
O O16 0.705310 0.520365 0.105576
O O17 0.530408 0.551651 0.137650
O O18 0.164659 0.750000 0.901771
O O19 0.229722 0.034496 0.984530
O O20 0.764364 0.250000 0.954675
#
# Coordination Sequence:
#
# PCOD9158062 Si02
#       8
#     4   4   4   4   4   4   4   4
#     4  10  20  33  51  76 103 128 156 194 239 285
#     4   9  19  35  53  71  93 126 166 203 237 279
#     4  10  21  36  51  69  97 131 165 199 237 283
#     4   9  18  33  53  76 101 128 157 191 236 290
#     4   9  17  32  53  72  94 128 164 195 235 288
#     4  10  19  30  47  74 103 125 154 200 245 284
#     4   9  19  34  50  70  97 127 159 200 246 285
#     4  10  20  33  49  69  96 131 164 194 238 294
#
# _framework density 24.633837
#
# number of rings (size 3 to 8) (size 9 to 14) (size 15 to 20)
#    0.000    2.500    0.000    1.875    0.000    6.500 
#    0.000    0.625    0.000    0.000    0.000    0.000 
#    0.000    0.000    0.000    0.000    0.000    0.000 
#
# Total GULP energy -178666.095242 kJ/mol
# GULP energy per Si atom -5583.315476 kJ/mol
# Density = 2.457777 g / cm^3
# Si number density = 24.633837 Si / 1000 Ang^3
#
#
#
# Elastic Constant Matrix: (Units=GPa)
#
#
# Indices 1 2 3 4 5 6 
#
# 1 57.1139 2.3829 28.0239 0.0000 -30.5269 0.0000
# 2 2.3829 93.5777 -0.0218 0.0000 -9.8051 0.0000
# 3 28.0239 -0.0218 110.2047 0.0000 -52.3216 0.0000
# 4 0.0000 0.0000 0.0000 -0.8902 0.0000 -1.1483
# 5 -30.5269 -9.8051 -52.3216 0.0000 38.9161 0.0000
# 6 0.0000 0.0000 0.0000 -1.1483 0.0000 -0.9323
#
#
#
# Elastic Compliance Matrix: (Units=1/GPa)
#
#
# Indices 1 2 3 4 5 6 
#
# 1 0.035909 0.003983 0.013048 0.000000 0.046714 0.000000
# 2 0.003983 0.011972 0.005267 0.000000 0.013222 0.000000
# 3 0.013048 0.005267 0.031094 0.000000 0.053368 0.000000
# 4 0.000000 0.000000 0.000000 1.907560 0.000000 -2.349595
# 5 0.046714 0.013222 0.053368 0.000000 0.137423 0.000000
# 6 0.000000 0.000000 0.000000 -2.349595 0.000000 1.821435
#
#
# Mechanical properties :
#
#
# Convention : Reuss Voigt Hill
#
# Bulk Modulus (GPa) = 8.09254 35.74071 21.91663
# Shear Modulus (GPa) = 1.26840 22.78614 12.02727
#
# Velocity S-wave (km/s) = 0.71834 3.04467 2.21202
# Velocity P-wave (km/s) = 1.99507 5.18655 3.92941
#
# Compressibility (1/GPa) = 0.12357058
#
# Stress axis : x y z
#
# Youngs Moduli (GPa) = 27.84837 83.53171 32.16020
#
# Poissons Ratio (x) = -0.33273 -0.41962
# Poissons Ratio (y) = -0.11093 -0.16938
# Poissons Ratio (z) = -0.36336 -0.43995
#
# Static dielectric constant tensor:
#      x y z
#    x 1.994390 0.000000 -0.061450 
#    y 0.000000 1.924940 0.000000 
#    z -0.061450 0.000000 1.934690 
# 
# From -- ./inp_files/68320.got.cif
#   From: 2010.05.17/outbox.cif.g08.bks.cpg/sg11_35_cif.got.tgz:68320.got - 2010.06.03 12:22:45.
