data_PCOD9158838
_publ_section_title
;
Structure prediction by ZEFSAII (Michael W. Deem and Ramdas Pophale) SiO2 
 PCOD9158838
Probable space group: P 21/M
;
_chemical_formula_sum "Si O2"
_cell_formula_units_Z 28
_cell_length_a 8.646800
_cell_length_b 16.122384
_cell_length_c 11.511351
_cell_angle_alpha 90.000000
_cell_angle_beta 111.221648
_cell_angle_gamma 90.000000
_cell_volume 1495.939608
_symmetry_space_group_name_H-M "P 21/M"
_symmetry_group_IT_number 11
_symmetry_cell_setting 'monoclinic'
loop_
_space_group_symop_operation_xyz
x,y,z
-x,1/2+y,-z
-x,-y,-z
x,1/2-y,z
loop_
_atom_site_type_symbol
_atom_site_label
_atom_site_fract_x
_atom_site_fract_y
_atom_site_fract_z
Si Si1 0.054390 0.514436 0.755895
Si Si2 0.356747 0.341254 0.192077
Si Si3 0.448115 0.585539 0.337658
Si Si4 0.721060 0.577906 0.593082
Si Si5 0.886602 0.158861 0.778456
Si Si6 0.985150 0.343697 0.062946
Si Si7 0.556094 0.005710 0.149530
O O1 0.049214 0.578440 0.863716
O O2 0.246563 0.507852 0.777364
O O3 0.915292 0.555253 0.633096
O O4 0.987635 0.421859 0.764461
O O5 0.424868 0.250000 0.192475
O O6 0.307284 0.354873 0.313389
O O7 0.479898 0.410036 0.180166
O O8 0.179217 0.349756 0.080699
O O9 0.619239 0.601063 0.451344
O O10 0.366288 0.503200 0.373554
O O11 0.303121 0.651709 0.314702
O O12 0.482039 0.565828 0.212202
O O13 0.955734 0.250000 0.767040
O O14 0.883552 0.151975 0.917236
O O15 0.962664 0.250000 0.107903
O O16 0.500000 0.000000 0.000000
#
# Coordination Sequence:
#
# PCOD9158838 Si02
#       7
#     4   4   4   4   4   4   4
#     4  10  19  32  51  75 107 139 173 219 266 320
#     4   9  18  33  54  76 100 133 176 224 264 311
#     4   9  18  34  52  73 100 131 173 217 256 310
#     4   8  17  34  55  73  93 131 178 219 258 299
#     4  10  19  32  52  74  99 138 182 220 261 312
#     4   9  17  31  52  76 100 134 181 224 261 305
#     4  11  21  32  50  78 112 146 172 207 272 333
#
# _framework density 18.717333
#
# number of rings (size 3 to 8) (size 9 to 14) (size 15 to 20)
#    0.000    2.571    0.000    3.000    0.000    1.714 
#    0.000    1.429    0.000    0.000    0.000    4.000 
#    0.000    0.000    0.000    0.000    0.000    0.000 
#
# Total GULP energy -155900.553468 kJ/mol
# GULP energy per Si atom -5567.876910 kJ/mol
# Density = 1.867473 g / cm^3
# Si number density = 18.717333 Si / 1000 Ang^3
#
#
#
# Elastic Constant Matrix: (Units=GPa)
#
#
# Indices 1 2 3 4 5 6 
#
# 1 88.2221 33.7773 16.6391 0.0000 15.6800 0.0000
# 2 33.7773 102.7108 4.7745 0.0000 1.8774 0.0000
# 3 16.6391 4.7745 77.9712 0.0000 18.9896 0.0000
# 4 0.0000 0.0000 0.0000 10.3696 0.0000 2.3453
# 5 15.6800 1.8774 18.9896 0.0000 25.3981 0.0000
# 6 0.0000 0.0000 0.0000 2.3453 0.0000 8.1226
#
#
#
# Elastic Compliance Matrix: (Units=1/GPa)
#
#
# Indices 1 2 3 4 5 6 
#
# 1 0.014720 -0.004652 -0.000889 0.000000 -0.008079 0.000000
# 2 -0.004652 0.011236 -0.000235 0.000000 0.002217 0.000000
# 3 -0.000889 -0.000235 0.015762 0.000000 -0.011219 0.000000
# 4 0.000000 0.000000 0.000000 0.103174 0.000000 -0.029790
# 5 -0.008079 0.002217 -0.011219 0.000000 0.052585 0.000000
# 6 0.000000 0.000000 0.000000 -0.029790 0.000000 0.131715
#
#
# Mechanical properties :
#
#
# Convention : Reuss Voigt Hill
#
# Bulk Modulus (GPa) = 33.15002 42.14289 37.64645
# Shear Modulus (GPa) = 14.25325 23.02559 18.63942
#
# Velocity S-wave (km/s) = 2.76252 3.51119 3.15911
# Velocity P-wave (km/s) = 5.28438 6.24518 5.78476
#
# Compressibility (1/GPa) = 0.03016589
#
# Stress axis : x y z
#
# Youngs Moduli (GPa) = 67.93698 88.99788 63.44554
#
# Poissons Ratio (x) = 0.41399 0.05638
# Poissons Ratio (y) = 0.31602 0.01493
# Poissons Ratio (z) = 0.06037 0.02095
#
# Static dielectric constant tensor:
#      x y z
#    x 1.649930 0.000000 0.038470 
#    y 0.000000 1.677170 0.000000 
#    z 0.038470 0.000000 1.698740 
# 
# From -- ./inp_files/17808.got.cif
#   From: 2010.05.17/outbox.cif.g08.bks.cpg/sg11_9_cif.got.tgz:17808.got - 2010.06.03 12:22:45.
