data_PCOD9158870
_publ_section_title
;
Structure prediction by ZEFSAII (Michael W. Deem and Ramdas Pophale) SiO2 
 PCOD9158870
Probable space group: P 21/M
;
_chemical_formula_sum "Si O2"
_cell_formula_units_Z 32
_cell_length_a 21.106676
_cell_length_b 8.428736
_cell_length_c 9.612835
_cell_angle_alpha 90.000000
_cell_angle_beta 85.401994
_cell_angle_gamma 90.000000
_cell_volume 1704.644515
_symmetry_space_group_name_H-M "P 21/M"
_symmetry_group_IT_number 11
_symmetry_cell_setting 'monoclinic'
loop_
_space_group_symop_operation_xyz
x,y,z
-x,1/2+y,-z
-x,-y,-z
x,1/2-y,z
loop_
_atom_site_type_symbol
_atom_site_label
_atom_site_fract_x
_atom_site_fract_y
_atom_site_fract_z
Si Si1 0.657803 0.441127 0.014376
Si Si2 0.609351 0.562524 0.435057
Si Si3 0.131556 0.443598 0.654599
Si Si4 0.004804 0.060455 0.842350
Si Si5 0.264590 0.059317 0.754276
Si Si6 0.532497 0.062877 0.206472
Si Si7 0.938606 0.940032 0.596498
Si Si8 0.396813 0.937178 0.256725
O O1 0.658688 0.250000 0.017901
O O2 0.715893 0.503313 0.095541
O O3 0.592542 0.491235 0.103760
O O4 0.651320 0.490976 0.855681
O O5 0.600073 0.750000 0.411902
O O6 0.676898 0.512939 0.356276
O O7 0.555167 0.468984 0.360627
O O8 0.609514 0.527317 0.597538
O O9 0.132021 0.250000 0.656895
O O10 0.071038 0.494128 0.758363
O O11 0.197586 0.500425 0.707640
O O12 0.118955 0.489306 0.495683
O O13 0.005317 0.250000 0.842958
O O14 0.948091 0.005061 0.749841
O O15 0.000000 0.000000 0.000000
O O16 0.262190 0.250000 0.755474
O O17 0.521847 0.250000 0.186951
O O18 0.468254 0.968753 0.189817
O O19 0.939609 0.750000 0.602880
O O20 0.000000 0.000000 0.500000
O O21 0.388522 0.750000 0.282036
#
# Coordination Sequence:
#
# PCOD9158870 Si02
#       8
#     4   4   4   4   4   4   4   4
#     4   9  20  35  50  71  99 129 159 199 249 293
#     4  10  20  33  50  72  96 123 159 202 244 288
#     4   8  16  32  54  76  97 128 167 205 242 284
#     4  10  19  32  51  77 109 137 165 203 250 297
#     4   9  18  35  56  73  92 125 170 207 237 285
#     4  10  19  33  52  72  95 123 159 200 245 296
#     4   9  16  29  50  75 104 134 166 203 243 287
#     4  11  21  33  49  70  98 127 157 197 247 298
#
# _framework density 18.772241999999999
#
# number of rings (size 3 to 8) (size 9 to 14) (size 15 to 20)
#    0.000    2.500    0.000    3.375    0.000    2.000 
#    0.000    5.000    0.000    6.000    0.000    0.000 
#    0.000    0.000    0.000    0.000    0.000    0.000 
#
# Total GULP energy -178456.935855 kJ/mol
# GULP energy per Si atom -5576.779245 kJ/mol
# Density = 1.872952 g / cm^3
# Si number density = 18.772242 Si / 1000 Ang^3
#
#
#
# Elastic Constant Matrix: (Units=GPa)
#
#
# Indices 1 2 3 4 5 6 
#
# 1 79.2544 6.0080 33.8417 0.0000 34.6436 0.0000
# 2 6.0080 21.3225 8.9276 0.0000 2.7883 0.0000
# 3 33.8417 8.9276 116.4408 0.0000 35.3078 0.0000
# 4 0.0000 0.0000 0.0000 26.4962 0.0000 5.9325
# 5 34.6436 2.7883 35.3078 0.0000 30.0873 0.0000
# 6 0.0000 0.0000 0.0000 5.9325 0.0000 17.8930
#
#
#
# Elastic Compliance Matrix: (Units=1/GPa)
#
#
# Indices 1 2 3 4 5 6 
#
# 1 0.026168 -0.004198 0.002693 0.000000 -0.032903 0.000000
# 2 -0.004198 0.049129 -0.004086 0.000000 0.005076 0.000000
# 3 0.002693 -0.004086 0.013885 0.000000 -0.019017 0.000000
# 4 0.000000 0.000000 0.000000 0.040768 0.000000 -0.013517
# 5 -0.032903 0.005076 -0.019017 0.000000 0.092968 0.000000
# 6 0.000000 0.000000 0.000000 -0.013517 0.000000 0.060369
#
#
# Mechanical properties :
#
#
# Convention : Reuss Voigt Hill
#
# Bulk Modulus (GPa) = 12.82047 34.95249 23.88648
# Shear Modulus (GPa) = 15.60218 26.11132 20.85675
#
# Velocity S-wave (km/s) = 2.88606 3.73360 3.33685
# Velocity P-wave (km/s) = 4.23676 6.10295 5.25338
#
# Compressibility (1/GPa) = 0.07800026
#
# Stress axis : x y z
#
# Youngs Moduli (GPa) = 38.21443 20.35474 72.02086
#
# Poissons Ratio (x) = 0.08546 -0.19399
# Poissons Ratio (y) = 0.16044 0.29425
# Poissons Ratio (z) = -0.10293 0.08316
#
# Static dielectric constant tensor:
#      x y z
#    x 1.656750 0.000000 0.014350 
#    y 0.000000 1.636660 0.000000 
#    z 0.014350 0.000000 1.675230 
# 
# From -- ./inp_files/27297.got.cif
#   From: 2010.05.17/outbox.cif.g08.bks.cpg/sg11_14_cif.got.tgz:27297.got - 2010.06.03 12:22:45.
