data_PCOD9158938
_publ_section_title
;
Structure prediction by ZEFSAII (Michael W. Deem and Ramdas Pophale) SiO2 
 PCOD9158938
Probable space group: P 21/M
;
_chemical_formula_sum "Si O2"
_cell_formula_units_Z 32
_cell_length_a 28.942701
_cell_length_b 8.798051
_cell_length_c 22.768677
_cell_angle_alpha 90.000000
_cell_angle_beta 18.549174
_cell_angle_gamma 90.000000
_cell_volume 1844.387494
_symmetry_space_group_name_H-M "P 21/M"
_symmetry_group_IT_number 11
_symmetry_cell_setting 'monoclinic'
loop_
_space_group_symop_operation_xyz
x,y,z
-x,1/2+y,-z
-x,-y,-z
x,1/2-y,z
loop_
_atom_site_type_symbol
_atom_site_label
_atom_site_fract_x
_atom_site_fract_y
_atom_site_fract_z
Si Si1 0.777048 0.932548 0.781646
Si Si2 0.689520 0.931695 0.227280
Si Si3 0.990882 0.931145 0.416436
Si Si4 0.845621 0.066458 0.478703
Si Si5 0.525815 0.066409 0.904296
Si Si6 0.114920 0.069243 0.815119
Si Si7 0.624110 0.430675 0.432780
Si Si8 0.017474 0.567249 0.809098
O O1 0.785521 0.750000 0.778106
O O2 0.867223 0.972925 0.613822
O O3 0.610748 0.977329 0.971674
O O4 0.859357 0.009588 0.736379
O O5 0.683197 0.750000 0.247460
O O6 0.547679 0.967884 0.359420
O O7 0.675408 0.019295 0.305855
O O8 0.845244 0.964931 0.011677
O O9 0.992721 0.750000 0.409281
O O10 0.948397 0.004139 0.406076
O O11 0.849931 0.250000 0.475099
O O12 0.681043 0.017942 0.691755
O O13 0.899099 0.018171 0.350042
O O14 0.525148 0.250000 0.909450
O O15 0.500000 0.000000 0.000000
O O16 0.104467 0.250000 0.830132
O O17 0.273939 0.015133 0.643998
O O18 0.076302 0.009438 0.797126
O O19 0.000000 0.000000 0.000000
O O20 0.642069 0.250000 0.417985
O O21 0.033182 0.750000 0.796432
#
# Coordination Sequence:
#
# PCOD9158938 Si02
#       8
#     4   4   4   4   4   4   4   4
#     4   9  18  32  51  77 107 137 176 225 271 316
#     4   9  18  33  54  79 108 140 178 223 270 321
#     4  10  19  32  52  78 106 139 177 222 270 320
#     4  10  21  36  56  80 110 146 182 222 276 333
#     4  10  19  33  54  81 109 141 181 227 276 325
#     4  12  23  36  56  83 111 145 183 228 276 325
#     4  10  19  32  54  83 109 137 176 225 275 320
#     4  10  21  38  57  80 110 146 184 224 271 331
#
# _framework density 17.349933
#
# number of rings (size 3 to 8) (size 9 to 14) (size 15 to 20)
#    0.000    2.000    2.500    1.875    0.000    2.000 
#    0.000    1.250    0.000    7.500    0.000    0.000 
#    0.000    0.000    0.000    0.000    0.000    0.000 
#
# Total GULP energy -178595.987266 kJ/mol
# GULP energy per Si atom -5581.124602 kJ/mol
# Density = 1.731044 g / cm^3
# Si number density = 17.349933 Si / 1000 Ang^3
#
#
#
# Elastic Constant Matrix: (Units=GPa)
#
#
# Indices 1 2 3 4 5 6 
#
# 1 153.0471 48.5370 93.7473 0.0000 -10.3242 0.0000
# 2 48.5370 37.3306 44.6486 0.0000 -3.1251 0.0000
# 3 93.7473 44.6486 133.2321 0.0000 -9.6241 0.0000
# 4 0.0000 0.0000 0.0000 17.4740 0.0000 -2.6214
# 5 -10.3242 -3.1251 -9.6241 0.0000 28.7070 0.0000
# 6 0.0000 0.0000 0.0000 -2.6214 0.0000 31.6696
#
#
#
# Elastic Compliance Matrix: (Units=1/GPa)
#
#
# Indices 1 2 3 4 5 6 
#
# 1 0.013604 -0.010420 -0.005953 0.000000 0.001762 0.000000
# 2 -0.010420 0.052689 -0.010434 0.000000 -0.001510 0.000000
# 3 -0.005953 -0.010434 0.015325 0.000000 0.001861 0.000000
# 4 0.000000 0.000000 0.000000 0.057947 0.000000 0.004796
# 5 0.001762 -0.001510 0.001861 0.000000 0.035928 0.000000
# 6 0.000000 0.000000 0.000000 0.004796 0.000000 0.031973
#
#
# Mechanical properties :
#
#
# Convention : Reuss Voigt Hill
#
# Bulk Modulus (GPa) = 35.70910 77.49728 56.60319
# Shear Modulus (GPa) = 18.49001 24.68191 21.58596
#
# Velocity S-wave (km/s) = 3.26806 3.77582 3.53108
# Velocity P-wave (km/s) = 5.90480 7.98582 7.02282
#
# Compressibility (1/GPa) = 0.02800407
#
# Stress axis : x y z
#
# Youngs Moduli (GPa) = 73.50863 18.97921 65.25104
#
# Poissons Ratio (x) = 0.19777 0.38843
# Poissons Ratio (y) = 0.76598 0.68083
# Poissons Ratio (z) = 0.43758 0.19803
#
# Static dielectric constant tensor:
#      x y z
#    x 1.559380 0.000000 -0.020010 
#    y 0.000000 1.579670 0.000000 
#    z -0.020010 0.000000 1.599820 
# 
# From -- ./inp_files/67021.got.cif
#   From: 2010.05.17/outbox.cif.g08.bks.cpg/sg11_34_cif.got.tgz:67021.got - 2010.06.03 12:22:45.
