data_PCOD9158202
_publ_section_title
;
Structure prediction by ZEFSAII (Michael W. Deem and Ramdas Pophale) SiO2 
 PCOD9158202
Probable space group: P 21/M
;
_chemical_formula_sum "Si O2"
_cell_formula_units_Z 32
_cell_length_a 12.654336
_cell_length_b 8.349157
_cell_length_c 30.033587
_cell_angle_alpha 90.000000
_cell_angle_beta 145.916179
_cell_angle_gamma 90.000000
_cell_volume 1778.243825
_symmetry_space_group_name_H-M "P 21/M"
_symmetry_group_IT_number 11
_symmetry_cell_setting 'monoclinic'
loop_
_space_group_symop_operation_xyz
x,y,z
-x,1/2+y,-z
-x,-y,-z
x,1/2-y,z
loop_
_atom_site_type_symbol
_atom_site_label
_atom_site_fract_x
_atom_site_fract_y
_atom_site_fract_z
Si Si1 0.576444 0.054420 0.219929
Si Si2 0.805953 0.441816 0.487735
Si Si3 0.814693 0.943488 0.960341
Si Si4 0.685556 0.558624 0.539741
Si Si5 0.738685 0.941696 0.128079
Si Si6 0.767757 0.056436 0.375125
Si Si7 0.311819 0.443648 0.988683
Si Si8 0.925835 0.057005 0.280002
O O1 0.575844 0.250000 0.218840
O O2 0.623115 0.003588 0.286571
O O3 0.749487 0.001997 0.248811
O O4 0.376080 0.001070 0.131022
O O5 0.803305 0.250000 0.487778
O O6 0.696540 0.505482 0.492274
O O7 0.731050 0.496290 0.413048
O O8 0.022936 0.499621 0.565209
O O9 0.812949 0.750000 0.959655
O O10 0.800212 0.997138 0.006741
O O11 0.000000 0.000000 0.000000
O O12 0.500000 0.500000 0.500000
O O13 0.689115 0.750000 0.542302
O O14 0.876457 0.498813 0.630852
O O15 0.742640 0.750000 0.130387
O O16 0.767444 0.996200 0.086953
O O17 0.883951 0.006387 0.215000
O O18 0.528096 0.999101 0.067335
O O19 0.770851 0.250000 0.376058
O O20 0.316115 0.250000 0.990182
O O21 0.926916 0.250000 0.282315
#
# Coordination Sequence:
#
# PCOD9158202 Si02
#       8
#     4   4   4   4   4   4   4   4
#     4   9  16  32  56  77 100 138 180 215 256 309
#     4  10  19  31  52  82 113 140 173 220 269 317
#     4  10  20  35  54  74 103 140 175 212 258 310
#     4  11  23  39  58  78 107 144 181 221 271 331
#     4  10  19  30  52  83 109 133 174 227 265 305
#     4   9  17  32  54  80 108 140 180 220 261 315
#     4   9  18  34  52  74 108 146 175 210 268 322
#     4  10  19  35  57  78 104 140 179 217 266 322
#
# _framework density 17.995282
#
# number of rings (size 3 to 8) (size 9 to 14) (size 15 to 20)
#    0.000    2.250    2.500    1.125    0.000    2.500 
#    0.000    1.875    0.000    4.500    0.000    0.000 
#    0.000    0.000    0.000    0.000    0.000    0.000 
#
# Total GULP energy -178496.678520 kJ/mol
# GULP energy per Si atom -5578.021204 kJ/mol
# Density = 1.795432 g / cm^3
# Si number density = 17.995282 Si / 1000 Ang^3
#
#
#
# Elastic Constant Matrix: (Units=GPa)
#
#
# Indices 1 2 3 4 5 6 
#
# 1 180.2442 20.1566 91.6529 0.0000 -11.2815 0.0000
# 2 20.1566 6.4996 13.2216 0.0000 -2.8018 0.0000
# 3 91.6529 13.2216 118.4023 0.0000 -10.2119 0.0000
# 4 0.0000 0.0000 0.0000 23.8215 0.0000 0.9685
# 5 -11.2815 -2.8018 -10.2119 0.0000 28.8827 0.0000
# 6 0.0000 0.0000 0.0000 0.9685 0.0000 27.2031
#
#
#
# Elastic Compliance Matrix: (Units=1/GPa)
#
#
# Indices 1 2 3 4 5 6 
#
# 1 0.011148 -0.022008 -0.006169 0.000000 0.000038 0.000000
# 2 -0.022008 0.246509 -0.009458 0.000000 0.011973 0.000000
# 3 -0.006169 -0.009458 0.014430 0.000000 0.001775 0.000000
# 4 0.000000 0.000000 0.000000 0.042040 0.000000 -0.001497
# 5 0.000038 0.011973 0.001775 0.000000 0.036427 0.000000
# 6 0.000000 0.000000 0.000000 -0.001497 0.000000 0.036814
#
#
# Mechanical properties :
#
#
# Convention : Reuss Voigt Hill
#
# Bulk Modulus (GPa) = 5.08086 61.68981 33.38533
# Shear Modulus (GPa) = 9.46532 27.98912 18.72722
#
# Velocity S-wave (km/s) = 2.29593 3.94808 3.22945
# Velocity P-wave (km/s) = 3.13974 7.42554 5.70073
#
# Compressibility (1/GPa) = 0.19681722
#
# Stress axis : x y z
#
# Youngs Moduli (GPa) = 89.69885 4.05665 69.29893
#
# Poissons Ratio (x) = 0.08928 0.42750
# Poissons Ratio (y) = 1.97410 0.65545
# Poissons Ratio (z) = 0.55334 0.03837
#
# Static dielectric constant tensor:
#      x y z
#    x 1.617950 0.000000 -0.037670 
#    y 0.000000 1.622160 0.000000 
#    z -0.037670 0.000000 1.609390 
# 
# From -- ./inp_files/69418.got.cif
#   From: 2010.05.17/outbox.cif.g08.bks.cpg/sg11_35_cif.got.tgz:69418.got - 2010.06.03 12:22:45.
