data_PCOD9158809
_publ_section_title
;
Structure prediction by ZEFSAII (Michael W. Deem and Ramdas Pophale) SiO2 
 PCOD9158809
Probable space group: P 21/M
;
_chemical_formula_sum "Si O2"
_cell_formula_units_Z 24
_cell_length_a 17.107147
_cell_length_b 9.433201
_cell_length_c 23.957630
_cell_angle_alpha 90.000000
_cell_angle_beta 163.809813
_cell_angle_gamma 90.000000
_cell_volume 1077.990128
_symmetry_space_group_name_H-M "P 21/M"
_symmetry_group_IT_number 11
_symmetry_cell_setting 'monoclinic'
loop_
_space_group_symop_operation_xyz
x,y,z
-x,1/2+y,-z
-x,-y,-z
x,1/2-y,z
loop_
_atom_site_type_symbol
_atom_site_label
_atom_site_fract_x
_atom_site_fract_y
_atom_site_fract_z
Si Si1 0.409823 0.088137 0.276056
Si Si2 0.000511 0.410026 0.443851
Si Si3 0.337889 0.589749 0.121236
Si Si4 0.499489 0.089974 0.556149
Si Si5 0.090177 0.088137 0.723944
Si Si6 0.162110 0.589749 0.878764
O O1 0.315631 0.250000 0.217248
O O2 0.750000 0.091763 0.500000
O O3 0.279112 0.011158 0.132778
O O4 0.360638 0.996877 0.297840
O O5 0.888950 0.250000 0.374647
O O6 0.326406 0.397470 0.650606
O O7 0.000000 0.500000 0.500000
O O8 0.860638 0.496876 0.297841
O O9 0.220396 0.750000 0.047020
O O10 0.250000 0.534693 1.000000
O O11 0.611050 0.250000 0.625353
O O12 0.173594 0.102530 0.349395
O O13 0.500000 0.000000 0.500000
O O14 0.184369 0.250000 0.782752
O O15 0.220888 0.011158 0.867221
O O16 0.279604 0.750000 0.952980
#
# Coordination Sequence:
#
# PCOD9158809 Si02
#       6
#     4   4   4   4   4   4
#     4   9  17  30  49  72  97 126 161 197 235 284
#     4  10  19  32  51  73  98 127 160 198 239 284
#     4   9  18  33  52  73  97 126 160 198 240 284
#     4  10  19  32  51  73  98 127 160 198 239 284
#     4   9  17  30  49  72  97 126 161 197 235 284
#     4   9  18  33  52  73  97 126 160 198 240 284
#
# _framework density 22.263653000000001
#
# number of rings (size 3 to 8) (size 9 to 14) (size 15 to 20)
#    0.000    2.667    0.000    2.000    0.000    6.000 
#    0.000    1.667    0.000    0.000    0.000    0.000 
#    0.000    0.000    0.000    0.000    0.000    0.000 
#
# Total GULP energy -134108.119172 kJ/mol
# GULP energy per Si atom -5587.838299 kJ/mol
# Density = 2.221298 g / cm^3
# Si number density = 22.263653 Si / 1000 Ang^3
#
#
#
# Elastic Constant Matrix: (Units=GPa)
#
#
# Indices 1 2 3 4 5 6 
#
# 1 153.0385 128.5613 43.1978 0.0000 -68.8846 0.0000
# 2 128.5613 224.3479 36.9063 0.0000 -63.9225 0.0000
# 3 43.1978 36.9063 74.8615 0.0000 -26.7190 0.0000
# 4 0.0000 0.0000 0.0000 15.2821 0.0000 -11.5754
# 5 -68.8846 -63.9225 -26.7190 0.0000 67.9645 0.0000
# 6 0.0000 0.0000 0.0000 -11.5754 0.0000 21.4245
#
#
#
# Elastic Compliance Matrix: (Units=1/GPa)
#
#
# Indices 1 2 3 4 5 6 
#
# 1 0.017744 -0.006659 -0.003225 0.000000 0.010453 0.000000
# 2 -0.006659 0.008669 0.000081 0.000000 0.001436 0.000000
# 3 -0.003225 0.000081 0.016331 0.000000 0.003228 0.000000
# 4 0.000000 0.000000 0.000000 0.110766 0.000000 0.059846
# 5 0.010453 0.001436 0.003228 0.000000 0.027928 0.000000
# 6 0.000000 0.000000 0.000000 0.059846 0.000000 0.079010
#
#
# Mechanical properties :
#
#
# Convention : Reuss Voigt Hill
#
# Bulk Modulus (GPa) = 43.21852 96.61984 69.91918
# Shear Modulus (GPa) = 17.37522 37.17304 27.27413
#
# Velocity S-wave (km/s) = 2.79665 4.09060 3.50387
# Velocity P-wave (km/s) = 5.46650 8.11190 6.91684
#
# Compressibility (1/GPa) = 0.02313823
#
# Stress axis : x y z
#
# Youngs Moduli (GPa) = 56.35832 115.35127 61.23322
#
# Poissons Ratio (x) = 0.76813 0.19748
# Poissons Ratio (y) = 0.37529 -0.00498
# Poissons Ratio (z) = 0.18176 -0.00938
#
# Static dielectric constant tensor:
#      x y z
#    x 1.802200 0.000000 0.048970 
#    y 0.000000 1.804140 0.000000 
#    z 0.048970 0.000000 1.849810 
# 
# From -- ./inp_files/20503.got.cif
#   From: 2010.05.17/outbox.cif.g08.bks.cpg/sg11_11_cif.got.tgz:20503.got - 2010.06.03 12:22:45.
