data_PCOD9158236
_publ_section_title
;
Structure prediction by ZEFSAII (Michael W. Deem and Ramdas Pophale) SiO2 
 PCOD9158236
Probable space group: P 21/M
;
_chemical_formula_sum "Si O2"
_cell_formula_units_Z 24
_cell_length_a 5.034239
_cell_length_b 7.646429
_cell_length_c 26.076649
_cell_angle_alpha 90.000000
_cell_angle_beta 89.337674
_cell_angle_gamma 90.000000
_cell_volume 1003.726184
_symmetry_space_group_name_H-M "P 21/M"
_symmetry_group_IT_number 11
_symmetry_cell_setting 'monoclinic'
loop_
_space_group_symop_operation_xyz
x,y,z
-x,1/2+y,-z
-x,-y,-z
x,1/2-y,z
loop_
_atom_site_type_symbol
_atom_site_label
_atom_site_fract_x
_atom_site_fract_y
_atom_site_fract_z
Si Si1 0.632577 0.536760 0.777250
Si Si2 0.367005 0.052429 0.553768
Si Si3 0.889166 0.959394 0.944374
Si Si4 0.872250 0.949227 0.613949
Si Si5 0.394058 0.535730 0.885991
Si Si6 0.137661 0.963432 0.717251
O O1 0.632586 0.750000 0.778618
O O2 0.514428 0.478258 0.831643
O O3 0.930265 0.486207 0.762223
O O4 0.430795 0.480952 0.732734
O O5 0.273170 0.250000 0.550164
O O6 0.500000 0.000000 0.500000
O O7 0.605278 0.036939 0.594329
O O8 0.105828 0.948138 0.571054
O O9 0.879858 0.750000 0.940401
O O10 0.100953 0.023080 0.901698
O O11 0.596602 0.021460 0.930289
O O12 0.000000 0.000000 0.000000
O O13 0.792114 0.750000 0.626033
O O14 0.015036 0.025349 0.663994
O O15 0.386130 0.750000 0.884428
O O16 0.145512 0.750000 0.714406
#
# Coordination Sequence:
#
# PCOD9158236 Si02
#       6
#     4   4   4   4   4   4
#     4   9  15  26  44  72 105 134 163 208 263 313
#     4  12  25  42  62  87 117 154 195 237 284 336
#     4  10  19  31  46  68  95 128 165 208 256 307
#     4  11  22  39  61  89 121 152 187 233 283 339
#     4   9  17  28  45  69  99 128 163 209 259 307
#     4   9  17  28  48  77 108 136 168 211 264 316
#
# _framework density 23.910900000000002
#
# number of rings (size 3 to 8) (size 9 to 14) (size 15 to 20)
#    0.000    2.000    0.000    5.000    0.000    6.667 
#    0.000    0.000    0.000    0.000    0.000   23.333 
#    0.000    0.000    0.000    0.000    0.000    0.000 
#
# Total GULP energy -134217.256853 kJ/mol
# GULP energy per Si atom -5592.385702 kJ/mol
# Density = 2.385648 g / cm^3
# Si number density = 23.910900 Si / 1000 Ang^3
#
#
#
# Elastic Constant Matrix: (Units=GPa)
#
#
# Indices 1 2 3 4 5 6 
#
# 1 83.9918 -4.3810 -20.4909 0.0000 0.2909 0.0000
# 2 -4.3810 51.1222 -5.9933 0.0000 3.0216 0.0000
# 3 -20.4909 -5.9933 56.2280 0.0000 0.9717 0.0000
# 4 0.0000 0.0000 0.0000 105.5291 0.0000 -0.9368
# 5 0.2909 3.0216 0.9717 0.0000 39.0482 0.0000
# 6 0.0000 0.0000 0.0000 -0.9368 0.0000 11.7370
#
#
#
# Elastic Compliance Matrix: (Units=1/GPa)
#
#
# Indices 1 2 3 4 5 6 
#
# 1 0.013220 0.001741 0.005010 0.000000 -0.000358 0.000000
# 2 0.001741 0.020137 0.002809 0.000000 -0.001641 0.000000
# 3 0.005010 0.002809 0.019923 0.000000 -0.000750 0.000000
# 4 0.000000 0.000000 0.000000 0.009483 0.000000 0.000757
# 5 -0.000358 -0.001641 -0.000750 0.000000 0.025758 0.000000
# 6 0.000000 0.000000 0.000000 0.000757 0.000000 0.085261
#
#
# Mechanical properties :
#
#
# Convention : Reuss Voigt Hill
#
# Bulk Modulus (GPa) = 13.81220 14.40131 14.10675
# Shear Modulus (GPa) = 27.96513 46.07667 37.02090
#
# Velocity S-wave (km/s) = 3.42359 4.39454 3.93909
# Velocity P-wave (km/s) = 4.62785 5.63784 5.15763
#
# Compressibility (1/GPa) = 0.07239978
#
# Stress axis : x y z
#
# Youngs Moduli (GPa) = 75.64222 49.66100 50.19388
#
# Poissons Ratio (x) = -0.08648 -0.25145
# Poissons Ratio (y) = -0.13172 -0.14101
# Poissons Ratio (z) = -0.37893 -0.13951
#
# Static dielectric constant tensor:
#      x y z
#    x 1.951050 0.000000 -0.043550 
#    y 0.000000 1.889620 0.000000 
#    z -0.043550 0.000000 1.948840 
# 
# From -- ./inp_files/67513.got.cif
#   From: 2010.05.17/outbox.cif.g08.bks.cpg/sg11_34_cif.got.tgz:67513.got - 2010.06.03 12:22:45.
