data_PCOD9158051
_publ_section_title
;
Structure prediction by ZEFSAII (Michael W. Deem and Ramdas Pophale) SiO2 
 PCOD9158051
Probable space group: P 21/M
;
_chemical_formula_sum "Si O2"
_cell_formula_units_Z 32
_cell_length_a 15.776247
_cell_length_b 8.485673
_cell_length_c 23.598706
_cell_angle_alpha 90.000000
_cell_angle_beta 31.198805
_cell_angle_gamma 90.000000
_cell_volume 1636.498555
_symmetry_space_group_name_H-M "P 21/M"
_symmetry_group_IT_number 11
_symmetry_cell_setting 'monoclinic'
loop_
_space_group_symop_operation_xyz
x,y,z
-x,1/2+y,-z
-x,-y,-z
x,1/2-y,z
loop_
_atom_site_type_symbol
_atom_site_label
_atom_site_fract_x
_atom_site_fract_y
_atom_site_fract_z
Si Si1 0.785048 0.573058 0.472038
Si Si2 0.864002 0.940479 0.121357
Si Si3 0.323880 0.067171 0.178073
Si Si4 0.438824 0.940487 0.865542
Si Si5 0.504854 0.561823 0.288706
Si Si6 0.076577 0.559953 0.102034
Si Si7 0.932968 0.938102 0.765453
Si Si8 0.065121 0.571916 0.405557
O O1 0.741061 0.750000 0.479018
O O2 0.628543 0.489025 0.588599
O O3 0.895926 0.492384 0.360476
O O4 0.912546 0.582391 0.450832
O O5 0.863180 0.750000 0.120493
O O6 0.683874 0.995407 0.206721
O O7 0.926619 0.989590 0.147777
O O8 0.000000 0.000000 0.000000
O O9 0.357574 0.250000 0.145944
O O10 0.483226 0.000624 0.119222
O O11 0.224599 0.998084 0.180968
O O12 0.192446 0.045425 0.303529
O O13 0.450997 0.750000 0.858960
O O14 0.522601 0.998895 0.759652
O O15 0.248169 0.985930 0.974402
O O16 0.505376 0.750000 0.285031
O O17 0.075629 0.750000 0.106608
O O18 0.073272 0.492029 0.166631
O O19 0.925631 0.750000 0.765394
O O20 0.133234 0.750000 0.373317
O O21 0.000000 0.500000 0.500000
#
# Coordination Sequence:
#
# PCOD9158051 Si02
#       8
#     4   4   4   4   4   4   4   4
#     4  10  21  37  56  78 108 149 190 226 275 337
#     4  10  21  38  60  86 115 146 181 225 279 336
#     4   9  19  34  51  75 108 146 186 228 272 322
#     4  10  20  35  56  82 114 152 190 226 276 337
#     4  11  22  35  56  88 119 143 180 235 285 328
#     4  10  21  38  59  82 111 149 188 227 275 337
#     4  10  21  38  58  81 112 148 190 237 278 320
#     4  10  19  30  47  72 103 142 185 227 273 326
#
# _framework density 19.553943
#
# number of rings (size 3 to 8) (size 9 to 14) (size 15 to 20)
#    0.000    2.000    1.250    2.250    0.000    7.500 
#    0.000    0.625    0.000    0.000    0.000    0.000 
#    0.000    0.000    0.000    0.000    0.000    0.000 
#
# Total GULP energy -178445.324601 kJ/mol
# GULP energy per Si atom -5576.416394 kJ/mol
# Density = 1.950944 g / cm^3
# Si number density = 19.553943 Si / 1000 Ang^3
#
#
#
# Elastic Constant Matrix: (Units=GPa)
#
#
# Indices 1 2 3 4 5 6 
#
# 1 112.3475 13.4315 25.9782 0.0000 1.7617 0.0000
# 2 13.4315 22.4482 5.8104 0.0000 -1.6674 0.0000
# 3 25.9782 5.8104 50.8314 0.0000 -11.2684 0.0000
# 4 0.0000 0.0000 0.0000 24.2492 0.0000 0.8792
# 5 1.7617 -1.6674 -11.2684 0.0000 28.1630 0.0000
# 6 0.0000 0.0000 0.0000 0.8792 0.0000 13.3950
#
#
#
# Elastic Compliance Matrix: (Units=1/GPa)
#
#
# Indices 1 2 3 4 5 6 
#
# 1 0.010901 -0.005292 -0.005692 0.000000 -0.003273 0.000000
# 2 -0.005292 0.048486 -0.002335 0.000000 0.002267 0.000000
# 3 -0.005692 -0.002335 0.025125 0.000000 0.010271 0.000000
# 4 0.000000 0.000000 0.000000 0.041337 0.000000 -0.002713
# 5 -0.003273 0.002267 0.010271 0.000000 0.039956 0.000000
# 6 0.000000 0.000000 0.000000 -0.002713 0.000000 0.074833
#
#
# Mechanical properties :
#
#
# Convention : Reuss Voigt Hill
#
# Bulk Modulus (GPa) = 17.27864 30.67415 23.97639
# Shear Modulus (GPa) = 17.44785 22.52191 19.98488
#
# Velocity S-wave (km/s) = 2.99037 3.39748 3.20040
# Velocity P-wave (km/s) = 4.55836 5.57776 5.09363
#
# Compressibility (1/GPa) = 0.05787494
#
# Stress axis : x y z
#
# Youngs Moduli (GPa) = 91.73408 20.62436 39.80028
#
# Poissons Ratio (x) = 0.10915 0.22653
# Poissons Ratio (y) = 0.48549 0.09293
# Poissons Ratio (z) = 0.52212 0.04816
#
# Static dielectric constant tensor:
#      x y z
#    x 1.681670 0.000000 -0.086850 
#    y 0.000000 1.702100 0.000000 
#    z -0.086850 0.000000 1.591110 
# 
# From -- ./inp_files/68973.got.cif
#   From: 2010.05.17/outbox.cif.g08.bks.cpg/sg11_35_cif.got.tgz:68973.got - 2010.06.03 12:22:45.
