data_PCOD9158961
_publ_section_title
;
Structure prediction by ZEFSAII (Michael W. Deem and Ramdas Pophale) SiO2 
 PCOD9158961
Probable space group: P 21/M
;
_chemical_formula_sum "Si O2"
_cell_formula_units_Z 32
_cell_length_a 10.166996
_cell_length_b 18.418725
_cell_length_c 18.733772
_cell_angle_alpha 90.000000
_cell_angle_beta 25.845513
_cell_angle_gamma 90.000000
_cell_volume 1529.361930
_symmetry_space_group_name_H-M "P 21/M"
_symmetry_group_IT_number 11
_symmetry_cell_setting 'monoclinic'
loop_
_space_group_symop_operation_xyz
x,y,z
-x,1/2+y,-z
-x,-y,-z
x,1/2-y,z
loop_
_atom_site_type_symbol
_atom_site_label
_atom_site_fract_x
_atom_site_fract_y
_atom_site_fract_z
Si Si1 0.209676 0.169975 0.378297
Si Si2 0.441552 0.830097 0.233604
Si Si3 0.158950 0.164063 0.231785
Si Si4 0.452427 0.961027 0.744489
Si Si5 0.717292 0.079022 0.949213
Si Si6 0.896135 0.908704 0.114403
Si Si7 0.167924 0.517588 0.633668
Si Si8 0.275986 0.527921 0.253075
O O1 0.345160 0.250000 0.319622
O O2 0.211257 0.152909 0.292466
O O3 0.377289 0.114218 0.348737
O O4 0.865481 0.171679 0.570896
O O5 0.507314 0.750000 0.173755
O O6 0.697156 0.855803 0.163967
O O7 0.380992 0.889071 0.201848
O O8 0.094667 0.250000 0.252431
O O9 0.912754 0.103804 0.327036
O O10 0.470976 0.136903 0.043207
O O11 0.306550 0.021034 0.764436
O O12 0.669031 0.004686 0.692459
O O13 0.163265 0.935595 0.932532
O O14 0.940739 0.119329 0.895026
O O15 0.927023 0.031266 0.795748
O O16 0.510435 0.020074 0.092548
O O17 0.500000 0.500000 0.500000
O O18 0.062741 0.490165 0.606289
#
# Coordination Sequence:
#
# PCOD9158961 Si02
#       8
#     4   4   4   4   4   4   4   4
#     4  10  19  32  52  79 112 148 181 227 285 339
#     4  10  22  34  52  82 116 148 182 231 285 339
#     4  10  20  39  60  82 115 154 195 238 291 348
#     4   9  16  32  51  76 105 142 179 220 274 334
#     4  10  20  38  59  83 114 149 198 233 280 346
#     4   9  18  30  54  79 108 137 182 230 270 326
#     4  11  23  38  62  89 114 148 195 251 294 340
#     4   9  18  38  55  75 109 151 190 225 276 345
#
# _framework density 20.923759
#
# number of rings (size 3 to 8) (size 9 to 14) (size 15 to 20)
#    0.000    2.250    3.750    2.250    1.750    4.000 
#    0.000    3.750    0.000    0.750    0.000    0.000 
#    0.000    0.000    0.000    0.000    0.000    0.000 
#
# Total GULP energy -178265.593629 kJ/mol
# GULP energy per Si atom -5570.799801 kJ/mol
# Density = 2.087614 g / cm^3
# Si number density = 20.923759 Si / 1000 Ang^3
#
#
#
# Elastic Constant Matrix: (Units=GPa)
#
#
# Indices 1 2 3 4 5 6 
#
# 1 42.7926 27.2248 29.3670 0.0000 -24.0939 0.0000
# 2 27.2248 160.2647 36.2045 0.0000 -27.5835 0.0000
# 3 29.3670 36.2045 78.8428 0.0000 -29.1788 0.0000
# 4 0.0000 0.0000 0.0000 17.5932 0.0000 -0.4312
# 5 -24.0939 -27.5835 -29.1788 0.0000 40.4178 0.0000
# 6 0.0000 0.0000 0.0000 -0.4312 0.0000 24.6047
#
#
#
# Elastic Compliance Matrix: (Units=1/GPa)
#
#
# Indices 1 2 3 4 5 6 
#
# 1 0.039142 -0.002118 -0.007514 0.000000 0.016463 0.000000
# 2 -0.002118 0.007422 -0.001654 0.000000 0.002609 0.000000
# 3 -0.007514 -0.001654 0.019331 0.000000 0.008348 0.000000
# 4 0.000000 0.000000 0.000000 0.056864 0.000000 0.000996
# 5 0.016463 0.002609 0.008348 0.000000 0.042362 0.000000
# 6 0.000000 0.000000 0.000000 0.000996 0.000000 0.040660
#
#
# Mechanical properties :
#
#
# Convention : Reuss Voigt Hill
#
# Bulk Modulus (GPa) = 23.08225 51.94365 37.51295
# Shear Modulus (GPa) = 20.59348 29.13008 24.86178
#
# Velocity S-wave (km/s) = 3.14062 3.73527 3.45078
# Velocity P-wave (km/s) = 4.92005 6.59409 5.81760
#
# Compressibility (1/GPa) = 0.04332333
#
# Stress axis : x y z
#
# Youngs Moduli (GPa) = 25.54792 134.73301 51.73021
#
# Poissons Ratio (x) = 0.28540 0.38869
# Poissons Ratio (y) = 0.05412 0.08555
# Poissons Ratio (z) = 0.19196 0.22282
#
# Static dielectric constant tensor:
#      x y z
#    x 1.832820 0.000000 0.035170 
#    y 0.000000 1.816580 0.000000 
#    z 0.035170 0.000000 1.801210 
# 
# From -- ./inp_files/68695.got.cif
#   From: 2010.05.17/outbox.cif.g08.bks.cpg/sg11_35_cif.got.tgz:68695.got - 2010.06.03 12:22:45.
