data_PCOD9158267
_publ_section_title
;
Structure prediction by ZEFSAII (Michael W. Deem and Ramdas Pophale) SiO2 
 PCOD9158267
Probable space group: P 21/M
;
_chemical_formula_sum "Si O2"
_cell_formula_units_Z 24
_cell_length_a 12.105390
_cell_length_b 7.688568
_cell_length_c 13.230646
_cell_angle_alpha 90.000000
_cell_angle_beta 90.138470
_cell_angle_gamma 90.000000
_cell_volume 1231.413830
_symmetry_space_group_name_H-M "P 21/M"
_symmetry_group_IT_number 11
_symmetry_cell_setting 'monoclinic'
loop_
_space_group_symop_operation_xyz
x,y,z
-x,1/2+y,-z
-x,-y,-z
x,1/2-y,z
loop_
_atom_site_type_symbol
_atom_site_label
_atom_site_fract_x
_atom_site_fract_y
_atom_site_fract_z
Si Si1 0.128640 0.958930 0.002779
Si Si2 0.501370 0.542933 0.119341
Si Si3 0.257420 0.543225 0.807016
Si Si4 0.734212 0.463339 0.802321
Si Si5 0.871884 0.041893 0.385359
Si Si6 0.874844 0.039892 0.613606
O O1 0.140916 0.750000 0.002705
O O2 0.190632 0.027904 0.903469
O O3 0.187940 0.020536 0.104873
O O4 0.000000 0.000000 0.000000
O O5 0.500287 0.750000 0.126681
O O6 0.613522 0.480649 0.171684
O O7 0.389809 0.477743 0.172841
O O8 0.500000 0.500000 0.000000
O O9 0.236344 0.750000 0.804689
O O10 0.209223 0.472869 0.701599
O O11 0.733488 0.250000 0.801339
O O12 0.787903 0.520958 0.697102
O O13 0.857357 0.250000 0.391390
O O14 0.854768 0.973820 0.499410
O O15 0.999518 0.007709 0.357354
O O16 0.870004 0.250000 0.611441
#
# Coordination Sequence:
#
# PCOD9158267 Si02
#       6
#     4   4   4   4   4   4
#     4  10  19  31  47  70 100 129 159 203 252 298
#     4  11  21  36  55  74  99 135 175 211 253 303
#     4  10  20  35  51  72 105 136 167 208 255 301
#     4   9  18  33  51  71  99 132 166 206 251 297
#     4   9  18  32  52  77 105 135 165 207 255 296
#     4   9  17  32  54  76 101 135 171 204 249 306
#
# _framework density 19.489792000000001
#
# number of rings (size 3 to 8) (size 9 to 14) (size 15 to 20)
#    0.000    2.333    1.667    1.500    0.000    1.333 
#    0.000    2.500    0.000    0.000    0.000    0.000 
#    0.000    0.000    0.000    0.000    0.000    0.000 
#
# Total GULP energy -133955.691514 kJ/mol
# GULP energy per Si atom -5581.487146 kJ/mol
# Density = 1.944543 g / cm^3
# Si number density = 19.489792 Si / 1000 Ang^3
#
#
#
# Elastic Constant Matrix: (Units=GPa)
#
#
# Indices 1 2 3 4 5 6 
#
# 1 172.0539 -15.7837 116.1027 0.0000 -3.1399 0.0000
# 2 -15.7837 26.4721 2.4812 0.0000 3.7063 0.0000
# 3 116.1027 2.4812 162.1650 0.0000 -1.6594 0.0000
# 4 0.0000 0.0000 0.0000 1.0299 0.0000 1.5737
# 5 -3.1399 3.7063 -1.6594 0.0000 25.2966 0.0000
# 6 0.0000 0.0000 0.0000 1.5737 0.0000 27.1788
#
#
#
# Elastic Compliance Matrix: (Units=1/GPa)
#
#
# Indices 1 2 3 4 5 6 
#
# 1 0.012944 0.008638 -0.009403 0.000000 -0.000276 0.000000
# 2 0.008638 0.044399 -0.006924 0.000000 -0.005887 0.000000
# 3 -0.009403 -0.006924 0.013011 0.000000 0.000701 0.000000
# 4 0.000000 0.000000 0.000000 1.065211 0.000000 -0.061678
# 5 -0.000276 -0.005887 0.000701 0.000000 0.040405 0.000000
# 6 0.000000 0.000000 0.000000 -0.061678 0.000000 0.040365
#
#
# Mechanical properties :
#
#
# Convention : Reuss Voigt Hill
#
# Bulk Modulus (GPa) = 18.18915 62.92126 40.55521
# Shear Modulus (GPa) = 3.99987 27.89378 15.94683
#
# Velocity S-wave (km/s) = 1.43414 3.78722 2.86355
# Velocity P-wave (km/s) = 3.47782 7.17484 5.63798
#
# Compressibility (1/GPa) = 0.05497782
#
# Stress axis : x y z
#
# Youngs Moduli (GPa) = 77.25340 22.52296 76.85516
#
# Poissons Ratio (x) = -0.19455 0.72264
# Poissons Ratio (y) = -0.66730 0.53214
# Poissons Ratio (z) = 0.72638 0.15595
#
# Static dielectric constant tensor:
#      x y z
#    x 1.634840 0.000000 -0.013420 
#    y 0.000000 1.675750 0.000000 
#    z -0.013420 0.000000 1.688340 
# 
# From -- ./inp_files/33785.got.cif
#   From: 2010.05.17/outbox.cif.g08.bks.cpg/sg11_17_cif.got.tgz:33785.got - 2010.06.03 12:22:45.
