data_PCOD9158706
_publ_section_title
;
Structure prediction by ZEFSAII (Michael W. Deem and Ramdas Pophale) SiO2 
 PCOD9158706
Probable space group: P 21/M
;
_chemical_formula_sum "Si O2"
_cell_formula_units_Z 28
_cell_length_a 9.883899
_cell_length_b 8.417836
_cell_length_c 33.189558
_cell_angle_alpha 90.000000
_cell_angle_beta 34.745251
_cell_angle_gamma 90.000000
_cell_volume 1573.804284
_symmetry_space_group_name_H-M "P 21/M"
_symmetry_group_IT_number 11
_symmetry_cell_setting 'monoclinic'
loop_
_space_group_symop_operation_xyz
x,y,z
-x,1/2+y,-z
-x,-y,-z
x,1/2-y,z
loop_
_atom_site_type_symbol
_atom_site_label
_atom_site_fract_x
_atom_site_fract_y
_atom_site_fract_z
Si Si1 0.379793 0.556310 0.301322
Si Si2 0.245495 0.935208 0.422020
Si Si3 0.135111 0.440575 0.598624
Si Si4 0.217203 0.442854 0.856641
Si Si5 0.728741 0.558634 0.067994
Si Si6 0.469980 0.064180 0.441847
Si Si7 0.674440 0.559515 0.992571
O O1 0.392931 0.750000 0.299388
O O2 0.334667 0.496915 0.357703
O O3 0.614545 0.502180 0.220865
O O4 0.139748 0.517064 0.335975
O O5 0.205173 0.750000 0.425144
O O6 0.437133 0.965523 0.409637
O O7 0.000000 0.000000 0.500000
O O8 0.158792 0.250000 0.598099
O O9 0.285278 0.527849 0.595749
O O10 0.263091 0.478392 0.524676
O O11 0.203778 0.250000 0.859419
O O12 0.339073 0.489526 0.869795
O O13 0.948204 0.505778 0.919321
O O14 0.722255 0.750000 0.068794
O O15 0.611957 0.505231 0.054133
O O16 0.000000 0.500000 0.000000
O O17 0.445691 0.250000 0.438632
O O18 0.666651 0.750000 0.993936
O O19 0.500000 0.500000 0.000000
#
# Coordination Sequence:
#
# PCOD9158706 Si02
#       7
#     4   4   4   4   4   4   4
#     4   9  18  33  53  75 100 129 169 214 260 309
#     4  11  20  33  51  74 100 133 172 215 262 313
#     4   9  17  32  50  70  96 128 164 208 257 305
#     4   9  17  33  55  76  99 131 169 213 256 300
#     4   8  15  28  49  74  97 124 161 199 237 284
#     4  10  19  32  49  72  98 126 166 214 257 304
#     4  10  19  32  51  78 109 138 168 204 244 297
#
# _framework density 17.791284999999998
#
# number of rings (size 3 to 8) (size 9 to 14) (size 15 to 20)
#    0.000    2.571    1.429    1.286    0.000    1.143 
#    0.000    3.571    0.000    5.143    0.000    0.000 
#    0.000    0.000    0.000    0.000    0.000    0.000 
#
# Total GULP energy -155924.201543 kJ/mol
# GULP energy per Si atom -5568.721484 kJ/mol
# Density = 1.775079 g / cm^3
# Si number density = 17.791285 Si / 1000 Ang^3
#
#
#
# Elastic Constant Matrix: (Units=GPa)
#
#
# Indices 1 2 3 4 5 6 
#
# 1 118.1430 15.8930 59.4244 0.0000 15.2075 0.0000
# 2 15.8930 11.9790 18.3687 0.0000 5.2516 0.0000
# 3 59.4244 18.3687 106.4651 0.0000 15.6277 0.0000
# 4 0.0000 0.0000 0.0000 16.6665 0.0000 -2.6550
# 5 15.2075 5.2516 15.6277 0.0000 24.0956 0.0000
# 6 0.0000 0.0000 0.0000 -2.6550 0.0000 26.2639
#
#
#
# Elastic Compliance Matrix: (Units=1/GPa)
#
#
# Indices 1 2 3 4 5 6 
#
# 1 0.012461 -0.007146 -0.005301 0.000000 -0.002869 0.000000
# 2 -0.007146 0.121602 -0.015212 0.000000 -0.012127 0.000000
# 3 -0.005301 -0.015212 0.015471 0.000000 -0.003373 0.000000
# 4 0.000000 0.000000 0.000000 0.060983 0.000000 0.006165
# 5 -0.002869 -0.012127 -0.003373 0.000000 0.048143 0.000000
# 6 0.000000 0.000000 0.000000 0.006165 0.000000 0.038698
#
#
# Mechanical properties :
#
#
# Convention : Reuss Voigt Hill
#
# Bulk Modulus (GPa) = 10.61383 47.10660 28.86021
# Shear Modulus (GPa) = 13.01804 22.93193 17.97498
#
# Velocity S-wave (km/s) = 2.70795 3.59408 3.18201
# Velocity P-wave (km/s) = 3.96938 6.61498 5.45500
#
# Compressibility (1/GPa) = 0.09421673
#
# Stress axis : x y z
#
# Youngs Moduli (GPa) = 80.24721 8.22355 64.63542
#
# Poissons Ratio (x) = 0.05877 0.34266
# Poissons Ratio (y) = 0.57346 0.98320
# Poissons Ratio (z) = 0.42542 0.12509
#
# Static dielectric constant tensor:
#      x y z
#    x 1.633310 0.000000 0.038480 
#    y 0.000000 1.615790 0.000000 
#    z 0.038480 0.000000 1.615640 
# 
# From -- ./inp_files/66867.got.cif
#   From: 2010.05.17/outbox.cif.g08.bks.cpg/sg11_34_cif.got.tgz:66867.got - 2010.06.03 12:22:45.
