data_PCOD9158349
_publ_section_title
;
Structure prediction by ZEFSAII (Michael W. Deem and Ramdas Pophale) SiO2 
 PCOD9158349
Probable space group: P 21/M
;
_chemical_formula_sum "Si O2"
_cell_formula_units_Z 32
_cell_length_a 12.796040
_cell_length_b 8.717544
_cell_length_c 24.589547
_cell_angle_alpha 90.000000
_cell_angle_beta 133.967597
_cell_angle_gamma 90.000000
_cell_volume 1974.201167
_symmetry_space_group_name_H-M "P 21/M"
_symmetry_group_IT_number 11
_symmetry_cell_setting 'monoclinic'
loop_
_space_group_symop_operation_xyz
x,y,z
-x,1/2+y,-z
-x,-y,-z
x,1/2-y,z
loop_
_atom_site_type_symbol
_atom_site_label
_atom_site_fract_x
_atom_site_fract_y
_atom_site_fract_z
Si Si1 0.283392 0.934072 0.185520
Si Si2 0.558407 0.433703 0.077947
Si Si3 0.872386 0.933609 0.182829
Si Si4 0.681175 0.564593 0.919312
Si Si5 0.411445 0.433493 0.340143
Si Si6 0.953372 0.936322 0.089255
Si Si7 0.841694 0.934285 0.664458
Si Si8 0.386477 0.066205 0.502857
O O1 0.286050 0.750000 0.188541
O O2 0.116051 0.986729 0.134105
O O3 0.333673 0.992326 0.145147
O O4 0.377455 0.000097 0.268911
O O5 0.558435 0.250000 0.074281
O O6 0.720410 0.494247 0.145558
O O7 0.448333 0.477583 0.086409
O O8 0.500000 0.500000 0.000000
O O9 0.859940 0.750000 0.178257
O O10 0.907510 0.984297 0.133394
O O11 0.007490 0.985485 0.268135
O O12 0.683612 0.750000 0.915556
O O13 0.832553 0.514375 0.002200
O O14 0.417753 0.250000 0.341269
O O15 0.276239 0.476905 0.331287
O O16 0.558069 0.497837 0.420538
O O17 0.953249 0.750000 0.089182
O O18 0.859314 0.750000 0.673324
O O19 0.768830 0.973055 0.579949
O O20 0.398031 0.250000 0.508351
O O21 0.500000 0.000000 0.500000
#
# Coordination Sequence:
#
# PCOD9158349 Si02
#       8
#     4   4   4   4   4   4   4   4
#     4  11  21  33  51  76 104 135 173 213 253 304
#     4  11  22  37  56  75  99 132 173 219 263 305
#     4  11  20  33  53  76 103 135 172 214 258 305
#     4  10  21  38  53  69  99 135 172 215 259 303
#     4  10  19  31  48  72 103 139 173 206 252 306
#     4   9  18  33  50  72 101 133 168 208 256 302
#     4   9  18  31  47  73 104 134 170 208 251 303
#     4   9  17  29  46  70 102 136 170 208 250 303
#
# _framework density 16.209087
#
# number of rings (size 3 to 8) (size 9 to 14) (size 15 to 20)
#    0.000    2.000    2.500    3.000    0.000    3.500 
#    0.000    0.625    0.000    0.000    0.000    0.875 
#    0.000    0.000    0.000    0.000    0.000    0.000 
#
# Total GULP energy -178535.078627 kJ/mol
# GULP energy per Si atom -5579.221207 kJ/mol
# Density = 1.617219 g / cm^3
# Si number density = 16.209087 Si / 1000 Ang^3
#
#
#
# Elastic Constant Matrix: (Units=GPa)
#
#
# Indices 1 2 3 4 5 6 
#
# 1 73.5389 31.3377 65.8509 0.0000 -12.1174 0.0000
# 2 31.3377 40.9233 48.3276 0.0000 -2.4768 0.0000
# 3 65.8509 48.3276 171.7189 0.0000 -6.2610 0.0000
# 4 0.0000 0.0000 0.0000 29.7705 0.0000 0.0106
# 5 -12.1174 -2.4768 -6.2610 0.0000 17.5355 0.0000
# 6 0.0000 0.0000 0.0000 0.0106 0.0000 20.4066
#
#
#
# Elastic Compliance Matrix: (Units=1/GPa)
#
#
# Indices 1 2 3 4 5 6 
#
# 1 0.026886 -0.012219 -0.006339 0.000000 0.014589 0.000000
# 2 -0.012219 0.042193 -0.007375 0.000000 -0.005117 0.000000
# 3 -0.006339 -0.007375 0.010266 0.000000 -0.001757 0.000000
# 4 0.000000 0.000000 0.000000 0.033590 0.000000 -0.000017
# 5 0.014589 -0.005117 -0.001757 0.000000 0.065759 0.000000
# 6 0.000000 0.000000 0.000000 -0.000017 0.000000 0.049004
#
#
# Mechanical properties :
#
#
# Convention : Reuss Voigt Hill
#
# Bulk Modulus (GPa) = 36.39346 64.13483 50.26414
# Shear Modulus (GPa) = 17.31756 22.92019 20.11887
#
# Velocity S-wave (km/s) = 3.27216 3.76444 3.52690
# Velocity P-wave (km/s) = 6.06443 7.65165 6.90381
#
# Compressibility (1/GPa) = 0.02747746
#
# Stress axis : x y z
#
# Youngs Moduli (GPa) = 37.19426 23.70070 97.40731
#
# Poissons Ratio (x) = 0.28959 0.61751
# Poissons Ratio (y) = 0.45447 0.71842
# Poissons Ratio (z) = 0.23579 0.17480
#
# Static dielectric constant tensor:
#      x y z
#    x 1.514180 0.000000 0.012170 
#    y 0.000000 1.548910 0.000000 
#    z 0.012170 0.000000 1.543840 
# 
# From -- ./inp_files/64368.got.cif
#   From: 2010.05.17/outbox.cif.g08.bks.cpg/sg11_33_cif.got.tgz:64368.got - 2010.06.03 12:22:45.
