data_PCOD9158618
_publ_section_title
;
Structure prediction by ZEFSAII (Michael W. Deem and Ramdas Pophale) SiO2 
 PCOD9158618
Probable space group: P 21/M
;
_chemical_formula_sum "Si O2"
_cell_formula_units_Z 32
_cell_length_a 24.708645
_cell_length_b 8.587799
_cell_length_c 17.973970
_cell_angle_alpha 90.000000
_cell_angle_beta 26.951380
_cell_angle_gamma 90.000000
_cell_volume 1728.612032
_symmetry_space_group_name_H-M "P 21/M"
_symmetry_group_IT_number 11
_symmetry_cell_setting 'monoclinic'
loop_
_space_group_symop_operation_xyz
x,y,z
-x,1/2+y,-z
-x,-y,-z
x,1/2-y,z
loop_
_atom_site_type_symbol
_atom_site_label
_atom_site_fract_x
_atom_site_fract_y
_atom_site_fract_z
Si Si1 0.374802 0.563120 0.484715
Si Si2 0.706578 0.935812 0.569283
Si Si3 0.785920 0.566217 0.737502
Si Si4 0.472271 0.937043 0.951719
Si Si5 0.365507 0.562736 0.659253
Si Si6 0.355240 0.938451 0.835089
Si Si7 0.894225 0.066177 0.453826
Si Si8 0.137328 0.935376 0.206717
O O1 0.370749 0.750000 0.484439
O O2 0.306074 0.489676 0.499863
O O3 0.323292 0.513195 0.628954
O O4 0.513984 0.510089 0.311675
O O5 0.719580 0.750000 0.557611
O O6 0.813480 0.013766 0.483717
O O7 0.582342 0.977100 0.763248
O O8 0.790595 0.750000 0.718483
O O9 0.651736 0.512587 0.920967
O O10 0.825164 0.480704 0.614178
O O11 0.865815 0.519178 0.709860
O O12 0.459918 0.750000 0.968398
O O13 0.500000 0.000000 0.000000
O O14 0.500000 0.500000 0.500000
O O15 0.367553 0.750000 0.655368
O O16 0.310838 0.517493 0.805970
O O17 0.368102 0.750000 0.822199
O O18 0.256412 0.983359 0.016319
O O19 0.913079 0.250000 0.429327
O O20 0.020612 0.979481 0.303297
O O21 0.141391 0.750000 0.213844
#
# Coordination Sequence:
#
# PCOD9158618 Si02
#       8
#     4   4   4   4   4   4   4   4
#     4  10  19  31  53  85 117 145 177 220 266 317
#     4  11  23  38  56  79 110 145 182 221 268 325
#     4  12  24  39  58  81 110 142 181 226 273 324
#     4  11  22  36  56  80 108 142 179 222 271 322
#     4   8  15  29  50  79 112 144 176 213 263 317
#     4   9  18  34  56  81 112 147 180 218 266 322
#     4  12  25  41  59  77 103 140 184 230 276 322
#     4  11  23  39  58  80 107 141 184 228 272 320
#
# _framework density 18.511963000000002
#
# number of rings (size 3 to 8) (size 9 to 14) (size 15 to 20)
#    0.000    1.500    1.250    4.875    0.000    6.000 
#    0.000    0.000    0.000    0.750    0.000    0.000 
#    0.000    0.000    0.000    0.000    0.000    0.000 
#
# Total GULP energy -178730.555904 kJ/mol
# GULP energy per Si atom -5585.329872 kJ/mol
# Density = 1.846983 g / cm^3
# Si number density = 18.511963 Si / 1000 Ang^3
#
#
#
# Elastic Constant Matrix: (Units=GPa)
#
#
# Indices 1 2 3 4 5 6 
#
# 1 110.5457 -3.5968 18.4755 0.0000 16.9686 0.0000
# 2 -3.5968 17.1118 -5.2577 0.0000 3.8898 0.0000
# 3 18.4755 -5.2577 23.9948 0.0000 -3.5754 0.0000
# 4 0.0000 0.0000 0.0000 19.5308 0.0000 -4.9358
# 5 16.9686 3.8898 -3.5754 0.0000 26.3519 0.0000
# 6 0.0000 0.0000 0.0000 -4.9358 0.0000 32.7804
#
#
#
# Elastic Compliance Matrix: (Units=1/GPa)
#
#
# Indices 1 2 3 4 5 6 
#
# 1 0.012343 0.001521 -0.010602 0.000000 -0.009611 0.000000
# 2 0.001521 0.064348 0.011602 0.000000 -0.008904 0.000000
# 3 -0.010602 0.011602 0.054240 0.000000 0.012474 0.000000
# 4 0.000000 0.000000 0.000000 0.053227 0.000000 0.008014
# 5 -0.009611 -0.008904 0.012474 0.000000 0.047143 0.000000
# 6 0.000000 0.000000 0.000000 0.008014 0.000000 0.031713
#
#
# Mechanical properties :
#
#
# Convention : Reuss Voigt Hill
#
# Bulk Modulus (GPa) = 7.35447 18.98826 13.17137
# Shear Modulus (GPa) = 16.48555 25.20137 20.84346
#
# Velocity S-wave (km/s) = 2.98742 3.69366 3.35915
# Velocity P-wave (km/s) = 3.98510 5.33576 4.70911
#
# Compressibility (1/GPa) = 0.13597171
#
# Stress axis : x y z
#
# Youngs Moduli (GPa) = 81.01912 15.54056 18.43655
#
# Poissons Ratio (x) = -0.02364 0.19547
# Poissons Ratio (y) = -0.12327 -0.21389
# Poissons Ratio (z) = 0.85900 -0.18029
#
# Static dielectric constant tensor:
#      x y z
#    x 1.614680 0.000000 0.041070 
#    y 0.000000 1.618030 0.000000 
#    z 0.041070 0.000000 1.620100 
# 
# From -- ./inp_files/61754.got.cif
#   From: 2010.05.17/outbox.cif.g08.bks.cpg/sg11_31_cif.got.tgz:61754.got - 2010.06.03 12:22:45.
