data_PCOD9158029
_publ_section_title
;
Structure prediction by ZEFSAII (Michael W. Deem and Ramdas Pophale) SiO2 
 PCOD9158029
Probable space group: P 21/M
;
_chemical_formula_sum "Si O2"
_cell_formula_units_Z 24
_cell_length_a 17.154334
_cell_length_b 7.597615
_cell_length_c 16.362572
_cell_angle_alpha 90.000000
_cell_angle_beta 145.276607
_cell_angle_gamma 90.000000
_cell_volume 1214.742545
_symmetry_space_group_name_H-M "P 21/M"
_symmetry_group_IT_number 11
_symmetry_cell_setting 'monoclinic'
loop_
_space_group_symop_operation_xyz
x,y,z
-x,1/2+y,-z
-x,-y,-z
x,1/2-y,z
loop_
_atom_site_type_symbol
_atom_site_label
_atom_site_fract_x
_atom_site_fract_y
_atom_site_fract_z
Si Si1 0.052369 0.961463 0.455118
Si Si2 0.843897 0.541943 0.705515
Si Si3 0.319683 0.962392 0.599720
Si Si4 0.889867 0.954857 0.159473
Si Si5 0.357075 0.461402 0.331666
Si Si6 0.624023 0.966499 0.839270
O O1 0.056006 0.750000 0.449321
O O2 0.952926 0.031091 0.297471
O O3 0.205965 0.024784 0.566496
O O4 0.000000 0.000000 0.500000
O O5 0.865371 0.750000 0.732985
O O6 0.739826 0.511444 0.540428
O O7 0.768670 0.471776 0.721390
O O8 0.988499 0.463654 0.802443
O O9 0.323348 0.750000 0.605927
O O10 0.474977 0.023723 0.742165
O O11 0.861685 0.750000 0.152006
O O12 0.750477 0.029660 0.002809
O O13 0.500000 0.500000 0.500000
O O14 0.344536 0.250000 0.318306
O O15 0.359338 0.524146 0.240488
O O16 0.625827 0.750000 0.840260
#
# Coordination Sequence:
#
# PCOD9158029 Si02
#       6
#     4   4   4   4   4   4
#     4   9  18  32  52  75  95 122 161 200 243 296
#     4  10  19  30  46  73 104 132 165 205 245 283
#     4   9  17  32  54  74  94 129 170 199 237 294
#     4   9  19  35  53  72  96 131 169 200 241 296
#     4  10  19  30  48  73 100 132 170 206 240 279
#     4   9  17  32  53  73  97 130 169 208 238 279
#
# _framework density 19.757273000000001
#
# number of rings (size 3 to 8) (size 9 to 14) (size 15 to 20)
#    0.000    2.667    1.667    1.500    0.000    4.000 
#    0.000    2.500    0.000    0.000    0.000    0.000 
#    0.000    0.000    0.000    0.000    0.000    0.000 
#
# Total GULP energy -133863.574700 kJ/mol
# GULP energy per Si atom -5577.648946 kJ/mol
# Density = 1.971230 g / cm^3
# Si number density = 19.757273 Si / 1000 Ang^3
#
#
#
# Elastic Constant Matrix: (Units=GPa)
#
#
# Indices 1 2 3 4 5 6 
#
# 1 164.4347 3.5186 84.0662 0.0000 -4.1106 0.0000
# 2 3.5186 38.3612 5.4442 0.0000 -0.2331 0.0000
# 3 84.0662 5.4442 147.9362 0.0000 16.4496 0.0000
# 4 0.0000 0.0000 0.0000 8.3157 0.0000 -2.4061
# 5 -4.1106 -0.2331 16.4496 0.0000 18.0301 0.0000
# 6 0.0000 0.0000 0.0000 -2.4061 0.0000 19.3158
#
#
#
# Elastic Compliance Matrix: (Units=1/GPa)
#
#
# Indices 1 2 3 4 5 6 
#
# 1 0.009480 0.000068 -0.006266 0.000000 0.007879 0.000000
# 2 0.000068 0.026235 -0.001161 0.000000 0.001414 0.000000
# 3 -0.006266 -0.001161 0.011712 0.000000 -0.012129 0.000000
# 4 0.000000 0.000000 0.000000 0.124751 0.000000 0.015540
# 5 0.007879 0.001414 -0.012129 0.000000 0.068343 0.000000
# 6 0.000000 0.000000 0.000000 0.015540 0.000000 0.053707
#
#
# Mechanical properties :
#
#
# Convention : Reuss Voigt Hill
#
# Bulk Modulus (GPa) = 30.57317 59.64334 45.10825
# Shear Modulus (GPa) = 15.63234 26.31252 20.97243
#
# Velocity S-wave (km/s) = 2.81591 3.65333 3.26161
# Velocity P-wave (km/s) = 5.10690 6.93176 6.08809
#
# Compressibility (1/GPa) = 0.03270842
#
# Stress axis : x y z
#
# Youngs Moduli (GPa) = 105.48145 38.11673 85.38492
#
# Poissons Ratio (x) = -0.00257 0.53501
# Poissons Ratio (y) = -0.00713 0.09914
# Poissons Ratio (z) = 0.66093 0.04426
#
# Static dielectric constant tensor:
#      x y z
#    x 1.716630 0.000000 0.014550 
#    y 0.000000 1.734160 0.000000 
#    z 0.014550 0.000000 1.678480 
# 
# From -- ./inp_files/23715.got.cif
#   From: 2010.05.17/outbox.cif.g08.bks.cpg/sg11_12_cif.got.tgz:23715.got - 2010.06.03 12:22:45.
