data_PCOD9158583
_publ_section_title
;
Structure prediction by ZEFSAII (Michael W. Deem and Ramdas Pophale) SiO2 
 PCOD9158583
Probable space group: P 21/M
;
_chemical_formula_sum "Si O2"
_cell_formula_units_Z 28
_cell_length_a 27.907659
_cell_length_b 9.740284
_cell_length_c 5.363785
_cell_angle_alpha 90.000000
_cell_angle_beta 71.723888
_cell_angle_gamma 90.000000
_cell_volume 1384.481355
_symmetry_space_group_name_H-M "P 21/M"
_symmetry_group_IT_number 11
_symmetry_cell_setting 'monoclinic'
loop_
_space_group_symop_operation_xyz
x,y,z
-x,1/2+y,-z
-x,-y,-z
x,1/2-y,z
loop_
_atom_site_type_symbol
_atom_site_label
_atom_site_fract_x
_atom_site_fract_y
_atom_site_fract_z
Si Si1 0.710767 0.084346 0.444217
Si Si2 0.367711 0.097195 0.161447
Si Si3 0.424561 0.594953 0.760076
Si Si4 0.113210 0.583786 0.309047
Si Si5 0.772053 0.084781 0.850582
Si Si6 0.467930 0.396516 0.293261
Si Si7 0.948067 0.083465 0.091055
O O1 0.699665 0.250000 0.460082
O O2 0.747300 0.056912 0.622771
O O3 0.663173 0.988854 0.584862
O O4 0.738079 0.043937 0.142650
O O5 0.346974 0.250000 0.146664
O O6 0.425097 0.115398 0.158148
O O7 0.376902 0.995163 0.917041
O O8 0.408255 0.750000 0.744254
O O9 0.451057 0.524942 0.483117
O O10 0.473016 0.599083 0.870635
O O11 0.115806 0.750000 0.306304
O O12 0.170720 0.531612 0.223029
O O13 0.082455 0.546495 0.607824
O O14 0.084399 0.547152 0.101813
O O15 0.774800 0.250000 0.864347
O O16 0.463613 0.250000 0.448742
O O17 0.956122 0.250000 0.077418
O O18 0.000000 0.000000 0.000000
#
# Coordination Sequence:
#
# PCOD9158583 Si02
#       7
#     4   4   4   4   4   4   4
#     4  10  21  36  57  84 109 138 182 238 290 331
#     4  11  23  37  54  76 108 145 178 219 280 348
#     4  10  20  35  57  81 105 135 178 226 271 330
#     4   9  17  31  54  80 107 147 190 233 279 327
#     4   9  18  35  58  83 109 138 187 243 284 326
#     4   9  20  37  55  78 107 141 176 216 273 340
#     4  10  19  31  51  81 116 150 188 226 275 330
#
# _framework density 20.22418
#
# number of rings (size 3 to 8) (size 9 to 14) (size 15 to 20)
#    0.000    2.286    0.000    2.571    2.000    5.143 
#    0.000    0.000    0.000    5.143    0.000    0.000 
#    0.000    0.000    0.000    0.000    0.000    0.000 
#
# Total GULP energy -156070.481178 kJ/mol
# GULP energy per Si atom -5573.945756 kJ/mol
# Density = 2.017815 g / cm^3
# Si number density = 20.224180 Si / 1000 Ang^3
#
#
#
# Elastic Constant Matrix: (Units=GPa)
#
#
# Indices 1 2 3 4 5 6 
#
# 1 90.2899 28.1188 40.6101 0.0000 -2.9798 0.0000
# 2 28.1188 96.4451 32.2165 0.0000 -13.8824 0.0000
# 3 40.6101 32.2165 117.0360 0.0000 -9.2891 0.0000
# 4 0.0000 0.0000 0.0000 13.2055 0.0000 -5.1732
# 5 -2.9798 -13.8824 -9.2891 0.0000 29.1419 0.0000
# 6 0.0000 0.0000 0.0000 -5.1732 0.0000 15.3924
#
#
#
# Elastic Compliance Matrix: (Units=1/GPa)
#
#
# Indices 1 2 3 4 5 6 
#
# 1 0.013755 -0.002821 -0.004095 0.000000 -0.001243 0.000000
# 2 -0.002821 0.012618 -0.002093 0.000000 0.005055 0.000000
# 3 -0.004095 -0.002093 0.010700 0.000000 0.001995 0.000000
# 4 0.000000 0.000000 0.000000 0.087207 0.000000 0.029309
# 5 -0.001243 0.005055 0.001995 0.000000 0.037232 0.000000
# 6 0.000000 0.000000 0.000000 0.029309 0.000000 0.074817
#
#
# Mechanical properties :
#
#
# Convention : Reuss Voigt Hill
#
# Bulk Modulus (GPa) = 52.48235 56.18463 54.33349
# Shear Modulus (GPa) = 19.17922 25.06967 22.12445
#
# Velocity S-wave (km/s) = 3.08284 3.52460 3.31110
# Velocity P-wave (km/s) = 6.21920 6.66371 6.44529
#
# Compressibility (1/GPa) = 0.01905403
#
# Stress axis : x y z
#
# Youngs Moduli (GPa) = 72.70204 79.25180 93.46030
#
# Poissons Ratio (x) = 0.22359 0.38270
# Poissons Ratio (y) = 0.20512 0.19563
# Poissons Ratio (z) = 0.29770 0.16589
#
# Static dielectric constant tensor:
#      x y z
#    x 1.772810 0.000000 0.046270 
#    y 0.000000 1.777290 0.000000 
#    z 0.046270 0.000000 1.736060 
# 
# From -- ./inp_files/9593.got.cif
#   From: 2010.05.17/outbox.cif.g08.bks.cpg/sg11_5_cif.got.tgz:9593.got - 2010.06.03 12:22:45.
