data_PCOD9158376
_publ_section_title
;
Structure prediction by ZEFSAII (Michael W. Deem and Ramdas Pophale) SiO2 
 PCOD9158376
Probable space group: P 21/M
;
_chemical_formula_sum "Si O2"
_cell_formula_units_Z 28
_cell_length_a 9.951139
_cell_length_b 7.870876
_cell_length_c 33.672986
_cell_angle_alpha 90.000000
_cell_angle_beta 146.012774
_cell_angle_gamma 90.000000
_cell_volume 1474.332911
_symmetry_space_group_name_H-M "P 21/M"
_symmetry_group_IT_number 11
_symmetry_cell_setting 'monoclinic'
loop_
_space_group_symop_operation_xyz
x,y,z
-x,1/2+y,-z
-x,-y,-z
x,1/2-y,z
loop_
_atom_site_type_symbol
_atom_site_label
_atom_site_fract_x
_atom_site_fract_y
_atom_site_fract_z
Si Si1 0.999767 0.044390 0.439595
Si Si2 0.826217 0.452470 0.994076
Si Si3 0.401048 0.448349 0.600912
Si Si4 0.763096 0.954628 0.580714
Si Si5 0.782369 0.045583 0.070661
Si Si6 0.735553 0.455431 0.146185
Si Si7 0.901451 0.552978 0.700596
O O1 0.990518 0.250000 0.439813
O O2 0.226594 0.989684 0.522470
O O3 0.050371 0.991581 0.407334
O O4 0.759600 0.972413 0.399643
O O5 0.832361 0.250000 0.997765
O O6 0.547283 0.503862 0.919322
O O7 0.890291 0.517027 0.054844
O O8 0.000000 0.500000 0.000000
O O9 0.450469 0.250000 0.606450
O O10 0.651009 0.544270 0.662845
O O11 0.765179 0.750000 0.583329
O O12 0.835293 0.023469 0.641458
O O13 0.500000 0.000000 0.500000
O O14 0.809867 0.250000 0.077649
O O15 0.845521 0.983751 0.130673
O O16 0.500000 0.000000 0.000000
O O17 0.754823 0.250000 0.150516
O O18 0.889046 0.522462 0.220924
O O19 0.966372 0.750000 0.709548
#
# Coordination Sequence:
#
# PCOD9158376 Si02
#       7
#     4   4   4   4   4   4   4
#     4   9  18  32  48  68  94 123 161 208 252 295
#     4  10  19  32  53  80 105 134 167 204 245 291
#     4  10  19  31  49  71  94 125 163 206 252 296
#     4  10  19  32  50  73  98 129 169 211 255 304
#     4   8  15  29  50  73  97 125 162 199 236 283
#     4   9  18  34  53  75 102 133 167 206 249 299
#     4  10  20  33  52  75 101 132 166 206 257 307
#
# _framework density 18.99164
#
# number of rings (size 3 to 8) (size 9 to 14) (size 15 to 20)
#    0.000    2.571    1.429    0.857    0.000    2.286 
#    0.000    1.429    0.000    8.571    0.000    0.000 
#    0.000    0.000    0.000    0.000    0.000    0.000 
#
# Total GULP energy -155941.018127 kJ/mol
# GULP energy per Si atom -5569.322076 kJ/mol
# Density = 1.894841 g / cm^3
# Si number density = 18.991640 Si / 1000 Ang^3
#
#
#
# Elastic Constant Matrix: (Units=GPa)
#
#
# Indices 1 2 3 4 5 6 
#
# 1 149.9291 6.7851 72.2955 0.0000 -28.1558 0.0000
# 2 6.7851 21.8526 7.4317 0.0000 -7.1811 0.0000
# 3 72.2955 7.4317 112.8342 0.0000 -27.5781 0.0000
# 4 0.0000 0.0000 0.0000 13.8063 0.0000 3.7167
# 5 -28.1558 -7.1811 -27.5781 0.0000 25.4290 0.0000
# 6 0.0000 0.0000 0.0000 3.7167 0.0000 20.4662
#
#
#
# Elastic Compliance Matrix: (Units=1/GPa)
#
#
# Indices 1 2 3 4 5 6 
#
# 1 0.010238 0.000510 -0.005154 0.000000 0.005891 0.000000
# 2 0.000510 0.050471 -0.000040 0.000000 0.014774 0.000000
# 3 -0.005154 -0.000040 0.014654 0.000000 0.010175 0.000000
# 4 0.000000 0.000000 0.000000 0.076153 0.000000 -0.013830
# 5 0.005891 0.014774 0.010175 0.000000 0.061055 0.000000
# 6 0.000000 0.000000 0.000000 -0.013830 0.000000 0.051373
#
#
# Mechanical properties :
#
#
# Convention : Reuss Voigt Hill
#
# Bulk Modulus (GPa) = 15.15245 50.84895 33.00070
# Shear Modulus (GPa) = 16.93134 25.14722 21.03928
#
# Velocity S-wave (km/s) = 2.98907 3.64279 3.33200
# Velocity P-wave (km/s) = 4.46189 6.67276 5.67601
#
# Compressibility (1/GPa) = 0.06599593
#
# Stress axis : x y z
#
# Youngs Moduli (GPa) = 97.67508 19.81324 68.24029
#
# Poissons Ratio (x) = -0.01010 0.35168
# Poissons Ratio (y) = -0.04977 0.00271
# Poissons Ratio (z) = 0.50337 0.00079
#
# Static dielectric constant tensor:
#      x y z
#    x 1.685370 0.000000 -0.059380 
#    y 0.000000 1.692680 0.000000 
#    z -0.059380 0.000000 1.672840 
# 
# From -- ./inp_files/61954.got.cif
#   From: 2010.05.17/outbox.cif.g08.bks.cpg/sg11_31_cif.got.tgz:61954.got - 2010.06.03 12:22:45.
