data_PCOD9158242
_publ_section_title
;
Structure prediction by ZEFSAII (Michael W. Deem and Ramdas Pophale) SiO2 
 PCOD9158242
Probable space group: P 21/M
;
_chemical_formula_sum "Si O2"
_cell_formula_units_Z 32
_cell_length_a 16.388731
_cell_length_b 7.770642
_cell_length_c 12.586004
_cell_angle_alpha 90.000000
_cell_angle_beta 82.478082
_cell_angle_gamma 90.000000
_cell_volume 1589.047045
_symmetry_space_group_name_H-M "P 21/M"
_symmetry_group_IT_number 11
_symmetry_cell_setting 'monoclinic'
loop_
_space_group_symop_operation_xyz
x,y,z
-x,1/2+y,-z
-x,-y,-z
x,1/2-y,z
loop_
_atom_site_type_symbol
_atom_site_label
_atom_site_fract_x
_atom_site_fract_y
_atom_site_fract_z
Si Si1 0.807952 0.049851 0.311528
Si Si2 0.595366 0.455092 0.980485
Si Si3 0.267363 0.452457 0.880803
Si Si4 0.236341 0.549291 0.451037
Si Si5 0.946760 0.446908 0.609480
Si Si6 0.143065 0.457971 0.082759
Si Si7 0.978296 0.444117 0.193396
Si Si8 0.714730 0.457905 0.776581
O O1 0.829419 0.250000 0.331664
O O2 0.776079 0.974221 0.428637
O O3 0.891075 0.974302 0.242811
O O4 0.740110 0.039925 0.231689
O O5 0.603739 0.250000 0.979502
O O6 0.642070 0.519828 0.866440
O O7 0.500000 0.500000 0.000000
O O8 0.647712 0.522098 0.071305
O O9 0.254609 0.250000 0.867100
O O10 0.194987 0.518510 0.971948
O O11 0.261633 0.750000 0.461420
O O12 0.146210 0.544832 0.413682
O O13 0.289027 0.474779 0.343854
O O14 0.964381 0.250000 0.637576
O O15 0.972073 0.561707 0.703857
O O16 0.000000 0.500000 0.500000
O O17 0.138269 0.250000 0.078783
O O18 0.049407 0.525108 0.107124
O O19 0.200670 0.501990 0.174151
O O20 0.960991 0.250000 0.157799
O O21 0.711357 0.250000 0.769977
#
# Coordination Sequence:
#
# PCOD9158242 Si02
#       8
#     4   4   4   4   4   4   4   4
#     4  10  20  34  49  68 101 145 183 215 255 302
#     4  10  20  36  62  89 109 130 157 198 254 313
#     4  10  21  37  53  75 106 137 173 214 255 305
#     4   9  17  30  48  71 101 136 173 214 258 301
#     4  11  19  29  45  67  97 135 179 228 267 299
#     4   9  18  31  48  70 101 136 172 223 270 298
#     4  10  19  31  46  69  99 137 182 225 267 304
#     4   9  17  31  52  79 106 132 166 207 255 310
#
# _framework density 20.137858000000001
#
# number of rings (size 3 to 8) (size 9 to 14) (size 15 to 20)
#    0.000    2.250    2.500    1.125    0.000    2.000 
#    0.000    0.625    0.000    0.750    0.000    0.000 
#    0.000    0.000    0.000    0.000    0.000    0.000 
#
# Total GULP energy -178403.636240 kJ/mol
# GULP energy per Si atom -5575.113633 kJ/mol
# Density = 2.009202 g / cm^3
# Si number density = 20.137858 Si / 1000 Ang^3
#
#
#
# Elastic Constant Matrix: (Units=GPa)
#
#
# Indices 1 2 3 4 5 6 
#
# 1 87.6789 3.5756 58.8848 0.0000 -13.7808 0.0000
# 2 3.5756 43.4570 5.5194 0.0000 0.0278 0.0000
# 3 58.8848 5.5194 125.1319 0.0000 3.3580 0.0000
# 4 0.0000 0.0000 0.0000 9.7655 0.0000 8.4243
# 5 -13.7808 0.0278 3.3580 0.0000 19.3948 0.0000
# 6 0.0000 0.0000 0.0000 8.4243 0.0000 14.6710
#
#
#
# Elastic Compliance Matrix: (Units=1/GPa)
#
#
# Indices 1 2 3 4 5 6 
#
# 1 0.020952 -0.000428 -0.010288 0.000000 0.016669 0.000000
# 2 -0.000428 0.023150 -0.000814 0.000000 -0.000196 0.000000
# 3 -0.010288 -0.000814 0.013126 0.000000 -0.009582 0.000000
# 4 0.000000 0.000000 0.000000 0.202920 0.000000 -0.116520
# 5 0.016669 -0.000196 -0.009582 0.000000 0.065064 0.000000
# 6 0.000000 0.000000 0.000000 -0.116520 0.000000 0.135070
#
#
# Mechanical properties :
#
#
# Convention : Reuss Voigt Hill
#
# Bulk Modulus (GPa) = 29.26791 43.58083 36.42437
# Shear Modulus (GPa) = 10.10648 21.31877 15.71263
#
# Velocity S-wave (km/s) = 2.24266 3.25721 2.79633
# Velocity P-wave (km/s) = 4.61209 5.98616 5.34348
#
# Compressibility (1/GPa) = 0.03416711
#
# Stress axis : x y z
#
# Youngs Moduli (GPa) = 47.72771 43.19647 76.18433
#
# Poissons Ratio (x) = 0.01849 0.78380
# Poissons Ratio (y) = 0.02042 0.06205
# Poissons Ratio (z) = 0.49103 0.03518
#
# Static dielectric constant tensor:
#      x y z
#    x 1.709290 0.000000 -0.056610 
#    y 0.000000 1.763340 0.000000 
#    z -0.056610 0.000000 1.767170 
# 
# From -- ./inp_files/38282.got.cif
#   From: 2010.05.17/outbox.cif.g08.bks.cpg/sg11_20_cif.got.tgz:38282.got - 2010.06.03 12:22:45.
