data_PCOD9158343
_publ_section_title
;
Structure prediction by ZEFSAII (Michael W. Deem and Ramdas Pophale) SiO2 
 PCOD9158343
Probable space group: P 21/M
;
_chemical_formula_sum "Si O2"
_cell_formula_units_Z 32
_cell_length_a 5.464863
_cell_length_b 9.618110
_cell_length_c 30.654485
_cell_angle_alpha 90.000000
_cell_angle_beta 80.833635
_cell_angle_gamma 90.000000
_cell_volume 1590.674672
_symmetry_space_group_name_H-M "P 21/M"
_symmetry_group_IT_number 11
_symmetry_cell_setting 'monoclinic'
loop_
_space_group_symop_operation_xyz
x,y,z
-x,1/2+y,-z
-x,-y,-z
x,1/2-y,z
loop_
_atom_site_type_symbol
_atom_site_label
_atom_site_fract_x
_atom_site_fract_y
_atom_site_fract_z
Si Si1 0.262807 0.903709 0.626406
Si Si2 0.768319 0.416120 0.755964
Si Si3 0.466080 0.919033 0.046139
Si Si4 0.921081 0.918053 0.097324
Si Si5 0.775204 0.579768 0.198743
Si Si6 0.465457 0.903563 0.327096
Si Si7 0.904306 0.403884 0.585404
Si Si8 0.632443 0.592237 0.533195
O O1 0.150790 0.750000 0.634448
O O2 0.461111 0.892608 0.581242
O O3 0.364147 0.963803 0.669056
O O4 0.085758 0.020693 0.612928
O O5 0.772382 0.250000 0.763434
O O6 0.505622 0.466991 0.783198
O O7 0.732620 0.433039 0.705115
O O8 0.018602 0.467446 0.771851
O O9 0.469781 0.750000 0.040200
O O10 0.695750 0.956851 0.071444
O O11 0.196586 0.957833 0.073692
O O12 0.500000 0.000000 0.000000
O O13 0.921733 0.750000 0.098304
O O14 0.862070 0.964210 0.148193
O O15 0.768846 0.750000 0.199657
O O16 0.580221 0.750000 0.313353
O O17 0.339530 0.889135 0.377895
O O18 0.984985 0.250000 0.570723
O O19 0.859465 0.503473 0.545932
O O20 0.500000 0.500000 0.500000
O O21 0.685935 0.750000 0.517392
#
# Coordination Sequence:
#
# PCOD9158343 Si02
#       8
#     4   4   4   4   4   4   4   4
#     4  10  21  36  54  76 102 135 172 210 255 311
#     4   9  17  27  45  73 106 134 168 215 266 319
#     4  10  19  31  48  72 101 134 175 221 266 319
#     4   9  17  29  46  69 103 138 170 215 270 321
#     4   9  16  27  44  71 104 138 170 211 268 323
#     4   9  19  33  51  76 104 133 164 211 261 307
#     4  10  20  34  54  77 104 136 170 209 261 314
#     4  10  21  37  55  76 104 134 172 214 257 313
#
# _framework density 20.117251
#
# number of rings (size 3 to 8) (size 9 to 14) (size 15 to 20)
#    0.000    2.500    0.000    2.250    1.750    5.500 
#    0.000    0.000    0.000    0.000    0.000    5.250 
#    0.000    0.000    0.000    0.000    0.000    0.000 
#
# Total GULP energy -178269.338596 kJ/mol
# GULP energy per Si atom -5570.916831 kJ/mol
# Density = 2.007146 g / cm^3
# Si number density = 20.117251 Si / 1000 Ang^3
#
#
#
# Elastic Constant Matrix: (Units=GPa)
#
#
# Indices 1 2 3 4 5 6 
#
# 1 84.2188 19.9127 31.1222 0.0000 9.0153 0.0000
# 2 19.9127 89.2000 21.8778 0.0000 10.9636 0.0000
# 3 31.1222 21.8778 104.4953 0.0000 5.7271 0.0000
# 4 0.0000 0.0000 0.0000 16.7600 0.0000 7.5035
# 5 9.0153 10.9636 5.7271 0.0000 40.7554 0.0000
# 6 0.0000 0.0000 0.0000 7.5035 0.0000 13.7327
#
#
#
# Elastic Compliance Matrix: (Units=1/GPa)
#
#
# Indices 1 2 3 4 5 6 
#
# 1 0.013892 -0.001964 -0.003615 0.000000 -0.002037 0.000000
# 2 -0.001964 0.012434 -0.001873 0.000000 -0.002647 0.000000
# 3 -0.003615 -0.001873 0.011052 0.000000 -0.000250 0.000000
# 4 0.000000 0.000000 0.000000 0.078988 0.000000 -0.043159
# 5 -0.002037 -0.002647 -0.000250 0.000000 0.025734 0.000000
# 6 0.000000 0.000000 0.000000 -0.043159 0.000000 0.096401
#
#
# Mechanical properties :
#
#
# Convention : Reuss Voigt Hill
#
# Bulk Modulus (GPa) = 44.49567 47.08217 45.78892
# Shear Modulus (GPa) = 19.16463 27.91636 23.54050
#
# Velocity S-wave (km/s) = 3.08985 3.72920 3.42448
# Velocity P-wave (km/s) = 5.90726 6.48053 6.20052
#
# Compressibility (1/GPa) = 0.02247409
#
# Stress axis : x y z
#
# Youngs Moduli (GPa) = 71.98361 80.42429 90.47960
#
# Poissons Ratio (x) = 0.15798 0.32705
# Poissons Ratio (y) = 0.14140 0.16948
# Poissons Ratio (z) = 0.26019 0.15065
#
# Static dielectric constant tensor:
#      x y z
#    x 1.807770 0.000000 -0.030560 
#    y 0.000000 1.726530 0.000000 
#    z -0.030560 0.000000 1.721020 
# 
# From -- ./inp_files/72589.got.cif
#   From: 2010.05.17/outbox.cif.g08.bks.cpg/sg11_37_cif.got.tgz:72589.got - 2010.06.03 12:22:45.
