data_PCOD9158103
_publ_section_title
;
Structure prediction by ZEFSAII (Michael W. Deem and Ramdas Pophale) SiO2 
 PCOD9158103
Probable space group: P 21/M
;
_chemical_formula_sum "Si O2"
_cell_formula_units_Z 24
_cell_length_a 20.551675
_cell_length_b 8.675579
_cell_length_c 10.404789
_cell_angle_alpha 90.000000
_cell_angle_beta 131.167106
_cell_angle_gamma 90.000000
_cell_volume 1396.543635
_symmetry_space_group_name_H-M "P 21/M"
_symmetry_group_IT_number 11
_symmetry_cell_setting 'monoclinic'
loop_
_space_group_symop_operation_xyz
x,y,z
-x,1/2+y,-z
-x,-y,-z
x,1/2-y,z
loop_
_atom_site_type_symbol
_atom_site_label
_atom_site_fract_x
_atom_site_fract_y
_atom_site_fract_z
Si Si1 0.412954 0.434688 0.531485
Si Si2 0.236727 0.565726 0.321131
Si Si3 0.948239 0.434665 0.810610
Si Si4 0.042044 0.566126 0.683257
Si Si5 0.601714 0.432912 0.775524
Si Si6 0.219766 0.066748 0.009946
O O1 0.409199 0.250000 0.506160
O O2 0.325939 0.491219 0.486712
O O3 0.507529 0.470565 0.712258
O O4 0.408118 0.519528 0.387177
O O5 0.246725 0.750000 0.324465
O O6 0.152927 0.531986 0.297747
O O7 0.218927 0.500460 0.154479
O O8 0.959467 0.250000 0.819988
O O9 0.986542 0.509561 0.732959
O O10 0.000000 0.500000 0.000000
O O11 0.044017 0.750000 0.682154
O O12 0.000000 0.500000 0.500000
O O13 0.138741 0.502680 0.829962
O O14 0.615413 0.250000 0.802466
O O15 0.688084 0.518942 0.931273
O O16 0.212999 0.250000 0.008601
#
# Coordination Sequence:
#
# PCOD9158103 Si02
#       6
#     4   4   4   4   4   4
#     4   9  16  25  40  65  98 134 170 211 259 310
#     4  10  19  30  48  74 105 138 174 216 263 312
#     4  11  22  36  56  81 108 143 182 222 268 318
#     4  12  25  41  58  78 107 141 180 226 271 321
#     4   9  16  26  41  64  97 134 171 211 259 311
#     4  11  20  31  50  74 102 137 177 217 264 318
#
# _framework density 17.185283999999999
#
# number of rings (size 3 to 8) (size 9 to 14) (size 15 to 20)
#    0.000    1.667    1.667    7.000    0.000    4.000 
#    0.000    0.000    0.000    0.000    0.000    1.167 
#    0.000    0.000    0.000    0.000    0.000    0.000 
#
# Total GULP energy -133882.049882 kJ/mol
# GULP energy per Si atom -5578.418745 kJ/mol
# Density = 1.714617 g / cm^3
# Si number density = 17.185284 Si / 1000 Ang^3
#
#
#
# Elastic Constant Matrix: (Units=GPa)
#
#
# Indices 1 2 3 4 5 6 
#
# 1 112.2787 48.7126 70.6578 0.0000 36.2136 0.0000
# 2 48.7126 91.6683 40.6426 0.0000 15.9369 0.0000
# 3 70.6578 40.6426 91.0842 0.0000 20.3181 0.0000
# 4 0.0000 0.0000 0.0000 24.6336 0.0000 7.3538
# 5 36.2136 15.9369 20.3181 0.0000 32.6301 0.0000
# 6 0.0000 0.0000 0.0000 7.3538 0.0000 30.4800
#
#
#
# Elastic Compliance Matrix: (Units=1/GPa)
#
#
# Indices 1 2 3 4 5 6 
#
# 1 0.024683 -0.004185 -0.013501 0.000000 -0.016943 0.000000
# 2 -0.004185 0.014627 -0.003162 0.000000 -0.000530 0.000000
# 3 -0.013501 -0.003162 0.022269 0.000000 0.002661 0.000000
# 4 0.000000 0.000000 0.000000 0.043746 0.000000 -0.010554
# 5 -0.016943 -0.000530 0.002661 0.000000 0.048052 0.000000
# 6 0.000000 0.000000 0.000000 -0.010554 0.000000 0.035355
#
#
# Mechanical properties :
#
#
# Convention : Reuss Voigt Hill
#
# Bulk Modulus (GPa) = 50.29226 68.33970 59.31598
# Shear Modulus (GPa) = 21.09216 26.54995 23.82106
#
# Velocity S-wave (km/s) = 3.50714 3.93482 3.72712
# Velocity P-wave (km/s) = 6.76227 7.77795 7.28782
#
# Compressibility (1/GPa) = 0.01988377
#
# Stress axis : x y z
#
# Youngs Moduli (GPa) = 40.51381 68.36707 44.90539
#
# Poissons Ratio (x) = 0.28613 0.60625
# Poissons Ratio (y) = 0.16956 0.14198
# Poissons Ratio (z) = 0.54696 0.21616
#
# Static dielectric constant tensor:
#      x y z
#    x 1.603980 0.000000 0.094000 
#    y 0.000000 1.576120 0.000000 
#    z 0.094000 0.000000 1.481540 
# 
# From -- ./inp_files/25940.got.cif
#   From: 2010.05.17/outbox.cif.g08.bks.cpg/sg11_13_cif.got.tgz:25940.got - 2010.06.03 12:22:45.
