data_PCOD9158335
_publ_section_title
;
Structure prediction by ZEFSAII (Michael W. Deem and Ramdas Pophale) SiO2 
 PCOD9158335
Probable space group: P 21/M
;
_chemical_formula_sum "Si O2"
_cell_formula_units_Z 28
_cell_length_a 21.188079
_cell_length_b 8.978810
_cell_length_c 18.874797
_cell_angle_alpha 90.000000
_cell_angle_beta 27.285536
_cell_angle_gamma 90.000000
_cell_volume 1646.118707
_symmetry_space_group_name_H-M "P 21/M"
_symmetry_group_IT_number 11
_symmetry_cell_setting 'monoclinic'
loop_
_space_group_symop_operation_xyz
x,y,z
-x,1/2+y,-z
-x,-y,-z
x,1/2-y,z
loop_
_atom_site_type_symbol
_atom_site_label
_atom_site_fract_x
_atom_site_fract_y
_atom_site_fract_z
Si Si1 0.852238 0.571615 0.850593
Si Si2 0.348078 0.429247 0.075289
Si Si3 0.162975 0.577236 0.989877
Si Si4 0.647492 0.572398 0.767547
Si Si5 0.152859 0.929735 0.845294
Si Si6 0.827820 0.924013 0.317588
Si Si7 0.827368 0.071159 0.465212
O O1 0.850085 0.750000 0.854833
O O2 0.762498 0.523470 0.873011
O O3 0.795708 0.512578 0.981896
O O4 0.012220 0.526536 0.684432
O O5 0.368840 0.250000 0.049112
O O6 0.303724 0.459684 0.200519
O O7 0.492109 0.511170 0.918621
O O8 0.197510 0.750000 0.965864
O O9 0.995684 0.566474 0.152110
O O10 0.216308 0.530618 0.858858
O O11 0.649757 0.750000 0.754850
O O12 0.738992 0.492774 0.617511
O O13 0.143171 0.750000 0.851118
O O14 0.218556 0.995561 0.708484
O O15 0.000000 0.000000 0.000000
O O16 0.791533 0.750000 0.352970
O O17 0.780393 0.003710 0.436709
O O18 0.819602 0.250000 0.470502
#
# Coordination Sequence:
#
# PCOD9158335 Si02
#       7
#     4   4   4   4   4   4   4
#     4   9  18  31  48  70  96 126 159 195 237 283
#     4   9  19  36  53  70  94 123 158 199 238 280
#     4   8  15  25  38  60  91 123 154 191 233 275
#     4  10  20  34  52  72  94 123 159 197 237 283
#     4   9  15  23  36  57  87 123 159 193 232 276
#     4   9  16  26  40  61  90 123 158 195 234 276
#     4  10  19  31  48  71  99 128 157 193 239 286
#
# _framework density 17.009706999999999
#
# number of rings (size 3 to 8) (size 9 to 14) (size 15 to 20)
#    0.000    2.857    0.000    2.571    0.000    6.286 
#    0.000    0.000    0.000    0.000    0.000    1.000 
#    0.000    0.000    0.000    0.000    0.000    0.000 
#
# Total GULP energy -155935.844184 kJ/mol
# GULP energy per Si atom -5569.137292 kJ/mol
# Density = 1.697099 g / cm^3
# Si number density = 17.009707 Si / 1000 Ang^3
#
#
#
# Elastic Constant Matrix: (Units=GPa)
#
#
# Indices 1 2 3 4 5 6 
#
# 1 102.3389 50.7536 86.2392 0.0000 53.4977 0.0000
# 2 50.7536 57.6024 41.3244 0.0000 23.1942 0.0000
# 3 86.2392 41.3244 60.6847 0.0000 31.1642 0.0000
# 4 0.0000 0.0000 0.0000 22.8432 0.0000 9.5031
# 5 53.4977 23.1942 31.1642 0.0000 22.7096 0.0000
# 6 0.0000 0.0000 0.0000 9.5031 0.0000 26.8873
#
#
#
# Elastic Compliance Matrix: (Units=1/GPa)
#
#
# Indices 1 2 3 4 5 6 
#
# 1 -0.027161 -0.010046 0.024764 0.000000 0.040262 0.000000
# 2 -0.010046 0.030909 -0.009189 0.000000 0.004706 0.000000
# 3 0.024764 -0.009189 0.042954 0.000000 -0.107897 0.000000
# 4 0.000000 0.000000 0.000000 0.051323 0.000000 -0.018140
# 5 0.040262 0.004706 -0.107897 0.000000 0.092448 0.000000
# 6 0.000000 0.000000 0.000000 -0.018140 0.000000 0.043604
#
#
# Mechanical properties :
#
#
# Convention : Reuss Voigt Hill
#
# Bulk Modulus (GPa) = 17.31315 64.14005 40.72660
# Shear Modulus (GPa) = 20.63814 17.30862 18.97338
#
# Velocity S-wave (km/s) = 3.48705 3.19340 3.34345
# Velocity P-wave (km/s) = 5.13937 7.16846 6.23699
#
# Compressibility (1/GPa) = 0.05775958
#
# Stress axis : x y z
#
# Youngs Moduli (GPa) = -36.81685 32.35326 23.28092
#
# Poissons Ratio (x) = 0.32501 -0.57653
# Poissons Ratio (y) = -0.36985 0.21393
# Poissons Ratio (z) = 0.91173 0.29729
#
# Static dielectric constant tensor:
#      x y z
#    x 1.593390 0.000000 0.022020 
#    y 0.000000 1.568770 0.000000 
#    z 0.022020 0.000000 1.563920 
# 
# From -- ./inp_files/29094.got.cif
#   From: 2010.05.17/outbox.cif.g08.bks.cpg/sg11_15_cif.got.tgz:29094.got - 2010.06.03 12:22:45.
