data_PCOD9158934
_publ_section_title
;
Structure prediction by ZEFSAII (Michael W. Deem and Ramdas Pophale) SiO2 
 PCOD9158934
Probable space group: P 21/M
;
_chemical_formula_sum "Si O2"
_cell_formula_units_Z 28
_cell_length_a 32.030027
_cell_length_b 9.003817
_cell_length_c 10.599278
_cell_angle_alpha 90.000000
_cell_angle_beta 144.932273
_cell_angle_gamma 90.000000
_cell_volume 1756.239675
_symmetry_space_group_name_H-M "P 21/M"
_symmetry_group_IT_number 11
_symmetry_cell_setting 'monoclinic'
loop_
_space_group_symop_operation_xyz
x,y,z
-x,1/2+y,-z
-x,-y,-z
x,1/2-y,z
loop_
_atom_site_type_symbol
_atom_site_label
_atom_site_fract_x
_atom_site_fract_y
_atom_site_fract_z
Si Si1 0.293316 0.072580 0.843242
Si Si2 0.423660 0.923880 0.285359
Si Si3 0.959651 0.425464 0.017168
Si Si4 0.719337 0.423743 0.933177
Si Si5 0.786727 0.574961 0.855799
Si Si6 0.960915 0.575340 0.285478
Si Si7 0.785816 0.425786 0.588114
O O1 0.292823 0.250000 0.844559
O O2 0.255213 0.006261 0.875563
O O3 0.255227 0.008690 0.625736
O O4 0.375443 0.008880 0.061055
O O5 0.431946 0.750000 0.274679
O O6 0.500000 0.000000 0.500000
O O7 0.368442 0.933100 0.268474
O O8 0.974528 0.250000 0.057520
O O9 0.981530 0.499248 0.204083
O O10 0.872731 0.446325 0.788115
O O11 0.000000 0.500000 0.000000
O O12 0.739405 0.250000 0.986300
O O13 0.748623 0.501408 0.881606
O O14 0.770425 0.750000 0.808304
O O15 0.765623 0.494007 0.673762
O O16 0.873889 0.558406 0.084975
O O17 0.977800 0.750000 0.322617
O O18 0.000000 0.500000 0.500000
O O19 0.770664 0.250000 0.546936
#
# Coordination Sequence:
#
# PCOD9158934 Si02
#       7
#     4   4   4   4   4   4   4
#     4  10  19  32  52  78 105 135 173 214 254 300
#     4   9  18  32  53  80 109 139 173 211 257 307
#     4  10  21  36  54  74  99 134 173 216 265 314
#     4   9  19  33  51  77 105 135 172 210 253 304
#     4  10  20  34  53  76 102 134 173 215 261 311
#     4  10  21  36  53  74 100 133 173 216 262 314
#     4  10  20  35  53  74 103 137 172 213 263 315
#
# _framework density 15.943155000000001
#
# number of rings (size 3 to 8) (size 9 to 14) (size 15 to 20)
#    0.857    1.429    0.000    3.429    0.000    4.571 
#    0.000    0.000    0.000    0.857    0.000    0.000 
#    0.000    0.000    0.000    0.000    0.000    0.000 
#
# Total GULP energy -156005.870021 kJ/mol
# GULP energy per Si atom -5571.638215 kJ/mol
# Density = 1.590687 g / cm^3
# Si number density = 15.943155 Si / 1000 Ang^3
#
#
#
# Elastic Constant Matrix: (Units=GPa)
#
#
# Indices 1 2 3 4 5 6 
#
# 1 84.9919 74.6653 66.3113 0.0000 -30.5452 0.0000
# 2 74.6653 162.9328 92.0148 0.0000 -19.3924 0.0000
# 3 66.3113 92.0148 110.3171 0.0000 -34.3499 0.0000
# 4 0.0000 0.0000 0.0000 32.1792 0.0000 -4.1343
# 5 -30.5452 -19.3924 -34.3499 0.0000 19.8565 0.0000
# 6 0.0000 0.0000 0.0000 -4.1343 0.0000 31.6873
#
#
#
# Elastic Compliance Matrix: (Units=1/GPa)
#
#
# Indices 1 2 3 4 5 6 
#
# 1 0.043067 -0.016458 0.007508 0.000000 0.063164 0.000000
# 2 -0.016458 0.019306 -0.017822 0.000000 -0.037293 0.000000
# 3 0.007508 -0.017822 0.038135 0.000000 0.060114 0.000000
# 4 0.000000 0.000000 0.000000 0.031606 0.000000 0.004124
# 5 0.063164 -0.037293 0.060114 0.000000 0.215096 0.000000
# 6 0.000000 0.000000 0.000000 0.004124 0.000000 0.032096
#
#
# Mechanical properties :
#
#
# Convention : Reuss Voigt Hill
#
# Bulk Modulus (GPa) = 21.29326 91.58048 56.43687
# Shear Modulus (GPa) = 11.14813 25.09463 18.12138
#
# Velocity S-wave (km/s) = 2.64719 3.97168 3.37504
# Velocity P-wave (km/s) = 4.76741 8.86560 7.11783
#
# Compressibility (1/GPa) = 0.04696321
#
# Stress axis : x y z
#
# Youngs Moduli (GPa) = 23.21952 51.79831 26.22258
#
# Poissons Ratio (x) = 0.85249 -0.19687
# Poissons Ratio (y) = 0.38214 0.46734
# Poissons Ratio (z) = -0.17432 0.92315
#
# Static dielectric constant tensor:
#      x y z
#    x 1.514400 0.000000 0.009370 
#    y 0.000000 1.532170 0.000000 
#    z 0.009370 0.000000 1.510430 
# 
# From -- ./inp_files/29101.got.cif
#   From: 2010.05.17/outbox.cif.g08.bks.cpg/sg11_15_cif.got.tgz:29101.got - 2010.06.03 12:22:45.
