data_PCOD9158700
_publ_section_title
;
Structure prediction by ZEFSAII (Michael W. Deem and Ramdas Pophale) SiO2 
 PCOD9158700
Probable space group: P 21/M
;
_chemical_formula_sum "Si O2"
_cell_formula_units_Z 32
_cell_length_a 24.202631
_cell_length_b 7.689126
_cell_length_c 21.375017
_cell_angle_alpha 90.000000
_cell_angle_beta 24.255075
_cell_angle_gamma 90.000000
_cell_volume 1634.090290
_symmetry_space_group_name_H-M "P 21/M"
_symmetry_group_IT_number 11
_symmetry_cell_setting 'monoclinic'
loop_
_space_group_symop_operation_xyz
x,y,z
-x,1/2+y,-z
-x,-y,-z
x,1/2-y,z
loop_
_atom_site_type_symbol
_atom_site_label
_atom_site_fract_x
_atom_site_fract_y
_atom_site_fract_z
Si Si1 0.587830 0.038409 0.143539
Si Si2 0.149657 0.959019 0.371066
Si Si3 0.957297 0.039917 0.392584
Si Si4 0.946175 0.045772 0.263954
Si Si5 0.472516 0.457650 0.599993
Si Si6 0.225467 0.044426 0.932453
Si Si7 0.659034 0.953037 0.521369
Si Si8 0.744161 0.458674 0.864666
O O1 0.587005 0.250000 0.145033
O O2 0.445460 0.976911 0.318437
O O3 0.632058 0.977437 0.029144
O O4 0.699939 0.980210 0.078011
O O5 0.165086 0.750000 0.357199
O O6 0.143720 0.024474 0.448544
O O7 0.248497 0.025842 0.214424
O O8 0.000000 0.000000 0.500000
O O9 0.946758 0.250000 0.403450
O O10 0.931939 0.972878 0.349002
O O11 0.109841 0.995740 0.255358
O O12 0.976521 0.250000 0.241277
O O13 0.075680 0.970744 0.094425
O O14 0.805962 0.032266 0.373390
O O15 0.500000 0.500000 0.500000
O O16 0.472091 0.250000 0.607426
O O17 0.585858 0.525037 0.530515
O O18 0.329334 0.527346 0.773765
O O19 0.214215 0.250000 0.930696
O O20 0.676421 0.750000 0.515872
O O21 0.729919 0.250000 0.876091
#
# Coordination Sequence:
#
# PCOD9158700 Si02
#       8
#     4   4   4   4   4   4   4   4
#     4   9  17  29  46  69  96 126 163 206 248 290
#     4   8  14  23  36  59  89 121 156 198 245 292
#     4   9  16  26  42  64  93 126 160 199 246 293
#     4  10  19  32  49  72 101 131 164 203 245 288
#     4  10  20  37  60  82 104 130 159 193 235 283
#     4   9  18  32  52  76 100 128 162 199 238 283
#     4  10  21  35  51  74 102 132 166 201 240 286
#     4   9  15  24  41  65  92 121 159 204 249 292
#
# _framework density 19.582763
#
# number of rings (size 3 to 8) (size 9 to 14) (size 15 to 20)
#    0.000    2.750    1.250    0.750    0.000    2.000 
#    0.000    0.625    0.000    0.750    0.000    0.000 
#    0.000    0.000    0.000    0.000    0.000    0.375 
#
# Total GULP energy -178266.343125 kJ/mol
# GULP energy per Si atom -5570.823223 kJ/mol
# Density = 1.953819 g / cm^3
# Si number density = 19.582763 Si / 1000 Ang^3
#
#
#
# Elastic Constant Matrix: (Units=GPa)
#
#
# Indices 1 2 3 4 5 6 
#
# 1 81.4955 -5.1605 76.9230 0.0000 27.2696 0.0000
# 2 -5.1605 26.3716 -5.0562 0.0000 3.8263 0.0000
# 3 76.9230 -5.0562 147.0794 0.0000 21.9312 0.0000
# 4 0.0000 0.0000 0.0000 2.6872 0.0000 -1.0474
# 5 27.2696 3.8263 21.9312 0.0000 35.2413 0.0000
# 6 0.0000 0.0000 0.0000 -1.0474 0.0000 15.5624
#
#
#
# Elastic Compliance Matrix: (Units=1/GPa)
#
#
# Indices 1 2 3 4 5 6 
#
# 1 0.030710 0.005747 -0.013478 0.000000 -0.016000 0.000000
# 2 0.005747 0.040227 -0.000340 0.000000 -0.008603 0.000000
# 3 -0.013478 -0.000340 0.013532 0.000000 0.002045 0.000000
# 4 0.000000 0.000000 0.000000 0.382154 0.000000 0.025721
# 5 -0.016000 -0.008603 0.002045 0.000000 0.040417 0.000000
# 6 0.000000 0.000000 0.000000 0.025721 0.000000 0.065989
#
#
# Mechanical properties :
#
#
# Convention : Reuss Voigt Hill
#
# Bulk Modulus (GPa) = 14.63569 43.15102 28.89335
# Shear Modulus (GPa) = 8.17063 23.24753 15.70908
#
# Velocity S-wave (km/s) = 2.04485 3.44923 2.83537
# Velocity P-wave (km/s) = 3.61458 6.16003 5.05031
#
# Compressibility (1/GPa) = 0.06832613
#
# Stress axis : x y z
#
# Youngs Moduli (GPa) = 32.56241 24.85884 73.90142
#
# Poissons Ratio (x) = -0.14286 0.99606
# Poissons Ratio (y) = -0.18713 0.02512
# Poissons Ratio (z) = 0.43888 0.00845
#
# Static dielectric constant tensor:
#      x y z
#    x 1.641960 0.000000 0.057070 
#    y 0.000000 1.708320 0.000000 
#    z 0.057070 0.000000 1.730910 
# 
# From -- ./inp_files/70336.got.cif
#   From: 2010.05.17/outbox.cif.g08.bks.cpg/sg11_36_cif.got.tgz:70336.got - 2010.06.03 12:22:45.
