data_PCOD9158519
_publ_section_title
;
Structure prediction by ZEFSAII (Michael W. Deem and Ramdas Pophale) SiO2 
 PCOD9158519
Probable space group: P 21/M
;
_chemical_formula_sum "Si O2"
_cell_formula_units_Z 32
_cell_length_a 22.612356
_cell_length_b 7.505003
_cell_length_c 13.697070
_cell_angle_alpha 90.000000
_cell_angle_beta 145.776474
_cell_angle_gamma 90.000000
_cell_volume 1307.336486
_symmetry_space_group_name_H-M "P 21/M"
_symmetry_group_IT_number 11
_symmetry_cell_setting 'monoclinic'
loop_
_space_group_symop_operation_xyz
x,y,z
-x,1/2+y,-z
-x,-y,-z
x,1/2-y,z
loop_
_atom_site_type_symbol
_atom_site_label
_atom_site_fract_x
_atom_site_fract_y
_atom_site_fract_z
Si Si1 0.470391 0.453987 0.117750
Si Si2 0.094001 0.531372 0.864580
Si Si3 0.294408 0.464901 0.748923
Si Si4 0.378570 0.038358 0.335239
Si Si5 0.714472 0.450720 0.994122
Si Si6 0.189737 0.547375 0.200275
Si Si7 0.298411 0.538185 0.530080
Si Si8 0.925903 0.537420 0.490949
O O1 0.497673 0.250000 0.131831
O O2 0.374472 0.453810 0.064280
O O3 0.579746 0.532732 0.307812
O O4 0.406776 0.536739 0.939662
O O5 0.101589 0.750000 0.875998
O O6 0.981941 0.477497 0.668090
O O7 0.173716 0.469593 0.886552
O O8 0.127481 0.471719 0.019787
O O9 0.301519 0.250000 0.766021
O O10 0.271731 0.510376 0.606611
O O11 0.194519 0.525849 0.676916
O O12 0.359730 0.250000 0.306489
O O13 0.500000 0.000000 0.500000
O O14 0.335415 0.945592 0.180967
O O15 0.311312 0.958515 0.330999
O O16 0.727034 0.250000 0.047692
O O17 0.150031 0.750000 0.156083
O O18 0.208537 0.465043 0.333384
O O19 0.300347 0.750000 0.511914
O O20 0.919679 0.750000 0.488717
O O21 0.000000 0.500000 0.500000
#
# Coordination Sequence:
#
# PCOD9158519 Si02
#       8
#     4   4   4   4   4   4   4   4
#     4  10  20  34  51  76 108 142 177 221 271 320
#     4   8  16  32  53  76 106 139 174 215 267 321
#     4  10  22  37  54  78 109 139 175 221 269 319
#     4  11  20  30  46  71 104 141 178 219 263 313
#     4  10  19  31  50  77 105 138 176 216 263 319
#     4   9  18  34  53  74 100 136 181 226 267 315
#     4  10  21  36  55  75 101 139 181 221 266 316
#     4  10  20  36  58  83 108 138 171 213 266 321
#
# _framework density 24.477247999999999
#
# number of rings (size 3 to 8) (size 9 to 14) (size 15 to 20)
#    0.000    2.250    0.000    4.125    0.000    3.000 
#    0.000    3.125    0.000    0.000    0.000    0.000 
#    0.000    0.000    0.000    0.000    0.000    0.000 
#
# Total GULP energy -178422.805762 kJ/mol
# GULP energy per Si atom -5575.712680 kJ/mol
# Density = 2.442154 g / cm^3
# Si number density = 24.477248 Si / 1000 Ang^3
#
#
#
# Elastic Constant Matrix: (Units=GPa)
#
#
# Indices 1 2 3 4 5 6 
#
# 1 67.1752 1.0548 17.6807 0.0000 -22.4195 0.0000
# 2 1.0548 95.2502 12.1914 0.0000 -5.4939 0.0000
# 3 17.6807 12.1914 119.8669 0.0000 -10.7636 0.0000
# 4 0.0000 0.0000 0.0000 11.4344 0.0000 -6.4009
# 5 -22.4195 -5.4939 -10.7636 0.0000 39.2355 0.0000
# 6 0.0000 0.0000 0.0000 -6.4009 0.0000 20.8042
#
#
#
# Elastic Compliance Matrix: (Units=1/GPa)
#
#
# Indices 1 2 3 4 5 6 
#
# 1 0.018825 0.000632 -0.001914 0.000000 0.010320 0.000000
# 2 0.000632 0.010716 -0.001042 0.000000 0.001576 0.000000
# 3 -0.001914 -0.001042 0.008837 0.000000 0.001185 0.000000
# 4 0.000000 0.000000 0.000000 0.105653 0.000000 0.032507
# 5 0.010320 0.001576 0.001185 0.000000 0.031930 0.000000
# 6 0.000000 0.000000 0.000000 0.032507 0.000000 0.058069
#
#
# Mechanical properties :
#
#
# Convention : Reuss Voigt Hill
#
# Bulk Modulus (GPa) = 29.64754 38.23845 33.94299
# Shear Modulus (GPa) = 20.00642 31.05252 25.52947
#
# Velocity S-wave (km/s) = 2.86203 3.56564 3.23304
# Velocity P-wave (km/s) = 4.80210 5.71032 5.27579
#
# Compressibility (1/GPa) = 0.03372962
#
# Stress axis : x y z
#
# Youngs Moduli (GPa) = 53.12205 93.31956 113.15720
#
# Poissons Ratio (x) = -0.05896 0.21661
# Poissons Ratio (y) = -0.03356 0.11786
# Poissons Ratio (z) = 0.10169 0.09720
#
# Static dielectric constant tensor:
#      x y z
#    x 1.441300 0.000000 -0.655090 
#    y 0.000000 1.929590 0.000000 
#    z -0.655090 0.000000 1.289060 
# 
# From -- ./inp_files/55670.got.cif
#   From: 2010.05.17/outbox.cif.g08.bks.cpg/sg11_28_cif.got.tgz:55670.got - 2010.06.03 12:22:45.
