data_PCOD9158962
_publ_section_title
;
Structure prediction by ZEFSAII (Michael W. Deem and Ramdas Pophale) SiO2 
 PCOD9158962
Probable space group: P 21/M
;
_chemical_formula_sum "Si O2"
_cell_formula_units_Z 24
_cell_length_a 12.238961
_cell_length_b 7.468827
_cell_length_c 12.045067
_cell_angle_alpha 90.000000
_cell_angle_beta 111.135700
_cell_angle_gamma 90.000000
_cell_volume 1026.979258
_symmetry_space_group_name_H-M "P 21/M"
_symmetry_group_IT_number 11
_symmetry_cell_setting 'monoclinic'
loop_
_space_group_symop_operation_xyz
x,y,z
-x,1/2+y,-z
-x,-y,-z
x,1/2-y,z
loop_
_atom_site_type_symbol
_atom_site_label
_atom_site_fract_x
_atom_site_fract_y
_atom_site_fract_z
Si Si1 0.746495 0.044338 0.087620
Si Si2 0.019134 0.967720 0.194685
Si Si3 0.240052 0.969320 0.149053
Si Si4 0.684492 0.040841 0.303038
Si Si5 0.887391 0.036510 0.534278
Si Si6 0.539021 0.037671 0.639696
O O1 0.704759 0.250000 0.068435
O O2 0.698592 0.962913 0.184648
O O3 0.718665 0.966080 0.956547
O O4 0.887978 0.040168 0.144607
O O5 0.009912 0.750000 0.191418
O O6 0.107977 0.024231 0.130280
O O7 0.082115 0.027450 0.331756
O O8 0.237566 0.750000 0.146142
O O9 0.332322 0.025689 0.276944
O O10 0.717842 0.250000 0.303062
O O11 0.775470 0.963821 0.426790
O O12 0.557018 0.031073 0.308972
O O13 0.870068 0.250000 0.540540
O O14 0.000000 0.000000 0.500000
O O15 0.540607 0.250000 0.651715
O O16 0.500000 0.000000 0.500000
#
# Coordination Sequence:
#
# PCOD9158962 Si02
#       6
#     4   4   4   4   4   4
#     4  10  20  36  58  83 114 151 188 227 279 339
#     4  10  19  33  55  81 114 150 187 233 282 332
#     4   9  20  38  58  81 112 151 188 230 285 335
#     4  10  21  37  57  84 118 151 186 232 281 332
#     4  10  19  32  52  79 112 148 184 229 281 329
#     4  11  23  41  63  84 111 147 190 235 283 338
#
# _framework density 23.369509999999998
#
# number of rings (size 3 to 8) (size 9 to 14) (size 15 to 20)
#    0.000    2.000    1.667    2.000    0.000    4.667 
#    0.000    5.000    0.000    0.000    0.000    0.000 
#    0.000    0.000    0.000    0.000    0.000    0.000 
#
# Total GULP energy -134106.536008 kJ/mol
# GULP energy per Si atom -5587.772334 kJ/mol
# Density = 2.331632 g / cm^3
# Si number density = 23.369510 Si / 1000 Ang^3
#
#
#
# Elastic Constant Matrix: (Units=GPa)
#
#
# Indices 1 2 3 4 5 6 
#
# 1 87.1481 -25.4184 24.0607 0.0000 -7.7615 0.0000
# 2 -25.4184 65.0860 -5.0725 0.0000 -0.0031 0.0000
# 3 24.0607 -5.0725 129.2147 0.0000 -18.2861 0.0000
# 4 0.0000 0.0000 0.0000 4.4629 0.0000 1.9450
# 5 -7.7615 -0.0031 -18.2861 0.0000 33.5458 0.0000
# 6 0.0000 0.0000 0.0000 1.9450 0.0000 21.3508
#
#
#
# Elastic Compliance Matrix: (Units=1/GPa)
#
#
# Indices 1 2 3 4 5 6 
#
# 1 0.013747 0.005208 -0.002064 0.000000 0.002056 0.000000
# 2 0.005208 0.017388 -0.000126 0.000000 0.001138 0.000000
# 3 -0.002064 -0.000126 0.008724 0.000000 0.004278 0.000000
# 4 0.000000 0.000000 0.000000 0.233334 0.000000 -0.021257
# 5 0.002056 0.001138 0.004278 0.000000 0.032618 0.000000
# 6 0.000000 0.000000 0.000000 -0.021257 0.000000 0.048773
#
#
# Mechanical properties :
#
#
# Convention : Reuss Voigt Hill
#
# Bulk Modulus (GPa) = 21.78954 29.84316 25.81635
# Shear Modulus (GPa) = 13.74205 31.06382 22.40293
#
# Velocity S-wave (km/s) = 2.42757 3.64984 3.09955
# Velocity P-wave (km/s) = 4.14748 5.52807 4.88678
#
# Compressibility (1/GPa) = 0.04589357
#
# Stress axis : x y z
#
# Youngs Moduli (GPa) = 72.74466 57.50980 114.62767
#
# Poissons Ratio (x) = -0.29950 0.23663
# Poissons Ratio (y) = -0.37884 0.01446
# Poissons Ratio (z) = 0.15017 0.00725
#
# Static dielectric constant tensor:
#      x y z
#    x 1.803790 0.000000 0.003210 
#    y 0.000000 1.889260 0.000000 
#    z 0.003210 0.000000 1.902760 
# 
# From -- ./inp_files/33927.got.cif
#   From: 2010.05.17/outbox.cif.g08.bks.cpg/sg11_17_cif.got.tgz:33927.got - 2010.06.03 12:22:45.
