data_PCOD9158096
_publ_section_title
;
Structure prediction by ZEFSAII (Michael W. Deem and Ramdas Pophale) SiO2 
 PCOD9158096
Probable space group: P 21/M
;
_chemical_formula_sum "Si O2"
_cell_formula_units_Z 32
_cell_length_a 17.078874
_cell_length_b 9.073536
_cell_length_c 31.032731
_cell_angle_alpha 90.000000
_cell_angle_beta 154.441480
_cell_angle_gamma 90.000000
_cell_volume 2074.764937
_symmetry_space_group_name_H-M "P 21/M"
_symmetry_group_IT_number 11
_symmetry_cell_setting 'monoclinic'
loop_
_space_group_symop_operation_xyz
x,y,z
-x,1/2+y,-z
-x,-y,-z
x,1/2-y,z
loop_
_atom_site_type_symbol
_atom_site_label
_atom_site_fract_x
_atom_site_fract_y
_atom_site_fract_z
Si Si1 0.786045 0.425416 0.346621
Si Si2 0.007658 0.918942 0.321685
Si Si3 0.335256 0.424484 0.531142
Si Si4 0.636203 0.920528 0.190497
Si Si5 0.383892 0.574982 0.403682
Si Si6 0.402984 0.928036 0.993487
Si Si7 0.210669 0.425450 0.561529
Si Si8 0.995620 0.575082 0.769814
O O1 0.773232 0.250000 0.340426
O O2 0.663011 0.490755 0.247665
O O3 0.739216 0.490108 0.370176
O O4 0.000275 0.463972 0.445692
O O5 0.033683 0.750000 0.320025
O O6 0.830525 0.924009 0.263202
O O7 0.179447 0.976425 0.433032
O O8 0.982949 0.024700 0.268886
O O9 0.286621 0.250000 0.502874
O O10 0.512498 0.448344 0.590153
O O11 0.335675 0.456737 0.582222
O O12 0.592414 0.750000 0.178727
O O13 0.496328 0.975243 0.084619
O O14 0.500000 0.500000 0.500000
O O15 0.622681 0.250000 0.591332
O O16 0.183127 0.507782 0.302559
O O17 0.425623 0.750000 0.001190
O O18 0.188713 0.961311 0.887241
O O19 0.500000 0.000000 0.000000
O O20 0.214557 0.250000 0.571860
O O21 0.966461 0.750000 0.758014
#
# Coordination Sequence:
#
# PCOD9158096 Si02
#       8
#     4   4   4   4   4   4   4   4
#     4  10  19  30  48  73  99 129 162 198 243 296
#     4  11  20  29  48  72  99 132 169 207 244 287
#     4  10  20  34  50  70  98 133 170 204 245 293
#     4  10  20  33  48  71 100 132 168 204 246 295
#     4  11  22  34  51  74 100 132 171 209 248 294
#     4  10  21  35  51  72  98 132 171 209 249 295
#     4   9  18  32  48  68  98 131 161 198 243 294
#     4  11  22  35  50  69 100 136 170 209 251 293
#
# _framework density 15.423434
#
# number of rings (size 3 to 8) (size 9 to 14) (size 15 to 20)
#    0.000    1.750    3.750    1.500    0.000    3.000 
#    0.000    0.000    0.000    0.000    0.000    0.875 
#    0.000    0.000    0.000    0.000    0.000    0.000 
#
# Total GULP energy -178491.851342 kJ/mol
# GULP energy per Si atom -5577.870354 kJ/mol
# Density = 1.538833 g / cm^3
# Si number density = 15.423434 Si / 1000 Ang^3
#
#
#
# Elastic Constant Matrix: (Units=GPa)
#
#
# Indices 1 2 3 4 5 6 
#
# 1 95.3365 45.1014 58.8573 0.0000 -15.5961 0.0000
# 2 45.1014 51.4647 52.8626 0.0000 -4.2944 0.0000
# 3 58.8573 52.8626 114.7939 0.0000 -11.4904 0.0000
# 4 0.0000 0.0000 0.0000 20.2132 0.0000 0.1845
# 5 -15.5961 -4.2944 -11.4904 0.0000 26.5132 0.0000
# 6 0.0000 0.0000 0.0000 0.1845 0.0000 20.7025
#
#
#
# Elastic Compliance Matrix: (Units=1/GPa)
#
#
# Indices 1 2 3 4 5 6 
#
# 1 0.020419 -0.013857 -0.003252 0.000000 0.008358 0.000000
# 2 -0.013857 0.046329 -0.014942 0.000000 -0.007123 0.000000
# 3 -0.003252 -0.014942 0.017589 0.000000 0.003290 0.000000
# 4 0.000000 0.000000 0.000000 0.049477 0.000000 -0.000441
# 5 0.008358 -0.007123 0.003290 0.000000 0.042905 0.000000
# 6 0.000000 0.000000 0.000000 -0.000441 0.000000 0.048307
#
#
# Mechanical properties :
#
#
# Convention : Reuss Voigt Hill
#
# Bulk Modulus (GPa) = 49.42162 63.91532 56.66847
# Shear Modulus (GPa) = 16.89914 20.47072 18.68493
#
# Velocity S-wave (km/s) = 3.31370 3.64709 3.48438
# Velocity P-wave (km/s) = 6.83766 7.69840 7.28076
#
# Compressibility (1/GPa) = 0.02023406
#
# Stress axis : x y z
#
# Youngs Moduli (GPa) = 48.97310 21.58495 56.85482
#
# Poissons Ratio (x) = 0.29911 0.18487
# Poissons Ratio (y) = 0.67864 0.84955
# Poissons Ratio (z) = 0.15924 0.32253
#
# Static dielectric constant tensor:
#      x y z
#    x 1.509040 0.000000 0.003380 
#    y 0.000000 1.520640 0.000000 
#    z 0.003380 0.000000 1.516610 
# 
# From -- ./inp_files/56182.got.cif
#   From: 2010.05.17/outbox.cif.g08.bks.cpg/sg11_29_cif.got.tgz:56182.got - 2010.06.03 12:22:45.
