data_PCOD9158430
_publ_section_title
;
Structure prediction by ZEFSAII (Michael W. Deem and Ramdas Pophale) SiO2 
 PCOD9158430
Probable space group: P 21/M
;
_chemical_formula_sum "Si O2"
_cell_formula_units_Z 28
_cell_length_a 28.073103
_cell_length_b 9.275099
_cell_length_c 9.608221
_cell_angle_alpha 90.000000
_cell_angle_beta 39.949322
_cell_angle_gamma 90.000000
_cell_volume 1606.427946
_symmetry_space_group_name_H-M "P 21/M"
_symmetry_group_IT_number 11
_symmetry_cell_setting 'monoclinic'
loop_
_space_group_symop_operation_xyz
x,y,z
-x,1/2+y,-z
-x,-y,-z
x,1/2-y,z
loop_
_atom_site_type_symbol
_atom_site_label
_atom_site_fract_x
_atom_site_fract_y
_atom_site_fract_z
Si Si1 0.459730 0.580331 0.794157
Si Si2 0.399454 0.580855 0.613458
Si Si3 0.810096 0.417821 0.678262
Si Si4 0.685694 0.078757 0.720671
Si Si5 0.797315 0.579540 0.281695
Si Si6 0.756000 0.580662 0.060113
Si Si7 0.921402 0.078030 0.183143
O O1 0.477134 0.750000 0.771563
O O2 0.422781 0.563967 0.723632
O O3 0.534146 0.487586 0.625052
O O4 0.397301 0.540183 0.046646
O O5 0.391749 0.750000 0.602477
O O6 0.322531 0.500590 0.762425
O O7 0.808028 0.250000 0.725114
O O8 0.739620 0.441287 0.733802
O O9 0.881847 0.442684 0.421684
O O10 0.802934 0.516849 0.827934
O O11 0.688358 0.250000 0.681079
O O12 0.722321 0.985484 0.517302
O O13 0.802892 0.750000 0.300933
O O14 0.794610 0.560545 0.122479
O O15 0.864813 0.493189 0.200155
O O16 0.743088 0.750000 0.067899
O O17 0.927343 0.250000 0.146758
O O18 0.000000 0.000000 0.000000
#
# Coordination Sequence:
#
# PCOD9158430 Si02
#       7
#     4   4   4   4   4   4   4
#     4   9  17  31  49  74 105 135 177 230 276 319
#     4  10  19  31  49  74 105 140 179 226 275 320
#     4   9  18  34  56  82 108 137 177 219 261 313
#     4   9  17  33  54  77 104 138 181 228 273 318
#     4  10  22  37  54  80 112 143 179 220 262 315
#     4  11  22  35  52  78 111 145 181 222 266 314
#     4  10  21  39  63  88 112 139 173 214 260 313
#
# _framework density 17.429976
#
# number of rings (size 3 to 8) (size 9 to 14) (size 15 to 20)
#    0.000    2.286    1.429    2.571    0.000    6.286 
#    0.000    1.429    0.000    0.000    0.000    0.000 
#    0.000    0.000    0.000    0.000    0.000    0.000 
#
# Total GULP energy -156262.447226 kJ/mol
# GULP energy per Si atom -5580.801687 kJ/mol
# Density = 1.739030 g / cm^3
# Si number density = 17.429976 Si / 1000 Ang^3
#
#
#
# Elastic Constant Matrix: (Units=GPa)
#
#
# Indices 1 2 3 4 5 6 
#
# 1 48.0276 63.8129 48.1980 0.0000 -3.3199 0.0000
# 2 63.8129 113.0790 79.9850 0.0000 -0.0357 0.0000
# 3 48.1980 79.9850 105.6922 0.0000 -12.7914 0.0000
# 4 0.0000 0.0000 0.0000 35.2617 0.0000 -1.4106
# 5 -3.3199 -0.0357 -12.7914 0.0000 21.7217 0.0000
# 6 0.0000 0.0000 0.0000 -1.4106 0.0000 24.8625
#
#
#
# Elastic Compliance Matrix: (Units=1/GPa)
#
#
# Indices 1 2 3 4 5 6 
#
# 1 0.087070 -0.047472 -0.002346 0.000000 0.011848 0.000000
# 2 -0.047472 0.046743 -0.015714 0.000000 -0.016432 0.000000
# 3 -0.002346 -0.015714 0.024094 0.000000 0.013804 0.000000
# 4 0.000000 0.000000 0.000000 0.028424 0.000000 0.001613
# 5 0.011848 -0.016432 0.013804 0.000000 0.055949 0.000000
# 6 0.000000 0.000000 0.000000 0.001613 0.000000 0.040313
#
#
# Mechanical properties :
#
#
# Convention : Reuss Voigt Hill
#
# Bulk Modulus (GPa) = 37.25548 72.31009 54.78279
# Shear Modulus (GPa) = 11.83138 21.35605 16.59371
#
# Velocity S-wave (km/s) = 2.60820 3.50415 3.08883
# Velocity P-wave (km/s) = 5.52187 7.61237 6.64978
#
# Compressibility (1/GPa) = 0.02684169
#
# Stress axis : x y z
#
# Youngs Moduli (GPa) = 11.48505 21.39363 41.50382
#
# Poissons Ratio (x) = 1.01560 0.09739
# Poissons Ratio (y) = 0.54522 0.65220
# Poissons Ratio (z) = 0.02695 0.33618
#
# Static dielectric constant tensor:
#      x y z
#    x 1.571980 0.000000 0.006140 
#    y 0.000000 1.574940 0.000000 
#    z 0.006140 0.000000 1.591350 
# 
# From -- ./inp_files/29032.got.cif
#   From: 2010.05.17/outbox.cif.g08.bks.cpg/sg11_15_cif.got.tgz:29032.got - 2010.06.03 12:22:45.
