data_PCOD9158530
_publ_section_title
;
Structure prediction by ZEFSAII (Michael W. Deem and Ramdas Pophale) SiO2 
 PCOD9158530
Probable space group: P 21/M
;
_chemical_formula_sum "Si O2"
_cell_formula_units_Z 32
_cell_length_a 31.318011
_cell_length_b 7.689838
_cell_length_c 13.265499
_cell_angle_alpha 90.000000
_cell_angle_beta 152.442954
_cell_angle_gamma 90.000000
_cell_volume 1477.985525
_symmetry_space_group_name_H-M "P 21/M"
_symmetry_group_IT_number 11
_symmetry_cell_setting 'monoclinic'
loop_
_space_group_symop_operation_xyz
x,y,z
-x,1/2+y,-z
-x,-y,-z
x,1/2-y,z
loop_
_atom_site_type_symbol
_atom_site_label
_atom_site_fract_x
_atom_site_fract_y
_atom_site_fract_z
Si Si1 0.642366 0.537233 0.610718
Si Si2 0.192315 0.045336 0.918253
Si Si3 0.544117 0.043545 0.699482
Si Si4 0.400809 0.459350 0.843347
Si Si5 0.124119 0.464178 0.558644
Si Si6 0.745980 0.959160 0.626804
Si Si7 0.692638 0.548682 0.152456
Si Si8 0.916689 0.456061 0.106697
O O1 0.642507 0.750000 0.613741
O O2 0.537580 0.481161 0.397738
O O3 0.689389 0.481087 0.606474
O O4 0.707646 0.474239 0.838508
O O5 0.205043 0.250000 0.927634
O O6 0.148029 0.976642 0.722973
O O7 0.129182 0.027278 0.886100
O O8 0.555888 0.250000 0.731190
O O9 0.500000 0.000000 0.500000
O O10 0.638371 0.960011 0.932987
O O11 0.400646 0.250000 0.844858
O O12 0.313905 0.519702 0.593088
O O13 0.373999 0.525100 0.899501
O O14 0.500000 0.500000 0.000000
O O15 0.124904 0.250000 0.559219
O O16 0.205908 0.525639 0.656053
O O17 0.021201 0.520323 0.314719
O O18 0.744183 0.750000 0.620623
O O19 0.850686 0.008108 0.873006
O O20 0.707024 0.750000 0.209057
O O21 0.919679 0.250000 0.127238
#
# Coordination Sequence:
#
# PCOD9158530 Si02
#       8
#     4   4   4   4   4   4   4   4
#     4   8  15  28  48  69  95 132 169 202 249 310
#     4   9  16  30  51  73 100 140 177 210 256 313
#     4  11  21  34  52  76 107 143 177 213 256 310
#     4  10  21  37  61  85 106 134 172 217 266 317
#     4   9  18  33  52  72 103 142 177 212 261 315
#     4   9  18  35  54  74 100 133 169 208 258 316
#     4  10  21  38  56  77 104 139 180 219 261 318
#     4  10  19  31  50  78 105 135 175 221 261 301
#
# _framework density 21.651091999999998
#
# number of rings (size 3 to 8) (size 9 to 14) (size 15 to 20)
#    0.000    2.500    0.000    3.375    0.000    4.000 
#    0.000   11.875    0.000    0.000    0.000    0.000 
#    0.000    0.000    0.000    0.000    0.000    0.000 
#
# Total GULP energy -178461.363582 kJ/mol
# GULP energy per Si atom -5576.917612 kJ/mol
# Density = 2.160181 g / cm^3
# Si number density = 21.651092 Si / 1000 Ang^3
#
#
#
# Elastic Constant Matrix: (Units=GPa)
#
#
# Indices 1 2 3 4 5 6 
#
# 1 87.4372 -3.5414 58.2478 0.0000 8.8079 0.0000
# 2 -3.5414 38.9421 -3.9693 0.0000 -0.3585 0.0000
# 3 58.2478 -3.9693 142.0184 0.0000 12.0612 0.0000
# 4 0.0000 0.0000 0.0000 18.6712 0.0000 1.8306
# 5 8.8079 -0.3585 12.0612 0.0000 38.2065 0.0000
# 6 0.0000 0.0000 0.0000 1.8306 0.0000 9.5838
#
#
#
# Elastic Compliance Matrix: (Units=1/GPa)
#
#
# Indices 1 2 3 4 5 6 
#
# 1 0.015860 0.000781 -0.006343 0.000000 -0.001646 0.000000
# 2 0.000781 0.025791 0.000406 0.000000 -0.000066 0.000000
# 3 -0.006343 0.000406 0.009792 0.000000 -0.001625 0.000000
# 4 0.000000 0.000000 0.000000 0.054581 0.000000 -0.010425
# 5 -0.001646 -0.000066 -0.001625 0.000000 0.027066 0.000000
# 6 0.000000 0.000000 0.000000 -0.010425 0.000000 0.106334
#
#
# Mechanical properties :
#
#
# Convention : Reuss Voigt Hill
#
# Bulk Modulus (GPa) = 24.31281 41.09687 32.70484
# Shear Modulus (GPa) = 18.97926 27.80301 23.39113
#
# Velocity S-wave (km/s) = 2.96395 3.58738 3.29046
# Velocity P-wave (km/s) = 4.79240 6.01512 5.43823
#
# Compressibility (1/GPa) = 0.04113058
#
# Stress axis : x y z
#
# Youngs Moduli (GPa) = 63.05231 38.77332 102.12095
#
# Poissons Ratio (x) = -0.03027 0.64777
# Poissons Ratio (y) = -0.04922 -0.04149
# Poissons Ratio (z) = 0.39995 -0.01575
#
# Static dielectric constant tensor:
#      x y z
#    x 1.825810 0.000000 -0.006450 
#    y 0.000000 1.811610 0.000000 
#    z -0.006450 0.000000 1.808470 
# 
# From -- ./inp_files/45256.got.cif
#   From: 2010.05.17/outbox.cif.g08.bks.cpg/sg11_23_cif.got.tgz:45256.got - 2010.06.03 12:22:45.
