data_PCOD9158521
_publ_section_title
;
Structure prediction by ZEFSAII (Michael W. Deem and Ramdas Pophale) SiO2 
 PCOD9158521
Probable space group: P 21/M
;
_chemical_formula_sum "Si O2"
_cell_formula_units_Z 28
_cell_length_a 12.153592
_cell_length_b 8.929878
_cell_length_c 17.027062
_cell_angle_alpha 90.000000
_cell_angle_beta 88.976361
_cell_angle_gamma 90.000000
_cell_volume 1847.653721
_symmetry_space_group_name_H-M "P 21/M"
_symmetry_group_IT_number 11
_symmetry_cell_setting 'monoclinic'
loop_
_space_group_symop_operation_xyz
x,y,z
-x,1/2+y,-z
-x,-y,-z
x,1/2-y,z
loop_
_atom_site_type_symbol
_atom_site_label
_atom_site_fract_x
_atom_site_fract_y
_atom_site_fract_z
Si Si1 0.603103 0.074046 0.762607
Si Si2 0.992628 0.429609 0.586842
Si Si3 0.769300 0.570398 0.346460
Si Si4 0.231361 0.429536 0.352748
Si Si5 0.378848 0.928163 0.776174
Si Si6 0.379627 0.070236 0.502217
Si Si7 0.518211 0.925949 0.083425
O O1 0.602743 0.250000 0.743021
O O2 0.587801 0.059527 0.857081
O O3 0.706615 0.992850 0.724123
O O4 0.489572 0.997071 0.734443
O O5 0.983454 0.250000 0.580224
O O6 0.105691 0.463522 0.631226
O O7 0.000000 0.500000 0.500000
O O8 0.886724 0.497164 0.631148
O O9 0.759550 0.750000 0.336046
O O10 0.724663 0.488137 0.270256
O O11 0.691012 0.526318 0.420475
O O12 0.221799 0.250000 0.350008
O O13 0.309340 0.469887 0.425909
O O14 0.384650 0.750000 0.776244
O O15 0.389245 0.992689 0.864506
O O16 0.390074 0.250000 0.503038
O O17 0.500000 0.000000 0.500000
O O18 0.542311 0.750000 0.075680
O O19 0.500000 0.000000 0.000000
#
# Coordination Sequence:
#
# PCOD9158521 Si02
#       7
#     4   4   4   4   4   4   4
#     4   9  19  33  50  75 106 137 166 204 252 303
#     4  11  22  37  54  70  94 134 181 226 266 304
#     4  10  20  36  50  66  97 135 175 217 258 303
#     4  11  21  35  51  72  99 132 176 220 259 305
#     4  10  19  31  50  77 106 134 167 207 253 303
#     4  10  21  33  46  67  95 129 168 210 256 302
#     4   9  18  32  53  79 109 138 165 200 248 310
#
# _framework density 15.154354
#
# number of rings (size 3 to 8) (size 9 to 14) (size 15 to 20)
#    0.857    1.143    1.429    3.429    0.000    5.143 
#    0.000    0.000    0.000    0.000    0.000    1.000 
#    0.000    0.000    0.000    0.000    0.000    0.000 
#
# Total GULP energy -156034.973768 kJ/mol
# GULP energy per Si atom -5572.677635 kJ/mol
# Density = 1.511986 g / cm^3
# Si number density = 15.154354 Si / 1000 Ang^3
#
#
#
# Elastic Constant Matrix: (Units=GPa)
#
#
# Indices 1 2 3 4 5 6 
#
# 1 121.6941 62.9557 55.7743 0.0000 7.6555 0.0000
# 2 62.9557 87.6522 58.5568 0.0000 7.4203 0.0000
# 3 55.7743 58.5568 97.9383 0.0000 11.3086 0.0000
# 4 0.0000 0.0000 0.0000 25.1803 0.0000 0.6259
# 5 7.6555 7.4203 11.3086 0.0000 11.7437 0.0000
# 6 0.0000 0.0000 0.0000 0.6259 0.0000 26.9133
#
#
#
# Elastic Compliance Matrix: (Units=1/GPa)
#
#
# Indices 1 2 3 4 5 6 
#
# 1 0.013659 -0.007669 -0.003066 0.000000 -0.001106 0.000000
# 2 -0.007669 0.023317 -0.009507 0.000000 -0.000579 0.000000
# 3 -0.003066 -0.009507 0.018807 0.000000 -0.010105 0.000000
# 4 0.000000 0.000000 0.000000 0.039737 0.000000 -0.000924
# 5 -0.001106 -0.000579 -0.010105 0.000000 0.095970 0.000000
# 6 0.000000 0.000000 0.000000 -0.000924 0.000000 0.037178
#
#
# Mechanical properties :
#
#
# Convention : Reuss Voigt Hill
#
# Bulk Modulus (GPa) = 65.35768 73.53981 69.44875
# Shear Modulus (GPa) = 18.23140 21.43399 19.83269
#
# Velocity S-wave (km/s) = 3.47226 3.76490 3.62154
# Velocity P-wave (km/s) = 7.70046 8.21778 7.96332
#
# Compressibility (1/GPa) = 0.01530042
#
# Stress axis : x y z
#
# Youngs Moduli (GPa) = 73.20956 42.88683 53.17055
#
# Poissons Ratio (x) = 0.32890 0.16301
# Poissons Ratio (y) = 0.56144 0.50549
# Poissons Ratio (z) = 0.22445 0.40772
#
# Static dielectric constant tensor:
#      x y z
#    x 1.487150 0.000000 -0.002240 
#    y 0.000000 1.504550 0.000000 
#    z -0.002240 0.000000 1.501710 
# 
# From -- ./inp_files/58544.got.cif
#   From: 2010.05.17/outbox.cif.g08.bks.cpg/sg11_30_cif.got.tgz:58544.got - 2010.06.03 12:22:45.
