data_PCOD9158047
_publ_section_title
;
Structure prediction by ZEFSAII (Michael W. Deem and Ramdas Pophale) SiO2 
 PCOD9158047
Probable space group: P 21/M
;
_chemical_formula_sum "Si O2"
_cell_formula_units_Z 28
_cell_length_a 16.606759
_cell_length_b 8.976565
_cell_length_c 18.775486
_cell_angle_alpha 90.000000
_cell_angle_beta 36.929326
_cell_angle_gamma 90.000000
_cell_volume 1681.657176
_symmetry_space_group_name_H-M "P 21/M"
_symmetry_group_IT_number 11
_symmetry_cell_setting 'monoclinic'
loop_
_space_group_symop_operation_xyz
x,y,z
-x,1/2+y,-z
-x,-y,-z
x,1/2-y,z
loop_
_atom_site_type_symbol
_atom_site_label
_atom_site_fract_x
_atom_site_fract_y
_atom_site_fract_z
Si Si1 0.979198 0.573712 0.751697
Si Si2 0.283859 0.574060 0.481620
Si Si3 0.197526 0.421683 0.402034
Si Si4 0.111788 0.921794 0.324305
Si Si5 0.786382 0.926808 0.165466
Si Si6 0.514635 0.427957 0.411881
Si Si7 0.047014 0.573151 0.076881
O O1 0.955618 0.750000 0.774731
O O2 0.136037 0.552673 0.620198
O O3 0.894521 0.506112 0.746254
O O4 0.950581 0.491802 0.845757
O O5 0.313692 0.750000 0.461648
O O6 0.275735 0.513720 0.406724
O O7 0.392252 0.484369 0.450003
O O8 0.241273 0.250000 0.368744
O O9 0.197261 0.496344 0.324669
O O10 0.041965 0.422374 0.537990
O O11 0.151944 0.750000 0.287605
O O12 0.761329 0.750000 0.177862
O O13 0.900191 0.950410 0.145482
O O14 0.652751 0.013168 0.280742
O O15 0.849539 0.989645 0.048077
O O16 0.500000 0.500000 0.500000
O O17 0.514499 0.250000 0.417332
O O18 0.072911 0.750000 0.058335
#
# Coordination Sequence:
#
# PCOD9158047 Si02
#       7
#     4   4   4   4   4   4   4
#     4  10  19  30  47  72 101 132 166 205 248 294
#     4  10  20  33  49  71 100 134 170 205 246 295
#     4   9  16  27  43  65  95 129 164 201 244 294
#     4   9  16  26  42  65  95 129 163 201 245 293
#     4  10  21  37  55  74  98 129 165 204 247 293
#     4  12  24  37  53  74 101 132 167 205 246 292
#     4  10  20  34  53  75  99 128 163 204 248 294
#
# _framework density 16.650243
#
# number of rings (size 3 to 8) (size 9 to 14) (size 15 to 20)
#    0.000    2.000    0.000    4.714    0.000    9.143 
#    0.000    0.000    0.000    0.000    0.000    1.000 
#    0.000    0.000    0.000    0.000    0.000    0.000 
#
# Total GULP energy -156307.456770 kJ/mol
# GULP energy per Si atom -5582.409170 kJ/mol
# Density = 1.661235 g / cm^3
# Si number density = 16.650243 Si / 1000 Ang^3
#
#
#
# Elastic Constant Matrix: (Units=GPa)
#
#
# Indices 1 2 3 4 5 6 
#
# 1 132.6886 79.5283 53.1118 0.0000 32.4041 0.0000
# 2 79.5283 139.8999 51.6614 0.0000 14.3618 0.0000
# 3 53.1118 51.6614 49.6024 0.0000 15.2317 0.0000
# 4 0.0000 0.0000 0.0000 25.6425 0.0000 5.1135
# 5 32.4041 14.3618 15.2317 0.0000 26.3163 0.0000
# 6 0.0000 0.0000 0.0000 5.1135 0.0000 33.8490
#
#
#
# Elastic Compliance Matrix: (Units=1/GPa)
#
#
# Indices 1 2 3 4 5 6 
#
# 1 0.017735 -0.005224 -0.009387 0.000000 -0.013553 0.000000
# 2 -0.005224 0.013168 -0.009595 0.000000 0.004800 0.000000
# 3 -0.009387 -0.009595 0.042623 0.000000 -0.007875 0.000000
# 4 0.000000 0.000000 0.000000 0.040209 0.000000 -0.006074
# 5 -0.013553 0.004800 -0.007875 0.000000 0.056627 0.000000
# 6 0.000000 0.000000 0.000000 -0.006074 0.000000 0.030461
#
#
# Mechanical properties :
#
#
# Convention : Reuss Voigt Hill
#
# Bulk Modulus (GPa) = 39.81809 76.75488 58.28648
# Shear Modulus (GPa) = 19.40962 26.35420 22.88191
#
# Velocity S-wave (km/s) = 3.41798 3.98277 3.71114
# Velocity P-wave (km/s) = 6.28833 8.20661 7.31066
#
# Compressibility (1/GPa) = 0.02511421
#
# Stress axis : x y z
#
# Youngs Moduli (GPa) = 56.38706 75.94149 23.46165
#
# Poissons Ratio (x) = 0.39671 0.22023
# Poissons Ratio (y) = 0.29456 0.22511
# Poissons Ratio (z) = 0.52929 0.72866
#
# Static dielectric constant tensor:
#      x y z
#    x 1.545760 0.000000 0.000370 
#    y 0.000000 1.553610 0.000000 
#    z 0.000370 0.000000 1.533930 
# 
# From -- ./inp_files/54491.got.cif
#   From: 2010.05.17/outbox.cif.g08.bks.cpg/sg11_28_cif.got.tgz:54491.got - 2010.06.03 12:22:45.
