data_PCOD9158694
_publ_section_title
;
Structure prediction by ZEFSAII (Michael W. Deem and Ramdas Pophale) SiO2 
 PCOD9158694
Probable space group: P 21/M
;
_chemical_formula_sum "Si O2"
_cell_formula_units_Z 32
_cell_length_a 22.809960
_cell_length_b 8.823777
_cell_length_c 27.731373
_cell_angle_alpha 90.000000
_cell_angle_beta 19.009771
_cell_angle_gamma 90.000000
_cell_volume 1818.056485
_symmetry_space_group_name_H-M "P 21/M"
_symmetry_group_IT_number 11
_symmetry_cell_setting 'monoclinic'
loop_
_space_group_symop_operation_xyz
x,y,z
-x,1/2+y,-z
-x,-y,-z
x,1/2-y,z
loop_
_atom_site_type_symbol
_atom_site_label
_atom_site_fract_x
_atom_site_fract_y
_atom_site_fract_z
Si Si1 0.201224 0.432233 0.760049
Si Si2 0.839406 0.932365 0.657151
Si Si3 0.791431 0.930872 0.971135
Si Si4 0.694009 0.067887 0.863397
Si Si5 0.562369 0.068622 0.067607
Si Si6 0.173031 0.069021 0.670567
Si Si7 0.467599 0.432569 0.635699
Si Si8 0.179538 0.068032 0.940268
O O1 0.196886 0.250000 0.765169
O O2 0.214219 0.479033 0.694095
O O3 0.363670 0.482882 0.667809
O O4 0.009878 0.494330 0.926676
O O5 0.852085 0.750000 0.648889
O O6 0.643033 0.972462 0.787016
O O7 0.832314 0.997312 0.717406
O O8 0.000000 0.000000 0.500000
O O9 0.798874 0.750000 0.963348
O O10 0.774807 0.976682 0.040274
O O11 0.981320 0.999382 0.806191
O O12 0.633124 0.990605 0.060552
O O13 0.693265 0.250000 0.858911
O O14 0.697100 0.031735 0.918053
O O15 0.500000 0.000000 0.000000
O O16 0.565790 0.250000 0.070733
O O17 0.162354 0.250000 0.677235
O O18 0.338995 0.008104 0.511028
O O19 0.487321 0.250000 0.618884
O O20 0.337004 0.472789 0.781240
O O21 0.157820 0.250000 0.955853
#
# Coordination Sequence:
#
# PCOD9158694 Si02
#       8
#     4   4   4   4   4   4   4   4
#     4   9  18  31  49  72  96 126 163 203 251 308
#     4  10  20  34  54  82 114 143 171 208 255 300
#     4  10  20  35  54  73  95 130 172 209 248 296
#     4   9  17  31  52  78 107 136 168 206 248 295
#     4   9  19  35  55  78 103 134 171 209 247 293
#     4  10  20  33  49  71  98 127 163 207 253 302
#     4  10  19  32  49  71  99 127 160 206 257 306
#     4   9  19  33  49  71  99 129 163 206 252 300
#
# _framework density 17.601212
#
# number of rings (size 3 to 8) (size 9 to 14) (size 15 to 20)
#    0.000    2.500    0.000    3.000    0.000    5.000 
#    0.000    1.250    0.000    3.000    0.000    0.000 
#    0.000    0.000    0.000    0.000    0.000    0.000 
#
# Total GULP energy -178424.114576 kJ/mol
# GULP energy per Si atom -5575.753581 kJ/mol
# Density = 1.756115 g / cm^3
# Si number density = 17.601212 Si / 1000 Ang^3
#
#
#
# Elastic Constant Matrix: (Units=GPa)
#
#
# Indices 1 2 3 4 5 6 
#
# 1 41.6298 15.3451 19.0752 0.0000 -9.8259 0.0000
# 2 15.3451 21.4796 23.1502 0.0000 -1.0352 0.0000
# 3 19.0752 23.1502 96.0067 0.0000 9.5489 0.0000
# 4 0.0000 0.0000 0.0000 29.9561 0.0000 -0.0711
# 5 -9.8259 -1.0352 9.5489 0.0000 22.6226 0.0000
# 6 0.0000 0.0000 0.0000 -0.0711 0.0000 24.2623
#
#
#
# Elastic Compliance Matrix: (Units=1/GPa)
#
#
# Indices 1 2 3 4 5 6 
#
# 1 0.038018 -0.022094 -0.003933 0.000000 0.017162 0.000000
# 2 -0.022094 0.077846 -0.014385 0.000000 0.000038 0.000000
# 3 -0.003933 -0.014385 0.015554 0.000000 -0.008932 0.000000
# 4 0.000000 0.000000 0.000000 0.033382 0.000000 0.000098
# 5 0.017162 0.000038 -0.008932 0.000000 0.055430 0.000000
# 6 0.000000 0.000000 0.000000 0.000098 0.000000 0.041216
#
#
# Mechanical properties :
#
#
# Convention : Reuss Voigt Hill
#
# Bulk Modulus (GPa) = 19.76525 30.47298 25.11912
# Shear Modulus (GPa) = 13.92232 22.13792 18.03012
#
# Velocity S-wave (km/s) = 2.81550 3.55032 3.20405
# Velocity P-wave (km/s) = 4.67154 5.84440 5.29057
#
# Compressibility (1/GPa) = 0.05059385
#
# Stress axis : x y z
#
# Youngs Moduli (GPa) = 26.30319 12.84594 64.29053
#
# Poissons Ratio (x) = 0.28382 0.25285
# Poissons Ratio (y) = 0.58115 0.92481
# Poissons Ratio (z) = 0.10345 0.18479
#
# Static dielectric constant tensor:
#      x y z
#    x 1.623940 0.000000 0.017610 
#    y 0.000000 1.574810 0.000000 
#    z 0.017610 0.000000 1.588660 
# 
# From -- ./inp_files/71985.got.cif
#   From: 2010.05.17/outbox.cif.g08.bks.cpg/sg11_36_cif.got.tgz:71985.got - 2010.06.03 12:22:45.
