data_PCOD9158678
_publ_section_title
;
Structure prediction by ZEFSAII (Michael W. Deem and Ramdas Pophale) SiO2 
 PCOD9158678
Probable space group: P 21/M
;
_chemical_formula_sum "Si O2"
_cell_formula_units_Z 32
_cell_length_a 17.364049
_cell_length_b 7.578188
_cell_length_c 24.286274
_cell_angle_alpha 90.000000
_cell_angle_beta 149.795851
_cell_angle_gamma 90.000000
_cell_volume 1607.742547
_symmetry_space_group_name_H-M "P 21/M"
_symmetry_group_IT_number 11
_symmetry_cell_setting 'monoclinic'
loop_
_space_group_symop_operation_xyz
x,y,z
-x,1/2+y,-z
-x,-y,-z
x,1/2-y,z
loop_
_atom_site_type_symbol
_atom_site_label
_atom_site_fract_x
_atom_site_fract_y
_atom_site_fract_z
Si Si1 0.828835 0.039118 0.377457
Si Si2 0.638985 0.453658 0.951864
Si Si3 0.159069 0.533406 0.828702
Si Si4 0.184378 0.036309 0.378807
Si Si5 0.502700 0.040325 0.363693
Si Si6 0.656746 0.538847 0.629454
Si Si7 0.541501 0.043222 0.266365
Si Si8 0.338041 0.536092 0.833130
O O1 0.810842 0.250000 0.366183
O O2 0.698899 0.966685 0.338376
O O3 0.786612 0.982239 0.289794
O O4 0.000000 0.000000 0.500000
O O5 0.669514 0.250000 0.958713
O O6 0.581972 0.532880 0.859121
O O7 0.497128 0.467016 0.907164
O O8 0.781287 0.526254 0.074660
O O9 0.161806 0.750000 0.830566
O O10 0.277559 0.475864 0.854695
O O11 0.985247 0.479388 0.708706
O O12 0.186369 0.250000 0.380117
O O13 0.216808 0.974986 0.335882
O O14 0.326531 0.981801 0.505205
O O15 0.473621 0.250000 0.343326
O O16 0.379578 0.968092 0.331975
O O17 0.496970 0.967496 0.298209
O O18 0.500000 0.500000 0.500000
O O19 0.677005 0.750000 0.646304
O O20 0.570434 0.250000 0.294326
O O21 0.350139 0.750000 0.841773
#
# Coordination Sequence:
#
# PCOD9158678 Si02
#       8
#     4   4   4   4   4   4   4   4
#     4   9  18  29  42  60  86 118 146 178 221 264
#     4  10  19  32  49  68  88 116 158 200 229 261
#     4   9  18  31  48  69  94 120 150 191 232 270
#     4   9  17  29  47  72  98 122 147 180 229 279
#     4   9  17  30  48  70  96 122 151 187 222 269
#     4   8  14  26  45  68  93 121 149 178 219 270
#     4   9  19  34  48  63  89 124 155 186 228 271
#     4   9  18  33  48  63  88 123 154 185 230 274
#
# _framework density 19.903683000000001
#
# number of rings (size 3 to 8) (size 9 to 14) (size 15 to 20)
#    0.000    3.000    0.000    1.500    1.750    2.500 
#    0.000    2.500    0.000    0.750    0.000    0.000 
#    0.000    0.000    0.000    0.000    0.000    0.125 
#
# Total GULP energy -178246.369761 kJ/mol
# GULP energy per Si atom -5570.199055 kJ/mol
# Density = 1.985838 g / cm^3
# Si number density = 19.903683 Si / 1000 Ang^3
#
#
#
# Elastic Constant Matrix: (Units=GPa)
#
#
# Indices 1 2 3 4 5 6 
#
# 1 108.9998 1.8842 19.6517 0.0000 -37.6598 0.0000
# 2 1.8842 40.7198 -9.0241 0.0000 -2.9945 0.0000
# 3 19.6517 -9.0241 42.9269 0.0000 -16.3958 0.0000
# 4 0.0000 0.0000 0.0000 12.1147 0.0000 1.3962
# 5 -37.6598 -2.9945 -16.3958 0.0000 24.6271 0.0000
# 6 0.0000 0.0000 0.0000 1.3962 0.0000 7.1093
#
#
#
# Elastic Compliance Matrix: (Units=1/GPa)
#
#
# Indices 1 2 3 4 5 6 
#
# 1 0.020031 0.002499 0.004252 0.000000 0.033765 0.000000
# 2 0.002499 0.027661 0.009944 0.000000 0.013804 0.000000
# 3 0.004252 0.009944 0.035382 0.000000 0.031267 0.000000
# 4 0.000000 0.000000 0.000000 0.084456 0.000000 -0.016586
# 5 0.033765 0.013804 0.031267 0.000000 0.114734 0.000000
# 6 0.000000 0.000000 0.000000 -0.016586 0.000000 0.143917
#
#
# Mechanical properties :
#
#
# Convention : Reuss Voigt Hill
#
# Bulk Modulus (GPa) = 8.58652 24.18556 16.38604
# Shear Modulus (GPa) = 11.58444 20.77921 16.18182
#
# Velocity S-wave (km/s) = 2.41514 3.23459 2.85442
# Velocity P-wave (km/s) = 3.47859 5.11153 4.37197
#
# Compressibility (1/GPa) = 0.11646168
#
# Stress axis : x y z
#
# Youngs Moduli (GPa) = 49.92357 36.15158 28.26332
#
# Poissons Ratio (x) = -0.09033 -0.12017
# Poissons Ratio (y) = -0.12473 -0.28104
# Poissons Ratio (z) = -0.21227 -0.35948
#
# Static dielectric constant tensor:
#      x y z
#    x 1.750000 0.000000 -0.014640 
#    y 0.000000 1.745640 0.000000 
#    z -0.014640 0.000000 1.682490 
# 
# From -- ./inp_files/61734.got.cif
#   From: 2010.05.17/outbox.cif.g08.bks.cpg/sg11_31_cif.got.tgz:61734.got - 2010.06.03 12:22:45.
