data_PCOD9158676
_publ_section_title
;
Structure prediction by ZEFSAII (Michael W. Deem and Ramdas Pophale) SiO2 
 PCOD9158676
Probable space group: P 21/M
;
_chemical_formula_sum "Si O2"
_cell_formula_units_Z 32
_cell_length_a 19.708561
_cell_length_b 9.045151
_cell_length_c 24.083700
_cell_angle_alpha 90.000000
_cell_angle_beta 28.210602
_cell_angle_gamma 90.000000
_cell_volume 2029.514961
_symmetry_space_group_name_H-M "P 21/M"
_symmetry_group_IT_number 11
_symmetry_cell_setting 'monoclinic'
loop_
_space_group_symop_operation_xyz
x,y,z
-x,1/2+y,-z
-x,-y,-z
x,1/2-y,z
loop_
_atom_site_type_symbol
_atom_site_label
_atom_site_fract_x
_atom_site_fract_y
_atom_site_fract_z
Si Si1 0.307174 0.074262 0.588644
Si Si2 0.160274 0.921387 0.206009
Si Si3 0.856021 0.427556 0.080685
Si Si4 0.640878 0.426343 0.332961
Si Si5 0.189666 0.570910 0.014113
Si Si6 0.424920 0.920990 0.926723
Si Si7 0.610209 0.426831 0.876923
Si Si8 0.967264 0.425962 0.260439
O O1 0.282181 0.250000 0.605718
O O2 0.470818 0.044499 0.451845
O O3 0.298167 0.013875 0.658120
O O4 0.189716 0.992273 0.636458
O O5 0.114062 0.750000 0.241635
O O6 0.232095 0.964998 0.212925
O O7 0.037623 0.020597 0.267556
O O8 0.293486 0.927607 0.066128
O O9 0.871998 0.250000 0.070035
O O10 0.726362 0.465459 0.215774
O O11 0.826729 0.470195 0.038179
O O12 0.000000 0.500000 0.000000
O O13 0.658114 0.250000 0.330747
O O14 0.174841 0.750000 0.030627
O O15 0.345524 0.532125 0.927492
O O16 0.068485 0.494024 0.138956
O O17 0.469131 0.750000 0.890899
O O18 0.555413 0.015200 0.857231
O O19 0.597007 0.250000 0.889469
O O20 0.500000 0.500000 0.000000
O O21 0.966953 0.250000 0.257003
#
# Coordination Sequence:
#
# PCOD9158676 Si02
#       8
#     4   4   4   4   4   4   4   4
#     4  10  19  32  49  65  86 114 140 174 220 260
#     4   8  15  26  37  53  80 112 143 173 210 254
#     4  10  20  33  48  66  88 113 143 177 212 251
#     4   9  19  34  50  68  86 108 144 182 211 250
#     4   9  18  31  44  60  86 118 146 175 215 258
#     4   8  14  24  37  53  76 108 142 171 203 248
#     4   9  15  22  34  52  76 107 140 173 207 245
#     4  11  20  28  42  64  88 114 147 182 211 249
#
# _framework density 15.767315
#
# number of rings (size 3 to 8) (size 9 to 14) (size 15 to 20)
#    0.000    2.750    0.000    4.125    0.000    8.500 
#    0.000    0.000    0.000    0.000    0.000    0.000 
#    0.000    1.000    0.000    2.000    0.000    3.875 
#
# Total GULP energy -178227.226201 kJ/mol
# GULP energy per Si atom -5569.600819 kJ/mol
# Density = 1.573143 g / cm^3
# Si number density = 15.767315 Si / 1000 Ang^3
#
#
#
# Elastic Constant Matrix: (Units=GPa)
#
#
# Indices 1 2 3 4 5 6 
#
# 1 133.8025 48.4173 43.0492 0.0000 -32.6799 0.0000
# 2 48.4173 53.9894 29.1978 0.0000 -20.8692 0.0000
# 3 43.0492 29.1978 41.2193 0.0000 -13.8095 0.0000
# 4 0.0000 0.0000 0.0000 16.6724 0.0000 -7.8081
# 5 -32.6799 -20.8692 -13.8095 0.0000 24.6049 0.0000
# 6 0.0000 0.0000 0.0000 -7.8081 0.0000 27.3794
#
#
#
# Elastic Compliance Matrix: (Units=1/GPa)
#
#
# Indices 1 2 3 4 5 6 
#
# 1 0.014302 -0.004104 -0.008414 0.000000 0.010792 0.000000
# 2 -0.004104 0.038004 -0.016825 0.000000 0.017341 0.000000
# 3 -0.008414 -0.016825 0.044880 0.000000 -0.000257 0.000000
# 4 0.000000 0.000000 0.000000 0.069225 0.000000 0.019742
# 5 0.010792 0.017341 -0.000257 0.000000 0.069540 0.000000
# 6 0.000000 0.000000 0.000000 0.019742 0.000000 0.042154
#
#
# Mechanical properties :
#
#
# Convention : Reuss Voigt Hill
#
# Bulk Modulus (GPa) = 25.97369 52.25999 39.11684
# Shear Modulus (GPa) = 14.30108 20.95447 17.62777
#
# Velocity S-wave (km/s) = 3.01492 3.64947 3.34727
# Velocity P-wave (km/s) = 5.35057 7.13966 6.30885
#
# Compressibility (1/GPa) = 0.03850050
#
# Stress axis : x y z
#
# Youngs Moduli (GPa) = 69.92215 26.31280 22.28154
#
# Poissons Ratio (x) = 0.10797 0.18748
# Poissons Ratio (y) = 0.28693 0.37489
# Poissons Ratio (z) = 0.58833 0.44272
#
# Static dielectric constant tensor:
#      x y z
#    x 1.566600 0.000000 -0.017090 
#    y 0.000000 1.525790 0.000000 
#    z -0.017090 0.000000 1.507950 
# 
# From -- ./inp_files/72087.got.cif
#   From: 2010.05.17/outbox.cif.g08.bks.cpg/sg11_37_cif.got.tgz:72087.got - 2010.06.03 12:22:45.
