data_PCOD9158024
_publ_section_title
;
Structure prediction by ZEFSAII (Michael W. Deem and Ramdas Pophale) SiO2 
 PCOD9158024
Probable space group: P 21/M
;
_chemical_formula_sum "Si O2"
_cell_formula_units_Z 32
_cell_length_a 26.430375
_cell_length_b 7.565065
_cell_length_c 14.773556
_cell_angle_alpha 90.000000
_cell_angle_beta 146.451789
_cell_angle_gamma 90.000000
_cell_volume 1632.458440
_symmetry_space_group_name_H-M "P 21/M"
_symmetry_group_IT_number 11
_symmetry_cell_setting 'monoclinic'
loop_
_space_group_symop_operation_xyz
x,y,z
-x,1/2+y,-z
-x,-y,-z
x,1/2-y,z
loop_
_atom_site_type_symbol
_atom_site_label
_atom_site_fract_x
_atom_site_fract_y
_atom_site_fract_z
Si Si1 0.747066 0.533653 0.766843
Si Si2 0.752476 0.538667 0.277334
Si Si3 0.758197 0.958017 0.987213
Si Si4 0.893296 0.537682 0.339600
Si Si5 0.607629 0.460923 0.909097
Si Si6 0.600400 0.534338 0.401498
Si Si7 0.892975 0.961252 0.838579
Si Si8 0.251143 0.033730 0.523029
O O1 0.746117 0.750000 0.766493
O O2 0.748214 0.468863 0.871470
O O3 0.658268 0.480340 0.576188
O O4 0.835870 0.476864 0.841242
O O5 0.762823 0.750000 0.300094
O O6 0.837874 0.471166 0.344813
O O7 0.747813 0.469833 0.372416
O O8 0.662955 0.506003 0.082851
O O9 0.776764 0.750000 0.003174
O O10 0.667757 0.974651 0.913918
O O11 0.840543 0.031451 0.171926
O O12 0.882260 0.750000 0.322765
O O13 0.000000 0.500000 0.500000
O O14 0.604673 0.250000 0.897869
O O15 0.503821 0.528252 0.754725
O O16 0.598729 0.750000 0.398579
O O17 0.660274 0.480738 0.403610
O O18 0.884004 0.750000 0.824995
O O19 0.837873 0.023530 0.667370
O O20 0.000000 0.000000 0.000000
O O21 0.251139 0.250000 0.524581
#
# Coordination Sequence:
#
# PCOD9158024 Si02
#       8
#     4   4   4   4   4   4   4   4
#     4   8  15  30  50  68  90 124 160 188 220 272
#     4   9  18  33  50  67  90 123 160 190 221 272
#     4   9  18  33  50  67  90 123 160 190 221 272
#     4   9  18  30  44  64  88 115 149 187 224 263
#     4  10  19  30  46  71  98 119 147 192 238 273
#     4   8  15  28  47  71  95 119 150 188 229 273
#     4   9  17  30  49  72  96 123 155 191 231 273
#     4   8  15  30  50  68  90 124 160 188 220 272
#
# _framework density 19.602338
#
# number of rings (size 3 to 8) (size 9 to 14) (size 15 to 20)
#    0.000    3.250    0.000    2.625    0.000    4.000 
#    0.000    1.250    0.000    7.500    0.000    0.000 
#    0.000    0.000    0.000    0.000    0.000    0.000 
#
# Total GULP energy -178391.091433 kJ/mol
# GULP energy per Si atom -5574.721607 kJ/mol
# Density = 1.955772 g / cm^3
# Si number density = 19.602338 Si / 1000 Ang^3
#
#
#
# Elastic Constant Matrix: (Units=GPa)
#
#
# Indices 1 2 3 4 5 6 
#
# 1 159.5878 -1.1319 150.7758 0.0000 -24.3008 0.0000
# 2 -1.1319 39.9939 -4.1113 0.0000 -5.9914 0.0000
# 3 150.7758 -4.1113 188.1612 0.0000 8.1787 0.0000
# 4 0.0000 0.0000 0.0000 17.7102 0.0000 7.1998
# 5 -24.3008 -5.9914 8.1787 0.0000 40.8520 0.0000
# 6 0.0000 0.0000 0.0000 7.1998 0.0000 9.5643
#
#
#
# Elastic Compliance Matrix: (Units=1/GPa)
#
#
# Indices 1 2 3 4 5 6 
#
# 1 0.066095 0.003834 -0.055092 0.000000 0.050908 0.000000
# 2 0.003834 0.025818 -0.002796 0.000000 0.006627 0.000000
# 3 -0.055092 -0.002796 0.051288 0.000000 -0.043449 0.000000
# 4 0.000000 0.000000 0.000000 0.081365 0.000000 -0.061250
# 5 0.050908 0.006627 -0.043449 0.000000 0.064432 0.000000
# 6 0.000000 0.000000 0.000000 -0.061250 0.000000 0.150664
#
#
# Mechanical properties :
#
#
# Convention : Reuss Voigt Hill
#
# Bulk Modulus (GPa) = 28.49616 75.42313 51.95964
# Shear Modulus (GPa) = 8.93709 29.77265 19.35487
#
# Velocity S-wave (km/s) = 2.13754 3.90145 3.14566
# Velocity P-wave (km/s) = 4.54542 7.67171 6.30539
#
# Compressibility (1/GPa) = 0.03509245
#
# Stress axis : x y z
#
# Youngs Moduli (GPa) = 15.12975 38.73325 19.49783
#
# Poissons Ratio (x) = -0.14849 1.07417
# Poissons Ratio (y) = -0.05800 0.05451
# Poissons Ratio (z) = 0.83352 0.10830
#
# Static dielectric constant tensor:
#      x y z
#    x 1.708180 0.000000 -0.030030 
#    y 0.000000 1.730000 0.000000 
#    z -0.030030 0.000000 1.683810 
# 
# From -- ./inp_files/56138.got.cif
#   From: 2010.05.17/outbox.cif.g08.bks.cpg/sg11_29_cif.got.tgz:56138.got - 2010.06.03 12:22:45.
