data_PCOD9158991
_publ_section_title
;
Structure prediction by ZEFSAII (Michael W. Deem and Ramdas Pophale) SiO2 
 PCOD9158991
Probable space group: P 21/M
;
_chemical_formula_sum "Si O2"
_cell_formula_units_Z 32
_cell_length_a 9.590407
_cell_length_b 19.358691
_cell_length_c 11.794543
_cell_angle_alpha 90.000000
_cell_angle_beta 55.312531
_cell_angle_gamma 90.000000
_cell_volume 1800.560886
_symmetry_space_group_name_H-M "P 21/M"
_symmetry_group_IT_number 11
_symmetry_cell_setting 'monoclinic'
loop_
_space_group_symop_operation_xyz
x,y,z
-x,1/2+y,-z
-x,-y,-z
x,1/2-y,z
loop_
_atom_site_type_symbol
_atom_site_label
_atom_site_fract_x
_atom_site_fract_y
_atom_site_fract_z
Si Si1 0.562390 0.613738 0.434400
Si Si2 0.367220 0.532884 0.971863
Si Si3 0.284091 0.826214 0.131408
Si Si4 0.317840 0.672131 0.369828
Si Si5 0.012094 0.022225 0.205998
Si Si6 0.001519 0.422598 0.449088
Si Si7 0.085272 0.126579 0.639085
Si Si8 0.354275 0.534880 0.716146
O O1 0.464390 0.661158 0.391871
O O2 0.738585 0.647854 0.388910
O O3 0.449987 0.591516 0.594927
O O4 0.601078 0.540459 0.355089
O O5 0.415557 0.534789 0.817555
O O6 0.500000 0.500000 0.000000
O O7 0.332193 0.610851 0.029407
O O8 0.188190 0.491826 0.061735
O O9 0.323570 0.750000 0.068876
O O10 0.371402 0.835993 0.214085
O O11 0.082939 0.830998 0.253449
O O12 0.246236 0.750000 0.412966
O O13 0.182495 0.612378 0.458050
O O14 0.956973 0.949616 0.290289
O O15 0.849615 0.044430 0.206575
O O16 0.047863 0.072595 0.296127
O O17 0.107144 0.380268 0.493302
O O18 0.000000 0.500000 0.500000
#
# Coordination Sequence:
#
# PCOD9158991 Si02
#       8
#     4   4   4   4   4   4   4   4
#     4  10  19  32  52  82 113 139 175 228 277 320
#     4  11  22  33  53  82 105 138 191 232 268 323
#     4   9  19  37  56  74 106 143 177 220 273 328
#     4  10  19  33  53  79 108 141 178 221 272 329
#     4   9  17  32  49  73 105 141 171 222 273 314
#     4   9  16  29  51  76 103 138 177 217 270 319
#     4   8  17  28  51  81 103 132 177 217 262 321
#     4  10  20  32  51  78 113 141 176 227 278 320
#
# _framework density 17.77224
#
# number of rings (size 3 to 8) (size 9 to 14) (size 15 to 20)
#    0.000    2.500    1.250    1.875    3.500    0.500 
#    0.000    0.625    0.000    0.750    0.000    0.000 
#    0.000    0.000    0.000    0.000    0.000    0.000 
#
# Total GULP energy -178237.042489 kJ/mol
# GULP energy per Si atom -5569.907578 kJ/mol
# Density = 1.773179 g / cm^3
# Si number density = 17.772240 Si / 1000 Ang^3
#
#
#
# Elastic Constant Matrix: (Units=GPa)
#
#
# Indices 1 2 3 4 5 6 
#
# 1 122.4770 16.7008 34.4736 0.0000 14.4835 0.0000
# 2 16.7008 47.8503 14.0782 0.0000 1.2443 0.0000
# 3 34.4736 14.0782 63.9029 0.0000 13.5643 0.0000
# 4 0.0000 0.0000 0.0000 13.0876 0.0000 4.5820
# 5 14.4835 1.2443 13.5643 0.0000 24.5482 0.0000
# 6 0.0000 0.0000 0.0000 4.5820 0.0000 13.9641
#
#
#
# Elastic Compliance Matrix: (Units=1/GPa)
#
#
# Indices 1 2 3 4 5 6 
#
# 1 0.010060 -0.002184 -0.004202 0.000000 -0.003502 0.000000
# 2 -0.002184 0.022891 -0.004409 0.000000 0.002564 0.000000
# 3 -0.004202 -0.004409 0.020747 0.000000 -0.008761 0.000000
# 4 0.000000 0.000000 0.000000 0.086325 0.000000 -0.028326
# 5 -0.003502 0.002564 -0.008761 0.000000 0.047513 0.000000
# 6 0.000000 0.000000 0.000000 -0.028326 0.000000 0.080907
#
#
# Mechanical properties :
#
#
# Convention : Reuss Voigt Hill
#
# Bulk Modulus (GPa) = 31.14591 40.52616 35.83604
# Shear Modulus (GPa) = 16.62586 21.58515 19.10551
#
# Velocity S-wave (km/s) = 3.06191 3.48881 3.28231
# Velocity P-wave (km/s) = 5.48301 6.25153 5.87984
#
# Compressibility (1/GPa) = 0.03210694
#
# Stress axis : x y z
#
# Youngs Moduli (GPa) = 99.40797 43.68475 48.20017
#
# Poissons Ratio (x) = 0.09539 0.20255
# Poissons Ratio (y) = 0.21706 0.21254
# Poissons Ratio (z) = 0.41774 0.19263
#
# Static dielectric constant tensor:
#      x y z
#    x 1.643350 0.000000 0.001780 
#    y 0.000000 1.596270 0.000000 
#    z 0.001780 0.000000 1.616530 
# 
# From -- ./inp_files/32648.got.cif
#   From: 2010.05.17/outbox.cif.g08.bks.cpg/sg11_17_cif.got.tgz:32648.got - 2010.06.03 12:22:45.
