data_PCOD9158520
_publ_section_title
;
Structure prediction by ZEFSAII (Michael W. Deem and Ramdas Pophale) SiO2 
 PCOD9158520
Probable space group: P 21/M
;
_chemical_formula_sum "Si O2"
_cell_formula_units_Z 32
_cell_length_a 17.576717
_cell_length_b 15.791507
_cell_length_c 11.828076
_cell_angle_alpha 90.000000
_cell_angle_beta 145.580388
_cell_angle_gamma 90.000000
_cell_volume 1855.733275
_symmetry_space_group_name_H-M "P 21/M"
_symmetry_group_IT_number 11
_symmetry_cell_setting 'monoclinic'
loop_
_space_group_symop_operation_xyz
x,y,z
-x,1/2+y,-z
-x,-y,-z
x,1/2-y,z
loop_
_atom_site_type_symbol
_atom_site_label
_atom_site_fract_x
_atom_site_fract_y
_atom_site_fract_z
Si Si1 0.111596 0.151573 0.833556
Si Si2 0.350394 0.905334 0.878288
Si Si3 0.893782 0.846590 0.422600
Si Si4 0.181225 0.493731 0.329728
Si Si5 0.172719 0.646367 0.875964
Si Si6 0.201619 0.660567 0.487838
Si Si7 0.666167 0.918822 0.279651
Si Si8 0.860346 0.008265 0.980622
O O1 0.159538 0.250000 0.907477
O O2 0.135721 0.117034 0.736859
O O3 0.950359 0.154177 0.651986
O O4 0.163102 0.079843 0.981556
O O5 0.272915 0.882008 0.898218
O O6 0.298053 0.845982 0.713463
O O7 0.319824 0.997753 0.784679
O O8 0.509519 0.898259 0.091602
O O9 0.930554 0.750000 0.441579
O O10 0.762654 0.852096 0.337955
O O11 0.023736 0.880114 0.647493
O O12 0.220320 0.585690 0.424136
O O13 0.272253 0.434323 0.520488
O O14 0.197966 0.494668 0.216169
O O15 0.022572 0.479400 0.162848
O O16 0.178041 0.750000 0.899185
O O17 0.192603 0.588834 0.012396
O O18 0.218203 0.750000 0.449486
#
# Coordination Sequence:
#
# PCOD9158520 Si02
#       8
#     4   4   4   4   4   4   4   4
#     4   9  17  30  51  78 103 132 174 218 265 320
#     4  10  20  32  53  78 105 137 173 219 271 331
#     4  10  19  31  50  77 106 132 168 219 272 322
#     4   9  19  33  50  75 105 139 182 215 260 318
#     4  11  21  33  53  81 108 139 181 224 268 321
#     4   9  16  29  50  74 102 135 171 216 261 315
#     4  10  20  35  51  77 107 138 176 215 275 326
#     4  10  19  33  53  75 105 145 178 219 264 308
#
# _framework density 17.243856999999998
#
# number of rings (size 3 to 8) (size 9 to 14) (size 15 to 20)
#    0.000    2.250    2.500    1.125    0.000    2.500 
#    0.000    3.125    0.000    0.000    0.000    5.250 
#    0.000    0.000    0.000    0.000    0.000    0.000 
#
# Total GULP energy -178151.695624 kJ/mol
# GULP energy per Si atom -5567.240488 kJ/mol
# Density = 1.720461 g / cm^3
# Si number density = 17.243857 Si / 1000 Ang^3
#
#
#
# Elastic Constant Matrix: (Units=GPa)
#
#
# Indices 1 2 3 4 5 6 
#
# 1 89.4158 39.6890 38.7030 0.0000 -33.5782 0.0000
# 2 39.6890 66.3306 19.6365 0.0000 -14.8290 0.0000
# 3 38.7030 19.6365 40.7673 0.0000 -21.5035 0.0000
# 4 0.0000 0.0000 0.0000 2.5962 0.0000 1.8444
# 5 -33.5782 -14.8290 -21.5035 0.0000 30.9985 0.0000
# 6 0.0000 0.0000 0.0000 1.8444 0.0000 16.3598
#
#
#
# Elastic Compliance Matrix: (Units=1/GPa)
#
#
# Indices 1 2 3 4 5 6 
#
# 1 0.026300 -0.008500 -0.012604 0.000000 0.015680 0.000000
# 2 -0.008500 0.020651 -0.002402 0.000000 -0.000995 0.000000
# 3 -0.012604 -0.002402 0.047066 0.000000 0.017848 0.000000
# 4 0.000000 0.000000 0.000000 0.418711 0.000000 -0.047204
# 5 0.015680 -0.000995 0.017848 0.000000 0.061149 0.000000
# 6 0.000000 0.000000 0.000000 -0.047204 0.000000 0.066447
#
#
# Mechanical properties :
#
#
# Convention : Reuss Voigt Hill
#
# Bulk Modulus (GPa) = 21.27412 43.61899 32.44656
# Shear Modulus (GPa) = 7.11232 16.55657 11.83445
#
# Velocity S-wave (km/s) = 2.03310 3.10198 2.62257
# Velocity P-wave (km/s) = 4.22792 6.17900 5.29412
#
# Compressibility (1/GPa) = 0.04700547
#
# Stress axis : x y z
#
# Youngs Moduli (GPa) = 38.02240 48.42440 21.24662
#
# Poissons Ratio (x) = 0.41162 0.26779
# Poissons Ratio (y) = 0.32320 0.05103
# Poissons Ratio (z) = 0.47923 0.11631
#
# Static dielectric constant tensor:
#      x y z
#    x 1.574320 0.000000 -0.008390 
#    y 0.000000 1.631000 0.000000 
#    z -0.008390 0.000000 1.578240 
# 
# From -- ./inp_files/41728.got.cif
#   From: 2010.05.17/outbox.cif.g08.bks.cpg/sg11_21_cif.got.tgz:41728.got - 2010.06.03 12:22:45.
