data_PCOD9158413
_publ_section_title
;
Structure prediction by ZEFSAII (Michael W. Deem and Ramdas Pophale) SiO2 
 PCOD9158413
Probable space group: P 21/M
;
_chemical_formula_sum "Si O2"
_cell_formula_units_Z 28
_cell_length_a 15.521987
_cell_length_b 14.297223
_cell_length_c 7.605454
_cell_angle_alpha 90.000000
_cell_angle_beta 47.795623
_cell_angle_gamma 90.000000
_cell_volume 1250.252505
_symmetry_space_group_name_H-M "P 21/M"
_symmetry_group_IT_number 11
_symmetry_cell_setting 'monoclinic'
loop_
_space_group_symop_operation_xyz
x,y,z
-x,1/2+y,-z
-x,-y,-z
x,1/2-y,z
loop_
_atom_site_type_symbol
_atom_site_label
_atom_site_fract_x
_atom_site_fract_y
_atom_site_fract_z
Si Si1 0.526381 0.855971 0.449532
Si Si2 0.315478 0.964285 0.825063
Si Si3 0.853312 0.593909 0.101903
Si Si4 0.749386 0.492820 0.709748
Si Si5 0.093264 0.351486 0.344409
Si Si6 0.904028 0.358408 0.327536
Si Si7 0.347571 0.147758 0.361562
O O1 0.546975 0.750000 0.357503
O O2 0.606535 0.940160 0.268635
O O3 0.557282 0.857028 0.615689
O O4 0.393438 0.888713 0.619552
O O5 0.199758 0.993974 0.879435
O O6 0.285190 0.939866 0.066027
O O7 0.837625 0.648677 0.937209
O O8 0.991255 0.603078 0.938321
O O9 0.773894 0.635824 0.362982
O O10 0.793183 0.422930 0.500752
O O11 0.650100 0.561796 0.773979
O O12 0.854642 0.564575 0.615722
O O13 0.102885 0.250000 0.416963
O O14 0.964357 0.364245 0.441341
O O15 0.882964 0.250000 0.317071
O O16 0.352436 0.250000 0.270502
#
# Coordination Sequence:
#
# PCOD9158413 Si02
#       7
#     4   4   4   4   4   4   4
#     4   9  19  37  56  73  97 130 167 203 249 307
#     4   9  19  33  55  77  96 125 168 209 249 292
#     4   8  16  32  51  68  97 134 169 197 233 294
#     4  11  20  28  49  79 106 124 164 209 251 285
#     4   8  15  29  47  67  96 129 165 200 233 279
#     4   9  18  32  50  70 100 141 173 198 237 292
#     4  10  19  31  49  73  99 129 164 208 253 293
#
# _framework density 22.395475999999999
#
# number of rings (size 3 to 8) (size 9 to 14) (size 15 to 20)
#    0.857    2.000    0.000    1.714    0.000    6.286 
#    0.000    0.000    0.000    7.714    0.000    0.000 
#    0.000    0.000    0.000    0.000    0.000    0.000 
#
# Total GULP energy -155983.692299 kJ/mol
# GULP energy per Si atom -5570.846154 kJ/mol
# Density = 2.234450 g / cm^3
# Si number density = 22.395476 Si / 1000 Ang^3
#
#
#
# Elastic Constant Matrix: (Units=GPa)
#
#
# Indices 1 2 3 4 5 6 
#
# 1 31.6086 8.9928 2.2381 0.0000 3.1229 0.0000
# 2 8.9928 65.8133 17.4149 0.0000 -3.9143 0.0000
# 3 2.2381 17.4149 44.6238 0.0000 -2.2670 0.0000
# 4 0.0000 0.0000 0.0000 18.6323 0.0000 3.3021
# 5 3.1229 -3.9143 -2.2670 0.0000 18.7036 0.0000
# 6 0.0000 0.0000 0.0000 3.3021 0.0000 9.6867
#
#
#
# Elastic Compliance Matrix: (Units=1/GPa)
#
#
# Indices 1 2 3 4 5 6 
#
# 1 0.033721 -0.004982 -0.000086 0.000000 -0.006683 0.000000
# 2 -0.004982 0.017823 -0.006514 0.000000 0.003772 0.000000
# 3 -0.000086 -0.006514 0.025042 0.000000 0.001686 0.000000
# 4 0.000000 0.000000 0.000000 0.057121 0.000000 -0.019472
# 5 -0.006683 0.003772 0.001686 0.000000 0.055575 0.000000
# 6 0.000000 0.000000 0.000000 -0.019472 0.000000 0.109872
#
#
# Mechanical properties :
#
#
# Convention : Reuss Voigt Hill
#
# Bulk Modulus (GPa) = 18.71949 22.14859 20.43404
# Shear Modulus (GPa) = 14.70036 16.96450 15.83243
#
# Velocity S-wave (km/s) = 2.56481 2.75525 2.66173
# Velocity P-wave (km/s) = 4.14098 4.47584 4.31166
#
# Compressibility (1/GPa) = 0.05342027
#
# Stress axis : x y z
#
# Youngs Moduli (GPa) = 29.65517 56.10607 39.93320
#
# Poissons Ratio (x) = 0.27954 0.00345
# Poissons Ratio (y) = 0.14775 0.26013
# Poissons Ratio (z) = 0.00256 0.36549
#
# Static dielectric constant tensor:
#      x y z
#    x 1.872770 0.000000 -0.033790 
#    y 0.000000 1.860570 0.000000 
#    z -0.033790 0.000000 1.820500 
# 
# From -- ./inp_files/24912.got.cif
#   From: 2010.05.17/outbox.cif.g08.bks.cpg/sg11_13_cif.got.tgz:24912.got - 2010.06.03 12:22:45.
