data_PCOD9158071
_publ_section_title
;
Structure prediction by ZEFSAII (Michael W. Deem and Ramdas Pophale) SiO2 
 PCOD9158071
Probable space group: P 21/M
;
_chemical_formula_sum "Si O2"
_cell_formula_units_Z 32
_cell_length_a 12.875989
_cell_length_b 8.705320
_cell_length_c 24.348022
_cell_angle_alpha 90.000000
_cell_angle_beta 133.560098
_cell_angle_gamma 90.000000
_cell_volume 1977.691234
_symmetry_space_group_name_H-M "P 21/M"
_symmetry_group_IT_number 11
_symmetry_cell_setting 'monoclinic'
loop_
_space_group_symop_operation_xyz
x,y,z
-x,1/2+y,-z
-x,-y,-z
x,1/2-y,z
loop_
_atom_site_type_symbol
_atom_site_label
_atom_site_fract_x
_atom_site_fract_y
_atom_site_fract_z
Si Si1 0.888821 0.564707 0.691518
Si Si2 0.441706 0.434507 0.421244
Si Si3 0.835841 0.566684 0.154683
Si Si4 0.050495 0.436576 0.411820
Si Si5 0.614073 0.066214 0.998020
Si Si6 0.388927 0.434808 0.830398
Si Si7 0.729712 0.434054 0.324202
Si Si8 0.332044 0.065482 0.581146
O O1 0.900398 0.750000 0.697330
O O2 0.725446 0.522769 0.645407
O O3 0.923383 0.514448 0.641513
O O4 0.007102 0.494305 0.774536
O O5 0.500000 0.500000 0.500000
O O6 0.450749 0.250000 0.426133
O O7 0.539043 0.499245 0.408042
O O8 0.833809 0.750000 0.150930
O O9 0.732857 0.521648 0.168849
O O10 0.764449 0.499709 0.073504
O O11 0.050312 0.250000 0.411567
O O12 0.182532 0.485727 0.497984
O O13 0.895191 0.486781 0.376431
O O14 0.616144 0.250000 0.002875
O O15 0.542947 0.026073 0.913579
O O16 0.500000 0.000000 0.000000
O O17 0.381934 0.250000 0.821312
O O18 0.354780 0.514935 0.760901
O O19 0.728713 0.250000 0.328304
O O20 0.667513 0.506933 0.356626
O O21 0.336969 0.250000 0.581385
#
# Coordination Sequence:
#
# PCOD9158071 Si02
#       8
#     4   4   4   4   4   4   4   4
#     4  10  19  34  53  74 101 135 172 211 258 306
#     4  11  22  37  56  76 100 132 174 218 262 308
#     4  10  19  30  47  75 105 133 171 210 253 307
#     4   9  18  33  51  73 100 134 171 208 256 305
#     4   9  17  29  46  69 101 137 171 206 250 304
#     4   9  18  31  46  70 102 136 169 203 248 300
#     4  11  21  33  51  75 102 135 175 211 252 307
#     4  11  22  38  54  71 101 136 175 219 260 302
#
# _framework density 16.180484
#
# number of rings (size 3 to 8) (size 9 to 14) (size 15 to 20)
#    0.000    2.000    2.500    3.000    0.000    3.500 
#    0.000    1.875    0.000    0.000    0.000    0.875 
#    0.000    0.000    0.000    0.000    0.000    0.000 
#
# Total GULP energy -178529.794402 kJ/mol
# GULP energy per Si atom -5579.056075 kJ/mol
# Density = 1.614366 g / cm^3
# Si number density = 16.180484 Si / 1000 Ang^3
#
#
#
# Elastic Constant Matrix: (Units=GPa)
#
#
# Indices 1 2 3 4 5 6 
#
# 1 109.9220 37.6780 72.5604 0.0000 -1.4243 0.0000
# 2 37.6780 43.2002 47.7173 0.0000 5.1195 0.0000
# 3 72.5604 47.7173 144.2442 0.0000 19.6494 0.0000
# 4 0.0000 0.0000 0.0000 27.0764 0.0000 -0.1982
# 5 -1.4243 5.1195 19.6494 0.0000 16.6510 0.0000
# 6 0.0000 0.0000 0.0000 -0.1982 0.0000 21.4909
#
#
#
# Elastic Compliance Matrix: (Units=1/GPa)
#
#
# Indices 1 2 3 4 5 6 
#
# 1 0.017097 -0.007870 -0.007776 0.000000 0.013058 0.000000
# 2 -0.007870 0.040282 -0.009041 0.000000 -0.002389 0.000000
# 3 -0.007776 -0.009041 0.016142 0.000000 -0.016934 0.000000
# 4 0.000000 0.000000 0.000000 0.036935 0.000000 0.000341
# 5 0.013058 -0.002389 -0.016934 0.000000 0.081891 0.000000
# 6 0.000000 0.000000 0.000000 0.000341 0.000000 0.046534
#
#
# Mechanical properties :
#
#
# Convention : Reuss Voigt Hill
#
# Bulk Modulus (GPa) = 41.41385 68.14196 54.77791
# Shear Modulus (GPa) = 16.87453 22.33772 19.60613
#
# Velocity S-wave (km/s) = 3.23289 3.71959 3.48475
# Velocity P-wave (km/s) = 6.29174 7.78795 7.07948
#
# Compressibility (1/GPa) = 0.02414651
#
# Stress axis : x y z
#
# Youngs Moduli (GPa) = 58.48946 24.82513 61.95059
#
# Poissons Ratio (x) = 0.19538 0.48171
# Poissons Ratio (y) = 0.46033 0.56010
# Poissons Ratio (z) = 0.45480 0.22445
#
# Static dielectric constant tensor:
#      x y z
#    x 1.511440 0.000000 0.008310 
#    y 0.000000 1.541490 0.000000 
#    z 0.008310 0.000000 1.546180 
# 
# From -- ./inp_files/42740.got.cif
#   From: 2010.05.17/outbox.cif.g08.bks.cpg/sg11_22_cif.got.tgz:42740.got - 2010.06.03 12:22:45.
