data_PCOD9158983
_publ_section_title
;
Structure prediction by ZEFSAII (Michael W. Deem and Ramdas Pophale) SiO2 
 PCOD9158983
Probable space group: P 21/M
;
_chemical_formula_sum "Si O2"
_cell_formula_units_Z 28
_cell_length_a 21.081846
_cell_length_b 8.486998
_cell_length_c 16.976108
_cell_angle_alpha 90.000000
_cell_angle_beta 152.268382
_cell_angle_gamma 90.000000
_cell_volume 1413.391416
_symmetry_space_group_name_H-M "P 21/M"
_symmetry_group_IT_number 11
_symmetry_cell_setting 'monoclinic'
loop_
_space_group_symop_operation_xyz
x,y,z
-x,1/2+y,-z
-x,-y,-z
x,1/2-y,z
loop_
_atom_site_type_symbol
_atom_site_label
_atom_site_fract_x
_atom_site_fract_y
_atom_site_fract_z
Si Si1 0.974315 0.438636 0.164746
Si Si2 0.139866 0.439619 0.113830
Si Si3 0.976333 0.937005 0.340744
Si Si4 0.705875 0.436566 0.108303
Si Si5 0.538175 0.062675 0.247291
Si Si6 0.733731 0.939072 0.590776
Si Si7 0.288717 0.557913 0.712513
O O1 0.974039 0.250000 0.173909
O O2 0.949696 0.521452 0.220385
O O3 0.125135 0.487384 0.298308
O O4 0.864995 0.487332 0.978132
O O5 0.137066 0.250000 0.105187
O O6 0.253107 0.486859 0.303003
O O7 0.000000 0.500000 0.000000
O O8 0.965492 0.750000 0.341510
O O9 0.130870 0.987097 0.528688
O O10 0.863587 0.023839 0.268439
O O11 0.686135 0.250000 0.083843
O O12 0.663602 0.496146 0.148829
O O13 0.615080 0.513017 0.940505
O O14 0.547754 0.250000 0.258710
O O15 0.625730 0.001158 0.268328
O O16 0.606633 0.000674 0.401904
O O17 0.732063 0.750000 0.587415
O O18 0.294067 0.750000 0.718152
#
# Coordination Sequence:
#
# PCOD9158983 Si02
#       7
#     4   4   4   4   4   4   4
#     4  10  19  32  52  81 112 144 183 223 274 328
#     4   9  17  29  48  77 112 144 179 224 273 322
#     4  11  21  37  58  82 111 145 185 230 277 328
#     4  11  23  39  55  78 112 148 185 229 278 330
#     4  11  21  36  57  82 110 145 186 228 276 328
#     4   9  18  32  51  79 111 143 180 222 271 322
#     4   9  20  37  58  82 108 140 185 234 279 325
#
# _framework density 19.810504999999999
#
# number of rings (size 3 to 8) (size 9 to 14) (size 15 to 20)
#    0.000    2.000    1.429    3.857    0.000    2.857 
#    0.000    4.286    0.000    0.857    0.000    0.000 
#    0.000    0.000    0.000    0.000    0.000    0.000 
#
# Total GULP energy -156302.515306 kJ/mol
# GULP energy per Si atom -5582.232689 kJ/mol
# Density = 1.976542 g / cm^3
# Si number density = 19.810505 Si / 1000 Ang^3
#
#
#
# Elastic Constant Matrix: (Units=GPa)
#
#
# Indices 1 2 3 4 5 6 
#
# 1 15.9451 -6.8080 4.7426 0.0000 -8.0667 0.0000
# 2 -6.8080 12.1905 9.7245 0.0000 -4.9109 0.0000
# 3 4.7426 9.7245 95.3881 0.0000 -19.3495 0.0000
# 4 0.0000 0.0000 0.0000 22.4286 0.0000 -0.5571
# 5 -8.0667 -4.9109 -19.3495 0.0000 32.4235 0.0000
# 6 0.0000 0.0000 0.0000 -0.5571 0.0000 21.9364
#
#
#
# Elastic Compliance Matrix: (Units=1/GPa)
#
#
# Indices 1 2 3 4 5 6 
#
# 1 0.124546 0.091717 -0.007326 0.000000 0.040506 0.000000
# 2 0.091717 0.159316 -0.012832 0.000000 0.039291 0.000000
# 3 -0.007326 -0.012832 0.012961 0.000000 0.003969 0.000000
# 4 0.000000 0.000000 0.000000 0.044614 0.000000 0.001133
# 5 0.040506 0.039291 0.003969 0.000000 0.049239 0.000000
# 6 0.000000 0.000000 0.000000 0.001133 0.000000 0.045615
#
#
# Mechanical properties :
#
#
# Convention : Reuss Voigt Hill
#
# Bulk Modulus (GPa) = 2.27303 15.42688 8.84996
# Shear Modulus (GPa) = 11.36827 23.08200 17.22514
#
# Velocity S-wave (km/s) = 2.39812 3.41712 2.95192
# Velocity P-wave (km/s) = 2.96948 4.83457 4.01191
#
# Compressibility (1/GPa) = 0.43994119
#
# Stress axis : x y z
#
# Youngs Moduli (GPa) = 8.02916 6.27682 77.15503
#
# Poissons Ratio (x) = -0.57569 0.56523
# Poissons Ratio (y) = -0.73641 0.99003
# Poissons Ratio (z) = 0.05882 0.08054
#
# Static dielectric constant tensor:
#      x y z
#    x 1.679130 0.000000 -0.025060 
#    y 0.000000 1.662630 0.000000 
#    z -0.025060 0.000000 1.711750 
# 
# From -- ./inp_files/54620.got.cif
#   From: 2010.05.17/outbox.cif.g08.bks.cpg/sg11_28_cif.got.tgz:54620.got - 2010.06.03 12:22:45.
