data_PCOD9158249
_publ_section_title
;
Structure prediction by ZEFSAII (Michael W. Deem and Ramdas Pophale) SiO2 
 PCOD9158249
Probable space group: P 21/M
;
_chemical_formula_sum "Si O2"
_cell_formula_units_Z 32
_cell_length_a 31.470171
_cell_length_b 7.755970
_cell_length_c 21.966038
_cell_angle_alpha 90.000000
_cell_angle_beta 160.171234
_cell_angle_gamma 90.000000
_cell_volume 1818.678490
_symmetry_space_group_name_H-M "P 21/M"
_symmetry_group_IT_number 11
_symmetry_cell_setting 'monoclinic'
loop_
_space_group_symop_operation_xyz
x,y,z
-x,1/2+y,-z
-x,-y,-z
x,1/2-y,z
loop_
_atom_site_type_symbol
_atom_site_label
_atom_site_fract_x
_atom_site_fract_y
_atom_site_fract_z
Si Si1 0.634513 0.541417 0.957990
Si Si2 0.021670 0.044821 0.337050
Si Si3 0.619825 0.457256 0.619451
Si Si4 0.537001 0.543304 0.699661
Si Si5 0.700944 0.547055 0.295606
Si Si6 0.453063 0.544913 0.026059
Si Si7 0.078530 0.455698 0.665828
Si Si8 0.223143 0.540912 0.060518
O O1 0.637603 0.750000 0.959650
O O2 0.778442 0.479709 0.147014
O O3 0.557213 0.477721 0.795139
O O4 0.575928 0.491506 0.943268
O O5 0.026720 0.250000 0.332834
O O6 0.160052 0.972239 0.510924
O O7 0.985226 0.021658 0.358491
O O8 0.908180 0.975561 0.142795
O O9 0.500000 0.500000 0.500000
O O10 0.630955 0.250000 0.630104
O O11 0.578395 0.523620 0.497178
O O12 0.736468 0.519385 0.817359
O O13 0.522728 0.750000 0.683953
O O14 0.665292 0.508906 0.835375
O O15 0.709573 0.750000 0.321360
O O16 0.587892 0.476006 0.184715
O O17 0.652600 0.529585 0.161169
O O18 0.451789 0.750000 0.014447
O O19 0.083701 0.250000 0.677951
O O20 0.000000 0.500000 0.500000
O O21 0.219981 0.750000 0.057178
#
# Coordination Sequence:
#
# PCOD9158249 Si02
#       8
#     4   4   4   4   4   4   4   4
#     4  10  20  32  45  63  90 121 148 179 220 262
#     4  10  19  31  47  66  91 119 145 178 221 267
#     4   8  14  24  40  61  86 115 146 176 209 252
#     4   9  16  28  43  61  89 122 148 174 214 261
#     4   9  19  35  50  65  87 114 145 185 231 268
#     4  10  20  33  50  68  84 109 150 194 227 260
#     4  11  22  33  44  62  90 121 151 179 215 264
#     4   9  16  26  42  66  91 115 145 180 213 254
#
# _framework density 17.595193999999999
#
# number of rings (size 3 to 8) (size 9 to 14) (size 15 to 20)
#    0.000    2.500    1.250    1.500    0.000    5.500 
#    0.000    0.000    0.000    0.000    0.000    0.875 
#    0.000    0.000    0.000    0.000    0.000    0.000 
#
# Total GULP energy -178342.733922 kJ/mol
# GULP energy per Si atom -5573.210435 kJ/mol
# Density = 1.755515 g / cm^3
# Si number density = 17.595194 Si / 1000 Ang^3
#
#
#
# Elastic Constant Matrix: (Units=GPa)
#
#
# Indices 1 2 3 4 5 6 
#
# 1 61.8739 -10.0577 49.8094 0.0000 -6.2120 0.0000
# 2 -10.0577 23.7371 -5.9441 0.0000 2.8143 0.0000
# 3 49.8094 -5.9441 135.1322 0.0000 -15.3848 0.0000
# 4 0.0000 0.0000 0.0000 10.4181 0.0000 1.3376
# 5 -6.2120 2.8143 -15.3848 0.0000 21.8649 0.0000
# 6 0.0000 0.0000 0.0000 1.3376 0.0000 6.1844
#
#
#
# Elastic Compliance Matrix: (Units=1/GPa)
#
#
# Indices 1 2 3 4 5 6 
#
# 1 0.024464 0.008217 -0.008680 0.000000 -0.000215 0.000000
# 2 0.008217 0.045774 -0.001544 0.000000 -0.004643 0.000000
# 3 -0.008680 -0.001544 0.011168 0.000000 0.005591 0.000000
# 4 0.000000 0.000000 0.000000 0.098729 0.000000 -0.021354
# 5 -0.000215 -0.004643 0.005591 0.000000 0.050206 0.000000
# 6 0.000000 0.000000 0.000000 -0.021354 0.000000 0.166317
#
#
# Mechanical properties :
#
#
# Convention : Reuss Voigt Hill
#
# Bulk Modulus (GPa) = 12.92122 32.03982 22.48052
# Shear Modulus (GPa) = 11.72417 20.15584 15.94001
#
# Velocity S-wave (km/s) = 2.58413 3.38824 3.01313
# Velocity P-wave (km/s) = 4.03277 5.79274 4.99094
#
# Compressibility (1/GPa) = 0.07739207
#
# Stress axis : x y z
#
# Youngs Moduli (GPa) = 40.87653 21.84653 89.53885
#
# Poissons Ratio (x) = -0.17952 0.77723
# Poissons Ratio (y) = -0.33590 0.13826
# Poissons Ratio (z) = 0.35482 0.03373
#
# Static dielectric constant tensor:
#      x y z
#    x 1.576640 0.000000 -0.023540 
#    y 0.000000 1.651620 0.000000 
#    z -0.023540 0.000000 1.643850 
# 
# From -- ./inp_files/40709.got.cif
#   From: 2010.05.17/outbox.cif.g08.bks.cpg/sg11_21_cif.got.tgz:40709.got - 2010.06.03 12:22:45.
