data_PCOD9158959
_publ_section_title
;
Structure prediction by ZEFSAII (Michael W. Deem and Ramdas Pophale) SiO2 
 PCOD9158959
Probable space group: P 21/M
;
_chemical_formula_sum "Si O2"
_cell_formula_units_Z 32
_cell_length_a 25.629202
_cell_length_b 8.825344
_cell_length_c 20.624345
_cell_angle_alpha 90.000000
_cell_angle_beta 156.716572
_cell_angle_gamma 90.000000
_cell_volume 1843.960250
_symmetry_space_group_name_H-M "P 21/M"
_symmetry_group_IT_number 11
_symmetry_cell_setting 'monoclinic'
loop_
_space_group_symop_operation_xyz
x,y,z
-x,1/2+y,-z
-x,-y,-z
x,1/2-y,z
loop_
_atom_site_type_symbol
_atom_site_label
_atom_site_fract_x
_atom_site_fract_y
_atom_site_fract_z
Si Si1 0.183396 0.430761 0.764353
Si Si2 0.115132 0.431906 0.048272
Si Si3 0.859853 0.931745 0.070216
Si Si4 0.645081 0.567253 0.432296
Si Si5 0.186516 0.569153 0.262477
Si Si6 0.899281 0.931626 0.470826
Si Si7 0.345168 0.931693 0.061689
Si Si8 0.858378 0.567657 0.568746
O O1 0.192512 0.250000 0.781638
O O2 0.183278 0.470306 0.687791
O O3 0.040328 0.486019 0.626573
O O4 0.293635 0.508802 0.933799
O O5 0.123143 0.250000 0.064598
O O6 0.190724 0.509022 0.193889
O O7 0.163177 0.473030 0.031407
O O8 0.959899 0.474091 0.878088
O O9 0.857251 0.750000 0.072782
O O10 0.004737 0.990865 0.254621
O O11 0.753118 0.002894 0.996278
O O12 0.648214 0.750000 0.439700
O O13 0.704995 0.500849 0.566541
O O14 0.495021 0.520915 0.247448
O O15 0.741631 0.520708 0.483609
O O16 0.195608 0.750000 0.273716
O O17 0.923764 0.750000 0.496633
O O18 0.834143 0.967473 0.465397
O O19 0.337843 0.750000 0.054044
O O20 0.873845 0.750000 0.591746
#
# Coordination Sequence:
#
# PCOD9158959 Si02
#       8
#     4   4   4   4   4   4   4   4
#     4  10  19  32  52  79 110 142 179 225 274 321
#     4   9  19  34  53  81 113 139 171 222 274 323
#     4  11  21  35  56  84 111 138 179 229 273 317
#     4  10  22  38  56  78 110 149 184 222 271 325
#     4  10  19  33  55  82 110 141 179 222 269 321
#     4   9  18  32  53  81 109 138 177 226 276 324
#     4  11  23  38  54  77 111 150 187 221 267 327
#     4  10  19  34  57  82 107 140 181 226 272 321
#
# _framework density 17.353953000000001
#
# number of rings (size 3 to 8) (size 9 to 14) (size 15 to 20)
#    0.000    2.000    2.500    1.500    0.000    3.000 
#    0.000    1.250    0.000    0.000    0.000    0.000 
#    0.000    0.000    0.000    0.000    0.000    0.000 
#
# Total GULP energy -178597.290536 kJ/mol
# GULP energy per Si atom -5581.165329 kJ/mol
# Density = 1.731445 g / cm^3
# Si number density = 17.353953 Si / 1000 Ang^3
#
#
#
# Elastic Constant Matrix: (Units=GPa)
#
#
# Indices 1 2 3 4 5 6 
#
# 1 121.5666 39.6064 85.6492 0.0000 -18.5282 0.0000
# 2 39.6064 30.4797 45.7497 0.0000 -6.4255 0.0000
# 3 85.6492 45.7497 152.9740 0.0000 -16.1510 0.0000
# 4 0.0000 0.0000 0.0000 20.0829 0.0000 -10.3543
# 5 -18.5282 -6.4255 -16.1510 0.0000 29.7691 0.0000
# 6 0.0000 0.0000 0.0000 -10.3543 0.0000 18.9714
#
#
#
# Elastic Compliance Matrix: (Units=1/GPa)
#
#
# Indices 1 2 3 4 5 6 
#
# 1 0.016786 -0.013516 -0.004838 0.000000 0.004905 0.000000
# 2 -0.013516 0.070739 -0.013646 0.000000 -0.000547 0.000000
# 3 -0.004838 -0.013646 0.013470 0.000000 0.001351 0.000000
# 4 0.000000 0.000000 0.000000 0.069292 0.000000 0.037819
# 5 0.004905 -0.000547 0.001351 0.000000 0.037260 0.000000
# 6 0.000000 0.000000 0.000000 0.037819 0.000000 0.073352
#
#
# Mechanical properties :
#
#
# Convention : Reuss Voigt Hill
#
# Bulk Modulus (GPa) = 27.03132 71.89232 49.46182
# Shear Modulus (GPa) = 13.99659 22.69900 18.34780
#
# Velocity S-wave (km/s) = 2.84304 3.62055 3.25509
# Velocity P-wave (km/s) = 5.13687 7.68081 6.53385
#
# Compressibility (1/GPa) = 0.03699412
#
# Stress axis : x y z
#
# Youngs Moduli (GPa) = 59.57453 14.13647 74.24065
#
# Poissons Ratio (x) = 0.19107 0.35919
# Poissons Ratio (y) = 0.80520 1.01310
# Poissons Ratio (z) = 0.28823 0.19291
#
# Static dielectric constant tensor:
#      x y z
#    x 1.594270 0.000000 -0.017080 
#    y 0.000000 1.577630 0.000000 
#    z -0.017080 0.000000 1.562180 
# 
# From -- ./inp_files/67291.got.cif
#   From: 2010.05.17/outbox.cif.g08.bks.cpg/sg11_34_cif.got.tgz:67291.got - 2010.06.03 12:22:45.
