data_PCOD9158850
_publ_section_title
;
Structure prediction by ZEFSAII (Michael W. Deem and Ramdas Pophale) SiO2 
 PCOD9158850
Probable space group: P 21/M
;
_chemical_formula_sum "Si O2"
_cell_formula_units_Z 32
_cell_length_a 22.874265
_cell_length_b 8.599967
_cell_length_c 29.077596
_cell_angle_alpha 90.000000
_cell_angle_beta 161.432414
_cell_angle_gamma 90.000000
_cell_volume 1821.406847
_symmetry_space_group_name_H-M "P 21/M"
_symmetry_group_IT_number 11
_symmetry_cell_setting 'monoclinic'
loop_
_space_group_symop_operation_xyz
x,y,z
-x,1/2+y,-z
-x,-y,-z
x,1/2-y,z
loop_
_atom_site_type_symbol
_atom_site_label
_atom_site_fract_x
_atom_site_fract_y
_atom_site_fract_z
Si Si1 0.781561 0.437269 0.223277
Si Si2 0.814232 0.439781 0.989762
Si Si3 0.516966 0.062298 0.841744
Si Si4 0.580326 0.564599 0.988561
Si Si5 0.904297 0.561867 0.474723
Si Si6 0.186718 0.563850 0.116726
Si Si7 0.441619 0.435397 0.383457
Si Si8 0.774802 0.937345 0.684553
O O1 0.778262 0.250000 0.216535
O O2 0.613581 0.482156 0.132101
O O3 0.970212 0.484798 0.388348
O O4 0.736211 0.509731 0.140227
O O5 0.813138 0.250000 0.988672
O O6 0.013677 0.486757 0.157745
O O7 0.649996 0.492219 0.900165
O O8 0.796683 0.489858 0.923711
O O9 0.515119 0.250000 0.839446
O O10 0.306189 0.008735 0.679381
O O11 0.590206 0.009018 0.945816
O O12 0.581633 0.750000 0.985726
O O13 0.906141 0.750000 0.474184
O O14 0.000000 0.500000 0.500000
O O15 0.175800 0.750000 0.108449
O O16 0.355745 0.510521 0.274229
O O17 0.000000 0.500000 0.000000
O O18 0.435774 0.250000 0.374843
O O19 0.313070 0.479625 0.331356
O O20 0.644461 0.490352 0.548685
O O21 0.766211 0.750000 0.674437
#
# Coordination Sequence:
#
# PCOD9158850 Si02
#       8
#     4   4   4   4   4   4   4   4
#     4   9  18  32  50  75 106 136 172 216 260 309
#     4   9  19  36  55  77 106 140 180 219 261 320
#     4  10  20  35  56  78 104 141 179 217 265 322
#     4  10  19  32  51  76 106 136 171 217 264 311
#     4  10  19  32  53  80 106 135 174 220 266 313
#     4  11  20  34  55  80 109 142 180 226 272 318
#     4  10  19  32  52  81 109 134 172 222 269 317
#     4   9  17  33  53  75 104 138 174 216 263 314
#
# _framework density 17.568836000000001
#
# number of rings (size 3 to 8) (size 9 to 14) (size 15 to 20)
#    0.000    2.250    2.500    1.125    0.000    1.500 
#    0.000    3.125    0.000    4.500    0.000    0.000 
#    0.000    0.000    0.000    0.000    0.000    0.000 
#
# Total GULP energy -178534.560592 kJ/mol
# GULP energy per Si atom -5579.205018 kJ/mol
# Density = 1.752885 g / cm^3
# Si number density = 17.568836 Si / 1000 Ang^3
#
#
#
# Elastic Constant Matrix: (Units=GPa)
#
#
# Indices 1 2 3 4 5 6 
#
# 1 134.1335 24.2220 94.8981 0.0000 -6.8367 0.0000
# 2 24.2220 13.8519 26.8104 0.0000 -2.4796 0.0000
# 3 94.8981 26.8104 161.7516 0.0000 -11.9355 0.0000
# 4 0.0000 0.0000 0.0000 23.2021 0.0000 -4.7703
# 5 -6.8367 -2.4796 -11.9355 0.0000 28.2047 0.0000
# 6 0.0000 0.0000 0.0000 -4.7703 0.0000 21.7272
#
#
#
# Elastic Compliance Matrix: (Units=1/GPa)
#
#
# Indices 1 2 3 4 5 6 
#
# 1 0.014129 -0.012771 -0.006196 0.000000 -0.000320 0.000000
# 2 -0.012771 0.117940 -0.011891 0.000000 0.002241 0.000000
# 3 -0.006196 -0.011891 0.011974 0.000000 0.002520 0.000000
# 4 0.000000 0.000000 0.000000 0.045137 0.000000 0.009910
# 5 -0.000320 0.002241 0.002520 0.000000 0.036641 0.000000
# 6 0.000000 0.000000 0.000000 0.009910 0.000000 0.048201
#
#
# Mechanical properties :
#
#
# Convention : Reuss Voigt Hill
#
# Bulk Modulus (GPa) = 12.14659 66.84422 39.49541
# Shear Modulus (GPa) = 13.76728 25.54723 19.65726
#
# Velocity S-wave (km/s) = 2.80236 3.81743 3.34858
# Velocity P-wave (km/s) = 4.17129 7.58683 6.12208
#
# Compressibility (1/GPa) = 0.08232761
#
# Stress axis : x y z
#
# Youngs Moduli (GPa) = 70.77743 8.47890 83.51231
#
# Poissons Ratio (x) = 0.10828 0.51744
# Poissons Ratio (y) = 0.90390 0.99301
# Poissons Ratio (z) = 0.43854 0.10082
#
# Static dielectric constant tensor:
#      x y z
#    x 1.576140 0.000000 0.001810 
#    y 0.000000 1.595450 0.000000 
#    z 0.001810 0.000000 1.603250 
# 
# From -- ./inp_files/72212.got.cif
#   From: 2010.05.17/outbox.cif.g08.bks.cpg/sg11_37_cif.got.tgz:72212.got - 2010.06.03 12:22:45.
