data_PCOD9158665
_publ_section_title
;
Structure prediction by ZEFSAII (Michael W. Deem and Ramdas Pophale) SiO2 
 PCOD9158665
Probable space group: P 21/M
;
_chemical_formula_sum "Si O2"
_cell_formula_units_Z 28
_cell_length_a 19.843122
_cell_length_b 7.571145
_cell_length_c 13.250125
_cell_angle_alpha 90.000000
_cell_angle_beta 131.245083
_cell_angle_gamma 90.000000
_cell_volume 1496.750943
_symmetry_space_group_name_H-M "P 21/M"
_symmetry_group_IT_number 11
_symmetry_cell_setting 'monoclinic'
loop_
_space_group_symop_operation_xyz
x,y,z
-x,1/2+y,-z
-x,-y,-z
x,1/2-y,z
loop_
_atom_site_type_symbol
_atom_site_label
_atom_site_fract_x
_atom_site_fract_y
_atom_site_fract_z
Si Si1 0.903092 0.958116 0.029640
Si Si2 0.899131 0.465120 0.789065
Si Si3 0.394729 0.460213 0.403772
Si Si4 0.718456 0.043703 0.512347
Si Si5 0.599653 0.962401 0.983330
Si Si6 0.288319 0.466954 0.098471
Si Si7 0.604628 0.038686 0.215472
O O1 0.906251 0.750000 0.055394
O O2 0.002801 0.028378 0.149871
O O3 0.814313 0.029219 0.995424
O O4 0.888620 0.979856 0.895220
O O5 0.899343 0.250000 0.788940
O O6 0.814116 0.530575 0.642005
O O7 0.500000 0.500000 0.500000
O O8 0.383753 0.250000 0.397732
O O9 0.349246 0.533575 0.459865
O O10 0.342563 0.522815 0.252122
O O11 0.735293 0.250000 0.507576
O O12 0.670456 0.966933 0.366266
O O13 0.596187 0.750000 0.972788
O O14 0.633058 0.005931 0.128507
O O15 0.660908 0.025349 0.952133
O O16 0.497288 0.029816 0.873493
O O17 0.287889 0.250000 0.098808
O O18 0.599480 0.250000 0.224648
#
# Coordination Sequence:
#
# PCOD9158665 Si02
#       7
#     4   4   4   4   4   4   4
#     4   9  16  29  47  68  94 124 156 189 230 280
#     4   9  17  28  46  70  95 122 155 192 228 275
#     4  11  21  32  46  68  98 129 156 187 232 283
#     4  10  19  32  48  69  97 126 155 190 236 283
#     4   9  17  31  49  66  85 116 160 199 229 272
#     4   9  17  30  48  68  93 124 154 189 235 280
#     4   9  18  32  48  65  90 121 154 196 239 276
#
# _framework density 18.707186
#
# number of rings (size 3 to 8) (size 9 to 14) (size 15 to 20)
#    0.000    2.571    1.429    1.286    0.000    2.857 
#    0.000    5.000    0.000    0.857    0.000    0.000 
#    0.000    0.000    0.000    0.000    0.000    0.000 
#
# Total GULP energy -156187.877322 kJ/mol
# GULP energy per Si atom -5578.138476 kJ/mol
# Density = 1.866461 g / cm^3
# Si number density = 18.707186 Si / 1000 Ang^3
#
#
#
# Elastic Constant Matrix: (Units=GPa)
#
#
# Indices 1 2 3 4 5 6 
#
# 1 97.5685 -7.1018 66.7533 0.0000 9.3115 0.0000
# 2 -7.1018 39.3256 -5.6894 0.0000 2.9291 0.0000
# 3 66.7533 -5.6894 147.4052 0.0000 10.5468 0.0000
# 4 0.0000 0.0000 0.0000 -9.5997 0.0000 -9.3935
# 5 9.3115 2.9291 10.5468 0.0000 27.3964 0.0000
# 6 0.0000 0.0000 0.0000 -9.3935 0.0000 12.3376
#
#
#
# Elastic Compliance Matrix: (Units=1/GPa)
#
#
# Indices 1 2 3 4 5 6 
#
# 1 0.015175 0.001998 -0.006592 0.000000 -0.002834 0.000000
# 2 0.001998 0.026111 0.000361 0.000000 -0.003610 0.000000
# 3 -0.006592 0.000361 0.009898 0.000000 -0.001609 0.000000
# 4 0.000000 0.000000 0.000000 -0.059696 0.000000 -0.045451
# 5 -0.002834 -0.003610 -0.001609 0.000000 0.038469 0.000000
# 6 0.000000 0.000000 0.000000 -0.045451 0.000000 0.046448
#
#
# Mechanical properties :
#
#
# Convention : Reuss Voigt Hill
#
# Bulk Modulus (GPa) = 23.40928 43.58037 33.49482
# Shear Modulus (GPa) = 50.44796 21.38269 35.91532
#
# Velocity S-wave (km/s) = 5.19862 3.38453 4.38638
# Velocity P-wave (km/s) = 6.96957 6.21450 6.60284
#
# Compressibility (1/GPa) = 0.04271809
#
# Stress axis : x y z
#
# Youngs Moduli (GPa) = 65.89633 38.29848 101.02576
#
# Poissons Ratio (x) = -0.07651 0.66600
# Poissons Ratio (y) = -0.13165 -0.03651
# Poissons Ratio (z) = 0.43441 -0.01384
#
# Static dielectric constant tensor:
#      x y z
#    x 1.644220 0.000000 0.032540 
#    y 0.000000 1.707090 0.000000 
#    z 0.032540 0.000000 1.647180 
# 
# From -- ./inp_files/37144.got.cif
#   From: 2010.05.17/outbox.cif.g08.bks.cpg/sg11_19_cif.got.tgz:37144.got - 2010.06.03 12:22:45.
