data_PCOD9158119
_publ_section_title
;
Structure prediction by ZEFSAII (Michael W. Deem and Ramdas Pophale) SiO2 
 PCOD9158119
Probable space group: P 21/M
;
_chemical_formula_sum "Si O2"
_cell_formula_units_Z 32
_cell_length_a 14.648027
_cell_length_b 8.818209
_cell_length_c 21.219294
_cell_angle_alpha 90.000000
_cell_angle_beta 43.159132
_cell_angle_gamma 90.000000
_cell_volume 1874.837695
_symmetry_space_group_name_H-M "P 21/M"
_symmetry_group_IT_number 11
_symmetry_cell_setting 'monoclinic'
loop_
_space_group_symop_operation_xyz
x,y,z
-x,1/2+y,-z
-x,-y,-z
x,1/2-y,z
loop_
_atom_site_type_symbol
_atom_site_label
_atom_site_fract_x
_atom_site_fract_y
_atom_site_fract_z
Si Si1 0.866671 0.568296 0.682797
Si Si2 0.849700 0.930623 0.841185
Si Si3 0.848213 0.431439 0.310974
Si Si4 0.419982 0.931401 0.981313
Si Si5 0.567471 0.568629 0.643961
Si Si6 0.418947 0.430394 0.599793
Si Si7 0.581475 0.565206 0.776849
Si Si8 0.143240 0.429549 0.554285
O O1 0.882309 0.750000 0.668053
O O2 0.842545 0.538223 0.769544
O O3 0.734240 0.518180 0.713116
O O4 0.004835 0.488864 0.595213
O O5 0.830333 0.750000 0.858426
O O6 0.000485 0.969148 0.785560
O O7 0.732638 0.017344 0.935281
O O8 0.832692 0.250000 0.316812
O O9 0.732087 0.510380 0.330328
O O10 0.836422 0.485936 0.389340
O O11 0.430051 0.750000 0.979325
O O12 0.488847 0.982875 0.881546
O O13 0.500000 0.000000 0.000000
O O14 0.544284 0.750000 0.649746
O O15 0.486797 0.485860 0.629898
O O16 0.534221 0.518120 0.731517
O O17 0.725475 0.543969 0.553164
O O18 0.500000 0.500000 0.500000
O O19 0.423138 0.250000 0.592803
O O20 0.583238 0.750000 0.776049
O O21 0.132927 0.250000 0.571475
#
# Coordination Sequence:
#
# PCOD9158119 Si02
#       8
#     4   4   4   4   4   4   4   4
#     4   9  17  32  51  71 105 147 182 215 261 319
#     4   9  18  33  53  80 109 137 173 220 274 322
#     4  10  20  35  56  79 108 141 175 219 271 322
#     4  11  20  33  55  80 107 142 183 227 269 316
#     4  10  21  37  55  75 106 146 184 223 268 320
#     4  12  23  36  57  83 110 139 178 223 267 317
#     4   9  19  36  54  74 105 148 187 219 269 326
#     4  10  19  30  48  77 108 139 181 223 261 312
#
# _framework density 17.068144
#
# number of rings (size 3 to 8) (size 9 to 14) (size 15 to 20)
#    0.000    2.000    2.500    3.000    0.000    3.500 
#    0.000    1.875    0.000    0.750    0.000    0.000 
#    0.000    0.000    0.000    0.000    0.000    0.000 
#
# Total GULP energy -178609.289917 kJ/mol
# GULP energy per Si atom -5581.540310 kJ/mol
# Density = 1.702930 g / cm^3
# Si number density = 17.068144 Si / 1000 Ang^3
#
#
#
# Elastic Constant Matrix: (Units=GPa)
#
#
# Indices 1 2 3 4 5 6 
#
# 1 122.8730 49.2827 71.1592 0.0000 -1.3683 0.0000
# 2 49.2827 59.8224 51.4656 0.0000 -4.0742 0.0000
# 3 71.1592 51.4656 100.2678 0.0000 -0.5593 0.0000
# 4 0.0000 0.0000 0.0000 23.6929 0.0000 -7.7787
# 5 -1.3683 -4.0742 -0.5593 0.0000 22.8311 0.0000
# 6 0.0000 0.0000 0.0000 -7.7787 0.0000 26.7656
#
#
#
# Elastic Compliance Matrix: (Units=1/GPa)
#
#
# Indices 1 2 3 4 5 6 
#
# 1 0.014817 -0.005694 -0.007595 0.000000 -0.000314 0.000000
# 2 -0.005694 0.032697 -0.012713 0.000000 0.005182 0.000000
# 3 -0.007595 -0.012713 0.021876 0.000000 -0.002188 0.000000
# 4 0.000000 0.000000 0.000000 0.046659 0.000000 0.013560
# 5 -0.000314 0.005182 -0.002188 0.000000 0.044652 0.000000
# 6 0.000000 0.000000 0.000000 0.013560 0.000000 0.041302
#
#
# Mechanical properties :
#
#
# Convention : Reuss Voigt Hill
#
# Bulk Modulus (GPa) = 57.51397 69.64205 63.57801
# Shear Modulus (GPa) = 19.24543 22.06162 20.65352
#
# Velocity S-wave (km/s) = 3.36157 3.59912 3.48237
# Velocity P-wave (km/s) = 6.98832 7.62643 7.31434
#
# Compressibility (1/GPa) = 0.01738708
#
# Stress axis : x y z
#
# Youngs Moduli (GPa) = 67.48951 30.58394 45.71225
#
# Poissons Ratio (x) = 0.17416 0.34716
# Poissons Ratio (y) = 0.38431 0.58112
# Poissons Ratio (z) = 0.51255 0.38880
#
# Static dielectric constant tensor:
#      x y z
#    x 1.574600 0.000000 -0.009310 
#    y 0.000000 1.572640 0.000000 
#    z -0.009310 0.000000 1.576810 
# 
# From -- ./inp_files/54367.got.cif
#   From: 2010.05.17/outbox.cif.g08.bks.cpg/sg11_28_cif.got.tgz:54367.got - 2010.06.03 12:22:45.
