data_PCOD9158469
_publ_section_title
;
Structure prediction by ZEFSAII (Michael W. Deem and Ramdas Pophale) SiO2 
 PCOD9158469
Probable space group: P 21/M
;
_chemical_formula_sum "Si O2"
_cell_formula_units_Z 32
_cell_length_a 12.429308
_cell_length_b 13.730862
_cell_length_c 18.946319
_cell_angle_alpha 90.000000
_cell_angle_beta 150.616620
_cell_angle_gamma 90.000000
_cell_volume 1586.508126
_symmetry_space_group_name_H-M "P 21/M"
_symmetry_group_IT_number 11
_symmetry_cell_setting 'monoclinic'
loop_
_space_group_symop_operation_xyz
x,y,z
-x,1/2+y,-z
-x,-y,-z
x,1/2-y,z
loop_
_atom_site_type_symbol
_atom_site_label
_atom_site_fract_x
_atom_site_fract_y
_atom_site_fract_z
Si Si1 0.393704 0.860906 0.314727
Si Si2 0.466723 0.002175 0.228009
Si Si3 0.377325 0.364148 0.053844
Si Si4 0.092142 0.640398 0.275765
Si Si5 0.356126 0.364788 0.793620
Si Si6 0.686237 0.133531 0.107345
Si Si7 0.158164 0.439181 0.383568
Si Si8 0.084237 0.538934 0.474682
O O1 0.407027 0.750000 0.294089
O O2 0.374131 0.941976 0.241825
O O3 0.195592 0.865774 0.256698
O O4 0.614510 0.881594 0.487497
O O5 0.564827 0.920878 0.230943
O O6 0.335292 0.071117 0.099114
O O7 0.665618 0.070136 0.370616
O O8 0.401524 0.250000 0.086247
O O9 0.590758 0.396197 0.129925
O O10 0.168854 0.370758 0.882724
O O11 0.138522 0.750000 0.329446
O O12 0.186749 0.549769 0.373210
O O13 0.378593 0.250000 0.796566
O O14 0.100899 0.390041 0.660833
O O15 0.510052 0.394123 0.947087
O O16 0.690715 0.250000 0.113128
O O17 0.929074 0.100481 0.223019
O O18 0.104726 0.446721 0.435618
O O19 0.000000 0.500000 0.500000
#
# Coordination Sequence:
#
# PCOD9158469 Si02
#       8
#     4   4   4   4   4   4   4   4
#     4  10  22  40  59  80 109 145 187 234 282 329
#     4  10  20  35  54  78 105 144 191 230 274 325
#     4  10  21  37  56  81 115 150 184 225 277 333
#     4  10  22  39  59  83 111 146 187 232 279 325
#     4  10  19  31  49  77 112 146 182 224 272 330
#     4  10  20  33  54  84 114 146 181 223 277 331
#     4  11  20  35  59  82 108 144 185 225 270 327
#     4   9  19  31  46  73 107 140 173 211 263 321
#
# _framework density 20.170083000000002
#
# number of rings (size 3 to 8) (size 9 to 14) (size 15 to 20)
#    0.000    2.000    0.000    4.125    0.000    4.000 
#    0.000    5.000    0.000    1.500    0.000    0.000 
#    0.000    0.000    0.000    0.000    0.000    0.000 
#
# Total GULP energy -178345.093693 kJ/mol
# GULP energy per Si atom -5573.284178 kJ/mol
# Density = 2.012417 g / cm^3
# Si number density = 20.170083 Si / 1000 Ang^3
#
#
#
# Elastic Constant Matrix: (Units=GPa)
#
#
# Indices 1 2 3 4 5 6 
#
# 1 50.0221 2.0734 1.8958 0.0000 3.3558 0.0000
# 2 2.0734 76.3330 3.7991 0.0000 -2.8971 0.0000
# 3 1.8958 3.7991 56.6720 0.0000 -6.4866 0.0000
# 4 0.0000 0.0000 0.0000 29.0927 0.0000 -6.8848
# 5 3.3558 -2.8971 -6.4866 0.0000 23.1850 0.0000
# 6 0.0000 0.0000 0.0000 -6.8848 0.0000 28.4090
#
#
#
# Elastic Compliance Matrix: (Units=1/GPa)
#
#
# Indices 1 2 3 4 5 6 
#
# 1 0.020277 -0.000625 -0.001014 0.000000 -0.003297 0.000000
# 2 -0.000625 0.013210 -0.000687 0.000000 0.001549 0.000000
# 3 -0.001014 -0.000687 0.018319 0.000000 0.005186 0.000000
# 4 0.000000 0.000000 0.000000 0.036464 0.000000 0.008837
# 5 -0.003297 0.001549 0.005186 0.000000 0.045253 0.000000
# 6 0.000000 0.000000 0.000000 0.008837 0.000000 0.037342
#
#
# Mechanical properties :
#
#
# Convention : Reuss Voigt Hill
#
# Bulk Modulus (GPa) = 21.20749 22.06262 21.63505
# Shear Modulus (GPa) = 26.14577 27.82126 26.98351
#
# Velocity S-wave (km/s) = 3.60427 3.71797 3.66156
# Velocity P-wave (km/s) = 5.27809 5.42154 5.35029
#
# Compressibility (1/GPa) = 0.04715316
#
# Stress axis : x y z
#
# Youngs Moduli (GPa) = 49.31778 75.69743 54.58825
#
# Poissons Ratio (x) = 0.04734 0.05533
# Poissons Ratio (y) = 0.03084 0.03752
# Poissons Ratio (z) = 0.04999 0.05203
#
# Static dielectric constant tensor:
#      x y z
#    x 1.722850 0.000000 0.002000 
#    y 0.000000 1.725200 0.000000 
#    z 0.002000 0.000000 1.790970 
# 
# From -- ./inp_files/59495.got.cif
#   From: 2010.05.17/outbox.cif.g08.bks.cpg/sg11_30_cif.got.tgz:59495.got - 2010.06.03 12:22:45.
