data_PCOD9158592
_publ_section_title
;
Structure prediction by ZEFSAII (Michael W. Deem and Ramdas Pophale) SiO2 
 PCOD9158592
Probable space group: P 21/M
;
_chemical_formula_sum "Si O2"
_cell_formula_units_Z 28
_cell_length_a 9.649183
_cell_length_b 13.559666
_cell_length_c 13.929359
_cell_angle_alpha 90.000000
_cell_angle_beta 126.115694
_cell_angle_gamma 90.000000
_cell_volume 1472.277989
_symmetry_space_group_name_H-M "P 21/M"
_symmetry_group_IT_number 11
_symmetry_cell_setting 'monoclinic'
loop_
_space_group_symop_operation_xyz
x,y,z
-x,1/2+y,-z
-x,-y,-z
x,1/2-y,z
loop_
_atom_site_type_symbol
_atom_site_label
_atom_site_fract_x
_atom_site_fract_y
_atom_site_fract_z
Si Si1 0.099625 0.962553 0.394409
Si Si2 0.764326 0.545440 0.354739
Si Si3 0.538271 0.133922 0.252164
Si Si4 0.556856 0.132645 0.685585
Si Si5 0.546161 0.363990 0.469827
Si Si6 0.834806 0.866025 0.964990
Si Si7 0.899032 0.492389 0.820909
O O1 0.248642 0.880511 0.450133
O O2 0.103325 0.014887 0.292945
O O3 0.912945 0.920339 0.344259
O O4 0.150595 0.031311 0.505170
O O5 0.694550 0.438106 0.292645
O O6 0.594038 0.609399 0.301376
O O7 0.583956 0.250000 0.272933
O O8 0.484741 0.102521 0.339838
O O9 0.371089 0.121178 0.118801
O O10 0.587598 0.250000 0.693326
O O11 0.494394 0.096424 0.553258
O O12 0.734152 0.076391 0.778127
O O13 0.498773 0.250000 0.453048
O O14 0.871768 0.750000 0.984779
O O15 0.896668 0.913683 0.889489
O O16 0.934474 0.927103 0.086030
#
# Coordination Sequence:
#
# PCOD9158592 Si02
#       7
#     4   4   4   4   4   4   4
#     4   9  20  33  52  75 110 144 168 208 263 316
#     4  10  19  34  51  79 109 139 173 210 257 315
#     4   9  17  31  52  74 100 135 175 218 259 305
#     4  10  19  31  52  79 107 137 172 217 262 308
#     4   8  16  29  49  76 102 135 175 214 259 310
#     4  10  20  34  56  80 101 134 180 222 263 307
#     4  10  20  36  55  79 106 137 172 222 263 305
#
# _framework density 19.018148
#
# number of rings (size 3 to 8) (size 9 to 14) (size 15 to 20)
#    0.000    2.571    1.429    0.429    2.000    2.857 
#    0.000    3.571    0.000    0.000    0.000    0.000 
#    0.000    0.000    0.000    0.000    0.000    0.000 
#
# Total GULP energy -156009.677755 kJ/mol
# GULP energy per Si atom -5571.774206 kJ/mol
# Density = 1.897486 g / cm^3
# Si number density = 19.018148 Si / 1000 Ang^3
#
#
#
# Elastic Constant Matrix: (Units=GPa)
#
#
# Indices 1 2 3 4 5 6 
#
# 1 74.5910 -0.0015 -3.0391 0.0000 15.0305 0.0000
# 2 -0.0015 52.1000 8.7139 0.0000 4.6311 0.0000
# 3 -3.0391 8.7139 59.9532 0.0000 11.2575 0.0000
# 4 0.0000 0.0000 0.0000 19.9777 0.0000 1.3538
# 5 15.0305 4.6311 11.2575 0.0000 18.6334 0.0000
# 6 0.0000 0.0000 0.0000 1.3538 0.0000 14.2939
#
#
#
# Elastic Compliance Matrix: (Units=1/GPa)
#
#
# Indices 1 2 3 4 5 6 
#
# 1 0.016781 0.000797 0.003738 0.000000 -0.015993 0.000000
# 2 0.000797 0.019922 -0.002036 0.000000 -0.004364 0.000000
# 3 0.003738 -0.002036 0.019893 0.000000 -0.014528 0.000000
# 4 0.000000 0.000000 0.000000 0.050379 0.000000 -0.004771
# 5 -0.015993 -0.004364 -0.014528 0.000000 0.076429 0.000000
# 6 0.000000 0.000000 0.000000 -0.004771 0.000000 0.070412
#
#
# Mechanical properties :
#
#
# Convention : Reuss Voigt Hill
#
# Bulk Modulus (GPa) = 16.23520 21.99900 19.11710
# Shear Modulus (GPa) = 18.56321 22.64573 20.60447
#
# Velocity S-wave (km/s) = 3.12762 3.45446 3.29509
# Velocity P-wave (km/s) = 4.64735 5.24438 4.95487
#
# Compressibility (1/GPa) = 0.06159455
#
# Stress axis : x y z
#
# Youngs Moduli (GPa) = 59.58983 50.19500 50.26920
#
# Poissons Ratio (x) = -0.04000 -0.18790
# Poissons Ratio (y) = -0.04749 0.10233
# Poissons Ratio (z) = -0.22274 0.10218
#
# Static dielectric constant tensor:
#      x y z
#    x 1.670620 0.000000 0.008000 
#    y 0.000000 1.669910 0.000000 
#    z 0.008000 0.000000 1.691670 
# 
# From -- ./inp_files/21802.got.cif
#   From: 2010.05.17/outbox.cif.g08.bks.cpg/sg11_11_cif.got.tgz:21802.got - 2010.06.03 12:22:45.
