data_PCOD9158931
_publ_section_title
;
Structure prediction by ZEFSAII (Michael W. Deem and Ramdas Pophale) SiO2 
 PCOD9158931
Probable space group: P 21/M
;
_chemical_formula_sum "Si O2"
_cell_formula_units_Z 28
_cell_length_a 12.203827
_cell_length_b 7.755469
_cell_length_c 16.357600
_cell_angle_alpha 90.000000
_cell_angle_beta 56.327570
_cell_angle_gamma 90.000000
_cell_volume 1288.434568
_symmetry_space_group_name_H-M "P 21/M"
_symmetry_group_IT_number 11
_symmetry_cell_setting 'monoclinic'
loop_
_space_group_symop_operation_xyz
x,y,z
-x,1/2+y,-z
-x,-y,-z
x,1/2-y,z
loop_
_atom_site_type_symbol
_atom_site_label
_atom_site_fract_x
_atom_site_fract_y
_atom_site_fract_z
Si Si1 0.863179 0.542427 0.513211
Si Si2 0.848561 0.042771 0.045138
Si Si3 0.671500 0.457924 0.268912
Si Si4 0.148637 0.958782 0.138728
Si Si5 0.409041 0.038119 0.297210
Si Si6 0.129074 0.456215 0.675441
Si Si7 0.586979 0.951347 0.885918
O O1 0.853349 0.750000 0.514093
O O2 0.735460 0.480332 0.615547
O O3 0.861462 0.476787 0.420696
O O4 0.000000 0.500000 0.500000
O O5 0.834011 0.250000 0.049945
O O6 0.758718 0.977383 0.156040
O O7 0.816326 0.979730 0.967235
O O8 0.000000 0.000000 0.000000
O O9 0.672802 0.250000 0.266123
O O10 0.522451 0.514406 0.313749
O O11 0.743965 0.509097 0.321809
O O12 0.146759 0.750000 0.137482
O O13 0.003907 0.020955 0.225068
O O14 0.261506 0.013091 0.154410
O O15 0.408170 0.250000 0.296480
O O16 0.442855 0.974969 0.191591
O O17 0.114315 0.250000 0.676473
O O18 0.565408 0.750000 0.885937
O O19 0.500000 0.000000 0.000000
#
# Coordination Sequence:
#
# PCOD9158931 Si02
#       7
#     4   4   4   4   4   4   4
#     4  10  21  39  62  85 111 145 186 231 281 334
#     4  10  19  32  52  77 110 149 186 227 274 329
#     4  10  20  35  56  80 109 150 194 228 270 339
#     4  10  20  35  54  79 115 149 182 231 283 329
#     4   9  20  39  59  80 112 151 185 226 281 334
#     4  10  21  36  56  84 115 145 181 234 286 323
#     4  11  22  37  58  82 111 146 187 231 278 335
#
# _framework density 21.731798000000001
#
# number of rings (size 3 to 8) (size 9 to 14) (size 15 to 20)
#    0.000    2.000    1.429    2.143    0.000    4.571 
#    0.000    4.286    0.000    0.000    0.000    0.000 
#    0.000    0.000    0.000    0.000    0.000    0.000 
#
# Total GULP energy -156433.939307 kJ/mol
# GULP energy per Si atom -5586.926404 kJ/mol
# Density = 2.168234 g / cm^3
# Si number density = 21.731798 Si / 1000 Ang^3
#
#
#
# Elastic Constant Matrix: (Units=GPa)
#
#
# Indices 1 2 3 4 5 6 
#
# 1 153.7058 -9.6907 90.2828 0.0000 3.1495 0.0000
# 2 -9.6907 25.5523 12.9490 0.0000 0.5137 0.0000
# 3 90.2828 12.9490 132.8257 0.0000 15.1403 0.0000
# 4 0.0000 0.0000 0.0000 10.0128 0.0000 -1.8000
# 5 3.1495 0.5137 15.1403 0.0000 40.7037 0.0000
# 6 0.0000 0.0000 0.0000 -1.8000 0.0000 29.2024
#
#
#
# Elastic Compliance Matrix: (Units=1/GPa)
#
#
# Indices 1 2 3 4 5 6 
#
# 1 0.013043 0.010034 -0.010144 0.000000 0.002637 0.000000
# 2 0.010034 0.048929 -0.011938 0.000000 0.003046 0.000000
# 3 -0.010144 -0.011938 0.016166 0.000000 -0.005078 0.000000
# 4 0.000000 0.000000 0.000000 0.100991 0.000000 0.006225
# 5 0.002637 0.003046 -0.005078 0.000000 0.026214 0.000000
# 6 0.000000 0.000000 0.000000 0.006225 0.000000 0.034627
#
#
# Mechanical properties :
#
#
# Convention : Reuss Voigt Hill
#
# Bulk Modulus (GPa) = 18.50371 55.46290 36.98330
# Shear Modulus (GPa) = 17.72541 30.55331 24.13936
#
# Velocity S-wave (km/s) = 2.85905 3.75364 3.33646
# Velocity P-wave (km/s) = 4.40817 6.66058 5.64780
#
# Compressibility (1/GPa) = 0.05404323
#
# Stress axis : x y z
#
# Youngs Moduli (GPa) = 76.66931 20.43769 61.85663
#
# Poissons Ratio (x) = -0.20508 0.62749
# Poissons Ratio (y) = -0.76932 0.73842
# Poissons Ratio (z) = 0.77776 0.24398
#
# Static dielectric constant tensor:
#      x y z
#    x 1.761430 0.000000 0.003400 
#    y 0.000000 1.814040 0.000000 
#    z 0.003400 0.000000 1.800690 
# 
# From -- ./inp_files/37474.got.cif
#   From: 2010.05.17/outbox.cif.g08.bks.cpg/sg11_19_cif.got.tgz:37474.got - 2010.06.03 12:22:45.
