data_PCOD9158361
_publ_section_title
;
Structure prediction by ZEFSAII (Michael W. Deem and Ramdas Pophale) SiO2 
 PCOD9158361
Probable space group: P 21/M
;
_chemical_formula_sum "Si O2"
_cell_formula_units_Z 24
_cell_length_a 14.614408
_cell_length_b 7.921691
_cell_length_c 17.147339
_cell_angle_alpha 90.000000
_cell_angle_beta 27.125974
_cell_angle_gamma 90.000000
_cell_volume 905.131286
_symmetry_space_group_name_H-M "P 21/M"
_symmetry_group_IT_number 11
_symmetry_cell_setting 'monoclinic'
loop_
_space_group_symop_operation_xyz
x,y,z
-x,1/2+y,-z
-x,-y,-z
x,1/2-y,z
loop_
_atom_site_type_symbol
_atom_site_label
_atom_site_fract_x
_atom_site_fract_y
_atom_site_fract_z
Si Si1 0.408429 0.448939 0.653793
Si Si2 0.231755 0.046410 0.327337
Si Si3 0.194290 0.954694 0.581339
Si Si4 0.782058 0.956342 0.832143
Si Si5 0.406338 0.553513 0.860299
Si Si6 0.994590 0.052104 0.106635
O O1 0.500000 0.500000 0.500000
O O2 0.423853 0.250000 0.649299
O O3 0.575871 0.520410 0.587611
O O4 0.170745 0.483707 0.828843
O O5 0.247307 0.250000 0.319149
O O6 0.302470 0.990206 0.187356
O O7 0.372245 0.976638 0.290306
O O8 0.000000 0.000000 0.500000
O O9 0.199429 0.750000 0.572784
O O10 0.018014 0.010055 0.657231
O O11 0.098500 0.000501 0.738667
O O12 0.773534 0.750000 0.844664
O O13 0.682291 0.033000 0.984298
O O14 0.418193 0.750000 0.832905
O O15 0.231923 0.479949 0.937756
O O16 0.970916 0.250000 0.117592
#
# Coordination Sequence:
#
# PCOD9158361 Si02
#       6
#     4   4   4   4   4   4
#     4   9  14  21  35  59  91 125 155 188 231 282
#     4  10  22  36  51  71  97 127 161 198 241 290
#     4   7  12  22  38  60  88 119 151 184 226 275
#     4   9  17  32  51  72  97 127 160 196 237 288
#     4  10  19  31  48  73  98 124 160 202 242 285
#     4   9  16  26  40  61  90 126 159 192 235 282
#
# _framework density 26.515491000000001
#
# number of rings (size 3 to 8) (size 9 to 14) (size 15 to 20)
#    0.000    3.000    0.000    4.000    0.000    2.000 
#    0.000    0.833    0.000    0.000    0.000    1.167 
#    0.000    0.000    0.000    0.000    0.000    0.000 
#
# Total GULP energy -134055.628519 kJ/mol
# GULP energy per Si atom -5585.651188 kJ/mol
# Density = 2.645514 g / cm^3
# Si number density = 26.515491 Si / 1000 Ang^3
#
#
#
# Elastic Constant Matrix: (Units=GPa)
#
#
# Indices 1 2 3 4 5 6 
#
# 1 200.9237 25.8844 21.6140 0.0000 -63.7083 0.0000
# 2 25.8844 39.6297 2.6863 0.0000 -12.5393 0.0000
# 3 21.6140 2.6863 160.6422 0.0000 -39.4482 0.0000
# 4 0.0000 0.0000 0.0000 33.8778 0.0000 -1.9613
# 5 -63.7083 -12.5393 -39.4482 0.0000 58.6350 0.0000
# 6 0.0000 0.0000 0.0000 -1.9613 0.0000 20.5574
#
#
#
# Elastic Compliance Matrix: (Units=1/GPa)
#
#
# Indices 1 2 3 4 5 6 
#
# 1 0.008011 -0.002477 0.001163 0.000000 0.008957 0.000000
# 2 -0.002477 0.028013 0.000809 0.000000 0.003843 0.000000
# 3 0.001163 0.000809 0.007676 0.000000 0.006601 0.000000
# 4 0.000000 0.000000 0.000000 0.029682 0.000000 0.002832
# 5 0.008957 0.003843 0.006601 0.000000 0.032049 0.000000
# 6 0.000000 0.000000 0.000000 0.002832 0.000000 0.048914
#
#
# Mechanical properties :
#
#
# Convention : Reuss Voigt Hill
#
# Bulk Modulus (GPa) = 23.42543 55.72946 39.57744
# Shear Modulus (GPa) = 29.48355 46.01476 37.74915
#
# Velocity S-wave (km/s) = 3.33819 4.17032 3.77724
# Velocity P-wave (km/s) = 4.86948 6.65223 5.82940
#
# Compressibility (1/GPa) = 0.04268866
#
# Stress axis : x y z
#
# Youngs Moduli (GPa) = 124.82706 35.69797 130.27726
#
# Poissons Ratio (x) = 0.08843 -0.15152
# Poissons Ratio (y) = 0.30923 -0.10534
# Poissons Ratio (z) = -0.14518 -0.02887
#
# Static dielectric constant tensor:
#      x y z
#    x 2.187130 0.000000 0.024480 
#    y 0.000000 1.908420 0.000000 
#    z 0.024480 0.000000 2.261410 
# 
# From -- ./inp_files/25732.got.cif
#   From: 2010.05.17/outbox.cif.g08.bks.cpg/sg11_13_cif.got.tgz:25732.got - 2010.06.03 12:22:45.
