data_PCOD9158420
_publ_section_title
;
Structure prediction by ZEFSAII (Michael W. Deem and Ramdas Pophale) SiO2 
 PCOD9158420
Probable space group: P 21/M
;
_chemical_formula_sum "Si O2"
_cell_formula_units_Z 24
_cell_length_a 15.165256
_cell_length_b 9.163221
_cell_length_c 19.496178
_cell_angle_alpha 90.000000
_cell_angle_beta 22.995662
_cell_angle_gamma 90.000000
_cell_volume 1058.395362
_symmetry_space_group_name_H-M "P 21/M"
_symmetry_group_IT_number 11
_symmetry_cell_setting 'monoclinic'
loop_
_space_group_symop_operation_xyz
x,y,z
-x,1/2+y,-z
-x,-y,-z
x,1/2-y,z
loop_
_atom_site_type_symbol
_atom_site_label
_atom_site_fract_x
_atom_site_fract_y
_atom_site_fract_z
Si Si1 0.641935 0.582316 0.497321
Si Si2 0.204361 0.417193 0.773567
Si Si3 0.233460 0.078251 0.951932
Si Si4 0.911546 0.579553 0.785764
Si Si5 0.184479 0.577534 0.273586
Si Si6 0.714326 0.074640 0.647086
O O1 0.632999 0.750000 0.526900
O O2 0.399110 0.505394 0.673154
O O3 0.715505 0.583486 0.363853
O O4 0.840399 0.492938 0.391554
O O5 0.195230 0.250000 0.802852
O O6 0.959375 0.491188 0.949558
O O7 0.219230 0.250000 0.945797
O O8 0.174458 0.064233 0.075150
O O9 0.493249 0.030444 0.762977
O O10 0.928314 0.750000 0.758076
O O11 0.759486 0.503793 0.836967
O O12 0.179184 0.750000 0.265216
O O13 0.935389 0.515208 0.469800
O O14 0.322235 0.551967 0.244927
O O15 0.749726 0.250000 0.613025
#
# Coordination Sequence:
#
# PCOD9158420 Si02
#       6
#     4   4   4   4   4   4
#     4   9  16  27  44  67  97 131 164 198 237 284
#     4   9  16  26  43  69  99 129 161 198 240 286
#     4   9  18  32  50  73 100 130 164 202 244 288
#     4  10  19  31  49  74 102 130 162 202 246 289
#     4  10  20  34  52  73  97 128 166 204 244 293
#     4   9  19  36  54  71  95 129 167 204 243 291
#
# _framework density 22.675837000000001
#
# number of rings (size 3 to 8) (size 9 to 14) (size 15 to 20)
#    0.000    2.667    0.000    2.000    0.000    6.667 
#    0.000    0.000    0.000    1.000    0.000    0.000 
#    0.000    0.000    0.000    0.000    0.000    0.000 
#
# Total GULP energy -134213.781211 kJ/mol
# GULP energy per Si atom -5592.240884 kJ/mol
# Density = 2.262423 g / cm^3
# Si number density = 22.675837 Si / 1000 Ang^3
#
#
#
# Elastic Constant Matrix: (Units=GPa)
#
#
# Indices 1 2 3 4 5 6 
#
# 1 122.2403 28.5716 25.3897 0.0000 -4.0085 0.0000
# 2 28.5716 95.9810 27.3223 0.0000 -21.1538 0.0000
# 3 25.3897 27.3223 95.8406 0.0000 -26.0057 0.0000
# 4 0.0000 0.0000 0.0000 10.8545 0.0000 -11.5510
# 5 -4.0085 -21.1538 -26.0057 0.0000 41.0175 0.0000
# 6 0.0000 0.0000 0.0000 -11.5510 0.0000 25.6091
#
#
#
# Elastic Compliance Matrix: (Units=1/GPa)
#
#
# Indices 1 2 3 4 5 6 
#
# 1 0.009162 -0.002495 -0.002201 0.000000 -0.001786 0.000000
# 2 -0.002495 0.012781 -0.001522 0.000000 0.005383 0.000000
# 3 -0.002201 -0.001522 0.013503 0.000000 0.007561 0.000000
# 4 0.000000 0.000000 0.000000 0.177166 0.000000 0.079911
# 5 -0.001786 0.005383 0.007561 0.000000 0.031775 0.000000
# 6 0.000000 0.000000 0.000000 0.079911 0.000000 0.075092
#
#
# Mechanical properties :
#
#
# Convention : Reuss Voigt Hill
#
# Bulk Modulus (GPa) = 43.45868 52.95879 48.20873
# Shear Modulus (GPa) = 14.72389 31.01475 22.86932
#
# Velocity S-wave (km/s) = 2.55094 3.70232 3.17919
# Velocity P-wave (km/s) = 5.28046 6.45613 5.89766
#
# Compressibility (1/GPa) = 0.02301036
#
# Stress axis : x y z
#
# Youngs Moduli (GPa) = 109.14384 78.24141 74.06035
#
# Poissons Ratio (x) = 0.19519 0.16299
# Poissons Ratio (y) = 0.27228 0.11274
# Poissons Ratio (z) = 0.24020 0.11910
#
# Static dielectric constant tensor:
#      x y z
#    x 1.871360 0.000000 0.073000 
#    y 0.000000 1.746480 0.000000 
#    z 0.073000 0.000000 1.863400 
# 
# From -- ./inp_files/20532.got.cif
#   From: 2010.05.17/outbox.cif.g08.bks.cpg/sg11_11_cif.got.tgz:20532.got - 2010.06.03 12:22:45.
