data_PCOD9158141
_publ_section_title
;
Structure prediction by ZEFSAII (Michael W. Deem and Ramdas Pophale) SiO2 
 PCOD9158141
Probable space group: P 21/M
;
_chemical_formula_sum "Si O2"
_cell_formula_units_Z 28
_cell_length_a 8.113686
_cell_length_b 20.134760
_cell_length_c 9.795876
_cell_angle_alpha 90.000000
_cell_angle_beta 110.033519
_cell_angle_gamma 90.000000
_cell_volume 1503.492241
_symmetry_space_group_name_H-M "P 21/M"
_symmetry_group_IT_number 11
_symmetry_cell_setting 'monoclinic'
loop_
_space_group_symop_operation_xyz
x,y,z
-x,1/2+y,-z
-x,-y,-z
x,1/2-y,z
loop_
_atom_site_type_symbol
_atom_site_label
_atom_site_fract_x
_atom_site_fract_y
_atom_site_fract_z
Si Si1 0.623393 0.107703 0.540983
Si Si2 0.839392 0.954483 0.998926
Si Si3 0.980110 0.173495 0.607522
Si Si4 0.438058 0.014905 0.300735
Si Si5 0.030406 0.824164 0.063661
Si Si6 0.272573 0.425445 0.737390
Si Si7 0.566012 0.173137 0.807318
O O1 0.792077 0.141194 0.519922
O O2 0.478782 0.082107 0.393826
O O3 0.559902 0.156898 0.643082
O O4 0.665724 0.039322 0.636607
O O5 0.667248 0.974263 0.867225
O O6 0.813548 0.957543 0.154067
O O7 0.897881 0.879798 0.978068
O O8 0.000000 0.000000 0.000000
O O9 0.001266 0.250000 0.565869
O O10 0.979941 0.176413 0.773725
O O11 0.134716 0.121440 0.618828
O O12 0.624450 0.979556 0.322002
O O13 0.992647 0.750000 0.003802
O O14 0.234128 0.840494 0.090685
O O15 0.424559 0.375141 0.832900
O O16 0.526477 0.250000 0.819953
#
# Coordination Sequence:
#
# PCOD9158141 Si02
#       7
#     4   4   4   4   4   4   4
#     4   9  18  33  49  71  99 130 165 200 250 307
#     4  11  20  33  52  74 102 136 174 212 256 306
#     4   9  16  29  49  70  93 125 166 206 244 294
#     4  10  20  32  48  73 103 133 166 208 255 303
#     4   8  16  30  48  70  96 128 165 206 253 300
#     4  10  19  30  49  77 101 127 168 215 256 291
#     4   9  16  31  55  77  99 128 165 210 252 299
#
# _framework density 18.62331
#
# number of rings (size 3 to 8) (size 9 to 14) (size 15 to 20)
#    0.000    2.571    0.000    5.571    0.000    1.143 
#    0.000    2.857    0.000    0.000    0.000    8.000 
#    0.000    0.000    0.000    0.000    0.000    0.000 
#
# Total GULP energy -155997.898224 kJ/mol
# GULP energy per Si atom -5571.353508 kJ/mol
# Density = 1.858092 g / cm^3
# Si number density = 18.623310 Si / 1000 Ang^3
#
#
#
# Elastic Constant Matrix: (Units=GPa)
#
#
# Indices 1 2 3 4 5 6 
#
# 1 64.0397 21.7356 -3.2012 0.0000 -2.8172 0.0000
# 2 21.7356 59.0157 13.9946 0.0000 2.5443 0.0000
# 3 -3.2012 13.9946 26.0549 0.0000 0.9918 0.0000
# 4 0.0000 0.0000 0.0000 20.6073 0.0000 7.2528
# 5 -2.8172 2.5443 0.9918 0.0000 9.8870 0.0000
# 6 0.0000 0.0000 0.0000 7.2528 0.0000 32.8542
#
#
#
# Elastic Compliance Matrix: (Units=1/GPa)
#
#
# Indices 1 2 3 4 5 6 
#
# 1 0.019369 -0.009101 0.006996 0.000000 0.007159 0.000000
# 2 -0.009101 0.023851 -0.013649 0.000000 -0.007362 0.000000
# 3 0.006996 -0.013649 0.046539 0.000000 0.000837 0.000000
# 4 0.000000 0.000000 0.000000 0.052615 0.000000 -0.011615
# 5 0.007159 -0.007362 0.000837 0.000000 0.104993 0.000000
# 6 0.000000 0.000000 0.000000 -0.011615 0.000000 0.033002
#
#
# Mechanical properties :
#
#
# Convention : Reuss Voigt Hill
#
# Bulk Modulus (GPa) = 17.16730 23.79650 20.48190
# Shear Modulus (GPa) = 15.09240 20.44179 17.76709
#
# Velocity S-wave (km/s) = 2.84985 3.31667 3.09208
# Velocity P-wave (km/s) = 4.47962 5.24143 4.87543
#
# Compressibility (1/GPa) = 0.05825027
#
# Stress axis : x y z
#
# Youngs Moduli (GPa) = 51.62903 41.92780 21.48735
#
# Poissons Ratio (x) = 0.38159 -0.15032
# Poissons Ratio (y) = 0.46988 0.29327
# Poissons Ratio (z) = -0.36118 0.57225
#
# Static dielectric constant tensor:
#      x y z
#    x 1.684640 0.000000 0.006780 
#    y 0.000000 1.677570 0.000000 
#    z 0.006780 0.000000 1.610430 
# 
# From -- ./inp_files/23173.got.cif
#   From: 2010.05.17/outbox.cif.g08.bks.cpg/sg11_12_cif.got.tgz:23173.got - 2010.06.03 12:22:45.
