data_PCOD9159520
_publ_section_title
;
Structure prediction by ZEFSAII (Michael W. Deem and Ramdas Pophale) SiO2 
 PCOD9159520
Probable space group: P 21/M
;
_chemical_formula_sum "Si O2"
_cell_formula_units_Z 28
_cell_length_a 21.767833
_cell_length_b 8.434291
_cell_length_c 17.887227
_cell_angle_alpha 90.000000
_cell_angle_beta 152.524976
_cell_angle_gamma 90.000000
_cell_volume 1515.125237
_symmetry_space_group_name_H-M "P 21/M"
_symmetry_group_IT_number 11
_symmetry_cell_setting 'monoclinic'
loop_
_space_group_symop_operation_xyz
x,y,z
-x,1/2+y,-z
-x,-y,-z
x,1/2-y,z
loop_
_atom_site_type_symbol
_atom_site_label
_atom_site_fract_x
_atom_site_fract_y
_atom_site_fract_z
Si Si1 0.151149 0.438838 0.151497
Si Si2 0.363096 0.558636 0.817402
Si Si3 0.866282 0.441473 0.319022
Si Si4 0.724199 0.440968 0.021578
Si Si5 0.569133 0.441351 0.270194
Si Si6 0.321346 0.559146 0.195792
Si Si7 0.617684 0.440638 0.491328
O O1 0.146622 0.250000 0.145916
O O2 0.221578 0.498596 0.151387
O O3 0.254795 0.495329 0.327124
O O4 0.000000 0.500000 0.000000
O O5 0.362138 0.750000 0.816753
O O6 0.248782 0.502520 0.749185
O O7 0.352753 0.507182 0.719676
O O8 0.500000 0.500000 0.000000
O O9 0.865546 0.250000 0.316890
O O10 0.833817 0.496283 0.199542
O O11 0.000000 0.500000 0.500000
O O12 0.727099 0.250000 0.023029
O O13 0.580695 0.494062 0.897180
O O14 0.729281 0.494859 0.941057
O O15 0.563986 0.250000 0.265213
O O16 0.622265 0.490808 0.408924
O O17 0.324709 0.750000 0.201932
O O18 0.474513 0.499648 0.368470
O O19 0.617698 0.250000 0.495730
#
# Coordination Sequence:
#
# PCOD9159520 Si02
#       7
#     4   4   4   4   4   4   4
#     4  12  25  42  61  84 115 149 185 227 283 340
#     4  10  19  33  55  81 110 144 186 231 276 324
#     4  10  21  36  52  76 112 150 189 230 275 327
#     4   9  18  34  56  81 112 145 184 230 274 323
#     4   9  18  32  55  85 113 141 182 231 277 323
#     4  10  20  37  62  88 114 147 189 233 279 332
#     4  10  20  37  60  87 118 149 188 232 276 332
#
# _framework density 18.480319999999999
#
# number of rings (size 3 to 8) (size 9 to 14) (size 15 to 20)
#    0.000    2.000    1.429    2.571    0.000    2.286 
#    2.571    0.000    0.000    0.000    0.000    0.000 
#    0.000    0.000    0.000    0.000    0.000    0.000 
#
# Total GULP energy -156201.038502 kJ/mol
# GULP energy per Si atom -5578.608518 kJ/mol
# Density = 1.843826 g / cm^3
# Si number density = 18.480320 Si / 1000 Ang^3
#
#
#
# Elastic Constant Matrix: (Units=GPa)
#
#
# Indices 1 2 3 4 5 6 
#
# 1 122.4437 27.4843 88.1715 0.0000 -5.6613 0.0000
# 2 27.4843 40.9545 30.6912 0.0000 0.2408 0.0000
# 3 88.1715 30.6912 171.3834 0.0000 -6.0058 0.0000
# 4 0.0000 0.0000 0.0000 32.3666 0.0000 3.9554
# 5 -5.6613 0.2408 -6.0058 0.0000 27.6174 0.0000
# 6 0.0000 0.0000 0.0000 3.9554 0.0000 19.5040
#
#
#
# Elastic Compliance Matrix: (Units=1/GPa)
#
#
# Indices 1 2 3 4 5 6 
#
# 1 0.013718 -0.004580 -0.006185 0.000000 0.001507 0.000000
# 2 -0.004580 0.029782 -0.003042 0.000000 -0.001860 0.000000
# 3 -0.006185 -0.003042 0.009591 0.000000 0.000844 0.000000
# 4 0.000000 0.000000 0.000000 0.031681 0.000000 -0.006425
# 5 0.001507 -0.001860 0.000844 0.000000 0.036718 0.000000
# 6 0.000000 0.000000 0.000000 -0.006425 0.000000 0.052575
#
#
# Mechanical properties :
#
#
# Convention : Reuss Voigt Hill
#
# Bulk Modulus (GPa) = 39.25091 69.71952 54.48521
# Shear Modulus (GPa) = 23.79013 28.45992 26.12502
#
# Velocity S-wave (km/s) = 3.59182 3.92856 3.76396
# Velocity P-wave (km/s) = 6.20379 7.64110 6.95964
#
# Compressibility (1/GPa) = 0.02547712
#
# Stress axis : x y z
#
# Youngs Moduli (GPa) = 72.89494 33.57753 104.26432
#
# Poissons Ratio (x) = 0.15380 0.64483
# Poissons Ratio (y) = 0.33389 0.31717
# Poissons Ratio (z) = 0.45083 0.10214
#
# Static dielectric constant tensor:
#      x y z
#    x 1.652210 0.000000 -0.037170 
#    y 0.000000 1.621030 0.000000 
#    z -0.037170 0.000000 1.655780 
# 
# From -- ./inp_files/61306.got.cif
#   From: 2010.05.17/outbox.cif.g08.bks.cpg/sg11_31_cif.got.tgz:61306.got - 2010.06.03 12:22:45.
