data_PCOD9159550
_publ_section_title
;
Structure prediction by ZEFSAII (Michael W. Deem and Ramdas Pophale) SiO2 
 PCOD9159550
Probable space group: P 21/M
;
_chemical_formula_sum "Si O2"
_cell_formula_units_Z 28
_cell_length_a 5.012958
_cell_length_b 17.089879
_cell_length_c 16.715221
_cell_angle_alpha 90.000000
_cell_angle_beta 71.277775
_cell_angle_gamma 90.000000
_cell_volume 1356.233666
_symmetry_space_group_name_H-M "P 21/M"
_symmetry_group_IT_number 11
_symmetry_cell_setting 'monoclinic'
loop_
_space_group_symop_operation_xyz
x,y,z
-x,1/2+y,-z
-x,-y,-z
x,1/2-y,z
loop_
_atom_site_type_symbol
_atom_site_label
_atom_site_fract_x
_atom_site_fract_y
_atom_site_fract_z
Si Si1 0.218177 0.953696 0.693417
Si Si2 0.300578 0.663724 0.304335
Si Si3 0.243203 0.450966 0.933580
Si Si4 0.729025 0.837903 0.940468
Si Si5 0.167594 0.502742 0.401697
Si Si6 0.646328 0.107557 0.156747
Si Si7 0.919654 0.885529 0.208898
O O1 0.311758 0.891756 0.751811
O O2 0.505888 0.980049 0.622855
O O3 0.095487 0.025140 0.758443
O O4 0.983385 0.945107 0.647979
O O5 0.223142 0.750000 0.341325
O O6 0.169317 0.591335 0.366013
O O7 0.636287 0.654132 0.269871
O O8 0.186199 0.653278 0.224794
O O9 0.406393 0.517094 0.867061
O O10 0.107769 0.390885 0.883341
O O11 0.401991 0.401932 0.986255
O O12 0.000000 0.500000 0.000000
O O13 0.684889 0.750000 0.973129
O O14 0.600569 0.847287 0.864393
O O15 0.059410 0.858752 0.904974
O O16 0.000000 0.500000 0.500000
#
# Coordination Sequence:
#
# PCOD9159550 Si02
#       7
#     4   4   4   4   4   4   4
#     4   9  18  33  55  78 100 132 172 214 255 304
#     4  10  20  34  52  75 107 143 171 207 268 328
#     4   9  20  36  55  77 105 142 184 224 267 318
#     4  11  22  34  51  77 106 138 178 231 278 303
#     4  10  19  33  55  84 109 130 168 218 261 310
#     4  10  20  37  56  73 101 143 185 217 258 324
#     4   9  19  33  51  76 102 134 178 215 254 313
#
# _framework density 20.645406999999999
#
# number of rings (size 3 to 8) (size 9 to 14) (size 15 to 20)
#    0.000    2.286    0.000    2.571    0.000   10.286 
#    0.000    0.000    0.000    5.143    0.000    0.000 
#    0.000    0.000    0.000    0.000    0.000    0.000 
#
# Total GULP energy -156186.208811 kJ/mol
# GULP energy per Si atom -5578.078886 kJ/mol
# Density = 2.059842 g / cm^3
# Si number density = 20.645407 Si / 1000 Ang^3
#
#
#
# Elastic Constant Matrix: (Units=GPa)
#
#
# Indices 1 2 3 4 5 6 
#
# 1 82.3750 8.5902 -5.2413 0.0000 7.7094 0.0000
# 2 8.5902 66.4595 7.6925 0.0000 4.4232 0.0000
# 3 -5.2413 7.6925 60.2904 0.0000 2.7539 0.0000
# 4 0.0000 0.0000 0.0000 8.3124 0.0000 0.0606
# 5 7.7094 4.4232 2.7539 0.0000 23.6102 0.0000
# 6 0.0000 0.0000 0.0000 0.0606 0.0000 12.9201
#
#
#
# Elastic Compliance Matrix: (Units=1/GPa)
#
#
# Indices 1 2 3 4 5 6 
#
# 1 0.012776 -0.001554 0.001494 0.000000 -0.004055 0.000000
# 2 -0.001554 0.015628 -0.002029 0.000000 -0.002184 0.000000
# 3 0.001494 -0.002029 0.017071 0.000000 -0.002099 0.000000
# 4 0.000000 0.000000 0.000000 0.120306 0.000000 -0.000564
# 5 -0.004055 -0.002184 -0.002099 0.000000 0.044333 0.000000
# 6 0.000000 0.000000 0.000000 -0.000564 0.000000 0.077402
#
#
# Mechanical properties :
#
#
# Convention : Reuss Voigt Hill
#
# Bulk Modulus (GPa) = 24.21537 25.68973 24.95255
# Shear Modulus (GPa) = 16.36874 22.17410 19.27142
#
# Velocity S-wave (km/s) = 2.81882 3.28082 3.05855
# Velocity P-wave (km/s) = 4.72747 5.17900 4.95837
#
# Compressibility (1/GPa) = 0.04129609
#
# Stress axis : x y z
#
# Youngs Moduli (GPa) = 78.27004 63.98812 58.57854
#
# Poissons Ratio (x) = 0.09947 -0.08753
# Poissons Ratio (y) = 0.12167 0.11888
# Poissons Ratio (z) = -0.11695 0.12986
#
# Static dielectric constant tensor:
#      x y z
#    x 1.758800 0.000000 0.022110 
#    y 0.000000 1.783490 0.000000 
#    z 0.022110 0.000000 1.759430 
# 
# From -- ./inp_files/45896.got.cif
#   From: 2010.05.17/outbox.cif.g08.bks.cpg/sg11_23_cif.got.tgz:45896.got - 2010.06.03 12:22:45.
