data_PCOD9159721
_publ_section_title
;
Structure prediction by ZEFSAII (Michael W. Deem and Ramdas Pophale) SiO2 
 PCOD9159721
Probable space group: P 21/M
;
_chemical_formula_sum "Si O2"
_cell_formula_units_Z 20
_cell_length_a 15.513914
_cell_length_b 7.711315
_cell_length_c 29.637466
_cell_angle_alpha 90.000000
_cell_angle_beta 19.582150
_cell_angle_gamma 90.000000
_cell_volume 1188.339587
_symmetry_space_group_name_H-M "P 21/M"
_symmetry_group_IT_number 11
_symmetry_cell_setting 'monoclinic'
loop_
_space_group_symop_operation_xyz
x,y,z
-x,1/2+y,-z
-x,-y,-z
x,1/2-y,z
loop_
_atom_site_type_symbol
_atom_site_label
_atom_site_fract_x
_atom_site_fract_y
_atom_site_fract_z
Si Si1 0.707156 0.952781 0.589914
Si Si2 0.986760 0.250000 0.833950
Si Si3 0.487070 0.750000 0.865687
Si Si4 0.793776 0.056977 0.847003
Si Si5 0.461398 0.750000 0.392936
Si Si6 0.961466 0.750000 0.701811
Si Si7 0.678942 0.452619 0.707903
O O1 0.654928 0.750000 0.607583
O O2 0.015901 0.980686 0.433415
O O3 0.568468 0.081666 0.624163
O O4 0.639046 0.999988 0.675109
O O5 0.927727 0.088585 0.829404
O O6 0.270805 0.250000 0.713049
O O7 0.777676 0.250000 0.976606
O O8 0.523061 0.581372 0.816669
O O9 0.719163 0.750000 0.787376
O O10 0.792799 0.250000 0.826206
O O11 0.932721 0.918102 0.747551
O O12 0.500000 0.000000 0.000000
O O13 0.223099 0.750000 0.544945
O O14 0.622383 0.250000 0.743057
#
# Coordination Sequence:
#
# PCOD9159721 Si02
#       7
#     4   2   2   4   2   2   4
#     4  10  19  35  61  89 126 161 195 247 302 344
#     4  10  26  44  60  88 127 153 200 258 305 365
#     4  12  20  38  60  98 112 157 216 247 277 372
#     4  10  20  41  65  90 117 154 195 253 309 350
#     4  12  24  42  58  92 127 161 198 250 301 359
#     4  12  22  38  70  88 118 159 204 251 297 362
#     4  10  19  33  61  95 118 156 205 252 290 337
#
# _framework density 16.830206
#
# number of rings (size 3 to 8) (size 9 to 14) (size 15 to 20)
#    0.600    0.800    7.000    0.000    0.000    2.400 
#    3.600    1.000    0.000    0.000    0.000    0.000 
#    0.000    0.000    0.000    0.000    0.000    0.000 
#
# Total GULP energy -111579.006369 kJ/mol
# GULP energy per Si atom -5578.950318 kJ/mol
# Density = 1.679190 g / cm^3
# Si number density = 16.830206 Si / 1000 Ang^3
#
#
#
# Elastic Constant Matrix: (Units=GPa)
#
#
# Indices 1 2 3 4 5 6 
#
# 1 115.4861 63.1235 58.5129 0.0000 -8.2374 0.0000
# 2 63.1235 132.5043 42.3356 0.0000 6.5723 0.0000
# 3 58.5129 42.3356 87.4879 0.0000 0.6527 0.0000
# 4 0.0000 0.0000 0.0000 19.3291 0.0000 12.0638
# 5 -8.2374 6.5723 0.6527 0.0000 30.1026 0.0000
# 6 0.0000 0.0000 0.0000 12.0638 0.0000 41.4610
#
#
#
# Elastic Compliance Matrix: (Units=1/GPa)
#
#
# Indices 1 2 3 4 5 6 
#
# 1 0.016196 -0.005356 -0.008283 0.000000 0.005781 0.000000
# 2 -0.005356 0.010803 -0.001617 0.000000 -0.003789 0.000000
# 3 -0.008283 -0.001617 0.017770 0.000000 -0.002299 0.000000
# 4 0.000000 0.000000 0.000000 0.063215 0.000000 -0.018394
# 5 0.005781 -0.003789 -0.002299 0.000000 0.035679 0.000000
# 6 0.000000 0.000000 0.000000 -0.018394 0.000000 0.029471
#
#
# Mechanical properties :
#
#
# Convention : Reuss Voigt Hill
#
# Bulk Modulus (GPa) = 70.14681 73.71359 71.93020
# Shear Modulus (GPa) = 23.99254 29.61228 26.80241
#
# Velocity S-wave (km/s) = 3.77976 4.19916 3.99497
# Velocity P-wave (km/s) = 7.79861 8.21000 8.00695
#
# Compressibility (1/GPa) = 0.01425582
#
# Stress axis : x y z
#
# Youngs Moduli (GPa) = 61.74542 92.56706 56.27472
#
# Poissons Ratio (x) = 0.49575 0.46614
# Poissons Ratio (y) = 0.33068 0.09102
# Poissons Ratio (z) = 0.51146 0.14973
#
# Static dielectric constant tensor:
#      x y z
#    x 1.557370 0.000000 0.010590 
#    y 0.000000 1.569900 0.000000 
#    z 0.010590 0.000000 1.535400 
# 
# From -- ./inp_files/71502.got.cif
#   From: 2010.05.17/outbox.cif.g08.bks.cpg/sg11_36_cif.got.tgz:71502.got - 2010.06.03 12:22:45.
