data_PCOD9159758
_publ_section_title
;
Structure prediction by ZEFSAII (Michael W. Deem and Ramdas Pophale) SiO2 
 PCOD9159758
Probable space group: P 21/M
;
_chemical_formula_sum "Si O2"
_cell_formula_units_Z 32
_cell_length_a 22.552616
_cell_length_b 8.560594
_cell_length_c 27.573245
_cell_angle_alpha 90.000000
_cell_angle_beta 160.977831
_cell_angle_gamma 90.000000
_cell_volume 1735.075330
_symmetry_space_group_name_H-M "P 21/M"
_symmetry_group_IT_number 11
_symmetry_cell_setting 'monoclinic'
loop_
_space_group_symop_operation_xyz
x,y,z
-x,1/2+y,-z
-x,-y,-z
x,1/2-y,z
loop_
_atom_site_type_symbol
_atom_site_label
_atom_site_fract_x
_atom_site_fract_y
_atom_site_fract_z
Si Si1 0.960949 0.937624 0.023974
Si Si2 0.165477 0.934753 0.819482
Si Si3 0.221602 0.063297 0.755299
Si Si4 0.220623 0.937454 0.483848
Si Si5 0.417583 0.562795 0.285983
Si Si6 0.182787 0.939490 0.566643
Si Si7 0.474846 0.936262 0.870980
Si Si8 0.354107 0.561955 0.349005
O O1 0.952842 0.750000 0.017096
O O2 0.761580 0.003294 0.881132
O O3 0.142208 0.984634 0.193967
O O4 0.000000 0.000000 0.000000
O O5 0.163480 0.750000 0.810555
O O6 0.209689 0.018524 0.802427
O O7 0.966978 0.992909 0.681837
O O8 0.329610 0.983881 0.981159
O O9 0.242345 0.250000 0.766825
O O10 0.024074 0.012917 0.581618
O O11 0.380457 0.979536 0.848988
O O12 0.211211 0.750000 0.474743
O O13 0.225513 0.985803 0.544424
O O14 0.398696 0.996784 0.594580
O O15 0.418211 0.750000 0.285322
O O16 0.401238 0.513614 0.330052
O O17 0.182846 0.750000 0.567830
O O18 0.333668 0.993530 0.720981
O O19 0.495602 0.750000 0.883554
O O20 0.500000 0.500000 0.500000
O O21 0.359632 0.750000 0.354526
#
# Coordination Sequence:
#
# PCOD9159758 Si02
#       8
#     4   4   4   4   4   4   4   4
#     4   9  17  31  51  78 107 138 173 212 250 294
#     4  11  22  36  52  74 103 137 173 214 258 309
#     4  10  19  34  53  76 102 132 170 213 259 314
#     4  10  20  38  59  78  99 133 176 216 256 307
#     4  10  20  35  55  81 107 138 176 214 252 304
#     4   8  18  34  53  75 101 129 166 214 261 307
#     4  11  20  33  52  76 103 133 166 210 265 316
#     4   9  19  33  52  80 114 142 172 211 255 299
#
# _framework density 18.443002
#
# number of rings (size 3 to 8) (size 9 to 14) (size 15 to 20)
#    0.000    2.250    0.000    5.250    0.000    3.000 
#    0.000    8.125    0.000    1.500    0.000    0.000 
#    0.000    0.000    0.000    0.000    0.000    0.000 
#
# Total GULP energy -178527.327688 kJ/mol
# GULP energy per Si atom -5578.978990 kJ/mol
# Density = 1.840102 g / cm^3
# Si number density = 18.443002 Si / 1000 Ang^3
#
#
#
# Elastic Constant Matrix: (Units=GPa)
#
#
# Indices 1 2 3 4 5 6 
#
# 1 30.5783 7.1411 38.7384 0.0000 14.4844 0.0000
# 2 7.1411 40.3431 26.9132 0.0000 5.0108 0.0000
# 3 38.7384 26.9132 180.7084 0.0000 11.5412 0.0000
# 4 0.0000 0.0000 0.0000 33.2382 0.0000 4.9888
# 5 14.4844 5.0108 11.5412 0.0000 31.2708 0.0000
# 6 0.0000 0.0000 0.0000 4.9888 0.0000 20.6251
#
#
#
# Elastic Compliance Matrix: (Units=1/GPa)
#
#
# Indices 1 2 3 4 5 6 
#
# 1 0.056982 -0.000122 -0.010766 0.000000 -0.022400 0.000000
# 2 -0.000122 0.027793 -0.003925 0.000000 -0.002949 0.000000
# 3 -0.010766 -0.003925 0.008262 0.000000 0.002566 0.000000
# 4 0.000000 0.000000 0.000000 0.031219 0.000000 -0.007551
# 5 -0.022400 -0.002949 0.002566 0.000000 0.041880 0.000000
# 6 0.000000 0.000000 0.000000 -0.007551 0.000000 0.050311
#
#
# Mechanical properties :
#
#
# Convention : Reuss Voigt Hill
#
# Bulk Modulus (GPa) = 15.77003 44.13502 29.95253
# Shear Modulus (GPa) = 18.71183 28.94929 23.83056
#
# Velocity S-wave (km/s) = 3.18870 3.96619 3.59851
# Velocity P-wave (km/s) = 4.70386 6.70498 5.79150
#
# Compressibility (1/GPa) = 0.06341142
#
# Stress axis : x y z
#
# Youngs Moduli (GPa) = 17.54954 35.97968 121.03020
#
# Poissons Ratio (x) = 0.00438 1.30306
# Poissons Ratio (y) = 0.00214 0.47503
# Poissons Ratio (z) = 0.18894 0.14122
#
# Static dielectric constant tensor:
#      x y z
#    x 1.616300 0.000000 -0.017060 
#    y 0.000000 1.614270 0.000000 
#    z -0.017060 0.000000 1.672020 
# 
# From -- ./inp_files/72194.got.cif
#   From: 2010.05.17/outbox.cif.g08.bks.cpg/sg11_37_cif.got.tgz:72194.got - 2010.06.03 12:22:45.
