data_PCOD9159799
_publ_section_title
;
Structure prediction by ZEFSAII (Michael W. Deem and Ramdas Pophale) SiO2 
 PCOD9159799
Probable space group: P 21/M
;
_chemical_formula_sum "Si O2"
_cell_formula_units_Z 24
_cell_length_a 16.263441
_cell_length_b 17.529497
_cell_length_c 11.265037
_cell_angle_alpha 90.000000
_cell_angle_beta 157.428988
_cell_angle_gamma 90.000000
_cell_volume 1232.682928
_symmetry_space_group_name_H-M "P 21/M"
_symmetry_group_IT_number 11
_symmetry_cell_setting 'monoclinic'
loop_
_space_group_symop_operation_xyz
x,y,z
-x,1/2+y,-z
-x,-y,-z
x,1/2-y,z
loop_
_atom_site_type_symbol
_atom_site_label
_atom_site_fract_x
_atom_site_fract_y
_atom_site_fract_z
Si Si1 0.183190 0.162623 0.292658
Si Si2 0.538803 0.451509 0.203287
Si Si3 0.849546 0.012041 0.184188
Si Si4 0.775618 0.912343 0.409232
Si Si5 0.350561 0.424938 0.289202
Si Si6 0.684908 0.164058 0.591940
O O1 0.242171 0.250000 0.340900
O O2 0.266538 0.139676 0.533752
O O3 0.252254 0.103842 0.281525
O O4 0.925939 0.158729 0.959357
O O5 0.704907 0.501419 0.350668
O O6 0.657238 0.397172 0.451566
O O7 0.386123 0.510692 0.071883
O O8 0.380033 0.400450 0.910293
O O9 0.972529 0.082899 0.287674
O O10 0.000000 0.000000 0.500000
O O11 0.819899 0.948147 0.041089
O O12 0.500000 0.500000 0.500000
O O13 0.506691 0.359044 0.449794
O O14 0.648881 0.250000 0.501424
#
# Coordination Sequence:
#
# PCOD9159799 Si02
#       6
#     4   4   4   4   4   4
#     4  11  23  36  52  79 114 147 178 218 273 334
#     4   9  19  34  55  79 102 136 179 224 265 309
#     4   9  18  32  52  77 101 128 170 220 263 304
#     4  10  19  34  54  78 107 136 176 223 266 314
#     4  11  21  35  57  79 104 139 180 224 268 316
#     4  10  21  36  53  76 107 141 176 216 266 323
#
# _framework density 19.469726999999999
#
# number of rings (size 3 to 8) (size 9 to 14) (size 15 to 20)
#    0.000    2.000    0.000    4.500    0.000    2.667 
#    0.000    0.000    0.000    0.000    0.000   21.000 
#    0.000    0.000    0.000    0.000    0.000    0.000 
#
# Total GULP energy -133681.609269 kJ/mol
# GULP energy per Si atom -5570.067053 kJ/mol
# Density = 1.942541 g / cm^3
# Si number density = 19.469727 Si / 1000 Ang^3
#
#
#
# Elastic Constant Matrix: (Units=GPa)
#
#
# Indices 1 2 3 4 5 6 
#
# 1 74.1512 5.3258 17.0652 0.0000 -14.8334 0.0000
# 2 5.3258 46.1398 26.5593 0.0000 -4.0426 0.0000
# 3 17.0652 26.5593 69.0851 0.0000 -7.4528 0.0000
# 4 0.0000 0.0000 0.0000 19.6558 0.0000 3.8550
# 5 -14.8334 -4.0426 -7.4528 0.0000 23.9747 0.0000
# 6 0.0000 0.0000 0.0000 3.8550 0.0000 26.5687
#
#
#
# Elastic Compliance Matrix: (Units=1/GPa)
#
#
# Indices 1 2 3 4 5 6 
#
# 1 0.015987 0.000845 -0.003302 0.000000 0.009007 0.000000
# 2 0.000845 0.027923 -0.010739 0.000000 0.001893 0.000000
# 3 -0.003302 -0.010739 0.019663 0.000000 0.002259 0.000000
# 4 0.000000 0.000000 0.000000 0.052366 0.000000 -0.007598
# 5 0.009007 0.001893 0.002259 0.000000 0.048305 0.000000
# 6 0.000000 0.000000 0.000000 -0.007598 0.000000 0.038741
#
#
# Mechanical properties :
#
#
# Convention : Reuss Voigt Hill
#
# Bulk Modulus (GPa) = 26.89645 31.91964 29.40804
# Shear Modulus (GPa) = 20.68066 23.40156 22.04111
#
# Velocity S-wave (km/s) = 3.26267 3.47067 3.36828
# Velocity P-wave (km/s) = 5.29508 5.70007 5.50130
#
# Compressibility (1/GPa) = 0.03717963
#
# Stress axis : x y z
#
# Youngs Moduli (GPa) = 62.55053 35.81215 50.85714
#
# Poissons Ratio (x) = -0.03025 0.16793
# Poissons Ratio (y) = -0.05283 0.54618
# Poissons Ratio (z) = 0.20655 0.38460
#
# Static dielectric constant tensor:
#      x y z
#    x 1.726330 0.000000 -0.004520 
#    y 0.000000 1.659180 0.000000 
#    z -0.004520 0.000000 1.702670 
# 
# From -- ./inp_files/41920.got.cif
#   From: 2010.05.17/outbox.cif.g08.bks.cpg/sg11_21_cif.got.tgz:41920.got - 2010.06.03 12:22:45.
