data_PCOD9159457
_publ_section_title
;
Structure prediction by ZEFSAII (Michael W. Deem and Ramdas Pophale) SiO2 
 PCOD9159457
Probable space group: P 21/M
;
_chemical_formula_sum "Si O2"
_cell_formula_units_Z 28
_cell_length_a 25.467466
_cell_length_b 8.383773
_cell_length_c 20.144561
_cell_angle_alpha 90.000000
_cell_angle_beta 21.535170
_cell_angle_gamma 90.000000
_cell_volume 1578.827347
_symmetry_space_group_name_H-M "P 21/M"
_symmetry_group_IT_number 11
_symmetry_cell_setting 'monoclinic'
loop_
_space_group_symop_operation_xyz
x,y,z
-x,1/2+y,-z
-x,-y,-z
x,1/2-y,z
loop_
_atom_site_type_symbol
_atom_site_label
_atom_site_fract_x
_atom_site_fract_y
_atom_site_fract_z
Si Si1 0.370338 0.058168 0.070690
Si Si2 0.658686 0.058821 0.334671
Si Si3 0.322666 0.441520 0.277506
Si Si4 0.931531 0.444402 0.925567
Si Si5 0.136777 0.058865 0.796916
Si Si6 0.091046 0.058969 0.329893
Si Si7 0.022548 0.442288 0.676574
O O1 0.375723 0.250000 0.067087
O O2 0.322296 0.002018 0.200959
O O3 0.252710 0.010140 0.156257
O O4 0.526033 0.993642 0.872409
O O5 0.655316 0.250000 0.336928
O O6 0.500000 0.000000 0.500000
O O7 0.721572 0.007878 0.333261
O O8 0.786147 0.002720 0.134238
O O9 0.316183 0.250000 0.283127
O O10 0.186627 0.499377 0.478221
O O11 0.926155 0.250000 0.932994
O O12 0.944123 0.500347 0.835028
O O13 0.078406 0.487495 0.792313
O O14 0.146529 0.250000 0.787937
O O15 0.000000 0.000000 0.000000
O O16 0.081033 0.250000 0.339726
O O17 0.043914 0.990070 0.315346
O O18 0.000000 0.000000 0.500000
O O19 0.023382 0.250000 0.679258
#
# Coordination Sequence:
#
# PCOD9159457 Si02
#       7
#     4   4   4   4   4   4   4
#     4   9  18  32  47  68  95 122 159 207 250 295
#     4  10  19  33  54  82 108 140 178 215 261 311
#     4   9  17  30  49  71  92 122 160 202 251 298
#     4   8  17  33  54  76 103 136 172 212 258 311
#     4   9  16  30  52  78 104 136 173 211 253 305
#     4  11  21  34  51  74 101 134 174 217 262 312
#     4  10  19  35  54  75 102 132 171 218 261 310
#
# _framework density 17.734681999999999
#
# number of rings (size 3 to 8) (size 9 to 14) (size 15 to 20)
#    0.000    2.571    1.429    2.143    0.000    1.714 
#    0.000    5.714    0.000    6.857    0.000    0.000 
#    0.000    0.000    0.000    0.000    0.000    0.000 
#
# Total GULP energy -155894.718707 kJ/mol
# GULP energy per Si atom -5567.668525 kJ/mol
# Density = 1.769432 g / cm^3
# Si number density = 17.734682 Si / 1000 Ang^3
#
#
#
# Elastic Constant Matrix: (Units=GPa)
#
#
# Indices 1 2 3 4 5 6 
#
# 1 127.1035 15.8006 72.8006 0.0000 -8.8211 0.0000
# 2 15.8006 15.7615 17.7647 0.0000 -3.3306 0.0000
# 3 72.8006 17.7647 106.9657 0.0000 -15.6908 0.0000
# 4 0.0000 0.0000 0.0000 22.0783 0.0000 -8.1876
# 5 -8.8211 -3.3306 -15.6908 0.0000 30.5726 0.0000
# 6 0.0000 0.0000 0.0000 -8.1876 0.0000 26.2234
#
#
#
# Elastic Compliance Matrix: (Units=1/GPa)
#
#
# Indices 1 2 3 4 5 6 
#
# 1 0.013101 -0.003848 -0.008418 0.000000 -0.000960 0.000000
# 2 -0.003848 0.079301 -0.010216 0.000000 0.002286 0.000000
# 3 -0.008418 -0.010216 0.017579 0.000000 0.005480 0.000000
# 4 0.000000 0.000000 0.000000 0.051224 0.000000 0.015994
# 5 -0.000960 0.002286 0.005480 0.000000 0.035494 0.000000
# 6 0.000000 0.000000 0.000000 0.015994 0.000000 0.043128
#
#
# Mechanical properties :
#
#
# Convention : Reuss Voigt Hill
#
# Bulk Modulus (GPa) = 15.38082 51.39581 33.38832
# Shear Modulus (GPa) = 16.31521 25.33918 20.82720
#
# Velocity S-wave (km/s) = 3.03638 3.78404 3.43064
# Velocity P-wave (km/s) = 4.58087 6.93796 5.87876
#
# Compressibility (1/GPa) = 0.06501604
#
# Stress axis : x y z
#
# Youngs Moduli (GPa) = 76.32980 12.61024 56.88706
#
# Poissons Ratio (x) = 0.04853 0.47889
# Poissons Ratio (y) = 0.29373 0.58115
# Poissons Ratio (z) = 0.64256 0.12882
#
# Static dielectric constant tensor:
#      x y z
#    x 1.648030 0.000000 -0.000770 
#    y 0.000000 1.613070 0.000000 
#    z -0.000770 0.000000 1.608780 
# 
# From -- ./inp_files/66866.got.cif
#   From: 2010.05.17/outbox.cif.g08.bks.cpg/sg11_34_cif.got.tgz:66866.got - 2010.06.03 12:22:45.
