data_PCOD9159133
_publ_section_title
;
Structure prediction by ZEFSAII (Michael W. Deem and Ramdas Pophale) SiO2 
 PCOD9159133
Probable space group: P 21/M
;
_chemical_formula_sum "Si O2"
_cell_formula_units_Z 32
_cell_length_a 16.595912
_cell_length_b 8.955423
_cell_length_c 12.467160
_cell_angle_alpha 90.000000
_cell_angle_beta 91.182261
_cell_angle_gamma 90.000000
_cell_volume 1852.517409
_symmetry_space_group_name_H-M "P 21/M"
_symmetry_group_IT_number 11
_symmetry_cell_setting 'monoclinic'
loop_
_space_group_symop_operation_xyz
x,y,z
-x,1/2+y,-z
-x,-y,-z
x,1/2-y,z
loop_
_atom_site_type_symbol
_atom_site_label
_atom_site_fract_x
_atom_site_fract_y
_atom_site_fract_z
Si Si1 0.621380 0.428326 0.023114
Si Si2 0.041031 0.071160 0.897797
Si Si3 0.723887 0.429048 0.370479
Si Si4 0.214045 0.571243 0.866863
Si Si5 0.463623 0.929241 0.605939
Si Si6 0.018179 0.929150 0.336680
Si Si7 0.489594 0.572323 0.174102
Si Si8 0.129321 0.071882 0.509298
O O1 0.610708 0.250000 0.042823
O O2 0.714191 0.463345 0.048058
O O3 0.565308 0.514972 0.105911
O O4 0.587597 0.459752 0.903657
O O5 0.039996 0.250000 0.905132
O O6 0.994547 0.028322 0.786891
O O7 0.132223 0.014025 0.888529
O O8 0.000000 0.000000 0.000000
O O9 0.729601 0.250000 0.381407
O O10 0.752461 0.466994 0.250627
O O11 0.630900 0.471143 0.384846
O O12 0.785471 0.504553 0.454275
O O13 0.199404 0.750000 0.869043
O O14 0.468739 0.750000 0.602479
O O15 0.500000 0.000000 0.500000
O O16 0.508535 0.990251 0.712582
O O17 0.027574 0.750000 0.343986
O O18 0.936607 0.968441 0.400305
O O19 0.091890 0.006722 0.399333
O O20 0.494936 0.750000 0.189938
O O21 0.133964 0.250000 0.504043
#
# Coordination Sequence:
#
# PCOD9159133 Si02
#       8
#     4   4   4   4   4   4   4   4
#     4   9  18  34  55  83 115 146 186 231 278 331
#     4  11  23  39  57  82 114 148 186 228 276 333
#     4  10  20  35  57  82 112 147 185 227 277 331
#     4  10  19  35  58  83 111 147 188 230 275 326
#     4  11  23  40  58  81 114 151 190 230 280 339
#     4   9  19  35  53  78 112 146 180 222 276 329
#     4  10  19  32  55  84 114 149 187 229 279 329
#     4  10  19  32  55  85 112 138 181 232 274 322
#
# _framework density 17.273792
#
# number of rings (size 3 to 8) (size 9 to 14) (size 15 to 20)
#    0.000    2.000    2.500    1.500    0.000    3.500 
#    0.000    1.250    0.000    3.000    0.000    0.000 
#    0.000    0.000    0.000    0.000    0.000    0.000 
#
# Total GULP energy -178622.864719 kJ/mol
# GULP energy per Si atom -5581.964522 kJ/mol
# Density = 1.723448 g / cm^3
# Si number density = 17.273792 Si / 1000 Ang^3
#
#
#
# Elastic Constant Matrix: (Units=GPa)
#
#
# Indices 1 2 3 4 5 6 
#
# 1 109.4479 50.0755 84.3271 0.0000 14.4484 0.0000
# 2 50.0755 44.0661 62.7013 0.0000 6.2809 0.0000
# 3 84.3271 62.7013 159.7903 0.0000 13.6000 0.0000
# 4 0.0000 0.0000 0.0000 30.9918 0.0000 1.6064
# 5 14.4484 6.2809 13.6000 0.0000 30.9710 0.0000
# 6 0.0000 0.0000 0.0000 1.6064 0.0000 30.3734
#
#
#
# Elastic Compliance Matrix: (Units=1/GPa)
#
#
# Indices 1 2 3 4 5 6 
#
# 1 0.020523 -0.017696 -0.003509 0.000000 -0.004445 0.000000
# 2 -0.017696 0.066719 -0.017029 0.000000 0.002203 0.000000
# 3 -0.003509 -0.017029 0.014916 0.000000 -0.001460 0.000000
# 4 0.000000 0.000000 0.000000 0.032355 0.000000 -0.001711
# 5 -0.004445 0.002203 -0.001460 0.000000 0.034556 0.000000
# 6 0.000000 0.000000 0.000000 -0.001711 0.000000 0.033014
#
#
# Mechanical properties :
#
#
# Convention : Reuss Voigt Hill
#
# Bulk Modulus (GPa) = 38.92409 78.61245 58.76827
# Shear Modulus (GPa) = 17.41461 26.21396 21.81429
#
# Velocity S-wave (km/s) = 3.17859 3.89981 3.55752
# Velocity P-wave (km/s) = 6.00448 8.11705 7.13934
#
# Compressibility (1/GPa) = 0.02569103
#
# Stress axis : x y z
#
# Youngs Moduli (GPa) = 48.72486 14.98824 67.04121
#
# Poissons Ratio (x) = 0.26523 0.23523
# Poissons Ratio (y) = 0.86224 1.14164
# Poissons Ratio (z) = 0.17096 0.25523
#
# Static dielectric constant tensor:
#      x y z
#    x 1.566790 0.000000 0.016580 
#    y 0.000000 1.588330 0.000000 
#    z 0.016580 0.000000 1.577330 
# 
# From -- ./inp_files/38249.got.cif
#   From: 2010.05.17/outbox.cif.g08.bks.cpg/sg11_20_cif.got.tgz:38249.got - 2010.06.03 12:22:45.
