data_PCOD9159664
_publ_section_title
;
Structure prediction by ZEFSAII (Michael W. Deem and Ramdas Pophale) SiO2 
 PCOD9159664
Probable space group: P 21/M
;
_chemical_formula_sum "Si O2"
_cell_formula_units_Z 28
_cell_length_a 16.155814
_cell_length_b 11.600298
_cell_length_c 8.226253
_cell_angle_alpha 90.000000
_cell_angle_beta 110.056827
_cell_angle_gamma 90.000000
_cell_volume 1448.201024
_symmetry_space_group_name_H-M "P 21/M"
_symmetry_group_IT_number 11
_symmetry_cell_setting 'monoclinic'
loop_
_space_group_symop_operation_xyz
x,y,z
-x,1/2+y,-z
-x,-y,-z
x,1/2-y,z
loop_
_atom_site_type_symbol
_atom_site_label
_atom_site_fract_x
_atom_site_fract_y
_atom_site_fract_z
Si Si1 0.041711 0.882272 0.822361
Si Si2 0.737498 0.117367 0.520808
Si Si3 0.381099 0.049931 0.078535
Si Si4 0.597125 0.943889 0.557575
Si Si5 0.241844 0.616277 0.846130
Si Si6 0.938705 0.117740 0.772396
Si Si7 0.459823 0.130159 0.813593
O O1 0.008459 0.750000 0.759137
O O2 0.137616 0.893706 0.805502
O O3 0.053603 0.882911 0.026305
O O4 0.987806 0.000215 0.745887
O O5 0.710520 0.250000 0.521000
O O6 0.735286 0.090610 0.326674
O O7 0.837259 0.106576 0.650547
O O8 0.670530 0.040152 0.575522
O O9 0.468158 0.969569 0.139734
O O10 0.381916 0.111029 0.253662
O O11 0.296472 0.969512 0.996070
O O12 0.396119 0.120671 0.924958
O O13 0.593610 0.872922 0.389670
O O14 0.500000 0.000000 0.500000
O O15 0.264972 0.750000 0.893965
O O16 0.967414 0.250000 0.739569
O O17 0.510379 0.250000 0.860008
#
# Coordination Sequence:
#
# PCOD9159664 Si02
#       7
#     4   4   4   4   4   4   4
#     4   9  18  33  55  83 113 148 190 240 297 354
#     4  10  20  35  57  83 111 146 193 244 289 345
#     4  10  20  36  57  81 108 147 189 234 285 341
#     4  10  21  36  55  82 113 147 188 236 290 341
#     4  10  19  33  57  85 112 146 192 241 288 342
#     4   9  18  34  56  82 113 148 192 242 292 352
#     4  10  21  37  54  78 112 146 188 237 286 342
#
# _framework density 19.334332
#
# number of rings (size 3 to 8) (size 9 to 14) (size 15 to 20)
#    0.000    2.286    1.429    1.286    0.000    5.143 
#    0.000    1.429    0.000    3.429    0.000    0.000 
#    0.000    0.000    0.000    0.000    0.000    0.000 
#
# Total GULP energy -155908.406697 kJ/mol
# GULP energy per Si atom -5568.157382 kJ/mol
# Density = 1.929033 g / cm^3
# Si number density = 19.334332 Si / 1000 Ang^3
#
#
#
# Elastic Constant Matrix: (Units=GPa)
#
#
# Indices 1 2 3 4 5 6 
#
# 1 65.9596 43.4199 25.5511 0.0000 -7.8435 0.0000
# 2 43.4199 110.1416 46.9971 0.0000 -1.9367 0.0000
# 3 25.5511 46.9971 84.8450 0.0000 -10.6620 0.0000
# 4 0.0000 0.0000 0.0000 342.9805 0.0000 467.4792
# 5 -7.8435 -1.9367 -10.6620 0.0000 28.1766 0.0000
# 6 0.0000 0.0000 0.0000 467.4792 0.0000 624.1549
#
#
#
# Elastic Compliance Matrix: (Units=1/GPa)
#
#
# Indices 1 2 3 4 5 6 
#
# 1 0.021402 -0.007675 -0.001587 0.000000 0.004830 0.000000
# 2 -0.007675 0.014725 -0.006285 0.000000 -0.003503 0.000000
# 3 -0.001587 -0.006285 0.016417 0.000000 0.005338 0.000000
# 4 0.000000 0.000000 0.000000 -0.139824 0.000000 0.104725
# 5 0.004830 -0.003503 0.005338 0.000000 0.038614 0.000000
# 6 0.000000 0.000000 0.000000 0.104725 0.000000 -0.076835
#
#
# Mechanical properties :
#
#
# Convention : Reuss Voigt Hill
#
# Bulk Modulus (GPa) = 46.62211 54.76474 50.69343
# Shear Modulus (GPa) = -57.30296 208.72759 75.71232
#
# Velocity S-wave (km/s) = -5.44998 10.40151 6.26455
# Velocity P-wave (km/s) = 3.92900 13.13932 8.86580
#
# Compressibility (1/GPa) = 0.02144905
#
# Stress axis : x y z
#
# Youngs Moduli (GPa) = 46.72407 67.91059 60.91418
#
# Poissons Ratio (x) = 0.52122 0.09667
# Poissons Ratio (y) = 0.35861 0.38287
# Poissons Ratio (z) = 0.07415 0.42684
#
# Static dielectric constant tensor:
#      x y z
#    x 1.631640 0.000000 -0.035430 
#    y 0.000000 1.657010 0.000000 
#    z -0.035430 0.000000 1.705630 
# 
# From -- ./inp_files/21185.got.cif
#   From: 2010.05.17/outbox.cif.g08.bks.cpg/sg11_11_cif.got.tgz:21185.got - 2010.06.03 12:22:45.
