data_PCOD9159353
_publ_section_title
;
Structure prediction by ZEFSAII (Michael W. Deem and Ramdas Pophale) SiO2 
 PCOD9159353
Probable space group: P 21/M
;
_chemical_formula_sum "Si O2"
_cell_formula_units_Z 24
_cell_length_a 13.913418
_cell_length_b 13.558271
_cell_length_c 5.517111
_cell_angle_alpha 90.000000
_cell_angle_beta 66.638549
_cell_angle_gamma 90.000000
_cell_volume 955.438582
_symmetry_space_group_name_H-M "P 21/M"
_symmetry_group_IT_number 11
_symmetry_cell_setting 'monoclinic'
loop_
_space_group_symop_operation_xyz
x,y,z
-x,1/2+y,-z
-x,-y,-z
x,1/2-y,z
loop_
_atom_site_type_symbol
_atom_site_label
_atom_site_fract_x
_atom_site_fract_y
_atom_site_fract_z
Si Si1 0.834370 0.357474 0.665629
Si Si2 0.492819 0.368872 0.507186
Si Si3 0.731239 0.413869 0.268760
Si Si4 0.372566 0.132151 0.127438
Si Si5 0.905461 0.922918 0.094539
Si Si6 0.132423 0.418253 0.367577
O O1 0.887278 0.250000 0.612722
O O2 0.767970 0.362780 0.482405
O O3 0.893946 0.463419 0.606054
O O4 0.767969 0.362780 0.981653
O O5 0.507575 0.250000 0.492431
O O6 0.606958 0.416800 0.393042
O O7 0.433468 0.392025 0.818404
O O8 0.433465 0.392024 0.314674
O O9 0.796429 0.515970 0.203570
O O10 0.356437 0.250000 0.143566
O O11 0.258466 0.084380 0.241535
O O12 0.907083 0.869395 0.347318
O O13 0.907083 0.869395 0.838515
O O14 0.000000 0.000000 0.000000
#
# Coordination Sequence:
#
# PCOD9159353 Si02
#       6
#     4   4   4   4   4   4
#     4  10  19  33  53  78 110 146 181 227 287 337
#     4  10  19  33  55  83 117 155 189 232 287 339
#     4  10  20  34  56  84 112 151 189 229 285 346
#     4  10  21  37  58  83 116 157 197 236 284 344
#     4  10  21  39  61  83 112 152 191 237 298 345
#     4  10  21  38  60  85 111 151 193 237 287 347
#
# _framework density 25.119357000000001
#
# number of rings (size 3 to 8) (size 9 to 14) (size 15 to 20)
#    0.000    2.000    0.000    4.000    0.000    1.333 
#    0.000   20.000    0.000   26.000    0.000    0.000 
#    0.000    0.000    0.000    0.000    0.000    0.000 
#
# Total GULP energy -134265.048067 kJ/mol
# GULP energy per Si atom -5594.377003 kJ/mol
# Density = 2.506218 g / cm^3
# Si number density = 25.119357 Si / 1000 Ang^3
#
#
#
# Elastic Constant Matrix: (Units=GPa)
#
#
# Indices 1 2 3 4 5 6 
#
# 1 138.5937 27.3522 91.5501 0.0000 12.0115 0.0000
# 2 27.3522 126.7660 41.6548 0.0000 6.7991 0.0000
# 3 91.5501 41.6548 260.7822 0.0000 46.0796 0.0000
# 4 0.0000 0.0000 0.0000 -12.2087 0.0000 -9.3831
# 5 12.0115 6.7991 46.0796 0.0000 52.3538 0.0000
# 6 0.0000 0.0000 0.0000 -9.3831 0.0000 7.5251
#
#
#
# Elastic Compliance Matrix: (Units=1/GPa)
#
#
# Indices 1 2 3 4 5 6 
#
# 1 0.009549 -0.001008 -0.003348 0.000000 0.000887 0.000000
# 2 -0.001008 0.008432 -0.000995 0.000000 0.000012 0.000000
# 3 -0.003348 -0.000995 0.005933 0.000000 -0.004325 0.000000
# 4 0.000000 0.000000 0.000000 -0.041826 0.000000 -0.052153
# 5 0.000887 0.000012 -0.004325 0.000000 0.022702 0.000000
# 6 0.000000 0.000000 0.000000 -0.052153 0.000000 0.067859
#
#
# Mechanical properties :
#
#
# Convention : Reuss Voigt Hill
#
# Bulk Modulus (GPa) = 75.68664 94.13957 84.91311
# Shear Modulus (GPa) = 56.97667 33.90637 45.44152
#
# Velocity S-wave (km/s) = 4.76777 3.67796 4.25788
# Velocity P-wave (km/s) = 7.77850 7.45619 7.61905
#
# Compressibility (1/GPa) = 0.01321237
#
# Stress axis : x y z
#
# Youngs Moduli (GPa) = 104.72396 118.59041 168.54648
#
# Poissons Ratio (x) = 0.11952 0.56429
# Poissons Ratio (y) = 0.10554 0.16775
# Poissons Ratio (z) = 0.35061 0.11803
#
# Static dielectric constant tensor:
#      x y z
#    x 1.952530 0.000000 0.027970 
#    y 0.000000 2.006520 0.000000 
#    z 0.027970 0.000000 2.011350 
# 
# From -- ./inp_files/6575.got.cif
#   From: 2010.05.17/outbox.cif.g08.bks.cpg/sg11_4_cif.got.tgz:6575.got - 2010.06.03 12:22:45.
