data_PCOD9159722
_publ_section_title
;
Structure prediction by ZEFSAII (Michael W. Deem and Ramdas Pophale) SiO2 
 PCOD9159722
Probable space group: P 21/M
;
_chemical_formula_sum "Si O2"
_cell_formula_units_Z 26
_cell_length_a 7.217806
_cell_length_b 15.724344
_cell_length_c 16.343898
_cell_angle_alpha 90.000000
_cell_angle_beta 40.517793
_cell_angle_gamma 90.000000
_cell_volume 1205.134895
_symmetry_space_group_name_H-M "P 21/M"
_symmetry_group_IT_number 11
_symmetry_cell_setting 'monoclinic'
loop_
_space_group_symop_operation_xyz
x,y,z
-x,1/2+y,-z
-x,-y,-z
x,1/2-y,z
loop_
_atom_site_type_symbol
_atom_site_label
_atom_site_fract_x
_atom_site_fract_y
_atom_site_fract_z
Si Si1 0.057846 0.750000 0.612205
Si Si2 0.761282 0.351109 0.744088
Si Si3 0.717833 0.750000 0.882070
Si Si4 0.310606 0.091730 0.473933
Si Si5 0.602445 0.399322 0.556337
Si Si6 0.360222 0.750000 0.678749
Si Si7 0.666684 0.412664 0.949200
Si Si8 0.201722 0.151860 0.837334
O O1 0.125094 0.836538 0.541996
O O2 0.304346 0.750000 0.599527
O O3 0.781147 0.750000 0.762759
O O4 0.799344 0.250000 0.740299
O O5 0.810230 0.396445 0.813189
O O6 0.435940 0.367256 0.827192
O O7 0.986992 0.382914 0.602217
O O8 0.032701 0.750000 0.818860
O O9 0.546060 0.834039 0.963387
O O10 0.465336 0.092928 0.511627
O O11 0.465120 0.163355 0.366490
O O12 0.333744 0.995150 0.436260
O O13 0.382218 0.357119 0.692991
O O14 0.925043 0.406989 0.926670
O O15 0.500000 0.500000 0.000000
O O16 0.107071 0.250000 0.876630
#
# Coordination Sequence:
#
# PCOD9159722 Si02
#       8
#     2   4   2   4   4   2   4   4
#     4   8  18  31  54  86 121 152 190 245 302 376
#     4  11  23  41  66  94 124 163 213 265 313 373
#     4  10  22  38  56  92 120 164 210 252 306 368
#     4  10  19  33  62  93 122 154 199 250 313 373
#     4  10  19  33  62  93 122 154 199 250 313 373
#     4   8  18  31  54  86 121 152 190 245 302 376
#     4  12  26  41  68  88 120 173 219 259 311 360
#     4  11  23  41  66  94 124 163 213 265 313 373
#
# _framework density 21.574349000000002
#
# number of rings (size 3 to 8) (size 9 to 14) (size 15 to 20)
#    0.462    1.231    4.615    0.000    4.308    1.231 
#    0.000    0.000    0.000    1.846    0.000    0.000 
#    0.000    0.000    0.000    0.000    0.000    0.000 
#
# Total GULP energy -145131.806752 kJ/mol
# GULP energy per Si atom -5581.992567 kJ/mol
# Density = 2.152525 g / cm^3
# Si number density = 21.574349 Si / 1000 Ang^3
#
#
#
# Elastic Constant Matrix: (Units=GPa)
#
#
# Indices 1 2 3 4 5 6 
#
# 1 40.2563 -9.2961 -15.5010 0.0000 -9.3650 0.0000
# 2 -9.2961 67.7061 -12.5128 0.0000 -7.2290 0.0000
# 3 -15.5010 -12.5128 45.7648 0.0000 -9.2589 0.0000
# 4 0.0000 0.0000 0.0000 0.5468 0.0000 4.3096
# 5 -9.3650 -7.2290 -9.2589 0.0000 27.5402 0.0000
# 6 0.0000 0.0000 0.0000 4.3096 0.0000 6.6856
#
#
#
# Elastic Compliance Matrix: (Units=1/GPa)
#
#
# Indices 1 2 3 4 5 6 
#
# 1 0.042743 0.012905 0.023210 0.000000 0.025725 0.000000
# 2 0.012905 0.020405 0.012792 0.000000 0.014045 0.000000
# 3 0.023210 0.012792 0.038076 0.000000 0.024051 0.000000
# 4 0.000000 0.000000 0.000000 -0.448179 0.000000 0.288901
# 5 0.025725 0.014045 0.024051 0.000000 0.056831 0.000000
# 6 0.000000 0.000000 0.000000 0.288901 0.000000 -0.036653
#
#
# Mechanical properties :
#
#
# Convention : Reuss Voigt Hill
#
# Bulk Modulus (GPa) = 5.02417 8.78971 6.90694
# Shear Modulus (GPa) = -13.95691 19.69033 2.86671
#
# Velocity S-wave (km/s) = -2.54622 3.02433 1.15397
# Velocity P-wave (km/s) = 2.51207 4.03465 2.23247
#
# Compressibility (1/GPa) = 0.19903780
#
# Stress axis : x y z
#
# Youngs Moduli (GPa) = 23.39574 49.00715 26.26336
#
# Poissons Ratio (x) = -0.63243 -0.60958
# Poissons Ratio (y) = -0.30192 -0.33595
# Poissons Ratio (z) = -0.54303 -0.62688
#
# Static dielectric constant tensor:
#      x y z
#    x 1.926590 0.000000 -0.065210 
#    y 0.000000 1.846780 0.000000 
#    z -0.065210 0.000000 1.769560 
# 
# From -- ./inp_files/63784.got.cif
#   From: 2010.05.17/outbox.cif.g08.bks.cpg/sg11_32_cif.got.tgz:63784.got - 2010.06.03 12:22:45.
