data_PCOD9159500
_publ_section_title
;
Structure prediction by ZEFSAII (Michael W. Deem and Ramdas Pophale) SiO2 
 PCOD9159500
Probable space group: P 21/M
;
_chemical_formula_sum "Si O2"
_cell_formula_units_Z 32
_cell_length_a 12.811450
_cell_length_b 8.796967
_cell_length_c 23.791469
_cell_angle_alpha 90.000000
_cell_angle_beta 43.293382
_cell_angle_gamma 90.000000
_cell_volume 1838.689397
_symmetry_space_group_name_H-M "P 21/M"
_symmetry_group_IT_number 11
_symmetry_cell_setting 'monoclinic'
loop_
_space_group_symop_operation_xyz
x,y,z
-x,1/2+y,-z
-x,-y,-z
x,1/2-y,z
loop_
_atom_site_type_symbol
_atom_site_label
_atom_site_fract_x
_atom_site_fract_y
_atom_site_fract_z
Si Si1 0.959984 0.569627 0.776593
Si Si2 0.338883 0.431899 0.826716
Si Si3 0.187107 0.931313 0.992283
Si Si4 0.860786 0.567489 0.519144
Si Si5 0.330657 0.432627 0.304029
Si Si6 0.651753 0.931569 0.966587
Si Si7 0.950569 0.067480 0.656982
Si Si8 0.882559 0.567626 0.180807
O O1 0.974282 0.750000 0.764488
O O2 0.795276 0.537702 0.869433
O O3 0.967731 0.491402 0.713215
O O4 0.083025 0.509930 0.773371
O O5 0.349127 0.250000 0.824607
O O6 0.222820 0.487588 0.920038
O O7 0.503073 0.503704 0.773603
O O8 0.268825 0.476498 0.793658
O O9 0.195548 0.750000 0.982121
O O10 0.024671 0.969777 0.083884
O O11 0.310048 0.989099 0.989434
O O12 0.867001 0.750000 0.518584
O O13 0.715089 0.523396 0.613547
O O14 0.000000 0.500000 0.500000
O O15 0.902576 0.523414 0.439108
O O16 0.329877 0.250000 0.299335
O O17 0.199857 0.498583 0.314229
O O18 0.639395 0.750000 0.978836
O O19 0.500000 0.000000 0.000000
O O20 0.936527 0.250000 0.662178
O O21 0.883511 0.750000 0.188106
#
# Coordination Sequence:
#
# PCOD9159500 Si02
#       8
#     4   4   4   4   4   4   4   4
#     4  10  21  35  53  77 103 134 174 215 257 306
#     4  11  22  35  53  78 106 136 173 217 262 310
#     4  10  20  35  54  75  99 133 176 218 261 306
#     4   8  16  31  51  75 103 136 169 206 252 305
#     4  10  20  34  52  78 110 138 170 211 258 308
#     4  10  21  35  50  70 102 139 173 211 257 306
#     4  10  19  33  55  80 107 138 172 209 255 311
#     4   9  20  38  56  74 100 136 178 219 260 305
#
# _framework density 17.403701000000002
#
# number of rings (size 3 to 8) (size 9 to 14) (size 15 to 20)
#    0.000    2.250    0.000    2.625    1.750    4.000 
#    0.000    0.000    0.000    0.750    0.000    0.000 
#    0.000    0.000    0.000    0.000    0.000    0.000 
#
# Total GULP energy -178454.556950 kJ/mol
# GULP energy per Si atom -5576.704905 kJ/mol
# Density = 1.736409 g / cm^3
# Si number density = 17.403701 Si / 1000 Ang^3
#
#
#
# Elastic Constant Matrix: (Units=GPa)
#
#
# Indices 1 2 3 4 5 6 
#
# 1 81.9629 24.7724 34.5999 0.0000 25.4909 0.0000
# 2 24.7724 38.8835 33.5981 0.0000 14.6174 0.0000
# 3 34.5999 33.5981 69.8601 0.0000 26.5411 0.0000
# 4 0.0000 0.0000 0.0000 21.5317 0.0000 8.4158
# 5 25.4909 14.6174 26.5411 0.0000 23.6701 0.0000
# 6 0.0000 0.0000 0.0000 8.4158 0.0000 22.5149
#
#
#
# Elastic Compliance Matrix: (Units=1/GPa)
#
#
# Indices 1 2 3 4 5 6 
#
# 1 0.019321 -0.005544 -0.000520 0.000000 -0.016800 0.000000
# 2 -0.005544 0.046090 -0.018946 0.000000 -0.001248 0.000000
# 3 -0.000520 -0.018946 0.033146 0.000000 -0.024906 0.000000
# 4 0.000000 0.000000 0.000000 0.054389 0.000000 -0.020330
# 5 -0.016800 -0.001248 -0.024906 0.000000 0.089037 0.000000
# 6 0.000000 0.000000 0.000000 -0.020330 0.000000 0.052014
#
#
# Mechanical properties :
#
#
# Convention : Reuss Voigt Hill
#
# Bulk Modulus (GPa) = 20.60331 41.84970 31.22650
# Shear Modulus (GPa) = 13.88127 20.05907 16.97017
#
# Velocity S-wave (km/s) = 2.82725 3.39864 3.12603
# Velocity P-wave (km/s) = 4.74573 6.28488 5.56874
#
# Compressibility (1/GPa) = 0.04853590
#
# Stress axis : x y z
#
# Youngs Moduli (GPa) = 51.75789 21.69663 30.16943
#
# Poissons Ratio (x) = 0.12029 0.01569
# Poissons Ratio (y) = 0.28695 0.57160
# Poissons Ratio (z) = 0.02692 0.41107
#
# Static dielectric constant tensor:
#      x y z
#    x 1.574510 0.000000 0.008940 
#    y 0.000000 1.577360 0.000000 
#    z 0.008940 0.000000 1.614080 
# 
# From -- ./inp_files/54355.got.cif
#   From: 2010.05.17/outbox.cif.g08.bks.cpg/sg11_28_cif.got.tgz:54355.got - 2010.06.03 12:22:45.
