data_PCOD9159072
_publ_section_title
;
Structure prediction by ZEFSAII (Michael W. Deem and Ramdas Pophale) SiO2 
 PCOD9159072
Probable space group: P 21/M
;
_chemical_formula_sum "Si O2"
_cell_formula_units_Z 28
_cell_length_a 13.764718
_cell_length_b 9.274697
_cell_length_c 13.316446
_cell_angle_alpha 90.000000
_cell_angle_beta 62.281007
_cell_angle_gamma 90.000000
_cell_volume 1504.929511
_symmetry_space_group_name_H-M "P 21/M"
_symmetry_group_IT_number 11
_symmetry_cell_setting 'monoclinic'
loop_
_space_group_symop_operation_xyz
x,y,z
-x,1/2+y,-z
-x,-y,-z
x,1/2-y,z
loop_
_atom_site_type_symbol
_atom_site_label
_atom_site_fract_x
_atom_site_fract_y
_atom_site_fract_z
Si Si1 0.887740 0.584967 0.572847
Si Si2 0.574141 0.418966 0.884225
Si Si3 0.241541 0.579143 0.054014
Si Si4 0.187014 0.920016 0.568253
Si Si5 0.399993 0.578186 0.603859
Si Si6 0.949669 0.584252 0.768278
Si Si7 0.399236 0.423970 0.816819
O O1 0.896448 0.750000 0.535224
O O2 0.802452 0.504753 0.541772
O O3 0.882746 0.586204 0.695126
O O4 0.000000 0.500000 0.500000
O O5 0.552142 0.250000 0.904921
O O6 0.695754 0.439711 0.868496
O O7 0.522113 0.457522 0.801738
O O8 0.500000 0.500000 0.000000
O O9 0.242557 0.750000 0.030273
O O10 0.119533 0.516695 0.125010
O O11 0.311946 0.490111 0.938277
O O12 0.174286 0.750000 0.550940
O O13 0.290817 0.939799 0.589326
O O14 0.073703 0.962456 0.680041
O O15 0.500000 0.500000 0.500000
O O16 0.419807 0.750000 0.605223
O O17 0.384733 0.502356 0.718350
O O18 0.954412 0.750000 0.802593
O O19 0.387268 0.250000 0.814560
#
# Coordination Sequence:
#
# PCOD9159072 Si02
#       7
#     4   4   4   4   4   4   4
#     4   9  17  30  51  78 109 143 180 221 268 319
#     4   8  16  30  49  74 105 138 172 210 257 309
#     4  10  19  32  53  83 114 145 179 218 266 323
#     4   9  20  38  57  77 108 146 185 231 277 321
#     4  11  24  42  61  81 105 138 182 231 279 329
#     4   9  18  33  52  79 112 145 178 217 267 322
#     4  10  20  37  58  80 109 145 182 224 271 321
#
# _framework density 18.605523000000002
#
# number of rings (size 3 to 8) (size 9 to 14) (size 15 to 20)
#    0.000    2.571    0.000    2.571    0.000    6.286 
#    0.000    5.000    0.000    0.000    0.000    0.000 
#    0.000    0.000    0.000    0.000    0.000    0.000 
#
# Total GULP energy -155911.791998 kJ/mol
# GULP energy per Si atom -5568.278286 kJ/mol
# Density = 1.856318 g / cm^3
# Si number density = 18.605523 Si / 1000 Ang^3
#
#
#
# Elastic Constant Matrix: (Units=GPa)
#
#
# Indices 1 2 3 4 5 6 
#
# 1 84.0094 57.6883 40.8073 0.0000 -0.2120 0.0000
# 2 57.6883 89.5063 50.5777 0.0000 -1.6975 0.0000
# 3 40.8073 50.5777 59.0235 0.0000 3.8612 0.0000
# 4 0.0000 0.0000 0.0000 29.9570 0.0000 3.2695
# 5 -0.2120 -1.6975 3.8612 0.0000 27.7436 0.0000
# 6 0.0000 0.0000 0.0000 3.2695 0.0000 25.3849
#
#
#
# Elastic Compliance Matrix: (Units=1/GPa)
#
#
# Indices 1 2 3 4 5 6 
#
# 1 0.022417 -0.010995 -0.006100 0.000000 0.000348 0.000000
# 2 -0.010995 0.027490 -0.016207 0.000000 0.003854 0.000000
# 3 -0.006100 -0.016207 0.035438 0.000000 -0.005970 0.000000
# 4 0.000000 0.000000 0.000000 0.033857 0.000000 -0.004361
# 5 0.000348 0.003854 -0.005970 0.000000 0.037114 0.000000
# 6 0.000000 0.000000 0.000000 -0.004361 0.000000 0.039955
#
#
# Mechanical properties :
#
#
# Convention : Reuss Voigt Hill
#
# Bulk Modulus (GPa) = 53.35590 58.96508 56.16049
# Shear Modulus (GPa) = 18.57894 22.18150 20.38022
#
# Velocity S-wave (km/s) = 3.16345 3.45657 3.31325
# Velocity P-wave (km/s) = 6.48713 6.90591 6.69979
#
# Compressibility (1/GPa) = 0.01874207
#
# Stress axis : x y z
#
# Youngs Moduli (GPa) = 44.60821 36.37698 28.21827
#
# Poissons Ratio (x) = 0.39996 0.17213
# Poissons Ratio (y) = 0.49046 0.45733
# Poissons Ratio (z) = 0.27211 0.58956
#
# Static dielectric constant tensor:
#      x y z
#    x 1.673780 0.000000 0.008820 
#    y 0.000000 1.627560 0.000000 
#    z 0.008820 0.000000 1.635450 
# 
# From -- ./inp_files/37448.got.cif
#   From: 2010.05.17/outbox.cif.g08.bks.cpg/sg11_19_cif.got.tgz:37448.got - 2010.06.03 12:22:45.
