data_PCOD9159883
_publ_section_title
;
Structure prediction by ZEFSAII (Michael W. Deem and Ramdas Pophale) SiO2 
 PCOD9159883
Probable space group: P 21/M
;
_chemical_formula_sum "Si O2"
_cell_formula_units_Z 32
_cell_length_a 5.678342
_cell_length_b 29.673980
_cell_length_c 9.466231
_cell_angle_alpha 90.000000
_cell_angle_beta 86.961258
_cell_angle_gamma 90.000000
_cell_volume 1592.807751
_symmetry_space_group_name_H-M "P 21/M"
_symmetry_group_IT_number 11
_symmetry_cell_setting 'monoclinic'
loop_
_space_group_symop_operation_xyz
x,y,z
-x,1/2+y,-z
-x,-y,-z
x,1/2-y,z
loop_
_atom_site_type_symbol
_atom_site_label
_atom_site_fract_x
_atom_site_fract_y
_atom_site_fract_z
Si Si1 0.931625 0.838455 0.295840
Si Si2 0.503371 0.833925 0.947662
Si Si3 0.563505 0.303556 0.727088
Si Si4 0.003261 0.059790 0.654235
Si Si5 0.706777 0.475905 0.405850
Si Si6 0.789690 0.015456 0.906978
Si Si7 0.515483 0.564811 0.847093
Si Si8 0.997917 0.697514 0.979276
O O1 0.685677 0.813782 0.341993
O O2 0.186744 0.820867 0.344008
O O3 0.898865 0.890281 0.339891
O O4 0.963497 0.830958 0.125264
O O5 0.549874 0.884680 0.896015
O O6 0.749137 0.808359 0.905849
O O7 0.245688 0.817440 0.900641
O O8 0.467522 0.826917 0.117828
O O9 0.581039 0.250000 0.747808
O O10 0.883640 0.047496 0.509849
O O11 0.824343 0.053707 0.788603
O O12 0.182753 0.018922 0.677315
O O13 0.500000 0.500000 0.500000
O O14 0.622044 0.439836 0.294754
O O15 0.733052 0.969460 0.823262
O O16 0.613589 0.038994 0.021739
O O17 0.000000 0.000000 0.000000
O O18 0.020684 0.750000 0.018327
#
# Coordination Sequence:
#
# PCOD9159883 Si02
#       8
#     4   4   4   4   4   4   4   4
#     4  10  20  31  58  84 117 150 204 247 293 372
#     4  10  20  31  54  83 118 153 195 242 293 378
#     4  10  19  34  55  89 127 154 183 250 331 379
#     4  11  24  39  62  86 115 172 211 260 306 365
#     4  11  24  44  58  79 124 174 215 251 302 368
#     4  11  22  36  58  85 122 150 204 260 321 352
#     4  11  24  36  59  88 119 165 203 260 308 362
#     4  10  19  35  56  89 127 156 185 248 330 381
#
# _framework density 20.090309000000001
#
# number of rings (size 3 to 8) (size 9 to 14) (size 15 to 20)
#    0.000    1.500    2.500    5.250    7.000    0.000 
#    0.000    0.000    0.000    0.000    0.000    9.625 
#    0.000    0.000    0.000    0.000    0.000    0.000 
#
# Total GULP energy -178192.640055 kJ/mol
# GULP energy per Si atom -5568.520002 kJ/mol
# Density = 2.004458 g / cm^3
# Si number density = 20.090309 Si / 1000 Ang^3
#
#
#
# Elastic Constant Matrix: (Units=GPa)
#
#
# Indices 1 2 3 4 5 6 
#
# 1 120.8939 19.8305 -5.8821 0.0000 3.5282 0.0000
# 2 19.8305 109.6703 11.6909 0.0000 10.8874 0.0000
# 3 -5.8821 11.6909 34.2292 0.0000 2.7731 0.0000
# 4 0.0000 0.0000 0.0000 24.3263 0.0000 8.2568
# 5 3.5282 10.8874 2.7731 0.0000 16.1169 0.0000
# 6 0.0000 0.0000 0.0000 8.2568 0.0000 30.9319
#
#
#
# Elastic Compliance Matrix: (Units=1/GPa)
#
#
# Indices 1 2 3 4 5 6 
#
# 1 0.008687 -0.001689 0.002161 0.000000 -0.001133 0.000000
# 2 -0.001689 0.010383 -0.003345 0.000000 -0.006069 0.000000
# 3 0.002161 -0.003345 0.031016 0.000000 -0.003550 0.000000
# 4 0.000000 0.000000 0.000000 0.045203 0.000000 -0.012066
# 5 -0.001133 -0.006069 -0.003550 0.000000 0.067005 0.000000
# 6 0.000000 0.000000 0.000000 -0.012066 0.000000 0.035550
#
#
# Mechanical properties :
#
#
# Convention : Reuss Voigt Hill
#
# Bulk Modulus (GPa) = 22.55211 35.11909 28.83560
# Shear Modulus (GPa) = 22.89705 30.21863 26.55784
#
# Velocity S-wave (km/s) = 3.37962 3.88253 3.63977
# Velocity P-wave (km/s) = 5.14576 6.13329 5.66110
#
# Compressibility (1/GPa) = 0.04434174
#
# Stress axis : x y z
#
# Youngs Moduli (GPa) = 115.11536 96.31514 32.24115
#
# Poissons Ratio (x) = 0.16265 -0.06968
# Poissons Ratio (y) = 0.19440 0.10784
# Poissons Ratio (z) = -0.24881 0.32214
#
# Static dielectric constant tensor:
#      x y z
#    x 2.013600 0.000000 -0.042400 
#    y 0.000000 1.706620 0.000000 
#    z -0.042400 0.000000 1.639910 
# 
# From -- ./inp_files/10859.got.cif
#   From: 2010.05.17/outbox.cif.g08.bks.cpg/sg11_6_cif.got.tgz:10859.got - 2010.06.03 12:22:45.
