data_PCOD9159285
_publ_section_title
;
Structure prediction by ZEFSAII (Michael W. Deem and Ramdas Pophale) SiO2 
 PCOD9159285
Probable space group: P 21/M
;
_chemical_formula_sum "Si O2"
_cell_formula_units_Z 32
_cell_length_a 12.645832
_cell_length_b 8.420644
_cell_length_c 20.865675
_cell_angle_alpha 90.000000
_cell_angle_beta 53.714662
_cell_angle_gamma 90.000000
_cell_volume 1791.031260
_symmetry_space_group_name_H-M "P 21/M"
_symmetry_group_IT_number 11
_symmetry_cell_setting 'monoclinic'
loop_
_space_group_symop_operation_xyz
x,y,z
-x,1/2+y,-z
-x,-y,-z
x,1/2-y,z
loop_
_atom_site_type_symbol
_atom_site_label
_atom_site_fract_x
_atom_site_fract_y
_atom_site_fract_z
Si Si1 0.358427 0.439738 0.027425
Si Si2 0.388212 0.939914 0.877201
Si Si3 0.325032 0.059567 0.763945
Si Si4 0.357073 0.442140 0.529378
Si Si5 0.851612 0.558172 0.289398
Si Si6 0.314540 0.443202 0.264364
Si Si7 0.613958 0.557952 0.623670
Si Si8 0.856020 0.557903 0.791897
O O1 0.361031 0.250000 0.028998
O O2 0.244976 0.495471 0.116513
O O3 0.500000 0.500000 0.000000
O O4 0.336517 0.494236 0.962580
O O5 0.386473 0.750000 0.879801
O O6 0.541098 0.990036 0.813329
O O7 0.313948 0.997180 0.840253
O O8 0.328615 0.250000 0.763800
O O9 0.211922 0.007336 0.755486
O O10 0.464443 0.998661 0.686784
O O11 0.500000 0.500000 0.500000
O O12 0.358179 0.250000 0.530089
O O13 0.246146 0.496326 0.618840
O O14 0.334842 0.494609 0.463917
O O15 0.852027 0.750000 0.289914
O O16 0.997941 0.499407 0.247746
O O17 0.312599 0.250000 0.264906
O O18 0.307972 0.495404 0.340756
O O19 0.203769 0.497247 0.254804
O O20 0.612694 0.750000 0.624646
O O21 0.855748 0.750000 0.791744
#
# Coordination Sequence:
#
# PCOD9159285 Si02
#       8
#     4   4   4   4   4   4   4   4
#     4  11  21  35  56  84 112 141 181 230 275 319
#     4  10  19  34  56  82 110 139 178 225 272 326
#     4  10  19  33  52  78 111 141 175 225 275 319
#     4  10  19  33  53  80 109 140 181 227 271 321
#     4  10  22  37  52  76 113 147 180 226 274 322
#     4   8  15  31  51  76 106 136 172 217 263 311
#     4   9  17  30  54  80 105 139 178 221 272 324
#     4  10  21  37  55  76 108 145 183 221 265 327
#
# _framework density 17.866802
#
# number of rings (size 3 to 8) (size 9 to 14) (size 15 to 20)
#    0.000    2.250    2.500    1.875    0.000    2.500 
#    0.000    1.875    0.000    0.000    0.000    0.000 
#    0.000    0.000    0.000    0.000    0.000    0.000 
#
# Total GULP energy -178498.556985 kJ/mol
# GULP energy per Si atom -5578.079906 kJ/mol
# Density = 1.782614 g / cm^3
# Si number density = 17.866802 Si / 1000 Ang^3
#
#
#
# Elastic Constant Matrix: (Units=GPa)
#
#
# Indices 1 2 3 4 5 6 
#
# 1 181.0407 21.3727 100.9480 0.0000 18.8428 0.0000
# 2 21.3727 15.1367 21.4503 0.0000 5.9640 0.0000
# 3 100.9480 21.4503 131.1155 0.0000 15.1725 0.0000
# 4 0.0000 0.0000 0.0000 20.9314 0.0000 -0.1743
# 5 18.8428 5.9640 15.1725 0.0000 31.3711 0.0000
# 6 0.0000 0.0000 0.0000 -0.1743 0.0000 26.8587
#
#
#
# Elastic Compliance Matrix: (Units=1/GPa)
#
#
# Indices 1 2 3 4 5 6 
#
# 1 0.009985 -0.003574 -0.006872 0.000000 -0.001994 0.000000
# 2 -0.003574 0.090421 -0.010911 0.000000 -0.009766 0.000000
# 3 -0.006872 -0.010911 0.014814 0.000000 -0.000963 0.000000
# 4 0.000000 0.000000 0.000000 0.047778 0.000000 0.000310
# 5 -0.001994 -0.009766 -0.000963 0.000000 0.035397 0.000000
# 6 0.000000 0.000000 0.000000 0.000310 0.000000 0.037234
#
#
# Mechanical properties :
#
#
# Convention : Reuss Voigt Hill
#
# Bulk Modulus (GPa) = 13.79194 68.31498 41.05346
# Shear Modulus (GPa) = 16.52829 28.06703 22.29766
#
# Velocity S-wave (km/s) = 3.04482 3.96776 3.53653
# Velocity P-wave (km/s) = 4.48300 7.70127 6.30107
#
# Compressibility (1/GPa) = 0.07250611
#
# Stress axis : x y z
#
# Youngs Moduli (GPa) = 100.14984 11.05936 67.50270
#
# Poissons Ratio (x) = 0.03953 0.46389
# Poissons Ratio (y) = 0.35797 0.73650
# Poissons Ratio (z) = 0.68824 0.12066
#
# Static dielectric constant tensor:
#      x y z
#    x 1.604210 0.000000 0.035420 
#    y 0.000000 1.614350 0.000000 
#    z 0.035420 0.000000 1.605160 
# 
# From -- ./inp_files/64189.got.cif
#   From: 2010.05.17/outbox.cif.g08.bks.cpg/sg11_33_cif.got.tgz:64189.got - 2010.06.03 12:22:45.
