data_PCOD9159750
_publ_section_title
;
Structure prediction by ZEFSAII (Michael W. Deem and Ramdas Pophale) SiO2 
 PCOD9159750
Probable space group: P 21/M
;
_chemical_formula_sum "Si O2"
_cell_formula_units_Z 32
_cell_length_a 21.795260
_cell_length_b 8.906633
_cell_length_c 14.506517
_cell_angle_alpha 90.000000
_cell_angle_beta 133.263318
_cell_angle_gamma 90.000000
_cell_volume 2050.672965
_symmetry_space_group_name_H-M "P 21/M"
_symmetry_group_IT_number 11
_symmetry_cell_setting 'monoclinic'
loop_
_space_group_symop_operation_xyz
x,y,z
-x,1/2+y,-z
-x,-y,-z
x,1/2-y,z
loop_
_atom_site_type_symbol
_atom_site_label
_atom_site_fract_x
_atom_site_fract_y
_atom_site_fract_z
Si Si1 0.502601 0.069803 0.604063
Si Si2 0.599186 0.070388 0.008674
Si Si3 0.325892 0.930258 0.109565
Si Si4 0.169184 0.070777 0.051734
Si Si5 0.399725 0.428377 0.795214
Si Si6 0.997889 0.929392 0.895890
Si Si7 0.809904 0.570356 0.709423
Si Si8 0.347215 0.571295 0.555648
O O1 0.494053 0.250000 0.591120
O O2 0.591485 0.034801 0.744376
O O3 0.500000 0.000000 0.500000
O O4 0.426532 0.002732 0.585153
O O5 0.606328 0.250000 0.030217
O O6 0.623396 0.985303 0.126771
O O7 0.652261 0.028397 0.973219
O O8 0.500089 0.039821 0.887438
O O9 0.313881 0.750000 0.100800
O O10 0.245030 0.010832 0.068028
O O11 0.162447 0.250000 0.040097
O O12 0.187826 0.032144 0.178829
O O13 0.079666 0.998216 0.931806
O O14 0.387995 0.250000 0.774689
O O15 0.350997 0.512815 0.664237
O O16 0.006211 0.750000 0.910498
O O17 0.903065 0.962040 0.764481
O O18 0.000000 0.000000 0.000000
O O19 0.795403 0.750000 0.687957
O O20 0.736805 0.483407 0.582200
O O21 0.354124 0.750000 0.559488
#
# Coordination Sequence:
#
# PCOD9159750 Si02
#       8
#     4   4   4   4   4   4   4   4
#     4  11  22  36  49  67  97 135 172 206 243 286
#     4   9  18  34  52  72  95 125 164 209 254 295
#     4  10  20  34  50  69  98 133 167 203 246 292
#     4  10  20  32  49  74 102 132 167 206 246 292
#     4  10  19  34  53  72  96 127 162 209 255 295
#     4   9  17  31  51  72  96 128 164 205 251 292
#     4   9  19  34  50  70  99 133 168 208 247 289
#     4  12  23  33  49  73  99 133 169 204 246 296
#
# _framework density 15.604633
#
# number of rings (size 3 to 8) (size 9 to 14) (size 15 to 20)
#    0.000    2.000    1.250    4.125    0.000    7.000 
#    0.000    0.000    0.000    0.000    0.000    0.875 
#    0.000    0.000    0.000    0.000    0.000    0.000 
#
# Total GULP energy -178558.157536 kJ/mol
# GULP energy per Si atom -5579.942423 kJ/mol
# Density = 1.556912 g / cm^3
# Si number density = 15.604633 Si / 1000 Ang^3
#
#
#
# Elastic Constant Matrix: (Units=GPa)
#
#
# Indices 1 2 3 4 5 6 
#
# 1 121.6948 54.9020 66.7544 0.0000 9.4585 0.0000
# 2 54.9020 54.1324 33.4398 0.0000 7.8711 0.0000
# 3 66.7544 33.4398 46.1560 0.0000 7.2071 0.0000
# 4 0.0000 0.0000 0.0000 23.6657 0.0000 -0.0930
# 5 9.4585 7.8711 7.2071 0.0000 26.5971 0.0000
# 6 0.0000 0.0000 0.0000 -0.0930 0.0000 29.0132
#
#
#
# Elastic Compliance Matrix: (Units=1/GPa)
#
#
# Indices 1 2 3 4 5 6 
#
# 1 0.042328 -0.009484 -0.054751 0.000000 0.002590 0.000000
# 2 -0.009484 0.035875 -0.011636 0.000000 -0.004091 0.000000
# 3 -0.054751 -0.011636 0.110372 0.000000 -0.006994 0.000000
# 4 0.000000 0.000000 0.000000 0.042256 0.000000 0.000136
# 5 0.002590 -0.004091 -0.006994 0.000000 0.039783 0.000000
# 6 0.000000 0.000000 0.000000 0.000136 0.000000 0.034467
#
#
# Mechanical properties :
#
#
# Convention : Reuss Voigt Hill
#
# Bulk Modulus (GPa) = 27.14888 59.13064 43.13976
# Shear Modulus (GPa) = 10.65870 20.31433 15.48652
#
# Velocity S-wave (km/s) = 2.61635 3.61198 3.15370
# Velocity P-wave (km/s) = 5.15391 7.44113 6.40052
#
# Compressibility (1/GPa) = 0.03683393
#
# Stress axis : x y z
#
# Youngs Moduli (GPa) = 23.62519 27.87465 9.06024
#
# Poissons Ratio (x) = 0.26437 0.49605
# Poissons Ratio (y) = 0.22407 0.10542
# Poissons Ratio (z) = 1.29350 0.32434
#
# Static dielectric constant tensor:
#      x y z
#    x 1.521560 0.000000 0.010000 
#    y 0.000000 1.518840 0.000000 
#    z 0.010000 0.000000 1.508360 
# 
# From -- ./inp_files/54301.got.cif
#   From: 2010.05.17/outbox.cif.g08.bks.cpg/sg11_28_cif.got.tgz:54301.got - 2010.06.03 12:22:45.
