data_PCOD9159602
_publ_section_title
;
Structure prediction by ZEFSAII (Michael W. Deem and Ramdas Pophale) SiO2 
 PCOD9159602
Probable space group: P 21/M
;
_chemical_formula_sum "Si O2"
_cell_formula_units_Z 30
_cell_length_a 16.339350
_cell_length_b 9.396432
_cell_length_c 23.177654
_cell_angle_alpha 90.000000
_cell_angle_beta 20.856232
_cell_angle_gamma 90.000000
_cell_volume 1266.913078
_symmetry_space_group_name_H-M "P 21/M"
_symmetry_group_IT_number 11
_symmetry_cell_setting 'monoclinic'
loop_
_space_group_symop_operation_xyz
x,y,z
-x,1/2+y,-z
-x,-y,-z
x,1/2-y,z
loop_
_atom_site_type_symbol
_atom_site_label
_atom_site_fract_x
_atom_site_fract_y
_atom_site_fract_z
Si Si1 0.770205 0.419341 0.130666
Si Si2 0.102478 0.088112 0.567158
Si Si3 0.410053 0.537178 0.138565
Si Si4 0.221410 0.581049 0.380857
Si Si5 0.077200 0.585359 0.092041
Si Si6 0.588506 0.589465 0.348972
Si Si7 0.918766 0.084408 0.300745
Si Si8 0.405827 0.250000 0.072563
O O1 0.795576 0.250000 0.119675
O O2 0.589437 0.478369 0.295741
O O3 0.000000 0.500000 0.000000
O O4 0.758261 0.449525 0.070339
O O5 0.190332 0.250000 0.513744
O O6 0.841031 0.095318 0.715707
O O7 0.243206 0.994159 0.428431
O O8 0.074941 0.008709 0.645771
O O9 0.412715 0.559657 0.205499
O O10 0.415679 0.374577 0.115828
O O11 0.583963 0.626237 0.985041
O O12 0.180955 0.750000 0.415017
O O13 0.000000 0.500000 0.500000
O O14 0.115215 0.750000 0.084263
O O15 0.818771 0.576213 0.234862
O O16 0.072429 0.483272 0.149751
O O17 0.592827 0.750000 0.321013
O O18 0.351452 0.576489 0.539605
O O19 0.963230 0.250000 0.284015
#
# Coordination Sequence:
#
# PCOD9159602 Si02
#       8
#     4   4   4   4   4   4   4   2
#     4   9  17  30  53  80 106 137 174 222 276 327
#     4  11  23  38  57  79 111 147 187 231 282 331
#     4  10  20  36  59  88 114 143 183 223 270 325
#     4  10  19  33  56  84 108 139 181 226 264 316
#     4   9  18  34  55  81 110 143 184 232 281 335
#     4   9  19  35  55  81 111 141 186 239 279 329
#     4  11  23  36  55  80 111 148 188 233 284 335
#     4  10  20  34  60  88 118 144 174 224 272 318
#
# _framework density 23.679604000000001
#
# number of rings (size 3 to 8) (size 9 to 14) (size 15 to 20)
#    0.000    2.133    1.333    3.600    5.600    3.733 
#    0.000    0.000    5.867    0.000    0.000    0.000 
#    0.000    0.000    0.000    0.000    0.000    0.000 
#
# Total GULP energy -167257.225895 kJ/mol
# GULP energy per Si atom -5575.240863 kJ/mol
# Density = 2.362571 g / cm^3
# Si number density = 23.679604 Si / 1000 Ang^3
#
#
#
# Elastic Constant Matrix: (Units=GPa)
#
#
# Indices 1 2 3 4 5 6 
#
# 1 70.9506 54.3166 23.9251 0.0000 18.7890 0.0000
# 2 54.3166 235.4456 75.1999 0.0000 55.0154 0.0000
# 3 23.9251 75.1999 117.4576 0.0000 19.8976 0.0000
# 4 0.0000 0.0000 0.0000 40.9669 0.0000 10.8589
# 5 18.7890 55.0154 19.8976 0.0000 51.0121 0.0000
# 6 0.0000 0.0000 0.0000 10.8589 0.0000 30.4676
#
#
#
# Elastic Compliance Matrix: (Units=1/GPa)
#
#
# Indices 1 2 3 4 5 6 
#
# 1 0.017534 -0.003034 -0.001166 0.000000 -0.002731 0.000000
# 2 -0.003034 0.007201 -0.003069 0.000000 -0.005452 0.000000
# 3 -0.001166 -0.003069 0.010796 0.000000 -0.000472 0.000000
# 4 0.000000 0.000000 0.000000 0.026957 0.000000 -0.009608
# 5 -0.002731 -0.005452 -0.000472 0.000000 0.026673 0.000000
# 6 0.000000 0.000000 0.000000 -0.009608 0.000000 0.036246
#
#
# Mechanical properties :
#
#
# Convention : Reuss Voigt Hill
#
# Bulk Modulus (GPa) = 47.63705 81.19302 64.41503
# Shear Modulus (GPa) = 34.02687 42.51680 38.27183
#
# Velocity S-wave (km/s) = 3.79485 4.24193 4.02461
# Velocity P-wave (km/s) = 6.27393 7.63902 6.98988
#
# Compressibility (1/GPa) = 0.02099207
#
# Stress axis : x y z
#
# Youngs Moduli (GPa) = 57.03296 138.86183 92.62718
#
# Poissons Ratio (x) = 0.42137 0.10802
# Poissons Ratio (y) = 0.17306 0.28426
# Poissons Ratio (z) = 0.06651 0.42615
#
# Static dielectric constant tensor:
#      x y z
#    x 1.953840 0.000000 -0.080040 
#    y 0.000000 1.818170 0.000000 
#    z -0.080040 0.000000 1.960330 
# 
# From -- ./inp_files/66066.got.cif
#   From: 2010.05.17/outbox.cif.g08.bks.cpg/sg11_34_cif.got.tgz:66066.got - 2010.06.03 12:22:45.
