data_PCOD9159228
_publ_section_title
;
Structure prediction by ZEFSAII (Michael W. Deem and Ramdas Pophale) SiO2 
 PCOD9159228
Probable space group: P 21/M
;
_chemical_formula_sum "Si O2"
_cell_formula_units_Z 28
_cell_length_a 7.878075
_cell_length_b 17.587049
_cell_length_c 11.666138
_cell_angle_alpha 90.000000
_cell_angle_beta 55.258712
_cell_angle_gamma 90.000000
_cell_volume 1328.223740
_symmetry_space_group_name_H-M "P 21/M"
_symmetry_group_IT_number 11
_symmetry_cell_setting 'monoclinic'
loop_
_space_group_symop_operation_xyz
x,y,z
-x,1/2+y,-z
-x,-y,-z
x,1/2-y,z
loop_
_atom_site_type_symbol
_atom_site_label
_atom_site_fract_x
_atom_site_fract_y
_atom_site_fract_z
Si Si1 0.089548 0.611558 0.876630
Si Si2 0.828957 0.466995 0.941712
Si Si3 0.801095 0.946980 0.495876
Si Si4 0.756829 0.668305 0.848063
Si Si5 0.552159 0.337879 0.438517
Si Si6 0.895690 0.385456 0.455172
Si Si7 0.396991 0.486608 0.183066
O O1 0.125572 0.606626 0.998743
O O2 0.287074 0.638373 0.726051
O O3 0.891248 0.659134 0.911438
O O4 0.019691 0.525270 0.871363
O O5 0.636394 0.506641 0.083756
O O6 0.742881 0.461176 0.845717
O O7 0.640368 0.895074 0.490936
O O8 0.685440 0.974247 0.658002
O O9 0.997926 0.898307 0.463234
O O10 0.869621 0.027685 0.418645
O O11 0.654220 0.750000 0.880890
O O12 0.617034 0.596451 0.872840
O O13 0.935223 0.660102 0.682771
O O14 0.493937 0.250000 0.443917
O O15 0.679015 0.347606 0.508412
#
# Coordination Sequence:
#
# PCOD9159228 Si02
#       7
#     4   4   4   4   4   4   4
#     4   9  16  28  45  68 100 129 157 200 251 307
#     4   9  16  28  45  67 101 127 162 205 251 294
#     4  10  19  33  51  75 105 139 172 212 259 309
#     4   9  17  30  48  74 104 131 160 210 268 309
#     4  11  21  33  52  81 108 134 167 213 269 316
#     4   9  19  33  49  72 109 134 168 214 261 303
#     4   9  17  29  46  71 101 127 168 207 250 303
#
# _framework density 21.080784999999999
#
# number of rings (size 3 to 8) (size 9 to 14) (size 15 to 20)
#    0.000    2.571    1.429    3.000    0.000    2.857 
#    0.000    0.000    0.000    0.000    0.000   24.000 
#    0.000   53.714    0.000    0.000    0.000    0.000 
#
# Total GULP energy -155906.296742 kJ/mol
# GULP energy per Si atom -5568.082027 kJ/mol
# Density = 2.103280 g / cm^3
# Si number density = 21.080785 Si / 1000 Ang^3
#
#
#
# Elastic Constant Matrix: (Units=GPa)
#
#
# Indices 1 2 3 4 5 6 
#
# 1 72.5007 3.6037 2.8008 0.0000 -6.1540 0.0000
# 2 3.6037 63.9013 2.1846 0.0000 -3.3931 0.0000
# 3 2.8008 2.1846 44.7481 0.0000 8.7751 0.0000
# 4 0.0000 0.0000 0.0000 19.1825 0.0000 -1.9061
# 5 -6.1540 -3.3931 8.7751 0.0000 22.8225 0.0000
# 6 0.0000 0.0000 0.0000 -1.9061 0.0000 17.9441
#
#
#
# Elastic Compliance Matrix: (Units=1/GPa)
#
#
# Indices 1 2 3 4 5 6 
#
# 1 0.014262 -0.000509 -0.001738 0.000000 0.004438 0.000000
# 2 -0.000509 0.015865 -0.001274 0.000000 0.002711 0.000000
# 3 -0.001738 -0.001274 0.024494 0.000000 -0.010076 0.000000
# 4 0.000000 0.000000 0.000000 0.052687 0.000000 0.005597
# 5 0.004438 0.002711 -0.010076 0.000000 0.049290 0.000000
# 6 0.000000 0.000000 0.000000 0.005597 0.000000 0.056323
#
#
# Mechanical properties :
#
#
# Convention : Reuss Voigt Hill
#
# Bulk Modulus (GPa) = 21.01801 22.03646 21.52723
# Shear Modulus (GPa) = 21.20215 23.49391 22.34803
#
# Velocity S-wave (km/s) = 3.17481 3.34199 3.25947
# Velocity P-wave (km/s) = 4.84057 5.03666 4.93958
#
# Compressibility (1/GPa) = 0.04757825
#
# Stress axis : x y z
#
# Youngs Moduli (GPa) = 70.11557 63.03022 40.82595
#
# Poissons Ratio (x) = 0.03210 0.07096
# Poissons Ratio (y) = 0.03570 0.05203
# Poissons Ratio (z) = 0.12187 0.08033
#
# Static dielectric constant tensor:
#      x y z
#    x 1.844970 0.000000 0.018090 
#    y 0.000000 1.766060 0.000000 
#    z 0.018090 0.000000 1.787970 
# 
# From -- ./inp_files/47395.got.cif
#   From: 2010.05.17/outbox.cif.g08.bks.cpg/sg11_24_cif.got.tgz:47395.got - 2010.06.03 12:22:45.
