data_PCOD9159515
_publ_section_title
;
Structure prediction by ZEFSAII (Michael W. Deem and Ramdas Pophale) SiO2 
 PCOD9159515
Probable space group: P 21/M
;
_chemical_formula_sum "Si O2"
_cell_formula_units_Z 32
_cell_length_a 20.887909
_cell_length_b 8.314522
_cell_length_c 12.639055
_cell_angle_alpha 90.000000
_cell_angle_beta 53.735583
_cell_angle_gamma 90.000000
_cell_volume 1769.869520
_symmetry_space_group_name_H-M "P 21/M"
_symmetry_group_IT_number 11
_symmetry_cell_setting 'monoclinic'
loop_
_space_group_symop_operation_xyz
x,y,z
-x,1/2+y,-z
-x,-y,-z
x,1/2-y,z
loop_
_atom_site_type_symbol
_atom_site_label
_atom_site_fract_x
_atom_site_fract_y
_atom_site_fract_z
Si Si1 0.014449 0.441757 0.316291
Si Si2 0.541524 0.055697 0.852925
Si Si3 0.487588 0.444443 0.679265
Si Si4 0.780263 0.944514 0.355418
Si Si5 0.722080 0.444596 0.642373
Si Si6 0.959881 0.941766 0.146680
Si Si7 0.626741 0.555687 0.388038
Si Si8 0.875756 0.055873 0.612874
O O1 0.011285 0.250000 0.314714
O O2 0.091176 0.493467 0.308337
O O3 0.007120 0.507576 0.205651
O O4 0.938599 0.498183 0.460814
O O5 0.542342 0.250000 0.851039
O O6 0.495645 0.000303 0.791894
O O7 0.633040 0.000327 0.754673
O O8 0.500000 0.000000 0.000000
O O9 0.487636 0.250000 0.679340
O O10 0.564968 0.499930 0.538443
O O11 0.411283 0.499097 0.686003
O O12 0.781837 0.750000 0.352283
O O13 0.869249 0.004056 0.246807
O O14 0.714486 0.999327 0.334431
O O15 0.750288 0.997881 0.499833
O O16 0.721674 0.250000 0.640956
O O17 0.788375 0.496371 0.662582
O O18 0.956421 0.750000 0.147293
O O19 0.000000 0.000000 0.000000
O O20 0.627103 0.750000 0.387111
O O21 0.877727 0.250000 0.613427
#
# Coordination Sequence:
#
# PCOD9159515 Si02
#       8
#     4   4   4   4   4   4   4   4
#     4  10  19  33  55  81 108 140 177 220 272 325
#     4  10  21  35  52  75 107 145 180 218 262 315
#     4   9  17  31  51  75 104 137 172 210 260 313
#     4  10  20  33  53  81 108 135 174 224 268 313
#     4  10  19  34  55  79 107 140 180 223 264 314
#     4  11  23  38  55  77 110 148 183 222 271 326
#     4   9  17  30  51  79 106 132 166 216 264 308
#     4   9  18  32  53  80 109 139 174 223 272 319
#
# _framework density 18.08043
#
# number of rings (size 3 to 8) (size 9 to 14) (size 15 to 20)
#    0.000    2.250    2.500    0.750    0.000    2.500 
#    0.000    1.250    0.000    1.500    0.000    0.000 
#    0.000    0.000    0.000    0.000    0.000    0.000 
#
# Total GULP energy -178501.320268 kJ/mol
# GULP energy per Si atom -5578.166258 kJ/mol
# Density = 1.803928 g / cm^3
# Si number density = 18.080430 Si / 1000 Ang^3
#
#
#
# Elastic Constant Matrix: (Units=GPa)
#
#
# Indices 1 2 3 4 5 6 
#
# 1 188.5496 23.3752 96.3856 0.0000 19.5134 0.0000
# 2 23.3752 8.9528 14.0469 0.0000 2.9381 0.0000
# 3 96.3856 14.0469 130.6134 0.0000 14.2301 0.0000
# 4 0.0000 0.0000 0.0000 26.6062 0.0000 4.6193
# 5 19.5134 2.9381 14.2301 0.0000 28.9183 0.0000
# 6 0.0000 0.0000 0.0000 4.6193 0.0000 18.2509
#
#
#
# Elastic Compliance Matrix: (Units=1/GPa)
#
#
# Indices 1 2 3 4 5 6 
#
# 1 0.010741 -0.018286 -0.005677 0.000000 -0.002597 0.000000
# 2 -0.018286 0.166820 -0.004168 0.000000 -0.002559 0.000000
# 3 -0.005677 -0.004168 0.012501 0.000000 -0.001897 0.000000
# 4 0.000000 0.000000 0.000000 0.039313 0.000000 -0.009950
# 5 -0.002597 -0.002559 -0.001897 0.000000 0.037526 0.000000
# 6 0.000000 0.000000 0.000000 -0.009950 0.000000 0.057310
#
#
# Mechanical properties :
#
#
# Convention : Reuss Voigt Hill
#
# Bulk Modulus (GPa) = 7.47384 66.19235 36.83310
# Shear Modulus (GPa) = 11.76269 27.70895 19.73582
#
# Velocity S-wave (km/s) = 2.55341 3.91901 3.30746
# Velocity P-wave (km/s) = 3.58271 7.56093 5.91623
#
# Compressibility (1/GPa) = 0.13379997
#
# Stress axis : x y z
#
# Youngs Moduli (GPa) = 93.09709 5.99449 79.99642
#
# Poissons Ratio (x) = 0.10961 0.45415
# Poissons Ratio (y) = 1.70235 0.33343
# Poissons Ratio (z) = 0.52853 0.02499
#
# Static dielectric constant tensor:
#      x y z
#    x 1.654890 0.000000 -0.005200 
#    y 0.000000 1.611560 0.000000 
#    z -0.005200 0.000000 1.579610 
# 
# From -- ./inp_files/42747.got.cif
#   From: 2010.05.17/outbox.cif.g08.bks.cpg/sg11_22_cif.got.tgz:42747.got - 2010.06.03 12:22:45.
