data_PCOD9159851
_publ_section_title
;
Structure prediction by ZEFSAII (Michael W. Deem and Ramdas Pophale) SiO2 
 PCOD9159851
Probable space group: P 21/M
;
_chemical_formula_sum "Si O2"
_cell_formula_units_Z 32
_cell_length_a 21.691628
_cell_length_b 8.874569
_cell_length_c 27.118773
_cell_angle_alpha 90.000000
_cell_angle_beta 159.117484
_cell_angle_gamma 90.000000
_cell_volume 1860.851064
_symmetry_space_group_name_H-M "P 21/M"
_symmetry_group_IT_number 11
_symmetry_cell_setting 'monoclinic'
loop_
_space_group_symop_operation_xyz
x,y,z
-x,1/2+y,-z
-x,-y,-z
x,1/2-y,z
loop_
_atom_site_type_symbol
_atom_site_label
_atom_site_fract_x
_atom_site_fract_y
_atom_site_fract_z
Si Si1 0.028570 0.931578 0.598722
Si Si2 0.777367 0.429509 0.602011
Si Si3 0.937381 0.431407 0.902414
Si Si4 0.273900 0.431787 0.701131
Si Si5 0.458822 0.569531 0.416051
Si Si6 0.330427 0.931475 0.014682
Si Si7 0.967660 0.067941 0.284391
Si Si8 0.082820 0.430347 0.907790
O O1 0.042792 0.750000 0.607722
O O2 0.848699 0.973007 0.436927
O O3 0.036607 0.978217 0.661724
O O4 0.180825 0.001395 0.679626
O O5 0.757874 0.250000 0.583387
O O6 0.596650 0.505655 0.480270
O O7 0.871843 0.496079 0.624767
O O8 0.909937 0.460645 0.746403
O O9 0.948816 0.250000 0.912822
O O10 0.737170 0.470579 0.744043
O O11 0.047919 0.481786 0.937387
O O12 0.000000 0.500000 0.000000
O O13 0.273472 0.250000 0.704422
O O14 0.471932 0.482468 0.843639
O O15 0.500000 0.500000 0.500000
O O16 0.472471 0.750000 0.428963
O O17 0.330538 0.750000 0.017026
O O18 0.205484 0.975142 0.875539
O O19 0.239763 0.993929 0.996018
O O20 0.982115 0.250000 0.293142
O O21 0.107381 0.250000 0.926044
#
# Coordination Sequence:
#
# PCOD9159851 Si02
#       8
#     4   4   4   4   4   4   4   4
#     4   9  18  33  52  72 100 134 165 204 253 302
#     4  10  19  34  55  80 107 136 175 219 263 312
#     4  10  22  39  55  77 109 141 176 221 268 315
#     4   9  18  33  51  72 100 132 168 206 247 302
#     4  11  21  36  58  82 107 139 180 223 265 316
#     4   9  18  32  51  75  99 130 171 208 248 304
#     4   9  18  33  51  74 103 134 169 210 256 304
#     4   9  18  35  54  74 105 137 169 214 260 307
#
# _framework density 17.196432999999999
#
# number of rings (size 3 to 8) (size 9 to 14) (size 15 to 20)
#    0.000    2.500    1.250    0.750    0.000    3.500 
#    2.250    0.000    0.000    0.000    0.000    0.000 
#    0.000    0.000    0.000    0.000    0.000    0.000 
#
# Total GULP energy -178483.293190 kJ/mol
# GULP energy per Si atom -5577.602912 kJ/mol
# Density = 1.715729 g / cm^3
# Si number density = 17.196433 Si / 1000 Ang^3
#
#
#
# Elastic Constant Matrix: (Units=GPa)
#
#
# Indices 1 2 3 4 5 6 
#
# 1 188.4550 39.8535 108.1058 0.0000 2.1467 0.0000
# 2 39.8535 16.3933 39.5457 0.0000 2.3282 0.0000
# 3 108.1058 39.5457 128.8322 0.0000 16.2175 0.0000
# 4 0.0000 0.0000 0.0000 19.7063 0.0000 4.7652
# 5 2.1467 2.3282 16.2175 0.0000 26.9528 0.0000
# 6 0.0000 0.0000 0.0000 4.7652 0.0000 33.6941
#
#
#
# Elastic Compliance Matrix: (Units=1/GPa)
#
#
# Indices 1 2 3 4 5 6 
#
# 1 0.011766 -0.016144 -0.005383 0.000000 0.003696 0.000000
# 2 -0.016144 0.273868 -0.073251 0.000000 0.021704 0.000000
# 3 -0.005383 -0.073251 0.036693 0.000000 -0.015322 0.000000
# 4 0.000000 0.000000 0.000000 0.052542 0.000000 -0.007431
# 5 0.003696 0.021704 -0.015322 0.000000 0.044152 0.000000
# 6 0.000000 0.000000 0.000000 -0.007431 0.000000 0.030730
#
#
# Mechanical properties :
#
#
# Convention : Reuss Voigt Hill
#
# Bulk Modulus (GPa) = 7.53175 78.74341 43.13758
# Shear Modulus (GPa) = 7.31462 25.81566 16.56514
#
# Velocity S-wave (km/s) = 2.06466 3.87876 3.10706
# Velocity P-wave (km/s) = 3.17381 8.12094 6.16534
#
# Compressibility (1/GPa) = 0.13277133
#
# Stress axis : x y z
#
# Youngs Moduli (GPa) = 84.98904 3.65140 27.25345
#
# Poissons Ratio (x) = 0.05895 0.14671
# Poissons Ratio (y) = 1.37203 1.99633
# Poissons Ratio (z) = 0.45751 0.26747
#
# Static dielectric constant tensor:
#      x y z
#    x 1.562280 0.000000 -0.003810 
#    y 0.000000 1.576040 0.000000 
#    z -0.003810 0.000000 1.575210 
# 
# From -- ./inp_files/67154.got.cif
#   From: 2010.05.17/outbox.cif.g08.bks.cpg/sg11_34_cif.got.tgz:67154.got - 2010.06.03 12:22:45.
