data_PCOD9159041
_publ_section_title
;
Structure prediction by ZEFSAII (Michael W. Deem and Ramdas Pophale) SiO2 
 PCOD9159041
Probable space group: P 21/M
;
_chemical_formula_sum "Si O2"
_cell_formula_units_Z 28
_cell_length_a 22.578455
_cell_length_b 7.594022
_cell_length_c 25.180561
_cell_angle_alpha 90.000000
_cell_angle_beta 17.898156
_cell_angle_gamma 90.000000
_cell_volume 1326.877302
_symmetry_space_group_name_H-M "P 21/M"
_symmetry_group_IT_number 11
_symmetry_cell_setting 'monoclinic'
loop_
_space_group_symop_operation_xyz
x,y,z
-x,1/2+y,-z
-x,-y,-z
x,1/2-y,z
loop_
_atom_site_type_symbol
_atom_site_label
_atom_site_fract_x
_atom_site_fract_y
_atom_site_fract_z
Si Si1 0.689801 0.543057 0.097609
Si Si2 0.339006 0.038660 0.093159
Si Si3 0.205630 0.961136 0.797787
Si Si4 0.956870 0.461467 0.475261
Si Si5 0.513569 0.540344 0.620143
Si Si6 0.477012 0.966519 0.174021
Si Si7 0.883557 0.461067 0.242605
O O1 0.718824 0.750000 0.062148
O O2 0.559471 0.527169 0.261119
O O3 0.583022 0.471876 0.136811
O O4 0.902359 0.468841 0.928556
O O5 0.323783 0.250000 0.102320
O O6 0.133367 0.970120 0.289068
O O7 0.411079 0.975598 0.974455
O O8 0.500000 0.000000 0.000000
O O9 0.229099 0.750000 0.775259
O O10 0.374039 0.030291 0.692264
O O11 0.198783 0.029956 0.743390
O O12 0.000000 0.000000 0.000000
O O13 0.954104 0.250000 0.472109
O O14 0.744849 0.525443 0.640423
O O15 0.000000 0.500000 0.500000
O O16 0.492214 0.750000 0.639987
O O17 0.731375 0.497502 0.418574
O O18 0.474210 0.750000 0.176422
O O19 0.899474 0.250000 0.222971
#
# Coordination Sequence:
#
# PCOD9159041 Si02
#       7
#     4   4   4   4   4   4   4
#     4  10  21  39  61  82 109 150 196 237 276 329
#     4  10  19  32  53  80 107 137 174 218 270 323
#     4  10  20  35  57  86 114 146 188 237 287 331
#     4  10  19  32  54  82 109 138 175 219 272 326
#     4  11  23  37  57  85 118 152 185 232 292 340
#     4   9  19  35  55  81 110 140 181 230 274 321
#     4  10  21  37  59  85 112 148 196 237 275 334
#
# _framework density 21.102179
#
# number of rings (size 3 to 8) (size 9 to 14) (size 15 to 20)
#    0.000    2.000    2.857    0.857    0.000    2.857 
#    0.000    5.714    0.000    1.714    0.000    0.000 
#    0.000    0.000    0.000    0.000    0.000    0.000 
#
# Total GULP energy -156440.913716 kJ/mol
# GULP energy per Si atom -5587.175490 kJ/mol
# Density = 2.105415 g / cm^3
# Si number density = 21.102179 Si / 1000 Ang^3
#
#
#
# Elastic Constant Matrix: (Units=GPa)
#
#
# Indices 1 2 3 4 5 6 
#
# 1 190.6932 1.3492 98.6263 0.0000 2.0113 0.0000
# 2 1.3492 44.5648 -7.8045 0.0000 -6.5564 0.0000
# 3 98.6263 -7.8045 169.1119 0.0000 26.7924 0.0000
# 4 0.0000 0.0000 0.0000 15.4006 0.0000 3.7578
# 5 2.0113 -6.5564 26.7924 0.0000 16.9061 0.0000
# 6 0.0000 0.0000 0.0000 3.7578 0.0000 7.2122
#
#
#
# Elastic Compliance Matrix: (Units=1/GPa)
#
#
# Indices 1 2 3 4 5 6 
#
# 1 0.008436 -0.000036 -0.006356 0.000000 0.009056 0.000000
# 2 -0.000036 0.023827 -0.000459 0.000000 0.009972 0.000000
# 3 -0.006356 -0.000459 0.012695 0.000000 -0.019541 0.000000
# 4 0.000000 0.000000 0.000000 0.074390 0.000000 -0.038759
# 5 0.009056 0.009972 -0.019541 0.000000 0.092908 0.000000
# 6 0.000000 0.000000 0.000000 -0.038759 0.000000 0.158848
#
#
# Mechanical properties :
#
#
# Convention : Reuss Voigt Hill
#
# Bulk Modulus (GPa) = 31.99537 65.41244 48.70391
# Shear Modulus (GPa) = 12.65098 28.71704 20.68401
#
# Velocity S-wave (km/s) = 2.45115 3.69298 3.13418
# Velocity P-wave (km/s) = 4.81725 7.01779 6.01894
#
# Compressibility (1/GPa) = 0.03125453
#
# Stress axis : x y z
#
# Youngs Moduli (GPa) = 118.53487 41.96911 78.77133
#
# Poissons Ratio (x) = 0.00152 0.50071
# Poissons Ratio (y) = 0.00430 0.03617
# Poissons Ratio (z) = 0.75346 0.01927
#
# Static dielectric constant tensor:
#      x y z
#    x 1.727290 0.000000 -0.017290 
#    y 0.000000 1.793440 0.000000 
#    z -0.017290 0.000000 1.732020 
# 
# From -- ./inp_files/66688.got.cif
#   From: 2010.05.17/outbox.cif.g08.bks.cpg/sg11_34_cif.got.tgz:66688.got - 2010.06.03 12:22:45.
