data_PCOD9159673
_publ_section_title
;
Structure prediction by ZEFSAII (Michael W. Deem and Ramdas Pophale) SiO2 
 PCOD9159673
Probable space group: P 21/M
;
_chemical_formula_sum "Si O2"
_cell_formula_units_Z 28
_cell_length_a 15.075846
_cell_length_b 9.072481
_cell_length_c 12.595209
_cell_angle_alpha 90.000000
_cell_angle_beta 120.995259
_cell_angle_gamma 90.000000
_cell_volume 1476.727369
_symmetry_space_group_name_H-M "P 21/M"
_symmetry_group_IT_number 11
_symmetry_cell_setting 'monoclinic'
loop_
_space_group_symop_operation_xyz
x,y,z
-x,1/2+y,-z
-x,-y,-z
x,1/2-y,z
loop_
_atom_site_type_symbol
_atom_site_label
_atom_site_fract_x
_atom_site_fract_y
_atom_site_fract_z
Si Si1 0.811587 0.926951 0.121947
Si Si2 0.428520 0.584291 0.240894
Si Si3 0.007512 0.572470 0.389041
Si Si4 0.184140 0.573588 0.333715
Si Si5 0.422278 0.925985 0.537247
Si Si6 0.785191 0.926257 0.860950
Si Si7 0.398332 0.914352 0.971909
O O1 0.799163 0.750000 0.115150
O O2 0.909931 0.965870 0.253972
O O3 0.709123 0.999945 0.107987
O O4 0.822306 0.968879 0.003153
O O5 0.425153 0.750000 0.286037
O O6 0.535777 0.503272 0.330767
O O7 0.332180 0.487044 0.220711
O O8 0.410936 0.597866 0.105962
O O9 0.008925 0.750000 0.402554
O O10 0.108700 0.529739 0.383154
O O11 0.000000 0.500000 0.500000
O O12 0.174635 0.750000 0.312850
O O13 0.303057 0.541921 0.438591
O O14 0.158123 0.496696 0.205497
O O15 0.435981 0.750000 0.550149
O O16 0.500000 0.000000 0.500000
O O17 0.786853 0.750000 0.854534
O O18 0.394044 0.750000 0.922472
O O19 0.500000 0.000000 0.000000
#
# Coordination Sequence:
#
# PCOD9159673 Si02
#       7
#     4   4   4   4   4   4   4
#     4   9  20  39  61  85 117 153 190 242 300 348
#     4  10  20  34  52  78 114 152 187 232 287 342
#     4  10  23  44  64  84 115 155 199 248 296 348
#     4  10  22  38  57  83 118 156 193 240 296 349
#     4  11  21  33  53  82 117 155 190 231 285 345
#     4  10  19  33  57  87 115 146 187 233 289 354
#     4  10  21  36  57  85 116 151 194 241 290 347
#
# _framework density 18.960846
#
# number of rings (size 3 to 8) (size 9 to 14) (size 15 to 20)
#    0.000    2.000    1.429    1.714    0.000    5.714 
#    0.000    2.857    0.000    0.000    0.000    0.000 
#    0.000    0.000    0.000    0.000    0.000    0.000 
#
# Total GULP energy -156178.754684 kJ/mol
# GULP energy per Si atom -5577.812667 kJ/mol
# Density = 1.891769 g / cm^3
# Si number density = 18.960846 Si / 1000 Ang^3
#
#
#
# Elastic Constant Matrix: (Units=GPa)
#
#
# Indices 1 2 3 4 5 6 
#
# 1 141.5280 51.4522 64.5282 0.0000 -0.9736 0.0000
# 2 51.4522 58.4175 49.4151 0.0000 4.4507 0.0000
# 3 64.5282 49.4151 115.2025 0.0000 10.5976 0.0000
# 4 0.0000 0.0000 0.0000 31.4666 0.0000 -5.2724
# 5 -0.9736 4.4507 10.5976 0.0000 25.9029 0.0000
# 6 0.0000 0.0000 0.0000 -5.2724 0.0000 26.0300
#
#
#
# Elastic Compliance Matrix: (Units=1/GPa)
#
#
# Indices 1 2 3 4 5 6 
#
# 1 0.011323 -0.007224 -0.003530 0.000000 0.003111 0.000000
# 2 -0.007224 0.031475 -0.009282 0.000000 -0.001882 0.000000
# 3 -0.003530 -0.009282 0.015071 0.000000 -0.004704 0.000000
# 4 0.000000 0.000000 0.000000 0.032896 0.000000 0.006663
# 5 0.003111 -0.001882 -0.004704 0.000000 0.040971 0.000000
# 6 0.000000 0.000000 0.000000 0.006663 0.000000 0.039767
#
#
# Mechanical properties :
#
#
# Convention : Reuss Voigt Hill
#
# Bulk Modulus (GPa) = 56.18262 71.77098 63.97680
# Shear Modulus (GPa) = 22.98779 26.66340 24.82559
#
# Velocity S-wave (km/s) = 3.48570 3.75405 3.62236
# Velocity P-wave (km/s) = 6.77461 7.53159 7.16311
#
# Compressibility (1/GPa) = 0.01779910
#
# Stress axis : x y z
#
# Youngs Moduli (GPa) = 88.31800 31.77080 66.35057
#
# Poissons Ratio (x) = 0.22951 0.23420
# Poissons Ratio (y) = 0.63800 0.61584
# Poissons Ratio (z) = 0.31174 0.29488
#
# Static dielectric constant tensor:
#      x y z
#    x 1.657400 0.000000 -0.025960 
#    y 0.000000 1.673120 0.000000 
#    z -0.025960 0.000000 1.711450 
# 
# From -- ./inp_files/38399.got.cif
#   From: 2010.05.17/outbox.cif.g08.bks.cpg/sg11_20_cif.got.tgz:38399.got - 2010.06.03 12:22:45.
