data_PCOD9159876
_publ_section_title
;
Structure prediction by ZEFSAII (Michael W. Deem and Ramdas Pophale) SiO2 
 PCOD9159876
Probable space group: P 21/M
;
_chemical_formula_sum "Si O2"
_cell_formula_units_Z 24
_cell_length_a 20.639610
_cell_length_b 13.433786
_cell_length_c 12.716499
_cell_angle_alpha 90.000000
_cell_angle_beta 157.574662
_cell_angle_gamma 90.000000
_cell_volume 1345.049725
_symmetry_space_group_name_H-M "P 21/M"
_symmetry_group_IT_number 11
_symmetry_cell_setting 'monoclinic'
loop_
_space_group_symop_operation_xyz
x,y,z
-x,1/2+y,-z
-x,-y,-z
x,1/2-y,z
loop_
_atom_site_type_symbol
_atom_site_label
_atom_site_fract_x
_atom_site_fract_y
_atom_site_fract_z
Si Si1 0.133166 0.368099 0.149634
Si Si2 0.142024 0.135891 0.730568
Si Si3 0.462203 0.867363 0.717722
Si Si4 0.334644 0.976491 0.320203
Si Si5 0.191359 0.516294 0.421301
Si Si6 0.024801 0.964348 0.710181
O O1 0.144182 0.250000 0.166308
O O2 0.262222 0.421725 0.262680
O O3 0.172862 0.417633 0.321968
O O4 0.947757 0.406596 0.835425
O O5 0.129314 0.250000 0.745218
O O6 0.083602 0.062014 0.734450
O O7 0.337130 0.114759 0.992497
O O8 0.029118 0.114449 0.458411
O O9 0.434285 0.750000 0.692174
O O10 0.372061 0.932694 0.672480
O O11 0.379013 0.904127 0.483309
O O12 0.500000 0.000000 0.500000
O O13 0.182511 0.934247 0.020431
O O14 0.131969 0.491175 0.449077
#
# Coordination Sequence:
#
# PCOD9159876 Si02
#       6
#     4   4   4   4   4   4
#     4   9  18  32  52  81 114 143 177 224 276 329
#     4  10  22  38  55  77 107 146 184 220 270 326
#     4  10  20  35  56  82 110 139 180 227 268 325
#     4  10  19  34  55  83 110 140 181 224 276 321
#     4   9  19  33  54  81 108 143 180 224 273 324
#     4  10  21  37  57  77 110 146 176 228 269 322
#
# _framework density 17.843207
#
# number of rings (size 3 to 8) (size 9 to 14) (size 15 to 20)
#    0.000    2.333    1.667    1.500    0.000    6.000 
#    0.000    0.000    0.000    0.000    0.000    0.000 
#    0.000    0.000    0.000    0.000    0.000    0.000 
#
# Total GULP energy -133904.850388 kJ/mol
# GULP energy per Si atom -5579.368766 kJ/mol
# Density = 1.780259 g / cm^3
# Si number density = 17.843207 Si / 1000 Ang^3
#
#
#
# Elastic Constant Matrix: (Units=GPa)
#
#
# Indices 1 2 3 4 5 6 
#
# 1 64.1064 -5.7293 6.5892 0.0000 16.4035 0.0000
# 2 -5.7293 59.2122 10.8805 0.0000 7.4126 0.0000
# 3 6.5892 10.8805 57.9558 0.0000 -3.9326 0.0000
# 4 0.0000 0.0000 0.0000 13.1160 0.0000 6.4006
# 5 16.4035 7.4126 -3.9326 0.0000 18.7918 0.0000
# 6 0.0000 0.0000 0.0000 6.4006 0.0000 9.5865
#
#
#
# Elastic Compliance Matrix: (Units=1/GPa)
#
#
# Indices 1 2 3 4 5 6 
#
# 1 0.022640 0.006076 -0.005293 0.000000 -0.023267 0.000000
# 2 0.006076 0.020293 -0.005482 0.000000 -0.014456 0.000000
# 3 -0.005293 -0.005482 0.019624 0.000000 0.010890 0.000000
# 4 0.000000 0.000000 0.000000 0.113090 0.000000 -0.075506
# 5 -0.023267 -0.014456 0.010890 0.000000 0.081505 0.000000
# 6 0.000000 0.000000 0.000000 -0.075506 0.000000 0.154727
#
#
# Mechanical properties :
#
#
# Convention : Reuss Voigt Hill
#
# Bulk Modulus (GPa) = 18.81137 22.75058 20.78097
# Shear Modulus (GPa) = 11.38960 19.60114 15.49537
#
# Velocity S-wave (km/s) = 2.52923 3.31799 2.95009
# Velocity P-wave (km/s) = 4.36976 5.23991 4.82450
#
# Compressibility (1/GPa) = 0.05315933
#
# Stress axis : x y z
#
# Youngs Moduli (GPa) = 44.17025 49.27753 50.95703
#
# Poissons Ratio (x) = -0.29941 0.26974
# Poissons Ratio (y) = -0.26838 0.27932
# Poissons Ratio (z) = 0.23381 0.27012
#
# Static dielectric constant tensor:
#      x y z
#    x 1.615200 0.000000 0.007700 
#    y 0.000000 1.567420 0.000000 
#    z 0.007700 0.000000 1.613610 
# 
# From -- ./inp_files/43428.got.cif
#   From: 2010.05.17/outbox.cif.g08.bks.cpg/sg11_22_cif.got.tgz:43428.got - 2010.06.03 12:22:45.
