data_PCOD9159168
_publ_section_title
;
Structure prediction by ZEFSAII (Michael W. Deem and Ramdas Pophale) SiO2 
 PCOD9159168
Probable space group: P 21/M
;
_chemical_formula_sum "Si O2"
_cell_formula_units_Z 30
_cell_length_a 10.861912
_cell_length_b 14.543544
_cell_length_c 19.230464
_cell_angle_alpha 90.000000
_cell_angle_beta 157.428972
_cell_angle_gamma 90.000000
_cell_volume 1166.013155
_symmetry_space_group_name_H-M "P 21/M"
_symmetry_group_IT_number 11
_symmetry_cell_setting 'monoclinic'
loop_
_space_group_symop_operation_xyz
x,y,z
-x,1/2+y,-z
-x,-y,-z
x,1/2-y,z
loop_
_atom_site_type_symbol
_atom_site_label
_atom_site_fract_x
_atom_site_fract_y
_atom_site_fract_z
Si Si1 0.588081 0.109167 0.047867
Si Si2 0.325788 0.750000 0.009019
Si Si3 0.353881 0.856631 0.365453
Si Si4 0.927274 0.351102 0.636033
Si Si5 0.531994 0.411313 0.811033
Si Si6 0.673600 0.507644 0.430306
Si Si7 0.213587 0.148918 0.140916
Si Si8 0.357315 0.391617 0.068616
O O1 0.822616 0.165248 0.119400
O O2 0.611334 0.132107 0.141328
O O3 0.261820 0.157043 0.850541
O O4 0.500000 0.000000 0.000000
O O5 0.486023 0.828558 0.145143
O O6 0.433155 0.750000 0.396245
O O7 0.318902 0.873755 0.429843
O O8 0.997291 0.872374 0.146674
O O9 0.593236 0.923462 0.450284
O O10 0.850503 0.250000 0.566121
O O11 0.948703 0.436157 0.594936
O O12 0.289750 0.438004 0.622794
O O13 0.611420 0.501884 0.896009
O O14 0.856714 0.384485 0.938047
O O15 0.385942 0.432239 0.272106
O O16 0.182599 0.250000 0.159650
O O17 0.395056 0.155696 0.162572
#
# Coordination Sequence:
#
# PCOD9159168 Si02
#       8
#     4   2   4   4   4   4   4   4
#     4  11  23  42  69  86 117 160 214 261 298 359
#     4  12  24  40  62  96 120 160 210 260 314 356
#     4  10  19  32  57  87 120 164 201 244 304 372
#     4  10  22  40  62  88 119 163 209 248 308 372
#     4  11  21  36  59  92 125 161 203 249 312 366
#     4  11  21  36  57  90 131 161 200 250 308 377
#     4  11  20  33  58  92 129 158 199 252 311 374
#     4  10  19  35  57  90 117 158 207 252 303 358
#
# _framework density 25.728697
#
# number of rings (size 3 to 8) (size 9 to 14) (size 15 to 20)
#    0.000    1.333    5.333    2.000    2.800    0.000 
#    0.000    0.667    1.467    0.000    0.000    0.000 
#    0.000    0.000    0.000    0.000    0.000    0.000 
#
# Total GULP energy -167177.899491 kJ/mol
# GULP energy per Si atom -5572.596650 kJ/mol
# Density = 2.567014 g / cm^3
# Si number density = 25.728697 Si / 1000 Ang^3
#
#
#
# Elastic Constant Matrix: (Units=GPa)
#
#
# Indices 1 2 3 4 5 6 
#
# 1 80.0568 36.2634 13.0937 0.0000 -29.8460 0.0000
# 2 36.2634 223.6721 16.9792 0.0000 -24.4866 0.0000
# 3 13.0937 16.9792 39.6416 0.0000 -9.8166 0.0000
# 4 0.0000 0.0000 0.0000 57.1220 0.0000 39.0683
# 5 -29.8460 -24.4866 -9.8166 0.0000 34.9260 0.0000
# 6 0.0000 0.0000 0.0000 39.0683 0.0000 56.6651
#
#
#
# Elastic Compliance Matrix: (Units=1/GPa)
#
#
# Indices 1 2 3 4 5 6 
#
# 1 0.018874 -0.001302 -0.002051 0.000000 0.014640 0.000000
# 2 -0.001302 0.004998 -0.001202 0.000000 0.002054 0.000000
# 3 -0.002051 -0.001202 0.027704 0.000000 0.005191 0.000000
# 4 0.000000 0.000000 0.000000 0.033128 0.000000 -0.022840
# 5 0.014640 0.002054 0.005191 0.000000 0.044041 0.000000
# 6 0.000000 0.000000 0.000000 -0.022840 0.000000 0.033395
#
#
# Mechanical properties :
#
#
# Convention : Reuss Voigt Hill
#
# Bulk Modulus (GPa) = 23.54843 52.89369 38.22106
# Shear Modulus (GPa) = 26.96788 48.21157 37.58972
#
# Velocity S-wave (km/s) = 3.24105 4.33349 3.82645
# Velocity P-wave (km/s) = 4.81439 6.75586 5.86600
#
# Compressibility (1/GPa) = 0.04246568
#
# Stress axis : x y z
#
# Youngs Moduli (GPa) = 52.98283 200.08139 36.09593
#
# Poissons Ratio (x) = 0.26042 0.07405
# Poissons Ratio (y) = 0.06896 0.04339
# Poissons Ratio (z) = 0.10869 0.24053
#
# Static dielectric constant tensor:
#      x y z
#    x 2.364040 0.000000 0.090990 
#    y 0.000000 2.096210 0.000000 
#    z 0.090990 0.000000 2.072740 
# 
# From -- ./inp_files/35458.got.cif
#   From: 2010.05.17/outbox.cif.g08.bks.cpg/sg11_18_cif.got.tgz:35458.got - 2010.06.03 12:22:45.
