data_PCOD9159937
_publ_section_title
;
Structure prediction by ZEFSAII (Michael W. Deem and Ramdas Pophale) SiO2 
 PCOD9159937
Probable space group: P 21/M
;
_chemical_formula_sum "Si O2"
_cell_formula_units_Z 28
_cell_length_a 32.523301
_cell_length_b 8.499858
_cell_length_c 31.677143
_cell_angle_alpha 90.000000
_cell_angle_beta 170.796674
_cell_angle_gamma 90.000000
_cell_volume 1400.571505
_symmetry_space_group_name_H-M "P 21/M"
_symmetry_group_IT_number 11
_symmetry_cell_setting 'monoclinic'
loop_
_space_group_symop_operation_xyz
x,y,z
-x,1/2+y,-z
-x,-y,-z
x,1/2-y,z
loop_
_atom_site_type_symbol
_atom_site_label
_atom_site_fract_x
_atom_site_fract_y
_atom_site_fract_z
Si Si1 0.854284 0.059775 0.473331
Si Si2 0.156870 0.441589 0.343550
Si Si3 0.443055 0.937492 0.489120
Si Si4 0.681182 0.059948 0.917065
Si Si5 0.964819 0.060968 0.056427
Si Si6 0.619352 0.939750 0.949103
Si Si7 0.238273 0.062850 0.714384
O O1 0.849237 0.250000 0.465604
O O2 0.134397 0.011013 0.773688
O O3 0.790776 0.993477 0.363136
O O4 0.640025 0.009687 0.290163
O O5 0.159003 0.250000 0.345449
O O6 0.440028 0.493423 0.644223
O O7 0.067373 0.490169 0.206364
O O8 0.947038 0.493304 0.165349
O O9 0.418660 0.750000 0.463693
O O10 0.500000 0.000000 0.500000
O O11 0.181041 0.010336 0.241980
O O12 0.688442 0.987989 0.765802
O O13 0.682093 0.250000 0.918022
O O14 0.644710 0.003382 0.927670
O O15 0.938693 0.250000 0.029596
O O16 0.619300 0.750000 0.947055
O O17 0.239367 0.250000 0.716847
O O18 0.000000 0.000000 0.500000
O O19 0.500000 0.000000 0.000000
#
# Coordination Sequence:
#
# PCOD9159937 Si02
#       7
#     4   4   4   4   4   4   4
#     4  10  21  38  58  81 114 154 196 241 294 352
#     4   9  19  35  57  83 112 148 191 238 291 347
#     4  12  25  42  62  90 124 158 199 248 303 359
#     4  10  19  34  56  82 111 147 191 238 286 346
#     4  11  22  41  66  90 119 160 205 248 299 359
#     4  10  21  36  55  81 114 152 191 238 295 349
#     4  12  25  42  65  93 124 159 202 249 302 360
#
# _framework density 19.991838999999999
#
# number of rings (size 3 to 8) (size 9 to 14) (size 15 to 20)
#    0.000    1.429    0.000    6.000    0.000    4.571 
#    0.000    4.286    0.000    0.000    0.000    0.000 
#    0.000    0.000    0.000    0.000    0.000    0.000 
#
# Total GULP energy -156632.364168 kJ/mol
# GULP energy per Si atom -5594.013006 kJ/mol
# Density = 1.994634 g / cm^3
# Si number density = 19.991839 Si / 1000 Ang^3
#
#
#
# Elastic Constant Matrix: (Units=GPa)
#
#
# Indices 1 2 3 4 5 6 
#
# 1 53.3279 1.8170 -33.0268 0.0000 0.3328 0.0000
# 2 1.8170 37.8171 0.0634 0.0000 -2.1661 0.0000
# 3 -33.0268 0.0634 61.5515 0.0000 0.6239 0.0000
# 4 0.0000 0.0000 0.0000 24.1682 0.0000 2.3942
# 5 0.3328 -2.1661 0.6239 0.0000 45.0081 0.0000
# 6 0.0000 0.0000 0.0000 2.3942 0.0000 25.8477
#
#
#
# Elastic Compliance Matrix: (Units=1/GPa)
#
#
# Indices 1 2 3 4 5 6 
#
# 1 0.028167 -0.001407 0.015120 0.000000 -0.000486 0.000000
# 2 -0.001407 0.026586 -0.000795 0.000000 0.001301 0.000000
# 3 0.015120 -0.000795 0.024365 0.000000 -0.000488 0.000000
# 4 0.000000 0.000000 0.000000 0.041760 0.000000 -0.003868
# 5 -0.000486 0.001301 -0.000488 0.000000 0.022291 0.000000
# 6 0.000000 0.000000 0.000000 -0.003868 0.000000 0.039047
#
#
# Mechanical properties :
#
#
# Convention : Reuss Voigt Hill
#
# Bulk Modulus (GPa) = 9.52791 10.04487 9.78639
# Shear Modulus (GPa) = 26.12809 31.26098 28.69454
#
# Velocity S-wave (km/s) = 3.61908 3.95864 3.79266
# Velocity P-wave (km/s) = 4.71592 5.09213 4.90763
#
# Compressibility (1/GPa) = 0.10495482
#
# Stress axis : x y z
#
# Youngs Moduli (GPa) = 35.50266 37.61312 41.04202
#
# Poissons Ratio (x) = 0.05290 -0.62055
# Poissons Ratio (y) = 0.04994 0.03264
# Poissons Ratio (z) = -0.53680 0.02991
#
# Static dielectric constant tensor:
#      x y z
#    x 1.667370 0.000000 -0.002450 
#    y 0.000000 1.688790 0.000000 
#    z -0.002450 0.000000 1.683040 
# 
# From -- ./inp_files/73842.got.cif
#   From: 2010.05.17/outbox.cif.g08.bks.cpg/sg11_37_cif.got.tgz:73842.got - 2010.06.03 12:22:45.
