data_PCOD9159593
_publ_section_title
;
Structure prediction by ZEFSAII (Michael W. Deem and Ramdas Pophale) SiO2 
 PCOD9159593
Probable space group: P 21/M
;
_chemical_formula_sum "Si O2"
_cell_formula_units_Z 28
_cell_length_a 22.039748
_cell_length_b 8.480270
_cell_length_c 24.369297
_cell_angle_alpha 90.000000
_cell_angle_beta 18.603191
_cell_angle_gamma 90.000000
_cell_volume 1453.002803
_symmetry_space_group_name_H-M "P 21/M"
_symmetry_group_IT_number 11
_symmetry_cell_setting 'monoclinic'
loop_
_space_group_symop_operation_xyz
x,y,z
-x,1/2+y,-z
-x,-y,-z
x,1/2-y,z
loop_
_atom_site_type_symbol
_atom_site_label
_atom_site_fract_x
_atom_site_fract_y
_atom_site_fract_z
Si Si1 0.706435 0.561481 0.086047
Si Si2 0.352094 0.059363 0.081275
Si Si3 0.183916 0.061003 0.809733
Si Si4 0.964242 0.440807 0.468987
Si Si5 0.473746 0.561370 0.647610
Si Si6 0.461751 0.942533 0.192352
Si Si7 0.875855 0.559630 0.265333
O O1 0.700796 0.750000 0.092274
O O2 0.636348 0.499378 0.204814
O O3 0.567035 0.504607 0.157175
O O4 0.922041 0.508374 0.890648
O O5 0.355159 0.250000 0.079111
O O6 0.140453 0.007990 0.279935
O O7 0.422864 0.007242 0.960794
O O8 0.500000 0.000000 0.000000
O O9 0.186643 0.250000 0.809137
O O10 0.166467 0.011697 0.761399
O O11 0.366926 0.996863 0.684635
O O12 0.000000 0.000000 0.000000
O O13 0.963073 0.250000 0.471187
O O14 0.757241 0.493701 0.625637
O O15 0.000000 0.500000 0.500000
O O16 0.467720 0.750000 0.652843
O O17 0.693839 0.510142 0.457046
O O18 0.461584 0.750000 0.192941
O O19 0.888072 0.750000 0.255885
#
# Coordination Sequence:
#
# PCOD9159593 Si02
#       7
#     4   4   4   4   4   4   4
#     4  11  23  39  61  86 114 156 202 244 290 346
#     4  10  19  33  56  83 110 143 180 226 281 336
#     4  11  21  36  61  91 119 154 196 244 299 348
#     4  10  19  33  56  83 111 143 180 226 281 336
#     4  11  23  40  61  86 120 158 196 243 296 349
#     4   9  20  37  55  81 116 148 186 235 285 339
#     4  10  23  41  61  85 119 158 194 242 298 348
#
# _framework density 19.270437000000001
#
# number of rings (size 3 to 8) (size 9 to 14) (size 15 to 20)
#    0.000    1.714    2.857    1.714    0.000    2.857 
#    0.000    5.714    0.000    0.000    0.000    0.000 
#    0.000    0.000    0.000    0.000    0.000    0.000 
#
# Total GULP energy -156423.186949 kJ/mol
# GULP energy per Si atom -5586.542391 kJ/mol
# Density = 1.922658 g / cm^3
# Si number density = 19.270437 Si / 1000 Ang^3
#
#
#
# Elastic Constant Matrix: (Units=GPa)
#
#
# Indices 1 2 3 4 5 6 
#
# 1 80.3244 10.3048 33.5243 0.0000 -32.5584 0.0000
# 2 10.3048 17.6270 22.4127 0.0000 -5.4450 0.0000
# 3 33.5243 22.4127 154.3964 0.0000 -25.4916 0.0000
# 4 0.0000 0.0000 0.0000 22.7070 0.0000 -7.1550
# 5 -32.5584 -5.4450 -25.4916 0.0000 31.1053 0.0000
# 6 0.0000 0.0000 0.0000 -7.1550 0.0000 20.8038
#
#
#
# Elastic Compliance Matrix: (Units=1/GPa)
#
#
# Indices 1 2 3 4 5 6 
#
# 1 0.022251 -0.005751 -0.000367 0.000000 0.021983 0.000000
# 2 -0.005751 0.071611 -0.009334 0.000000 -0.001133 0.000000
# 3 -0.000367 -0.009334 0.008764 0.000000 0.005164 0.000000
# 4 0.000000 0.000000 0.000000 0.049392 0.000000 0.016987
# 5 0.021983 -0.001133 0.005164 0.000000 0.059193 0.000000
# 6 0.000000 0.000000 0.000000 0.016987 0.000000 0.053910
#
#
# Mechanical properties :
#
#
# Convention : Reuss Voigt Hill
#
# Bulk Modulus (GPa) = 13.94255 42.75906 28.35080
# Shear Modulus (GPa) = 15.62835 27.33031 21.47933
#
# Velocity S-wave (km/s) = 2.85090 3.77005 3.34222
# Velocity P-wave (km/s) = 4.25297 6.41780 5.44408
#
# Compressibility (1/GPa) = 0.07172288
#
# Stress axis : x y z
#
# Youngs Moduli (GPa) = 44.94191 13.96438 114.10182
#
# Poissons Ratio (x) = 0.08030 0.04189
# Poissons Ratio (y) = 0.25845 1.06499
# Poissons Ratio (z) = 0.01650 0.13034
#
# Static dielectric constant tensor:
#      x y z
#    x 1.641390 0.000000 -0.001310 
#    y 0.000000 1.663360 0.000000 
#    z -0.001310 0.000000 1.674880 
# 
# From -- ./inp_files/69751.got.cif
#   From: 2010.05.17/outbox.cif.g08.bks.cpg/sg11_35_cif.got.tgz:69751.got - 2010.06.03 12:22:45.
