data_PCOD9159204
_publ_section_title
;
Structure prediction by ZEFSAII (Michael W. Deem and Ramdas Pophale) SiO2 
 PCOD9159204
Probable space group: P 21/M
;
_chemical_formula_sum "Si O2"
_cell_formula_units_Z 32
_cell_length_a 15.856891
_cell_length_b 8.616656
_cell_length_c 27.729840
_cell_angle_alpha 90.000000
_cell_angle_beta 28.578345
_cell_angle_gamma 90.000000
_cell_volume 1812.420672
_symmetry_space_group_name_H-M "P 21/M"
_symmetry_group_IT_number 11
_symmetry_cell_setting 'monoclinic'
loop_
_space_group_symop_operation_xyz
x,y,z
-x,1/2+y,-z
-x,-y,-z
x,1/2-y,z
loop_
_atom_site_type_symbol
_atom_site_label
_atom_site_fract_x
_atom_site_fract_y
_atom_site_fract_z
Si Si1 0.289948 0.434540 0.329016
Si Si2 0.939555 0.436657 0.913955
Si Si3 0.306425 0.061947 0.771356
Si Si4 0.298529 0.564114 0.432126
Si Si5 0.684132 0.935065 0.847715
Si Si6 0.056756 0.933507 0.361802
Si Si7 0.670964 0.936898 0.128118
Si Si8 0.300388 0.435161 0.046841
O O1 0.289998 0.250000 0.335291
O O2 0.267714 0.515850 0.391905
O O3 0.141485 0.484652 0.366016
O O4 0.479085 0.491551 0.214050
O O5 0.935304 0.250000 0.916353
O O6 0.857026 0.498364 0.905995
O O7 0.139059 0.490122 0.824680
O O8 0.815097 0.499215 0.019196
O O9 0.308030 0.250000 0.769457
O O10 0.501235 0.011764 0.657096
O O11 0.284831 0.019529 0.838628
O O12 0.288929 0.750000 0.440784
O O13 0.145010 0.487899 0.540374
O O14 0.692390 0.750000 0.836638
O O15 0.718074 0.970592 0.887084
O O16 0.825459 0.015682 0.742560
O O17 0.486106 0.992833 0.936473
O O18 0.065499 0.750000 0.364079
O O19 0.660699 0.750000 0.130033
O O20 0.309759 0.250000 0.036479
#
# Coordination Sequence:
#
# PCOD9159204 Si02
#       8
#     4   4   4   4   4   4   4   4
#     4  11  21  34  51  75 106 140 176 212 254 303
#     4  11  20  32  52  78 105 136 174 211 254 307
#     4   8  18  34  52  73 101 138 176 215 255 297
#     4  10  20  37  55  74 103 138 176 216 257 298
#     4  10  21  38  58  79 104 135 169 207 254 307
#     4  12  23  35  53  78 105 135 172 212 257 307
#     4  10  19  33  50  73 106 141 176 214 256 299
#     4  10  21  37  56  80 108 135 165 206 257 308
#
# _framework density 17.655944999999999
#
# number of rings (size 3 to 8) (size 9 to 14) (size 15 to 20)
#    0.000    1.750    0.000    6.375    0.000    1.500 
#    0.000    6.875    0.000    0.750    0.000    0.000 
#    0.000    0.000    0.000    0.000    0.000    0.000 
#
# Total GULP energy -178789.990430 kJ/mol
# GULP energy per Si atom -5587.187201 kJ/mol
# Density = 1.761576 g / cm^3
# Si number density = 17.655945 Si / 1000 Ang^3
#
#
#
# Elastic Constant Matrix: (Units=GPa)
#
#
# Indices 1 2 3 4 5 6 
#
# 1 62.2606 7.9318 26.1234 0.0000 -27.8362 0.0000
# 2 7.9318 34.9583 4.2551 0.0000 -3.5416 0.0000
# 3 26.1234 4.2551 87.3109 0.0000 -15.9972 0.0000
# 4 0.0000 0.0000 0.0000 28.9742 0.0000 2.2798
# 5 -27.8362 -3.5416 -15.9972 0.0000 22.2958 0.0000
# 6 0.0000 0.0000 0.0000 2.2798 0.0000 23.8600
#
#
#
# Elastic Compliance Matrix: (Units=1/GPa)
#
#
# Indices 1 2 3 4 5 6 
#
# 1 0.037485 -0.003678 -0.002957 0.000000 0.044093 0.000000
# 2 -0.003678 0.029467 -0.000368 0.000000 -0.000175 0.000000
# 3 -0.002957 -0.000368 0.013435 0.000000 0.005889 0.000000
# 4 0.000000 0.000000 0.000000 0.034775 0.000000 -0.003323
# 5 0.044093 -0.000175 0.005889 0.000000 0.104099 0.000000
# 6 0.000000 0.000000 0.000000 -0.003323 0.000000 0.042229
#
#
# Mechanical properties :
#
#
# Convention : Reuss Voigt Hill
#
# Bulk Modulus (GPa) = 15.06463 29.01671 22.04067
# Shear Modulus (GPa) = 16.79982 24.77397 20.78689
#
# Velocity S-wave (km/s) = 3.08800 3.74993 3.43495
# Velocity P-wave (km/s) = 4.61142 5.93460 5.31435
#
# Compressibility (1/GPa) = 0.06638064
#
# Stress axis : x y z
#
# Youngs Moduli (GPa) = 26.67763 33.93622 74.43206
#
# Poissons Ratio (x) = 0.12482 0.22012
# Poissons Ratio (y) = 0.09812 0.02737
# Poissons Ratio (z) = 0.07889 0.01248
#
# Static dielectric constant tensor:
#      x y z
#    x 1.594620 0.000000 -0.012220 
#    y 0.000000 1.588620 0.000000 
#    z -0.012220 0.000000 1.604790 
# 
# From -- ./inp_files/71605.got.cif
#   From: 2010.05.17/outbox.cif.g08.bks.cpg/sg11_36_cif.got.tgz:71605.got - 2010.06.03 12:22:45.
