data_PCOD9159056
_publ_section_title
;
Structure prediction by ZEFSAII (Michael W. Deem and Ramdas Pophale) SiO2 
 PCOD9159056
Probable space group: P 21/M
;
_chemical_formula_sum "Si O2"
_cell_formula_units_Z 28
_cell_length_a 12.874168
_cell_length_b 7.703161
_cell_length_c 29.004858
_cell_angle_alpha 90.000000
_cell_angle_beta 152.641477
_cell_angle_gamma 90.000000
_cell_volume 1321.898908
_symmetry_space_group_name_H-M "P 21/M"
_symmetry_group_IT_number 11
_symmetry_cell_setting 'monoclinic'
loop_
_space_group_symop_operation_xyz
x,y,z
-x,1/2+y,-z
-x,-y,-z
x,1/2-y,z
loop_
_atom_site_type_symbol
_atom_site_label
_atom_site_fract_x
_atom_site_fract_y
_atom_site_fract_z
Si Si1 0.390546 0.952130 0.069704
Si Si2 0.658488 0.539463 0.497462
Si Si3 0.162098 0.043144 0.332922
Si Si4 0.699044 0.441837 0.112757
Si Si5 0.069083 0.457826 0.080019
Si Si6 0.991165 0.958318 0.550242
Si Si7 0.476204 0.538281 0.774860
O O1 0.396976 0.750000 0.057871
O O2 0.569034 0.054723 0.110092
O O3 0.459996 0.966121 0.150227
O O4 0.132121 0.022125 0.966533
O O5 0.659925 0.750000 0.498957
O O6 0.790632 0.478526 0.596049
O O7 0.397987 0.484296 0.399411
O O8 0.785616 0.478722 0.501361
O O9 0.123356 0.250000 0.322447
O O10 0.941376 0.970094 0.219415
O O11 0.756871 0.250000 0.118824
O O12 0.500000 0.500000 0.000000
O O13 0.063934 0.250000 0.082925
O O14 0.328660 0.515447 0.184633
O O15 0.000000 0.500000 0.000000
O O16 0.988611 0.750000 0.553175
O O17 0.228486 0.020677 0.664238
O O18 0.000000 0.000000 0.500000
O O19 0.481222 0.750000 0.779472
#
# Coordination Sequence:
#
# PCOD9159056 Si02
#       7
#     4   4   4   4   4   4   4
#     4  10  19  32  53  81 109 138 177 225 268 316
#     4   9  18  35  59  85 112 141 182 235 284 330
#     4   9  19  37  61  85 107 140 185 233 282 335
#     4  11  23  39  56  78 111 148 184 224 276 335
#     4   8  15  28  48  74 102 131 168 209 251 303
#     4  10  21  36  53  77 112 149 185 227 276 332
#     4   9  17  33  55  76 103 143 183 221 266 316
#
# _framework density 21.181650999999999
#
# number of rings (size 3 to 8) (size 9 to 14) (size 15 to 20)
#    0.000    2.571    0.000    1.714    0.000    5.143 
#    2.571    2.857    0.000    0.000    0.000    0.000 
#    0.000    0.000    0.000    0.000    0.000    0.000 
#
# Total GULP energy -156002.823659 kJ/mol
# GULP energy per Si atom -5571.529416 kJ/mol
# Density = 2.113344 g / cm^3
# Si number density = 21.181651 Si / 1000 Ang^3
#
#
#
# Elastic Constant Matrix: (Units=GPa)
#
#
# Indices 1 2 3 4 5 6 
#
# 1 109.8216 -4.8145 77.6647 0.0000 20.9987 0.0000
# 2 -4.8145 34.6343 7.3237 0.0000 -0.5091 0.0000
# 3 77.6647 7.3237 142.0863 0.0000 18.6435 0.0000
# 4 0.0000 0.0000 0.0000 7.3059 0.0000 -2.3410
# 5 20.9987 -0.5091 18.6435 0.0000 24.6613 0.0000
# 6 0.0000 0.0000 0.0000 -2.3410 0.0000 21.7202
#
#
#
# Elastic Compliance Matrix: (Units=1/GPa)
#
#
# Indices 1 2 3 4 5 6 
#
# 1 0.016614 0.003941 -0.008258 0.000000 -0.007822 0.000000
# 2 0.003941 0.030209 -0.003722 0.000000 0.000082 0.000000
# 3 -0.008258 -0.003722 0.012024 0.000000 -0.002135 0.000000
# 4 0.000000 0.000000 0.000000 0.141771 0.000000 0.015280
# 5 -0.007822 0.000082 -0.002135 0.000000 0.048826 0.000000
# 6 0.000000 0.000000 0.000000 0.015280 0.000000 0.047687
#
#
# Mechanical properties :
#
#
# Convention : Reuss Voigt Hill
#
# Bulk Modulus (GPa) = 23.38153 49.65445 36.51799
# Shear Modulus (GPa) = 15.26878 24.49536 19.88207
#
# Velocity S-wave (km/s) = 2.68778 3.40434 3.06706
# Velocity P-wave (km/s) = 4.54915 6.24066 5.46079
#
# Compressibility (1/GPa) = 0.04276880
#
# Stress axis : x y z
#
# Youngs Moduli (GPa) = 60.18973 33.10256 83.16818
#
# Poissons Ratio (x) = -0.13045 0.68681
# Poissons Ratio (y) = -0.23719 0.30954
# Poissons Ratio (z) = 0.49705 0.12320
#
# Static dielectric constant tensor:
#      x y z
#    x 1.862340 0.000000 -0.094710 
#    y 0.000000 1.830290 0.000000 
#    z -0.094710 0.000000 1.944830 
# 
# From -- ./inp_files/71349.got.cif
#   From: 2010.05.17/outbox.cif.g08.bks.cpg/sg11_36_cif.got.tgz:71349.got - 2010.06.03 12:22:45.
