data_PCOD9159147
_publ_section_title
;
Structure prediction by ZEFSAII (Michael W. Deem and Ramdas Pophale) SiO2 
 PCOD9159147
Probable space group: P 21/M
;
_chemical_formula_sum "Si O2"
_cell_formula_units_Z 20
_cell_length_a 7.489305
_cell_length_b 8.612541
_cell_length_c 18.394142
_cell_angle_alpha 90.000000
_cell_angle_beta 131.266566
_cell_angle_gamma 90.000000
_cell_volume 891.800104
_symmetry_space_group_name_H-M "P 21/M"
_symmetry_group_IT_number 11
_symmetry_cell_setting 'monoclinic'
loop_
_space_group_symop_operation_xyz
x,y,z
-x,1/2+y,-z
-x,-y,-z
x,1/2-y,z
loop_
_atom_site_type_symbol
_atom_site_label
_atom_site_fract_x
_atom_site_fract_y
_atom_site_fract_z
Si Si1 0.760919 0.432261 0.081978
Si Si2 0.707643 0.563573 0.220256
Si Si3 0.550155 0.934109 0.632373
Si Si4 0.846360 0.063591 0.576836
Si Si5 0.235815 0.933948 0.163097
O O1 0.749787 0.250000 0.070881
O O2 0.817078 0.481523 0.179770
O O3 0.975309 0.493847 0.090255
O O4 0.500000 0.500000 0.000000
O O5 0.707375 0.750000 0.207982
O O6 0.437834 0.511420 0.161177
O O7 0.876621 0.531969 0.334687
O O8 0.563424 0.750000 0.651470
O O9 0.284022 0.975888 0.533424
O O10 0.709224 0.975519 0.604700
O O11 0.649024 0.025917 0.727664
O O12 0.811785 0.250000 0.577582
O O13 0.213138 0.750000 0.149813
#
# Coordination Sequence:
#
# PCOD9159147 Si02
#       5
#     4   4   4   4   4
#     4  12  26  45  69  93 120 156 199 253 313 369
#     4  10  22  41  65  92 124 164 207 252 303 360
#     4  10  19  32  55  89 124 165 211 253 299 353
#     4   9  18  34  57  85 123 166 209 253 299 354
#     4  11  23  40  63  92 127 165 204 250 305 364
#
# _framework density 22.426552000000001
#
# number of rings (size 3 to 8) (size 9 to 14) (size 15 to 20)
#    0.000    1.600    2.000    3.000    0.000    4.000 
#    0.000    0.000    0.000    0.000    0.000    0.000 
#    0.000    0.000    0.000    0.000    0.000    0.000 
#
# Total GULP energy -111797.545471 kJ/mol
# GULP energy per Si atom -5589.877274 kJ/mol
# Density = 2.237551 g / cm^3
# Si number density = 22.426552 Si / 1000 Ang^3
#
#
#
# Elastic Constant Matrix: (Units=GPa)
#
#
# Indices 1 2 3 4 5 6 
#
# 1 94.3820 28.9477 12.6493 0.0000 32.9133 0.0000
# 2 28.9477 44.3635 13.8125 0.0000 22.8320 0.0000
# 3 12.6493 13.8125 84.9687 0.0000 34.9554 0.0000
# 4 0.0000 0.0000 0.0000 31.9041 0.0000 7.2744
# 5 32.9133 22.8320 34.9554 0.0000 43.6372 0.0000
# 6 0.0000 0.0000 0.0000 7.2744 0.0000 18.8251
#
#
#
# Elastic Compliance Matrix: (Units=1/GPa)
#
#
# Indices 1 2 3 4 5 6 
#
# 1 0.015944 -0.005295 0.003423 0.000000 -0.011997 0.000000
# 2 -0.005295 0.032945 0.001314 0.000000 -0.014296 0.000000
# 3 0.003423 0.001314 0.018481 0.000000 -0.018073 0.000000
# 4 0.000000 0.000000 0.000000 0.034372 0.000000 -0.013282
# 5 -0.011997 -0.014296 -0.018073 0.000000 0.053923 0.000000
# 6 0.000000 0.000000 0.000000 -0.013282 0.000000 0.058253
#
#
# Mechanical properties :
#
#
# Convention : Reuss Voigt Hill
#
# Bulk Modulus (GPa) = 15.09350 37.17038 26.13194
# Shear Modulus (GPa) = 21.08645 30.09361 25.59003
#
# Velocity S-wave (km/s) = 3.06967 3.66713 3.38162
# Velocity P-wave (km/s) = 4.39416 5.87714 5.18890
#
# Compressibility (1/GPa) = 0.06625367
#
# Stress axis : x y z
#
# Youngs Moduli (GPa) = 62.71847 30.35395 54.10935
#
# Poissons Ratio (x) = 0.16073 -0.18520
# Poissons Ratio (y) = 0.33210 -0.07111
# Poissons Ratio (z) = -0.21466 -0.03989
#
# Static dielectric constant tensor:
#      x y z
#    x 1.894610 0.000000 0.008480 
#    y 0.000000 1.750290 0.000000 
#    z 0.008480 0.000000 1.907070 
# 
# From -- ./inp_files/46435.got.cif
#   From: 2010.05.17/outbox.cif.g08.bks.cpg/sg11_24_cif.got.tgz:46435.got - 2010.06.03 12:22:45.
