data_PCOD9159292
_publ_section_title
;
Structure prediction by ZEFSAII (Michael W. Deem and Ramdas Pophale) SiO2 
 PCOD9159292
Probable space group: P 21/M
;
_chemical_formula_sum "Si O2"
_cell_formula_units_Z 32
_cell_length_a 10.799502
_cell_length_b 8.591482
_cell_length_c 17.186369
_cell_angle_alpha 90.000000
_cell_angle_beta 86.172207
_cell_angle_gamma 90.000000
_cell_volume 1591.058107
_symmetry_space_group_name_H-M "P 21/M"
_symmetry_group_IT_number 11
_symmetry_cell_setting 'monoclinic'
loop_
_space_group_symop_operation_xyz
x,y,z
-x,1/2+y,-z
-x,-y,-z
x,1/2-y,z
loop_
_atom_site_type_symbol
_atom_site_label
_atom_site_fract_x
_atom_site_fract_y
_atom_site_fract_z
Si Si1 0.902027 0.070788 0.112797
Si Si2 0.688331 0.933155 0.018003
Si Si3 0.633498 0.435477 0.589300
Si Si4 0.838605 0.429622 0.881790
Si Si5 0.523602 0.932145 0.165320
Si Si6 0.285256 0.069365 0.253777
Si Si7 0.225546 0.068743 0.742373
Si Si8 0.655156 0.562206 0.421180
O O1 0.876619 0.250000 0.094743
O O2 0.809878 0.964059 0.066486
O O3 0.867912 0.034260 0.203786
O O4 0.044792 0.029568 0.094591
O O5 0.676366 0.750000 0.002203
O O6 0.574437 0.981738 0.078438
O O7 0.718942 0.026195 0.938750
O O8 0.640015 0.250000 0.598817
O O9 0.701793 0.516292 0.658020
O O10 0.682834 0.485801 0.502846
O O11 0.486963 0.480359 0.595424
O O12 0.868408 0.250000 0.890343
O O13 0.809416 0.470367 0.794095
O O14 0.483421 0.750000 0.163792
O O15 0.643070 0.936747 0.217235
O O16 0.418039 0.035472 0.207799
O O17 0.253903 0.250000 0.248940
O O18 0.185216 0.250000 0.744977
O O19 0.254329 0.019091 0.653222
O O20 0.657593 0.750000 0.428633
#
# Coordination Sequence:
#
# PCOD9159292 Si02
#       8
#     4   4   4   4   4   4   4   4
#     4  11  22  37  58  85 113 141 183 231 276 323
#     4  10  21  39  61  84 111 141 180 230 278 323
#     4  10  19  33  52  79 114 149 183 222 269 322
#     4  12  25  41  59  78 105 145 189 229 277 329
#     4   9  18  35  56  80 111 147 181 221 272 325
#     4  12  24  37  55  79 112 149 186 226 272 330
#     4   9  17  33  56  82 114 147 182 225 274 321
#     4   9  17  31  53  82 114 146 182 224 268 317
#
# _framework density 20.112403
#
# number of rings (size 3 to 8) (size 9 to 14) (size 15 to 20)
#    0.000    1.750    1.250    5.250    0.000    4.000 
#    0.000    0.000    0.000    0.750    0.000    0.000 
#    0.000    0.000    0.000    0.000    0.000    0.000 
#
# Total GULP energy -178863.807752 kJ/mol
# GULP energy per Si atom -5589.493992 kJ/mol
# Density = 2.006663 g / cm^3
# Si number density = 20.112403 Si / 1000 Ang^3
#
#
#
# Elastic Constant Matrix: (Units=GPa)
#
#
# Indices 1 2 3 4 5 6 
#
# 1 28.9995 -7.8193 2.4647 0.0000 -4.6300 0.0000
# 2 -7.8193 37.1258 8.8051 0.0000 -9.3741 0.0000
# 3 2.4647 8.8051 114.8174 0.0000 -7.2694 0.0000
# 4 0.0000 0.0000 0.0000 32.3978 0.0000 -4.5911
# 5 -4.6300 -9.3741 -7.2694 0.0000 22.6538 0.0000
# 6 0.0000 0.0000 0.0000 -4.5911 0.0000 21.7117
#
#
#
# Elastic Compliance Matrix: (Units=1/GPa)
#
#
# Indices 1 2 3 4 5 6 
#
# 1 0.039780 0.011815 -0.000955 0.000000 0.012713 0.000000
# 2 0.011815 0.033860 -0.001848 0.000000 0.015833 0.000000
# 3 -0.000955 -0.001848 0.008994 0.000000 0.001926 0.000000
# 4 0.000000 0.000000 0.000000 0.031820 0.000000 0.006729
# 5 0.012713 0.015833 0.001926 0.000000 0.053911 0.000000
# 6 0.000000 0.000000 0.000000 0.006729 0.000000 0.047481
#
#
# Mechanical properties :
#
#
# Convention : Reuss Voigt Hill
#
# Bulk Modulus (GPa) = 9.93474 20.87152 15.40313
# Shear Modulus (GPa) = 21.61007 27.18546 24.39777
#
# Velocity S-wave (km/s) = 3.28146 3.68050 3.48669
# Velocity P-wave (km/s) = 4.39405 5.33493 4.88718
#
# Compressibility (1/GPa) = 0.10065688
#
# Stress axis : x y z
#
# Youngs Moduli (GPa) = 25.13835 29.53351 111.18969
#
# Poissons Ratio (x) = -0.34893 0.10620
# Poissons Ratio (y) = -0.29700 0.20546
# Poissons Ratio (z) = 0.02401 0.05457
#
# Static dielectric constant tensor:
#      x y z
#    x 1.706390 0.000000 0.002530 
#    y 0.000000 1.678310 0.000000 
#    z 0.002530 0.000000 1.740250 
# 
# From -- ./inp_files/49386.got.cif
#   From: 2010.05.17/outbox.cif.g08.bks.cpg/sg11_25_cif.got.tgz:49386.got - 2010.06.03 12:22:45.
