data_PCOD9159863
_publ_section_title
;
Structure prediction by ZEFSAII (Michael W. Deem and Ramdas Pophale) SiO2 
 PCOD9159863
Probable space group: P 21/M
;
_chemical_formula_sum "Si O2"
_cell_formula_units_Z 32
_cell_length_a 10.643353
_cell_length_b 7.883018
_cell_length_c 20.418420
_cell_angle_alpha 90.000000
_cell_angle_beta 135.063900
_cell_angle_gamma 90.000000
_cell_volume 1210.021885
_symmetry_space_group_name_H-M "P 21/M"
_symmetry_group_IT_number 11
_symmetry_cell_setting 'monoclinic'
loop_
_space_group_symop_operation_xyz
x,y,z
-x,1/2+y,-z
-x,-y,-z
x,1/2-y,z
loop_
_atom_site_type_symbol
_atom_site_label
_atom_site_fract_x
_atom_site_fract_y
_atom_site_fract_z
Si Si1 0.822452 0.043427 0.985312
Si Si2 0.582826 0.947994 0.136033
Si Si3 0.205820 0.955349 0.518808
Si Si4 0.388572 0.055388 0.369419
Si Si5 0.269126 0.948012 0.187863
Si Si6 0.908693 0.055769 0.657493
Si Si7 0.667533 0.049605 0.301886
Si Si8 0.854330 0.446951 0.136502
O O1 0.832246 0.250000 0.982763
O O2 0.618764 0.991259 0.929944
O O3 0.837670 0.979855 0.915330
O O4 0.914830 0.985241 0.087599
O O5 0.576827 0.750000 0.146188
O O6 0.703576 0.025522 0.238683
O O7 0.675756 0.976472 0.101194
O O8 0.183935 0.750000 0.508908
O O9 0.411187 0.993361 0.575452
O O10 0.093597 0.022337 0.415961
O O11 0.197225 0.012609 0.591485
O O12 0.386560 0.250000 0.390110
O O13 0.278825 0.041755 0.260626
O O14 0.294059 0.946190 0.390123
O O15 0.229228 0.750000 0.183346
O O16 0.477117 0.959851 0.241864
O O17 0.973394 0.250000 0.678953
O O18 0.009519 0.966914 0.753869
O O19 0.640587 0.250000 0.304055
O O20 0.818290 0.250000 0.112344
#
# Coordination Sequence:
#
# PCOD9159863 Si02
#       8
#     4   4   4   4   4   4   4   4
#     4   8  17  33  55  79 105 133 169 212 257 304
#     4  10  19  34  55  81 106 134 170 212 257 308
#     4   8  17  33  55  79 105 133 169 212 257 304
#     4  10  19  34  55  81 106 134 170 212 257 308
#     4   9  16  30  52  80 107 133 165 210 259 306
#     4  11  22  37  53  74 104 140 175 214 257 304
#     4   9  16  30  52  80 107 133 165 210 259 306
#     4  11  22  37  53  74 104 140 175 214 257 304
#
# _framework density 26.445800999999999
#
# number of rings (size 3 to 8) (size 9 to 14) (size 15 to 20)
#    0.000    2.500    0.000    4.500    0.000    0.000 
#    0.000   15.000    0.000    0.000    0.000    0.000 
#    0.000    0.000    0.000    0.000    0.000    0.000 
#
# Total GULP energy -178871.507078 kJ/mol
# GULP energy per Si atom -5589.734596 kJ/mol
# Density = 2.638561 g / cm^3
# Si number density = 26.445801 Si / 1000 Ang^3
#
#
#
# Elastic Constant Matrix: (Units=GPa)
#
#
# Indices 1 2 3 4 5 6 
#
# 1 67.0339 -4.4646 13.2428 0.0000 -44.3463 0.0000
# 2 -4.4646 56.5781 -1.7374 0.0000 0.6748 0.0000
# 3 13.2428 -1.7374 195.4367 0.0000 -37.0856 0.0000
# 4 0.0000 0.0000 0.0000 16.0174 0.0000 -1.7511
# 5 -44.3463 0.6748 -37.0856 0.0000 53.4724 0.0000
# 6 0.0000 0.0000 0.0000 -1.7511 0.0000 30.7896
#
#
#
# Elastic Compliance Matrix: (Units=1/GPa)
#
#
# Indices 1 2 3 4 5 6 
#
# 1 0.035510 0.002534 0.003683 0.000000 0.031972 0.000000
# 2 0.002534 0.017861 0.000395 0.000000 0.002150 0.000000
# 3 0.003683 0.000395 0.006275 0.000000 0.007402 0.000000
# 4 0.000000 0.000000 0.000000 0.062823 0.000000 0.003573
# 5 0.031972 0.002150 0.007402 0.000000 0.050323 0.000000
# 6 0.000000 0.000000 0.000000 0.003573 0.000000 0.032682
#
#
# Mechanical properties :
#
#
# Convention : Reuss Voigt Hill
#
# Bulk Modulus (GPa) = 13.72286 37.01450 25.36868
# Shear Modulus (GPa) = 23.09041 40.85641 31.97341
#
# Velocity S-wave (km/s) = 2.95807 3.93480 3.48086
# Velocity P-wave (km/s) = 4.10697 5.88815 5.07629
#
# Compressibility (1/GPa) = 0.07287110
#
# Stress axis : x y z
#
# Youngs Moduli (GPa) = 28.16090 55.98754 159.35658
#
# Poissons Ratio (x) = -0.14186 -0.58696
# Poissons Ratio (y) = -0.07136 -0.06296
# Poissons Ratio (z) = -0.10373 -0.02212
#
# Static dielectric constant tensor:
#      x y z
#    x 2.143430 0.000000 0.060240 
#    y 0.000000 1.894670 0.000000 
#    z 0.060240 0.000000 2.186990 
# 
# From -- ./inp_files/65225.got.cif
#   From: 2010.05.17/outbox.cif.g08.bks.cpg/sg11_33_cif.got.tgz:65225.got - 2010.06.03 12:22:45.
