data_PCOD9159451
_publ_section_title
;
Structure prediction by ZEFSAII (Michael W. Deem and Ramdas Pophale) SiO2 
 PCOD9159451
Probable space group: P 21/M
;
_chemical_formula_sum "Si O2"
_cell_formula_units_Z 28
_cell_length_a 13.984178
_cell_length_b 8.618930
_cell_length_c 12.567136
_cell_angle_alpha 90.000000
_cell_angle_beta 95.183292
_cell_angle_gamma 90.000000
_cell_volume 1508.506020
_symmetry_space_group_name_H-M "P 21/M"
_symmetry_group_IT_number 11
_symmetry_cell_setting 'monoclinic'
loop_
_space_group_symop_operation_xyz
x,y,z
-x,1/2+y,-z
-x,-y,-z
x,1/2-y,z
loop_
_atom_site_type_symbol
_atom_site_label
_atom_site_fract_x
_atom_site_fract_y
_atom_site_fract_z
Si Si1 0.445083 0.438019 0.313823
Si Si2 0.742527 0.437003 0.114016
Si Si3 0.663190 0.437875 0.336376
Si Si4 0.140934 0.934802 0.246169
Si Si5 0.268201 0.436059 0.442394
Si Si6 0.964601 0.436059 0.109753
Si Si7 0.308340 0.435832 0.113128
O O1 0.447917 0.250000 0.317236
O O2 0.553201 0.493065 0.340375
O O3 0.367785 0.487833 0.394473
O O4 0.399359 0.481166 0.195155
O O5 0.737479 0.250000 0.105828
O O6 0.699013 0.483059 0.222942
O O7 0.854481 0.482558 0.117942
O O8 0.688868 0.507099 0.006959
O O9 0.665120 0.250000 0.342707
O O10 0.727513 0.505064 0.437240
O O11 0.139402 0.750000 0.244993
O O12 0.183301 0.996386 0.361476
O O13 0.215337 0.993517 0.162967
O O14 0.037180 0.000604 0.205664
O O15 0.264040 0.250000 0.437825
O O16 0.969340 0.250000 0.108143
O O17 0.000000 0.500000 0.000000
O O18 0.299597 0.250000 0.115711
#
# Coordination Sequence:
#
# PCOD9159451 Si02
#       7
#     4   4   4   4   4   4   4
#     4   8  17  33  55  81 109 142 182 225 271 317
#     4  10  22  36  53  79 113 147 182 221 271 329
#     4  10  20  37  56  77 110 150 185 223 268 322
#     4  11  21  35  57  84 109 139 181 228 277 325
#     4  10  20  36  57  83 111 141 182 229 271 320
#     4  11  21  35  56  83 111 143 181 225 273 326
#     4  10  19  33  54  81 112 144 180 225 272 322
#
# _framework density 18.561409999999999
#
# number of rings (size 3 to 8) (size 9 to 14) (size 15 to 20)
#    0.000    2.000    1.429    3.857    0.000    1.714 
#    0.000    4.286    0.000    0.000    0.000    0.000 
#    0.000    0.000    0.000    0.000    0.000    0.000 
#
# Total GULP energy -156357.758454 kJ/mol
# GULP energy per Si atom -5584.205659 kJ/mol
# Density = 1.851916 g / cm^3
# Si number density = 18.561410 Si / 1000 Ang^3
#
#
#
# Elastic Constant Matrix: (Units=GPa)
#
#
# Indices 1 2 3 4 5 6 
#
# 1 21.1641 7.6979 11.1096 0.0000 11.4422 0.0000
# 2 7.6979 40.7813 25.3287 0.0000 1.2743 0.0000
# 3 11.1096 25.3287 131.8579 0.0000 7.4382 0.0000
# 4 0.0000 0.0000 0.0000 33.3120 0.0000 2.9059
# 5 11.4422 1.2743 7.4382 0.0000 22.1651 0.0000
# 6 0.0000 0.0000 0.0000 2.9059 0.0000 16.0651
#
#
#
# Elastic Compliance Matrix: (Units=1/GPa)
#
#
# Indices 1 2 3 4 5 6 
#
# 1 0.071618 -0.011248 -0.001860 0.000000 -0.035700 0.000000
# 2 -0.011248 0.029610 -0.005068 0.000000 0.005805 0.000000
# 3 -0.001860 -0.005068 0.008810 0.000000 -0.001705 0.000000
# 4 0.000000 0.000000 0.000000 0.030501 0.000000 -0.005517
# 5 -0.035700 0.005805 -0.001705 0.000000 0.063784 0.000000
# 6 0.000000 0.000000 0.000000 -0.005517 0.000000 0.063245
#
#
# Mechanical properties :
#
#
# Convention : Reuss Voigt Hill
#
# Bulk Modulus (GPa) = 13.57074 31.34173 22.45623
# Shear Modulus (GPa) = 15.22161 24.28626 19.75393
#
# Velocity S-wave (km/s) = 2.86679 3.62114 3.26582
# Velocity P-wave (km/s) = 4.27611 5.86563 5.13278
#
# Compressibility (1/GPa) = 0.07368796
#
# Stress axis : x y z
#
# Youngs Moduli (GPa) = 13.96297 33.77212 113.50430
#
# Poissons Ratio (x) = 0.37987 0.21107
# Poissons Ratio (y) = 0.15706 0.57520
# Poissons Ratio (z) = 0.02597 0.17114
#
# Static dielectric constant tensor:
#      x y z
#    x 1.634450 0.000000 0.007740 
#    y 0.000000 1.627670 0.000000 
#    z 0.007740 0.000000 1.629400 
# 
# From -- ./inp_files/37639.got.cif
#   From: 2010.05.17/outbox.cif.g08.bks.cpg/sg11_19_cif.got.tgz:37639.got - 2010.06.03 12:22:45.
