data_PCOD9159551
_publ_section_title
;
Structure prediction by ZEFSAII (Michael W. Deem and Ramdas Pophale) SiO2 
 PCOD9159551
Probable space group: P 21/M
;
_chemical_formula_sum "Si O2"
_cell_formula_units_Z 28
_cell_length_a 8.909204
_cell_length_b 28.555339
_cell_length_c 5.142465
_cell_angle_alpha 90.000000
_cell_angle_beta 107.982818
_cell_angle_gamma 90.000000
_cell_volume 1244.360420
_symmetry_space_group_name_H-M "P 21/M"
_symmetry_group_IT_number 11
_symmetry_cell_setting 'monoclinic'
loop_
_space_group_symop_operation_xyz
x,y,z
-x,1/2+y,-z
-x,-y,-z
x,1/2-y,z
loop_
_atom_site_type_symbol
_atom_site_label
_atom_site_fract_x
_atom_site_fract_y
_atom_site_fract_z
Si Si1 0.862393 0.637115 0.207830
Si Si2 0.320549 0.499772 0.318481
Si Si3 0.255884 0.555965 0.778232
Si Si4 0.485395 0.697684 0.501646
Si Si5 0.132731 0.303278 0.299104
Si Si6 0.516498 0.140930 0.991952
Si Si7 0.047426 0.445690 0.079269
O O1 0.899715 0.673519 0.995352
O O2 0.671551 0.631281 0.115994
O O3 0.935327 0.588049 0.156364
O O4 0.918703 0.661725 0.500726
O O5 0.500000 0.500000 0.500000
O O6 0.244168 0.535981 0.482677
O O7 0.222957 0.451578 0.293449
O O8 0.310029 0.516013 0.013874
O O9 0.385728 0.595951 0.871075
O O10 0.087329 0.571721 0.800076
O O11 0.424898 0.750000 0.421392
O O12 0.676083 0.699203 0.575436
O O13 0.454349 0.680430 0.775373
O O14 0.430012 0.660362 0.258763
O O15 0.073456 0.250000 0.291534
O O16 0.000000 0.500000 0.000000
#
# Coordination Sequence:
#
# PCOD9159551 Si02
#       7
#     4   4   4   4   4   4   4
#     4  10  20  34  58  84 113 151 194 240 290 351
#     4  11  23  40  62  85 112 149 197 248 290 340
#     4  11  23  39  58  83 117 154 190 238 292 345
#     4   9  17  31  54  84 115 145 184 241 299 348
#     4   9  18  33  56  86 114 143 188 246 299 346
#     4  10  19  33  55  84 112 147 196 241 286 349
#     4  10  24  42  60  86 122 163 203 244 301 361
#
# _framework density 22.501518000000001
#
# number of rings (size 3 to 8) (size 9 to 14) (size 15 to 20)
#    0.000    2.000    0.000    3.429    0.000   11.429 
#    0.000    0.000    0.000    5.143    0.000    0.000 
#    0.000    0.000    0.000    0.000    0.000    0.000 
#
# Total GULP energy -156499.428441 kJ/mol
# GULP energy per Si atom -5589.265301 kJ/mol
# Density = 2.245030 g / cm^3
# Si number density = 22.501518 Si / 1000 Ang^3
#
#
#
# Elastic Constant Matrix: (Units=GPa)
#
#
# Indices 1 2 3 4 5 6 
#
# 1 71.8939 26.1428 14.1671 0.0000 -3.3879 0.0000
# 2 26.1428 81.3928 9.2703 0.0000 -0.3828 0.0000
# 3 14.1671 9.2703 61.4251 0.0000 -4.2727 0.0000
# 4 0.0000 0.0000 0.0000 24.9842 0.0000 -5.0667
# 5 -3.3879 -0.3828 -4.2727 0.0000 18.6549 0.0000
# 6 0.0000 0.0000 0.0000 -5.0667 0.0000 16.9559
#
#
#
# Elastic Compliance Matrix: (Units=1/GPa)
#
#
# Indices 1 2 3 4 5 6 
#
# 1 0.016370 -0.004920 -0.002879 0.000000 0.002213 0.000000
# 2 -0.004920 0.013980 -0.001034 0.000000 -0.000843 0.000000
# 3 -0.002879 -0.001034 0.017338 0.000000 0.003427 0.000000
# 4 0.000000 0.000000 0.000000 0.042607 0.000000 0.012732
# 5 0.002213 -0.000843 0.003427 0.000000 0.054775 0.000000
# 6 0.000000 0.000000 0.000000 0.012732 0.000000 0.062781
#
#
# Mechanical properties :
#
#
# Convention : Reuss Voigt Hill
#
# Bulk Modulus (GPa) = 33.30767 34.87468 34.09117
# Shear Modulus (GPa) = 21.22922 23.12777 22.17849
#
# Velocity S-wave (km/s) = 3.07491 3.20946 3.14290
# Velocity P-wave (km/s) = 5.23844 5.40986 5.32484
#
# Compressibility (1/GPa) = 0.03002311
#
# Stress axis : x y z
#
# Youngs Moduli (GPa) = 61.08768 71.53068 57.67523
#
# Poissons Ratio (x) = 0.35190 0.16606
# Poissons Ratio (y) = 0.30053 0.05963
# Poissons Ratio (z) = 0.17588 0.07395
#
# Static dielectric constant tensor:
#      x y z
#    x 1.877970 0.000000 0.028810 
#    y 0.000000 1.847340 0.000000 
#    z 0.028810 0.000000 1.822310 
# 
# From -- ./inp_files/3270.got.cif
#   From: 2010.05.17/outbox.cif.g08.bks.cpg/sg11_2_cif.got.tgz:3270.got - 2010.06.03 12:22:45.
