data_PCOD9159139
_publ_section_title
;
Structure prediction by ZEFSAII (Michael W. Deem and Ramdas Pophale) SiO2 
 PCOD9159139
Probable space group: P 21/M
;
_chemical_formula_sum "Si O2"
_cell_formula_units_Z 32
_cell_length_a 11.707553
_cell_length_b 8.769382
_cell_length_c 16.558658
_cell_angle_alpha 90.000000
_cell_angle_beta 91.648517
_cell_angle_gamma 90.000000
_cell_volume 1699.340749
_symmetry_space_group_name_H-M "P 21/M"
_symmetry_group_IT_number 11
_symmetry_cell_setting 'monoclinic'
loop_
_space_group_symop_operation_xyz
x,y,z
-x,1/2+y,-z
-x,-y,-z
x,1/2-y,z
loop_
_atom_site_type_symbol
_atom_site_label
_atom_site_fract_x
_atom_site_fract_y
_atom_site_fract_z
Si Si1 0.488750 0.567240 0.910634
Si Si2 0.327470 0.067630 0.454400
Si Si3 0.313482 0.564131 0.776700
Si Si4 0.570755 0.433793 0.386063
Si Si5 0.285976 0.567666 0.160190
Si Si6 0.054260 0.570213 0.756413
Si Si7 0.071047 0.070853 0.074313
Si Si8 0.161906 0.568366 0.325218
O O1 0.488421 0.750000 0.915578
O O2 0.374471 0.516525 0.860789
O O3 0.596438 0.513172 0.859837
O O4 0.500000 0.500000 0.000000
O O5 0.324501 0.250000 0.457812
O O6 0.441833 0.020142 0.406846
O O7 0.346404 0.000743 0.543779
O O8 0.218845 0.005615 0.404508
O O9 0.310302 0.750000 0.778040
O O10 0.390471 0.517865 0.701918
O O11 0.183897 0.512146 0.760878
O O12 0.575769 0.250000 0.389880
O O13 0.299287 0.750000 0.157748
O O14 0.189325 0.515502 0.094504
O O15 0.237311 0.523684 0.247578
O O16 0.054869 0.750000 0.735727
O O17 0.003068 0.555897 0.845414
O O18 0.966290 0.486048 0.695889
O O19 0.092892 0.250000 0.061021
O O20 0.000000 0.000000 0.000000
O O21 0.165378 0.750000 0.331669
#
# Coordination Sequence:
#
# PCOD9159139 Si02
#       8
#     4   4   4   4   4   4   4   4
#     4  11  23  38  57  83 113 147 186 228 279 337
#     4  10  19  32  55  85 115 144 179 225 273 329
#     4   9  19  37  59  79 108 147 183 223 276 334
#     4   9  18  34  56  83 111 144 182 223 272 326
#     4  10  21  37  55  77 108 142 183 231 277 326
#     4   9  19  36  56  78 104 143 185 225 275 332
#     4  10  20  33  54  80 106 139 181 230 281 331
#     4  10  20  35  56  82 110 143 182 231 278 322
#
# _framework density 18.830832000000001
#
# number of rings (size 3 to 8) (size 9 to 14) (size 15 to 20)
#    0.000    2.250    0.000    2.625    1.750    3.500 
#    0.000    3.750    0.000    0.000    0.000    0.000 
#    0.000    0.000    0.000    0.000    0.000    0.000 
#
# Total GULP energy -178669.017960 kJ/mol
# GULP energy per Si atom -5583.406811 kJ/mol
# Density = 1.878797 g / cm^3
# Si number density = 18.830832 Si / 1000 Ang^3
#
#
#
# Elastic Constant Matrix: (Units=GPa)
#
#
# Indices 1 2 3 4 5 6 
#
# 1 89.3213 12.9648 41.1120 0.0000 21.4972 0.0000
# 2 12.9648 29.7537 24.0151 0.0000 5.5831 0.0000
# 3 41.1120 24.0151 89.1286 0.0000 31.1485 0.0000
# 4 0.0000 0.0000 0.0000 26.4149 0.0000 5.0586
# 5 21.4972 5.5831 31.1485 0.0000 32.6381 0.0000
# 6 0.0000 0.0000 0.0000 5.0586 0.0000 25.1978
#
#
#
# Elastic Compliance Matrix: (Units=1/GPa)
#
#
# Indices 1 2 3 4 5 6 
#
# 1 0.014776 -0.001810 -0.004554 0.000000 -0.005077 0.000000
# 2 -0.001810 0.043852 -0.013167 0.000000 0.006258 0.000000
# 3 -0.004554 -0.013167 0.022556 0.000000 -0.016275 0.000000
# 4 0.000000 0.000000 0.000000 0.039371 0.000000 -0.007904
# 5 -0.005077 0.006258 -0.016275 0.000000 0.048444 0.000000
# 6 0.000000 0.000000 0.000000 -0.007904 0.000000 0.041273
#
#
# Mechanical properties :
#
#
# Convention : Reuss Voigt Hill
#
# Bulk Modulus (GPa) = 23.74138 40.48749 32.11443
# Shear Modulus (GPa) = 18.98435 25.52427 22.25431
#
# Velocity S-wave (km/s) = 3.17859 3.68564 3.44146
# Velocity P-wave (km/s) = 5.10943 6.29756 5.73435
#
# Compressibility (1/GPa) = 0.04212056
#
# Stress axis : x y z
#
# Youngs Moduli (GPa) = 67.67689 22.80411 44.33473
#
# Poissons Ratio (x) = 0.04129 0.20189
# Poissons Ratio (y) = 0.12252 0.58377
# Poissons Ratio (z) = 0.30818 0.30027
#
# Static dielectric constant tensor:
#      x y z
#    x 1.650670 0.000000 -0.003300 
#    y 0.000000 1.631480 0.000000 
#    z -0.003300 0.000000 1.636930 
# 
# From -- ./inp_files/42807.got.cif
#   From: 2010.05.17/outbox.cif.g08.bks.cpg/sg11_22_cif.got.tgz:42807.got - 2010.06.03 12:22:45.
