data_PCOD9159284
_publ_section_title
;
Structure prediction by ZEFSAII (Michael W. Deem and Ramdas Pophale) SiO2 
 PCOD9159284
Probable space group: P 21/M
;
_chemical_formula_sum "Si O2"
_cell_formula_units_Z 28
_cell_length_a 8.665042
_cell_length_b 27.717043
_cell_length_c 8.668290
_cell_angle_alpha 90.000000
_cell_angle_beta 143.027232
_cell_angle_gamma 90.000000
_cell_volume 1252.102744
_symmetry_space_group_name_H-M "P 21/M"
_symmetry_group_IT_number 11
_symmetry_cell_setting 'monoclinic'
loop_
_space_group_symop_operation_xyz
x,y,z
-x,1/2+y,-z
-x,-y,-z
x,1/2-y,z
loop_
_atom_site_type_symbol
_atom_site_label
_atom_site_fract_x
_atom_site_fract_y
_atom_site_fract_z
Si Si1 0.677460 0.692668 0.824782
Si Si2 0.483798 0.944237 0.014254
Si Si3 0.845727 0.864371 0.656424
Si Si4 0.633975 0.370565 0.863657
Si Si5 0.203950 0.480097 0.295817
Si Si6 0.072984 0.942499 0.425132
Si Si7 0.825759 0.147605 0.671851
O O1 0.677477 0.750000 0.824259
O O2 0.768520 0.670716 0.733633
O O3 0.388680 0.672644 0.605148
O O4 0.897340 0.672733 0.113617
O O5 0.392563 0.926533 0.108562
O O6 0.779202 0.929742 0.225844
O O7 0.270004 0.929974 0.718367
O O8 0.500000 0.000000 0.000000
O O9 0.655737 0.853706 0.364777
O O10 0.809708 0.920757 0.691341
O O11 0.137608 0.853653 0.846798
O O12 0.727641 0.355488 0.769869
O O13 0.500000 0.500000 0.500000
O O14 0.112580 0.503915 0.386352
O O15 0.000000 0.500000 0.000000
O O16 0.151552 0.907914 0.350336
#
# Coordination Sequence:
#
# PCOD9159284 Si02
#       7
#     4   4   4   4   4   4   4
#     4  10  19  34  58  89 118 143 183 249 305 346
#     4  12  24  39  55  83 121 162 202 237 285 342
#     4  10  19  33  52  78 109 143 187 224 276 333
#     4  10  20  37  56  76 112 150 184 233 280 327
#     4  12  21  33  52  78 113 150 183 228 273 323
#     4  12  24  38  59  87 120 156 200 241 285 350
#     4  10  21  38  59  89 115 148 197 240 292 353
#
# _framework density 22.362382
#
# number of rings (size 3 to 8) (size 9 to 14) (size 15 to 20)
#    0.000    1.143    0.000    9.429    0.000    0.000 
#    0.000    0.000    0.000    0.000    0.000   80.000 
#    0.000    0.000    0.000    0.000    0.000    0.000 
#
# Total GULP energy -155988.795321 kJ/mol
# GULP energy per Si atom -5571.028404 kJ/mol
# Density = 2.231148 g / cm^3
# Si number density = 22.362382 Si / 1000 Ang^3
#
#
#
# Elastic Constant Matrix: (Units=GPa)
#
#
# Indices 1 2 3 4 5 6 
#
# 1 29.8376 -9.7260 46.4228 0.0000 19.2772 0.0000
# 2 -9.7260 62.8484 -1.1632 0.0000 4.2562 0.0000
# 3 46.4228 -1.1632 202.3832 0.0000 54.1366 0.0000
# 4 0.0000 0.0000 0.0000 24.2139 0.0000 5.8744
# 5 19.2772 4.2562 54.1366 0.0000 28.9248 0.0000
# 6 0.0000 0.0000 0.0000 5.8744 0.0000 10.3108
#
#
#
# Elastic Compliance Matrix: (Units=1/GPa)
#
#
# Indices 1 2 3 4 5 6 
#
# 1 0.072838 0.013795 -0.006208 0.000000 -0.038954 0.000000
# 2 0.013795 0.018900 0.000296 0.000000 -0.012528 0.000000
# 3 -0.006208 0.000296 0.010557 0.000000 -0.015665 0.000000
# 4 0.000000 0.000000 0.000000 0.047922 0.000000 -0.027303
# 5 -0.038954 -0.012528 -0.015665 0.000000 0.091696 0.000000
# 6 0.000000 0.000000 0.000000 -0.027303 0.000000 0.112541
#
#
# Mechanical properties :
#
#
# Convention : Reuss Voigt Hill
#
# Bulk Modulus (GPa) = 8.47033 40.68181 24.57607
# Shear Modulus (GPa) = 13.22598 29.99227 21.60913
#
# Velocity S-wave (km/s) = 2.43459 3.66620 3.11193
# Velocity P-wave (km/s) = 3.42037 6.01273 4.89142
#
# Compressibility (1/GPa) = 0.11805910
#
# Stress axis : x y z
#
# Youngs Moduli (GPa) = 13.72919 52.91003 94.72153
#
# Poissons Ratio (x) = -0.72989 0.58806
# Poissons Ratio (y) = -0.18939 -0.02799
# Poissons Ratio (z) = 0.08524 -0.01564
#
# Static dielectric constant tensor:
#      x y z
#    x 1.858920 0.000000 0.063360 
#    y 0.000000 1.816070 0.000000 
#    z 0.063360 0.000000 2.007840 
# 
# From -- ./inp_files/15283.got.cif
#   From: 2010.05.17/outbox.cif.g08.bks.cpg/sg11_8_cif.got.tgz:15283.got - 2010.06.03 12:22:45.
