data_PCOD9159848
_publ_section_title
;
Structure prediction by ZEFSAII (Michael W. Deem and Ramdas Pophale) SiO2 
 PCOD9159848
Probable space group: P 21/M
;
_chemical_formula_sum "Si O2"
_cell_formula_units_Z 28
_cell_length_a 10.616222
_cell_length_b 14.192412
_cell_length_c 9.252774
_cell_angle_alpha 90.000000
_cell_angle_beta 55.524231
_cell_angle_gamma 90.000000
_cell_volume 1149.259350
_symmetry_space_group_name_H-M "P 21/M"
_symmetry_group_IT_number 11
_symmetry_cell_setting 'monoclinic'
loop_
_space_group_symop_operation_xyz
x,y,z
-x,1/2+y,-z
-x,-y,-z
x,1/2-y,z
loop_
_atom_site_type_symbol
_atom_site_label
_atom_site_fract_x
_atom_site_fract_y
_atom_site_fract_z
Si Si1 0.368600 0.853343 0.179762
Si Si2 0.579696 0.089120 0.546813
Si Si3 0.857902 0.535598 0.391387
Si Si4 0.341584 0.453082 0.916679
Si Si5 0.067335 0.138094 0.958373
Si Si6 0.285561 0.856128 0.835215
Si Si7 0.954054 0.138846 0.513449
O O1 0.396704 0.750000 0.102495
O O2 0.362628 0.846123 0.360641
O O3 0.525645 0.913601 0.065644
O O4 0.189714 0.880672 0.282154
O O5 0.607855 0.131886 0.373523
O O6 0.589019 0.931668 0.288177
O O7 0.681733 0.995660 0.501461
O O8 0.897741 0.610890 0.489564
O O9 0.907006 0.579843 0.206814
O O10 0.937595 0.438344 0.396844
O O11 0.179901 0.401422 0.009625
O O12 0.325772 0.565655 0.928290
O O13 0.097268 0.250000 0.918704
O O14 0.887478 0.126422 0.106385
O O15 0.291056 0.750000 0.883898
O O16 0.955534 0.250000 0.474032
#
# Coordination Sequence:
#
# PCOD9159848 Si02
#       7
#     4   4   4   4   4   4   4
#     4   8  16  30  53  79 103 134 174 221 267 314
#     4   9  19  32  52  79 107 141 177 216 269 311
#     4  10  19  34  55  79 110 139 178 230 270 314
#     4  10  20  35  52  80 111 142 177 224 267 322
#     4  11  23  35  52  81 113 146 181 218 269 327
#     4  11  22  35  51  76 114 154 181 212 265 327
#     4   9  18  34  56  82 107 138 183 228 273 316
#
# _framework density 24.363517999999999
#
# number of rings (size 3 to 8) (size 9 to 14) (size 15 to 20)
#    0.857    1.429    1.429    2.143    0.000    0.571 
#    0.000    0.714    0.000    0.857    0.000    0.000 
#    0.000    0.000    0.000    0.000    0.000    0.000 
#
# Total GULP energy -156097.712949 kJ/mol
# GULP energy per Si atom -5574.918320 kJ/mol
# Density = 2.430807 g / cm^3
# Si number density = 24.363518 Si / 1000 Ang^3
#
#
#
# Elastic Constant Matrix: (Units=GPa)
#
#
# Indices 1 2 3 4 5 6 
#
# 1 79.5447 26.3191 8.6441 0.0000 -10.8638 0.0000
# 2 26.3191 146.1034 19.6040 0.0000 -16.0937 0.0000
# 3 8.6441 19.6040 78.1864 0.0000 -7.4281 0.0000
# 4 0.0000 0.0000 0.0000 19.4678 0.0000 -11.8444
# 5 -10.8638 -16.0937 -7.4281 0.0000 27.2848 0.0000
# 6 0.0000 0.0000 0.0000 -11.8444 0.0000 5.9933
#
#
#
# Elastic Compliance Matrix: (Units=1/GPa)
#
#
# Indices 1 2 3 4 5 6 
#
# 1 0.013859 -0.001948 -0.000645 0.000000 0.004193 0.000000
# 2 -0.001948 0.007761 -0.001406 0.000000 0.003419 0.000000
# 3 -0.000645 -0.001406 0.013459 0.000000 0.002578 0.000000
# 4 0.000000 0.000000 0.000000 -0.253789 0.000000 -0.501561
# 5 0.004193 0.003419 0.002578 0.000000 0.041039 0.000000
# 6 0.000000 0.000000 0.000000 -0.501561 0.000000 -0.824375
#
#
# Mechanical properties :
#
#
# Convention : Reuss Voigt Hill
#
# Bulk Modulus (GPa) = 36.92745 45.88542 41.40644
# Shear Modulus (GPa) = -5.07603 27.16699 11.04548
#
# Velocity S-wave (km/s) = -1.44498 3.34289 2.13154
# Velocity P-wave (km/s) = 3.52219 5.81157 4.80522
#
# Compressibility (1/GPa) = 0.02708013
#
# Stress axis : x y z
#
# Youngs Moduli (GPa) = 72.15558 128.85553 74.30161
#
# Poissons Ratio (x) = 0.25102 0.04795
# Poissons Ratio (y) = 0.14056 0.10444
# Poissons Ratio (z) = 0.04657 0.18112
#
# Static dielectric constant tensor:
#      x y z
#    x 1.981730 0.000000 0.027000 
#    y 0.000000 1.939810 0.000000 
#    z 0.027000 0.000000 1.985040 
# 
# From -- ./inp_files/43349.got.cif
#   From: 2010.05.17/outbox.cif.g08.bks.cpg/sg11_22_cif.got.tgz:43349.got - 2010.06.03 12:22:45.
