data_PCOD9159761
_publ_section_title
;
Structure prediction by ZEFSAII (Michael W. Deem and Ramdas Pophale) SiO2 
 PCOD9159761
Probable space group: P 21/M
;
_chemical_formula_sum "Si O2"
_cell_formula_units_Z 32
_cell_length_a 17.665026
_cell_length_b 14.530091
_cell_length_c 15.895063
_cell_angle_alpha 90.000000
_cell_angle_beta 156.527993
_cell_angle_gamma 90.000000
_cell_volume 1625.010743
_symmetry_space_group_name_H-M "P 21/M"
_symmetry_group_IT_number 11
_symmetry_cell_setting 'monoclinic'
loop_
_space_group_symop_operation_xyz
x,y,z
-x,1/2+y,-z
-x,-y,-z
x,1/2-y,z
loop_
_atom_site_type_symbol
_atom_site_label
_atom_site_fract_x
_atom_site_fract_y
_atom_site_fract_z
Si Si1 0.359574 0.034193 0.067633
Si Si2 0.607671 0.358071 0.614368
Si Si3 0.555734 0.856115 0.006034
Si Si4 0.025393 0.853959 0.340062
Si Si5 0.082475 0.644170 0.215976
Si Si6 0.305347 0.461523 0.200984
Si Si7 0.669973 0.353954 0.058059
Si Si8 0.002471 0.390803 0.508295
O O1 0.402778 0.051884 0.208953
O O2 0.470196 0.086214 0.105745
O O3 0.144968 0.073109 0.838162
O O4 0.361968 0.926793 0.047608
O O5 0.596152 0.250000 0.626642
O O6 0.410880 0.398585 0.377466
O O7 0.676200 0.431734 0.753652
O O8 0.754911 0.366235 0.686806
O O9 0.506465 0.750000 0.939681
O O10 0.780202 0.860012 0.259629
O O11 0.443561 0.887694 0.974587
O O12 0.944040 0.750000 0.252029
O O13 0.146438 0.866330 0.378843
O O14 0.105019 0.862588 0.514917
O O15 0.010582 0.750000 0.135062
O O16 0.910517 0.573836 0.025512
O O17 0.610652 0.250000 0.977920
O O18 0.888150 0.354196 0.312000
O O19 0.000000 0.500000 0.500000
#
# Coordination Sequence:
#
# PCOD9159761 Si02
#       8
#     4   4   4   4   4   4   4   4
#     4  10  19  34  53  77 104 138 175 216 264 311
#     4  10  21  37  57  82 107 138 176 214 266 327
#     4  10  21  36  53  75 106 139 179 226 263 303
#     4   9  17  31  51  78 106 134 172 218 263 302
#     4   9  18  34  57  82 110 137 170 218 267 315
#     4  10  21  36  56  81 110 140 172 219 268 320
#     4  11  22  35  52  75 104 144 186 218 259 312
#     4  11  19  32  53  72 103 141 172 215 261 304
#
# _framework density 19.692176
#
# number of rings (size 3 to 8) (size 9 to 14) (size 15 to 20)
#    0.000    2.000    2.500    3.375    0.000    3.000 
#    0.000    2.500    0.000    0.000    0.000    5.250 
#    0.000    0.000    0.000    0.000    0.000    0.000 
#
# Total GULP energy -178470.457460 kJ/mol
# GULP energy per Si atom -5577.201796 kJ/mol
# Density = 1.964736 g / cm^3
# Si number density = 19.692176 Si / 1000 Ang^3
#
#
#
# Elastic Constant Matrix: (Units=GPa)
#
#
# Indices 1 2 3 4 5 6 
#
# 1 42.5362 12.1178 -3.3168 0.0000 2.8660 0.0000
# 2 12.1178 101.9265 4.2669 0.0000 0.3524 0.0000
# 3 -3.3168 4.2669 42.3200 0.0000 -1.8406 0.0000
# 4 0.0000 0.0000 0.0000 40.9262 0.0000 7.3038
# 5 2.8660 0.3524 -1.8406 0.0000 18.8091 0.0000
# 6 0.0000 0.0000 0.0000 7.3038 0.0000 36.1899
#
#
#
# Elastic Compliance Matrix: (Units=1/GPa)
#
#
# Indices 1 2 3 4 5 6 
#
# 1 0.024770 -0.003020 0.002093 0.000000 -0.003513 0.000000
# 2 -0.003020 0.010222 -0.001261 0.000000 0.000145 0.000000
# 3 0.002093 -0.001261 0.024010 0.000000 0.002054 0.000000
# 4 0.000000 0.000000 0.000000 0.025347 0.000000 -0.005116
# 5 -0.003513 0.000145 0.002054 0.000000 0.053899 0.000000
# 6 0.000000 0.000000 0.000000 -0.005116 0.000000 0.028664
#
#
# Mechanical properties :
#
#
# Convention : Reuss Voigt Hill
#
# Bulk Modulus (GPa) = 18.30648 23.65761 20.98204
# Shear Modulus (GPa) = 26.38551 30.76604 28.57577
#
# Velocity S-wave (km/s) = 3.66443 3.95694 3.81349
# Velocity P-wave (km/s) = 5.21734 5.73728 5.48347
#
# Compressibility (1/GPa) = 0.05462548
#
# Stress axis : x y z
#
# Youngs Moduli (GPa) = 40.37185 97.82486 41.64932
#
# Poissons Ratio (x) = 0.29546 -0.08717
# Poissons Ratio (y) = 0.12193 0.05252
# Poissons Ratio (z) = -0.08450 0.12336
#
# Static dielectric constant tensor:
#      x y z
#    x 1.702440 0.000000 0.008450 
#    y 0.000000 1.694080 0.000000 
#    z 0.008450 0.000000 1.710690 
# 
# From -- ./inp_files/53728.got.cif
#   From: 2010.05.17/outbox.cif.g08.bks.cpg/sg11_27_cif.got.tgz:53728.got - 2010.06.03 12:22:45.
