data_PCOD9159910
_publ_section_title
;
Structure prediction by ZEFSAII (Michael W. Deem and Ramdas Pophale) SiO2 
 PCOD9159910
Probable space group: P 21/M
;
_chemical_formula_sum "Si O2"
_cell_formula_units_Z 32
_cell_length_a 15.249252
_cell_length_b 8.038328
_cell_length_c 26.763760
_cell_angle_alpha 90.000000
_cell_angle_beta 150.250053
_cell_angle_gamma 90.000000
_cell_volume 1627.915630
_symmetry_space_group_name_H-M "P 21/M"
_symmetry_group_IT_number 11
_symmetry_cell_setting 'monoclinic'
loop_
_space_group_symop_operation_xyz
x,y,z
-x,1/2+y,-z
-x,-y,-z
x,1/2-y,z
loop_
_atom_site_type_symbol
_atom_site_label
_atom_site_fract_x
_atom_site_fract_y
_atom_site_fract_z
Si Si1 0.106671 0.548918 0.503027
Si Si2 0.499172 0.554054 0.836718
Si Si3 0.138062 0.052740 0.707174
Si Si4 0.054283 0.048634 0.775786
Si Si5 0.662984 0.051665 0.614594
Si Si6 0.498501 0.046155 0.276545
Si Si7 0.157059 0.551868 0.934347
Si Si8 0.770251 0.552065 0.774062
O O1 0.108171 0.750000 0.501831
O O2 0.309635 0.493549 0.608044
O O3 0.000000 0.500000 0.500000
O O4 0.003138 0.485345 0.402936
O O5 0.461013 0.750000 0.815361
O O6 0.332333 0.472344 0.781160
O O7 0.518357 0.492765 0.789245
O O8 0.677674 0.524945 0.955553
O O9 0.103798 0.250000 0.693856
O O10 0.119836 0.986746 0.754456
O O11 0.064420 0.250000 0.782099
O O12 0.849434 0.999486 0.682281
O O13 0.157066 0.984374 0.875197
O O14 0.665412 0.250000 0.620294
O O15 0.500000 0.000000 0.500000
O O16 0.661229 0.978102 0.669349
O O17 0.495406 0.250000 0.275848
O O18 0.339753 0.986414 0.233364
O O19 0.163263 0.750000 0.944480
O O20 0.968516 0.486329 0.862373
O O21 0.788379 0.750000 0.789618
#
# Coordination Sequence:
#
# PCOD9159910 Si02
#       8
#     4   4   4   4   4   4   4   4
#     4  10  19  34  56  80 112 148 182 222 271 325
#     4  11  22  37  58  82 110 148 187 227 274 330
#     4  10  21  36  57  84 111 144 186 229 274 323
#     4   9  20  38  58  80 108 145 186 226 274 330
#     4  10  20  34  54  81 112 146 185 226 272 327
#     4   9  19  35  57  83 111 147 186 219 269 333
#     4  10  21  38  59  83 110 142 181 233 283 323
#     4   9  19  37  59  80 109 145 184 228 275 326
#
# _framework density 19.657039000000001
#
# number of rings (size 3 to 8) (size 9 to 14) (size 15 to 20)
#    0.000    2.250    1.250    1.125    1.750    2.500 
#    0.000    1.875    0.000    0.000    0.000    0.000 
#    0.000    0.000    0.000    0.000    0.000    0.000 
#
# Total GULP energy -178634.554959 kJ/mol
# GULP energy per Si atom -5582.329842 kJ/mol
# Density = 1.961230 g / cm^3
# Si number density = 19.657039 Si / 1000 Ang^3
#
#
#
# Elastic Constant Matrix: (Units=GPa)
#
#
# Indices 1 2 3 4 5 6 
#
# 1 153.8416 -1.1462 54.7811 0.0000 -23.0187 0.0000
# 2 -1.1462 11.0459 -10.6865 0.0000 0.4227 0.0000
# 3 54.7811 -10.6865 128.7545 0.0000 -8.3401 0.0000
# 4 0.0000 0.0000 0.0000 13.3331 0.0000 -2.9468
# 5 -23.0187 0.4227 -8.3401 0.0000 6.9027 0.0000
# 6 0.0000 0.0000 0.0000 -2.9468 0.0000 21.3849
#
#
#
# Elastic Compliance Matrix: (Units=1/GPa)
#
#
# Indices 1 2 3 4 5 6 
#
# 1 0.014225 -0.003611 -0.003542 0.000000 0.043379 0.000000
# 2 -0.003611 0.099463 0.009349 0.000000 -0.006836 0.000000
# 3 -0.003542 0.009349 0.010033 0.000000 -0.000263 0.000000
# 4 0.000000 0.000000 0.000000 0.077357 0.000000 0.010660
# 5 0.043379 -0.006836 -0.000263 0.000000 0.289627 0.000000
# 6 0.000000 0.000000 0.000000 0.010660 0.000000 0.048231
#
#
# Mechanical properties :
#
#
# Convention : Reuss Voigt Hill
#
# Bulk Modulus (GPa) = 7.80562 42.17096 24.98829
# Shear Modulus (GPa) = 8.66177 25.03705 16.84941
#
# Velocity S-wave (km/s) = 2.10143 3.57276 2.93092
# Velocity P-wave (km/s) = 3.14126 6.20640 4.91869
#
# Compressibility (1/GPa) = 0.12811290
#
# Stress axis : x y z
#
# Youngs Moduli (GPa) = 70.29773 10.05396 99.67360
#
# Poissons Ratio (x) = 0.03630 0.35307
# Poissons Ratio (y) = 0.25383 -0.93184
# Poissons Ratio (z) = 0.24901 -0.09399
#
# Static dielectric constant tensor:
#      x y z
#    x 1.682660 0.000000 0.000240 
#    y 0.000000 1.702370 0.000000 
#    z 0.000240 0.000000 1.660350 
# 
# From -- ./inp_files/51630.got.cif
#   From: 2010.05.17/outbox.cif.g08.bks.cpg/sg11_26_cif.got.tgz:51630.got - 2010.06.03 12:22:45.
