data_PCOD9159898
_publ_section_title
;
Structure prediction by ZEFSAII (Michael W. Deem and Ramdas Pophale) SiO2 
 PCOD9159898
Probable space group: P 21/M
;
_chemical_formula_sum "Si O2"
_cell_formula_units_Z 32
_cell_length_a 25.402562
_cell_length_b 7.392253
_cell_length_c 20.369383
_cell_angle_alpha 90.000000
_cell_angle_beta 21.651821
_cell_angle_gamma 90.000000
_cell_volume 1411.294933
_symmetry_space_group_name_H-M "P 21/M"
_symmetry_group_IT_number 11
_symmetry_cell_setting 'monoclinic'
loop_
_space_group_symop_operation_xyz
x,y,z
-x,1/2+y,-z
-x,-y,-z
x,1/2-y,z
loop_
_atom_site_type_symbol
_atom_site_label
_atom_site_fract_x
_atom_site_fract_y
_atom_site_fract_z
Si Si1 0.985208 0.471133 0.837175
Si Si2 0.452244 0.459224 0.447909
Si Si3 0.285035 0.530907 0.772256
Si Si4 0.579223 0.028706 0.092134
Si Si5 0.645137 0.034290 0.870056
Si Si6 0.691441 0.971012 0.518701
Si Si7 0.950198 0.035328 0.483257
Si Si8 0.164625 0.955853 0.120403
O O1 0.990385 0.250000 0.829703
O O2 0.146848 0.533157 0.659468
O O3 0.915404 0.534314 0.849636
O O4 0.873572 0.522538 0.023289
O O5 0.483144 0.250000 0.396692
O O6 0.340835 0.468016 0.637204
O O7 0.599799 0.533917 0.306712
O O8 0.380327 0.534801 0.466035
O O9 0.291843 0.750000 0.763412
O O10 0.585585 0.250000 0.084301
O O11 0.418229 0.978045 0.296609
O O12 0.629909 0.965526 0.962087
O O13 0.689145 0.964852 0.020644
O O14 0.664257 0.250000 0.853042
O O15 0.787276 0.967121 0.669208
O O16 0.500000 0.000000 0.000000
O O17 0.696124 0.750000 0.511620
O O18 0.954475 0.250000 0.466523
O O19 0.000000 0.000000 0.500000
O O20 0.055800 0.952751 0.307670
O O21 0.200552 0.750000 0.059432
#
# Coordination Sequence:
#
# PCOD9159898 Si02
#       8
#     4   4   4   4   4   4   4   4
#     4   9  18  30  49  77 102 131 171 212 253 302
#     4   9  17  30  50  74  99 131 165 206 254 300
#     4   9  17  31  50  74 101 130 168 209 248 298
#     4   9  17  32  51  74 103 133 168 213 258 304
#     4  10  22  37  54  79 108 139 175 217 266 315
#     4   9  17  29  48  75 103 130 170 214 253 302
#     4  11  22  38  57  81 109 139 178 222 266 315
#     4  10  19  34  56  79 104 135 173 218 264 310
#
# _framework density 22.674212000000001
#
# number of rings (size 3 to 8) (size 9 to 14) (size 15 to 20)
#    0.000    2.500    1.250    1.125    1.750    4.500 
#    0.000    0.625    0.000    3.750    0.000    0.000 
#    0.000    0.000    0.000    0.000    0.000    0.000 
#
# Total GULP energy -178786.861419 kJ/mol
# GULP energy per Si atom -5587.089419 kJ/mol
# Density = 2.262260 g / cm^3
# Si number density = 22.674212 Si / 1000 Ang^3
#
#
#
# Elastic Constant Matrix: (Units=GPa)
#
#
# Indices 1 2 3 4 5 6 
#
# 1 54.7694 -2.3767 21.0681 0.0000 -8.7347 0.0000
# 2 -2.3767 82.5567 -1.6917 0.0000 -2.5617 0.0000
# 3 21.0681 -1.6917 163.0084 0.0000 -19.3711 0.0000
# 4 0.0000 0.0000 0.0000 11.0419 0.0000 3.4219
# 5 -8.7347 -2.5617 -19.3711 0.0000 30.4901 0.0000
# 6 0.0000 0.0000 0.0000 3.4219 0.0000 5.0272
#
#
#
# Elastic Compliance Matrix: (Units=1/GPa)
#
#
# Indices 1 2 3 4 5 6 
#
# 1 0.019772 0.000665 -0.002021 0.000000 0.004436 0.000000
# 2 0.000665 0.012178 0.000200 0.000000 0.001341 0.000000
# 3 -0.002021 0.000200 0.006848 0.000000 0.003789 0.000000
# 4 0.000000 0.000000 0.000000 0.114776 0.000000 -0.078126
# 5 0.004436 0.001341 0.003789 0.000000 0.036588 0.000000
# 6 0.000000 0.000000 0.000000 -0.078126 0.000000 0.252098
#
#
# Mechanical properties :
#
#
# Convention : Reuss Voigt Hill
#
# Bulk Modulus (GPa) = 27.40806 37.14820 32.27813
# Shear Modulus (GPa) = 10.94728 28.20082 19.57405
#
# Velocity S-wave (km/s) = 2.19967 3.53050 2.94134
# Velocity P-wave (km/s) = 4.30876 5.74789 5.07955
#
# Compressibility (1/GPa) = 0.03648562
#
# Stress axis : x y z
#
# Youngs Moduli (GPa) = 50.57589 82.11709 146.02400
#
# Poissons Ratio (x) = -0.05464 0.29518
# Poissons Ratio (y) = -0.03366 -0.02916
# Poissons Ratio (z) = 0.10224 -0.01640
#
# Static dielectric constant tensor:
#      x y z
#    x 1.803150 0.000000 -0.008820 
#    y 0.000000 1.884220 0.000000 
#    z -0.008820 0.000000 1.773140 
# 
# From -- ./inp_files/67044.got.cif
#   From: 2010.05.17/outbox.cif.g08.bks.cpg/sg11_34_cif.got.tgz:67044.got - 2010.06.03 12:22:45.
