data_PCOD9159579
_publ_section_title
;
Structure prediction by ZEFSAII (Michael W. Deem and Ramdas Pophale) SiO2 
 PCOD9159579
Probable space group: P 21/M
;
_chemical_formula_sum "Si O2"
_cell_formula_units_Z 24
_cell_length_a 17.162020
_cell_length_b 8.229705
_cell_length_c 23.927435
_cell_angle_alpha 90.000000
_cell_angle_beta 22.873004
_cell_angle_gamma 90.000000
_cell_volume 1313.566434
_symmetry_space_group_name_H-M "P 21/M"
_symmetry_group_IT_number 11
_symmetry_cell_setting 'monoclinic'
loop_
_space_group_symop_operation_xyz
x,y,z
-x,1/2+y,-z
-x,-y,-z
x,1/2-y,z
loop_
_atom_site_type_symbol
_atom_site_label
_atom_site_fract_x
_atom_site_fract_y
_atom_site_fract_z
Si Si1 0.980040 0.446027 0.949594
Si Si2 0.716916 0.053392 0.835246
Si Si3 0.212769 0.943608 0.336799
Si Si4 0.074888 0.552070 0.193070
Si Si5 0.370732 0.945679 0.899030
Si Si6 0.727015 0.946021 0.342310
O O1 0.980331 0.250000 0.948359
O O2 0.161029 0.500248 0.788805
O O3 0.772050 0.500020 0.057538
O O4 0.000000 0.500000 0.000000
O O5 0.721567 0.250000 0.830982
O O6 0.755216 0.992052 0.747511
O O7 0.876929 0.997896 0.776195
O O8 0.500000 0.000000 0.000000
O O9 0.212833 0.750000 0.334269
O O10 0.402269 0.996096 0.248748
O O11 0.000000 0.000000 0.500000
O O12 0.072995 0.750000 0.194432
O O13 0.869474 0.498883 0.299421
O O14 0.255152 0.502641 0.032209
O O15 0.372298 0.750000 0.897500
O O16 0.730502 0.750000 0.339574
O O17 0.500000 0.000000 0.500000
#
# Coordination Sequence:
#
# PCOD9159579 Si02
#       6
#     4   4   4   4   4   4
#     4   9  19  35  56  80 105 137 178 218 260 316
#     4  10  19  33  56  81 102 132 175 217 255 308
#     4  11  23  36  52  78 111 143 175 215 263 314
#     4   8  15  31  55  77 100 133 170 211 258 306
#     4   9  17  34  58  77 100 139 179 216 264 315
#     4   9  18  34  54  77 106 137 171 212 260 311
#
# _framework density 18.270866999999999
#
# number of rings (size 3 to 8) (size 9 to 14) (size 15 to 20)
#    0.000    2.667    1.667    2.500    0.000    2.000 
#    3.000    3.333    0.000    0.000    0.000    0.000 
#    0.000    0.000    0.000    0.000    0.000    0.000 
#
# Total GULP energy -133795.092833 kJ/mol
# GULP energy per Si atom -5574.795535 kJ/mol
# Density = 1.822928 g / cm^3
# Si number density = 18.270867 Si / 1000 Ang^3
#
#
#
# Elastic Constant Matrix: (Units=GPa)
#
#
# Indices 1 2 3 4 5 6 
#
# 1 167.5999 18.4724 96.8239 0.0000 -5.8781 0.0000
# 2 18.4724 10.9054 15.5930 0.0000 -1.1159 0.0000
# 3 96.8239 15.5930 156.6937 0.0000 -20.7926 0.0000
# 4 0.0000 0.0000 0.0000 28.8663 0.0000 -4.5376
# 5 -5.8781 -1.1159 -20.7926 0.0000 29.4493 0.0000
# 6 0.0000 0.0000 0.0000 -4.5376 0.0000 23.0269
#
#
#
# Elastic Compliance Matrix: (Units=1/GPa)
#
#
# Indices 1 2 3 4 5 6 
#
# 1 0.010200 -0.009400 -0.005676 0.000000 -0.002328 0.000000
# 2 -0.009400 0.115962 -0.005955 0.000000 -0.001687 0.000000
# 3 -0.005676 -0.005955 0.011367 0.000000 0.006667 0.000000
# 4 0.000000 0.000000 0.000000 0.035750 0.000000 0.007045
# 5 -0.002328 -0.001687 0.006667 0.000000 0.038135 0.000000
# 6 0.000000 0.000000 0.000000 0.007045 0.000000 0.044816
#
#
# Mechanical properties :
#
#
# Convention : Reuss Voigt Hill
#
# Bulk Modulus (GPa) = 10.47494 66.33084 38.40289
# Shear Modulus (GPa) = 15.14626 29.88914 22.51770
#
# Velocity S-wave (km/s) = 2.88233 4.04900 3.51442
# Velocity P-wave (km/s) = 4.10155 7.63166 6.12637
#
# Compressibility (1/GPa) = 0.09546592
#
# Stress axis : x y z
#
# Youngs Moduli (GPa) = 98.03614 8.62353 87.97588
#
# Poissons Ratio (x) = 0.08106 0.49939
# Poissons Ratio (y) = 0.92152 0.52391
# Poissons Ratio (z) = 0.55650 0.05135
#
# Static dielectric constant tensor:
#      x y z
#    x 1.652000 0.000000 0.000320 
#    y 0.000000 1.647450 0.000000 
#    z 0.000320 0.000000 1.612700 
# 
# From -- ./inp_files/28957.got.cif
#   From: 2010.05.17/outbox.cif.g08.bks.cpg/sg11_15_cif.got.tgz:28957.got - 2010.06.03 12:22:45.
