data_PCOD9159746
_publ_section_title
;
Structure prediction by ZEFSAII (Michael W. Deem and Ramdas Pophale) SiO2 
 PCOD9159746
Probable space group: P 21/M
;
_chemical_formula_sum "Si O2"
_cell_formula_units_Z 30
_cell_length_a 13.701798
_cell_length_b 9.045407
_cell_length_c 11.929376
_cell_angle_alpha 90.000000
_cell_angle_beta 57.572855
_cell_angle_gamma 90.000000
_cell_volume 1247.969321
_symmetry_space_group_name_H-M "P 21/M"
_symmetry_group_IT_number 11
_symmetry_cell_setting 'monoclinic'
loop_
_space_group_symop_operation_xyz
x,y,z
-x,1/2+y,-z
-x,-y,-z
x,1/2-y,z
loop_
_atom_site_type_symbol
_atom_site_label
_atom_site_fract_x
_atom_site_fract_y
_atom_site_fract_z
Si Si1 0.947846 0.250000 0.532414
Si Si2 0.202352 0.926192 0.755786
Si Si3 0.031233 0.025291 0.318690
Si Si4 0.691558 0.427487 0.529434
Si Si5 0.542974 0.425330 0.292179
Si Si6 0.716746 0.586017 0.744198
Si Si7 0.651344 0.572296 0.023265
Si Si8 0.109763 0.929144 0.043182
O O1 0.967080 0.373790 0.617255
O O2 0.940449 0.125612 0.437509
O O3 0.177673 0.750000 0.763869
O O4 0.219413 0.986770 0.619830
O O5 0.333543 0.943434 0.723317
O O6 0.121126 0.984027 0.907206
O O7 0.155818 0.092963 0.278829
O O8 0.028675 0.006222 0.186493
O O9 0.683525 0.250000 0.525747
O O10 0.566488 0.500268 0.581740
O O11 0.715500 0.473403 0.643025
O O12 0.526827 0.250000 0.288960
O O13 0.555250 0.508923 0.165329
O O14 0.691629 0.750000 0.715198
O O15 0.635825 0.551890 0.899985
O O16 0.668629 0.750000 0.031217
O O17 0.763943 0.474617 0.985824
O O18 0.095489 0.750000 0.054044
#
# Coordination Sequence:
#
# PCOD9159746 Si02
#       8
#     2   4   4   4   4   4   4   4
#     4  10  20  32  56  88 112 130 158 198 252 310
#     4   8  17  33  51  74  98 133 179 221 255 289
#     4  10  19  34  55  85 113 132 162 198 250 307
#     4  11  22  33  50  73  99 137 181 217 254 297
#     4  10  19  34  53  71 101 132 172 226 267 302
#     4  10  21  36  51  71 108 140 166 205 252 310
#     4   9  18  31  50  73  98 133 172 213 258 300
#     4   9  16  30  52  75 106 136 164 204 255 299
#
# _framework density 24.039052999999999
#
# number of rings (size 3 to 8) (size 9 to 14) (size 15 to 20)
#    0.000    2.400    1.333    2.400    1.867    1.600 
#    0.000    6.000    0.000    0.000    0.000    5.600 
#    0.000    0.000    0.000    0.000    0.000    0.000 
#
# Total GULP energy -167028.641859 kJ/mol
# GULP energy per Si atom -5567.621395 kJ/mol
# Density = 2.398434 g / cm^3
# Si number density = 24.039053 Si / 1000 Ang^3
#
#
#
# Elastic Constant Matrix: (Units=GPa)
#
#
# Indices 1 2 3 4 5 6 
#
# 1 55.7327 -1.1401 17.1028 0.0000 10.0396 0.0000
# 2 -1.1401 91.0592 51.9275 0.0000 4.3122 0.0000
# 3 17.1028 51.9275 194.1115 0.0000 1.9296 0.0000
# 4 0.0000 0.0000 0.0000 19.1095 0.0000 19.9545
# 5 10.0396 4.3122 1.9296 0.0000 48.8442 0.0000
# 6 0.0000 0.0000 0.0000 19.9545 0.0000 -38.4472
#
#
#
# Elastic Compliance Matrix: (Units=1/GPa)
#
#
# Indices 1 2 3 4 5 6 
#
# 1 0.019348 0.001632 -0.002101 0.000000 -0.004038 0.000000
# 2 0.001632 0.013146 -0.003647 0.000000 -0.001352 0.000000
# 3 -0.002101 -0.003647 0.006307 0.000000 0.000505 0.000000
# 4 0.000000 0.000000 0.000000 0.033937 0.000000 0.017614
# 5 -0.004038 -0.001352 0.000505 0.000000 0.021403 0.000000
# 6 0.000000 0.000000 0.000000 0.017614 0.000000 -0.016868
#
#
# Mechanical properties :
#
#
# Convention : Reuss Voigt Hill
#
# Bulk Modulus (GPa) = 32.71309 52.96486 42.83898
# Shear Modulus (GPa) = 52.24848 24.10218 38.17533
#
# Velocity S-wave (km/s) = 4.66712 3.16986 3.98936
# Velocity P-wave (km/s) = 6.53303 5.95634 6.25134
#
# Compressibility (1/GPa) = 0.03056880
#
# Stress axis : x y z
#
# Youngs Moduli (GPa) = 51.68405 76.06813 158.54314
#
# Poissons Ratio (x) = -0.12412 0.33311
# Poissons Ratio (y) = -0.08433 0.57822
# Poissons Ratio (z) = 0.10859 0.27743
#
# Static dielectric constant tensor:
#      x y z
#    x 2.054240 0.000000 -0.053460 
#    y 0.000000 1.783550 0.000000 
#    z -0.053460 0.000000 1.959740 
# 
# From -- ./inp_files/37584.got.cif
#   From: 2010.05.17/outbox.cif.g08.bks.cpg/sg11_19_cif.got.tgz:37584.got - 2010.06.03 12:22:45.
