data_PCOD9159158
_publ_section_title
;
Structure prediction by ZEFSAII (Michael W. Deem and Ramdas Pophale) SiO2 
 PCOD9159158
Probable space group: P 21/M
;
_chemical_formula_sum "Si O2"
_cell_formula_units_Z 32
_cell_length_a 27.626381
_cell_length_b 8.686399
_cell_length_c 21.519309
_cell_angle_alpha 90.000000
_cell_angle_beta 19.601913
_cell_angle_gamma 90.000000
_cell_volume 1732.457705
_symmetry_space_group_name_H-M "P 21/M"
_symmetry_group_IT_number 11
_symmetry_cell_setting 'monoclinic'
loop_
_space_group_symop_operation_xyz
x,y,z
-x,1/2+y,-z
-x,-y,-z
x,1/2-y,z
loop_
_atom_site_type_symbol
_atom_site_label
_atom_site_fract_x
_atom_site_fract_y
_atom_site_fract_z
Si Si1 0.970259 0.934482 0.834534
Si Si2 0.349061 0.564781 0.207057
Si Si3 0.268575 0.566278 0.793817
Si Si4 0.174600 0.435315 0.119981
Si Si5 0.055630 0.564428 0.497507
Si Si6 0.491215 0.935548 0.744727
Si Si7 0.281048 0.064880 0.425912
Si Si8 0.551519 0.935493 0.532051
O O1 0.983688 0.750000 0.818448
O O2 0.879069 0.981332 0.883525
O O3 0.127069 0.008296 0.637436
O O4 0.877930 0.990525 0.004809
O O5 0.354179 0.750000 0.201929
O O6 0.216909 0.516819 0.321905
O O7 0.312869 0.505392 0.319858
O O8 0.500000 0.500000 0.000000
O O9 0.254712 0.750000 0.811404
O O10 0.323281 0.509491 0.660785
O O11 0.399171 0.522823 0.683359
O O12 0.183432 0.250000 0.110425
O O13 0.054294 0.483811 0.315169
O O14 0.329922 0.503096 0.947366
O O15 0.054304 0.750000 0.496455
O O16 0.000000 0.500000 0.500000
O O17 0.486342 0.750000 0.750072
O O18 0.596015 0.983269 0.673625
O O19 0.547934 0.984581 0.608060
O O20 0.281200 0.250000 0.421047
O O21 0.564371 0.750000 0.513543
#
# Coordination Sequence:
#
# PCOD9159158 Si02
#       8
#     4   4   4   4   4   4   4   4
#     4  11  21  38  61  86 117 156 198 243 292 345
#     4  11  24  44  64  87 121 158 198 240 290 351
#     4  10  19  32  56  87 117 152 195 242 294 350
#     4  10  21  38  60  86 116 151 195 243 291 345
#     4  10  23  42  61  88 120 152 193 243 291 344
#     4  10  22  39  59  87 120 154 194 243 294 347
#     4  11  24  41  62  88 119 156 198 241 291 350
#     4   9  18  34  54  82 119 154 190 240 297 348
#
# _framework density 18.470870000000001
#
# number of rings (size 3 to 8) (size 9 to 14) (size 15 to 20)
#    0.000    1.750    2.500    1.500    1.750    4.000 
#    0.000    0.625    0.000    0.000    0.000    0.000 
#    0.000    0.000    0.000    0.000    0.000    0.000 
#
# Total GULP energy -178758.117839 kJ/mol
# GULP energy per Si atom -5586.191182 kJ/mol
# Density = 1.842883 g / cm^3
# Si number density = 18.470870 Si / 1000 Ang^3
#
#
#
# Elastic Constant Matrix: (Units=GPa)
#
#
# Indices 1 2 3 4 5 6 
#
# 1 104.9913 27.8076 71.2597 0.0000 -13.6440 0.0000
# 2 27.8076 29.8318 38.0343 0.0000 -4.2829 0.0000
# 3 71.2597 38.0343 170.4925 0.0000 -6.1601 0.0000
# 4 0.0000 0.0000 0.0000 37.0953 0.0000 2.6810
# 5 -13.6440 -4.2829 -6.1601 0.0000 32.4393 0.0000
# 6 0.0000 0.0000 0.0000 2.6810 0.0000 26.0022
#
#
#
# Elastic Compliance Matrix: (Units=1/GPa)
#
#
# Indices 1 2 3 4 5 6 
#
# 1 0.015207 -0.007870 -0.004437 0.000000 0.004515 0.000000
# 2 -0.007870 0.051501 -0.008130 0.000000 0.001946 0.000000
# 3 -0.004437 -0.008130 0.009493 0.000000 -0.001137 0.000000
# 4 0.000000 0.000000 0.000000 0.027160 0.000000 -0.002800
# 5 0.004515 0.001946 -0.001137 0.000000 0.032767 0.000000
# 6 0.000000 0.000000 0.000000 -0.002800 0.000000 0.038747
#
#
# Mechanical properties :
#
#
# Convention : Reuss Voigt Hill
#
# Bulk Modulus (GPa) = 28.30642 64.39098 46.34870
# Shear Modulus (GPa) = 21.97564 30.32162 26.14863
#
# Velocity S-wave (km/s) = 3.45301 4.05605 3.76662
# Velocity P-wave (km/s) = 5.59070 7.54135 6.63806
#
# Compressibility (1/GPa) = 0.03532767
#
# Stress axis : x y z
#
# Youngs Moduli (GPa) = 65.75733 19.41693 105.34624
#
# Poissons Ratio (x) = 0.15281 0.46746
# Poissons Ratio (y) = 0.51751 0.85641
# Poissons Ratio (z) = 0.29179 0.15785
#
# Static dielectric constant tensor:
#      x y z
#    x 1.627240 0.000000 0.002540 
#    y 0.000000 1.615490 0.000000 
#    z 0.002540 0.000000 1.610690 
# 
# From -- ./inp_files/66921.got.cif
#   From: 2010.05.17/outbox.cif.g08.bks.cpg/sg11_34_cif.got.tgz:66921.got - 2010.06.03 12:22:45.
