data_PCOD9159659
_publ_section_title
;
Structure prediction by ZEFSAII (Michael W. Deem and Ramdas Pophale) SiO2 
 PCOD9159659
Probable space group: P 21/M
;
_chemical_formula_sum "Si O2"
_cell_formula_units_Z 32
_cell_length_a 11.505176
_cell_length_b 14.525690
_cell_length_c 10.305367
_cell_angle_alpha 90.000000
_cell_angle_beta 91.582968
_cell_angle_gamma 90.000000
_cell_volume 1721.582066
_symmetry_space_group_name_H-M "P 21/M"
_symmetry_group_IT_number 11
_symmetry_cell_setting 'monoclinic'
loop_
_space_group_symop_operation_xyz
x,y,z
-x,1/2+y,-z
-x,-y,-z
x,1/2-y,z
loop_
_atom_site_type_symbol
_atom_site_label
_atom_site_fract_x
_atom_site_fract_y
_atom_site_fract_z
Si Si1 0.570092 0.072928 0.586991
Si Si2 0.129847 0.539784 0.016583
Si Si3 0.160549 0.000690 0.730706
Si Si4 0.503618 0.144327 0.999356
Si Si5 0.640714 0.649344 0.266026
Si Si6 0.197580 0.645804 0.514899
Si Si7 0.353443 0.008341 0.142913
Si Si8 0.048600 0.854091 0.248203
O O1 0.473418 0.137687 0.649323
O O2 0.667118 0.124872 0.507492
O O3 0.500000 0.000000 0.500000
O O4 0.634632 0.021672 0.708407
O O5 0.222729 0.473088 0.090979
O O6 0.116940 0.623853 0.116760
O O7 0.171122 0.550707 0.869812
O O8 0.000000 0.500000 0.000000
O O9 0.272307 0.065350 0.710745
O O10 0.052304 0.070694 0.737401
O O11 0.149796 0.928032 0.615141
O O12 0.538128 0.250000 0.025692
O O13 0.406666 0.145300 0.882392
O O14 0.603499 0.078447 0.944061
O O15 0.442255 0.091091 0.115457
O O16 0.694108 0.750000 0.290564
O O17 0.182095 0.750000 0.562108
O O18 0.132841 0.638582 0.374563
O O19 0.002348 0.750000 0.241483
#
# Coordination Sequence:
#
# PCOD9159659 Si02
#       8
#     4   4   4   4   4   4   4   4
#     4  11  21  37  58  81 118 160 198 240 292 349
#     4  10  21  37  59  87 116 152 193 243 298 348
#     4  11  21  38  61  89 121 151 195 250 301 342
#     4   9  19  33  56  85 113 148 191 240 295 354
#     4  10  19  33  57  84 113 152 195 238 287 352
#     4  11  23  39  61  86 119 158 200 245 295 351
#     4  10  19  36  58  81 117 152 197 242 298 355
#     4  10  22  40  62  88 115 158 204 240 291 358
#
# _framework density 18.587553
#
# number of rings (size 3 to 8) (size 9 to 14) (size 15 to 20)
#    0.000    1.750    3.750    1.125    0.000    1.500 
#    0.000    2.500    0.000    0.750    0.000    0.000 
#    0.000    0.000    0.000    0.000    0.000    0.000 
#
# Total GULP energy -178456.471533 kJ/mol
# GULP energy per Si atom -5576.764735 kJ/mol
# Density = 1.854525 g / cm^3
# Si number density = 18.587553 Si / 1000 Ang^3
#
#
#
# Elastic Constant Matrix: (Units=GPa)
#
#
# Indices 1 2 3 4 5 6 
#
# 1 65.3558 21.3124 16.1814 0.0000 2.6385 0.0000
# 2 21.3124 114.9521 49.7494 0.0000 -8.1691 0.0000
# 3 16.1814 49.7494 81.6883 0.0000 -1.7982 0.0000
# 4 0.0000 0.0000 0.0000 21.8954 0.0000 0.9386
# 5 2.6385 -8.1691 -1.7982 0.0000 26.3354 0.0000
# 6 0.0000 0.0000 0.0000 0.9386 0.0000 19.7353
#
#
#
# Elastic Compliance Matrix: (Units=1/GPa)
#
#
# Indices 1 2 3 4 5 6 
#
# 1 0.016669 -0.002470 -0.001854 0.000000 -0.002563 0.000000
# 2 -0.002470 0.012451 -0.007013 0.000000 0.003631 0.000000
# 3 -0.001854 -0.007013 0.016862 0.000000 -0.000838 0.000000
# 4 0.000000 0.000000 0.000000 0.045765 0.000000 -0.002176
# 5 -0.002563 0.003631 -0.000838 0.000000 0.039298 0.000000
# 6 0.000000 0.000000 0.000000 -0.002176 0.000000 0.050774
#
#
# Mechanical properties :
#
#
# Convention : Reuss Voigt Hill
#
# Bulk Modulus (GPa) = 42.90715 48.49808 45.70261
# Shear Modulus (GPa) = 23.55587 25.24342 24.39964
#
# Velocity S-wave (km/s) = 3.56377 3.68921 3.62703
# Velocity P-wave (km/s) = 6.32992 6.65548 6.49474
#
# Compressibility (1/GPa) = 0.02330614
#
# Stress axis : x y z
#
# Youngs Moduli (GPa) = 59.99208 80.31784 59.30622
#
# Poissons Ratio (x) = 0.19841 0.10995
# Poissons Ratio (y) = 0.14820 0.41593
# Poissons Ratio (z) = 0.11122 0.56329
#
# Static dielectric constant tensor:
#      x y z
#    x 1.668320 0.000000 -0.009980 
#    y 0.000000 1.638700 0.000000 
#    z -0.009980 0.000000 1.635040 
# 
# From -- ./inp_files/18082.got.cif
#   From: 2010.05.17/outbox.cif.g08.bks.cpg/sg11_10_cif.got.tgz:18082.got - 2010.06.03 12:22:45.
