data_PCOD9159241
_publ_section_title
;
Structure prediction by ZEFSAII (Michael W. Deem and Ramdas Pophale) SiO2 
 PCOD9159241
Probable space group: P 21/M
;
_chemical_formula_sum "Si O2"
_cell_formula_units_Z 32
_cell_length_a 5.482186
_cell_length_b 17.025987
_cell_length_c 18.456710
_cell_angle_alpha 90.000000
_cell_angle_beta 90.022998
_cell_angle_gamma 90.000000
_cell_volume 1722.742299
_symmetry_space_group_name_H-M "P 21/M"
_symmetry_group_IT_number 11
_symmetry_cell_setting 'monoclinic'
loop_
_space_group_symop_operation_xyz
x,y,z
-x,1/2+y,-z
-x,-y,-z
x,1/2-y,z
loop_
_atom_site_type_symbol
_atom_site_label
_atom_site_fract_x
_atom_site_fract_y
_atom_site_fract_z
Si Si1 0.248691 0.951211 0.515179
Si Si2 0.550093 0.160534 0.003361
Si Si3 0.053458 0.661364 0.398395
Si Si4 0.007686 0.020626 0.814898
Si Si5 0.046894 0.077201 0.047983
Si Si6 0.323294 0.335306 0.852573
Si Si7 0.256000 0.014453 0.659943
Si Si8 0.371687 0.612278 0.271850
O O1 0.213963 0.874649 0.464767
O O2 0.500000 0.000000 0.500000
O O3 0.245505 0.944572 0.602485
O O4 0.000000 0.000000 0.500000
O O5 0.516849 0.250000 0.027453
O O6 0.814336 0.131248 0.028698
O O7 0.314285 0.111960 0.030903
O O8 0.523923 0.159853 0.915850
O O9 0.964271 0.750000 0.414112
O O10 0.210733 0.663465 0.324800
O O11 0.858512 0.593393 0.377235
O O12 0.769731 0.067796 0.791376
O O13 0.164889 0.086447 0.856799
O O14 0.131694 0.999741 0.737656
O O15 0.964003 0.949143 0.868262
O O16 0.000000 0.000000 0.000000
O O17 0.197964 0.250000 0.862738
O O18 0.425361 0.339427 0.770854
O O19 0.526686 0.042209 0.678365
#
# Coordination Sequence:
#
# PCOD9159241 Si02
#       8
#     4   4   4   4   4   4   4   4
#     4  10  19  37  56  81 110 152 186 230 273 332
#     4  11  25  42  62  86 119 160 199 251 313 364
#     4  10  20  33  54  84 115 149 189 233 280 343
#     4  10  22  34  56  84 111 153 196 242 294 340
#     4  12  23  40  64  90 120 152 207 260 298 354
#     4  10  21  34  50  78 119 155 187 229 294 363
#     4   9  20  35  53  78 116 150 191 228 291 345
#     4  10  19  33  51  80 115 152 190 222 289 345
#
# _framework density 18.575036000000001
#
# number of rings (size 3 to 8) (size 9 to 14) (size 15 to 20)
#    0.000    1.750    2.500    1.875    3.500    5.500 
#    0.000    0.000    0.000    1.500    0.000    0.000 
#    0.000    0.000    0.000    0.000    0.000    0.000 
#
# Total GULP energy -178208.359303 kJ/mol
# GULP energy per Si atom -5569.011228 kJ/mol
# Density = 1.853276 g / cm^3
# Si number density = 18.575036 Si / 1000 Ang^3
#
#
#
# Elastic Constant Matrix: (Units=GPa)
#
#
# Indices 1 2 3 4 5 6 
#
# 1 43.3116 1.4753 3.5525 0.0000 -4.9170 0.0000
# 2 1.4753 51.2947 28.9547 0.0000 -3.1638 0.0000
# 3 3.5525 28.9547 95.0721 0.0000 7.8207 0.0000
# 4 0.0000 0.0000 0.0000 13.3190 0.0000 -4.6220
# 5 -4.9170 -3.1638 7.8207 0.0000 16.9104 0.0000
# 6 0.0000 0.0000 0.0000 -4.6220 0.0000 9.5438
#
#
#
# Elastic Compliance Matrix: (Units=1/GPa)
#
#
# Indices 1 2 3 4 5 6 
#
# 1 0.024118 0.000822 -0.001810 0.000000 0.008003 0.000000
# 2 0.000822 0.024667 -0.008257 0.000000 0.008672 0.000000
# 3 -0.001810 -0.008257 0.013796 0.000000 -0.008451 0.000000
# 4 0.000000 0.000000 0.000000 0.090248 0.000000 0.043707
# 5 0.008003 0.008672 -0.008451 0.000000 0.066993 0.000000
# 6 0.000000 0.000000 0.000000 0.043707 0.000000 0.125947
#
#
# Mechanical properties :
#
#
# Convention : Reuss Voigt Hill
#
# Bulk Modulus (GPa) = 22.68048 28.62706 25.65377
# Shear Modulus (GPa) = 13.19416 18.33437 15.76426
#
# Velocity S-wave (km/s) = 2.66807 3.14513 2.91637
# Velocity P-wave (km/s) = 4.66135 5.35109 5.01808
#
# Compressibility (1/GPa) = 0.04409078
#
# Stress axis : x y z
#
# Youngs Moduli (GPa) = 41.46367 40.53971 72.48607
#
# Poissons Ratio (x) = -0.03330 0.13118
# Poissons Ratio (y) = -0.03406 0.59849
# Poissons Ratio (z) = 0.07504 0.33472
#
# Static dielectric constant tensor:
#      x y z
#    x 1.724090 0.000000 -0.010990 
#    y 0.000000 1.506890 0.000000 
#    z -0.010990 0.000000 1.687080 
# 
# From -- ./inp_files/57059.got.cif
#   From: 2010.05.17/outbox.cif.g08.bks.cpg/sg11_29_cif.got.tgz:57059.got - 2010.06.03 12:22:45.
