data_PCOD9159663
_publ_section_title
;
Structure prediction by ZEFSAII (Michael W. Deem and Ramdas Pophale) SiO2 
 PCOD9159663
Probable space group: P 21/M
;
_chemical_formula_sum "Si O2"
_cell_formula_units_Z 32
_cell_length_a 21.449003
_cell_length_b 8.813535
_cell_length_c 27.007324
_cell_angle_alpha 90.000000
_cell_angle_beta 21.029281
_cell_angle_gamma 90.000000
_cell_volume 1832.085376
_symmetry_space_group_name_H-M "P 21/M"
_symmetry_group_IT_number 11
_symmetry_cell_setting 'monoclinic'
loop_
_space_group_symop_operation_xyz
x,y,z
-x,1/2+y,-z
-x,-y,-z
x,1/2-y,z
loop_
_atom_site_type_symbol
_atom_site_label
_atom_site_fract_x
_atom_site_fract_y
_atom_site_fract_z
Si Si1 0.052404 0.069051 0.616893
Si Si2 0.940506 0.432806 0.235673
Si Si3 0.721601 0.568447 0.201836
Si Si4 0.028842 0.566948 0.901406
Si Si5 0.774283 0.569583 0.895725
Si Si6 0.925029 0.068814 0.605453
Si Si7 0.660754 0.930968 0.516768
Si Si8 0.447072 0.430815 0.092280
O O1 0.018679 0.250000 0.648376
O O2 0.229251 0.033472 0.514966
O O3 0.046100 0.036249 0.563470
O O4 0.899344 0.978437 0.757667
O O5 0.920709 0.250000 0.252440
O O6 0.957164 0.478925 0.166201
O O7 0.778286 0.506233 0.384581
O O8 0.114192 0.470287 0.138164
O O9 0.713058 0.750000 0.210618
O O10 0.820949 0.505630 0.176454
O O11 0.529364 0.502090 0.340948
O O12 0.845863 0.526315 0.063236
O O13 0.044644 0.750000 0.892046
O O14 0.744419 0.750000 0.916938
O O15 0.594832 0.482582 0.021365
O O16 0.908861 0.250000 0.613189
O O17 0.738040 0.997498 0.755393
O O18 0.000000 0.000000 0.500000
O O19 0.647233 0.750000 0.522393
O O20 0.440688 0.250000 0.093385
O O21 0.500000 0.500000 0.000000
#
# Coordination Sequence:
#
# PCOD9159663 Si02
#       8
#     4   4   4   4   4   4   4   4
#     4   9  19  36  57  78 109 147 185 226 274 329
#     4   9  19  36  57  82 112 142 179 228 276 323
#     4  10  20  35  56  81 109 144 185 222 267 327
#     4   9  19  37  58  79 109 144 179 224 272 319
#     4  10  19  33  57  85 112 142 183 229 279 332
#     4  11  23  40  59  82 114 149 187 234 285 335
#     4  10  20  35  56  82 110 143 183 224 270 325
#     4  12  23  37  59  85 112 147 191 234 278 333
#
# _framework density 17.466435000000001
#
# number of rings (size 3 to 8) (size 9 to 14) (size 15 to 20)
#    0.000    2.000    1.250    2.625    0.000    3.000 
#    2.250    0.000    0.000    0.000    0.000    0.000 
#    0.000    0.000    0.000    0.000    0.000    0.000 
#
# Total GULP energy -178639.467398 kJ/mol
# GULP energy per Si atom -5582.483356 kJ/mol
# Density = 1.742668 g / cm^3
# Si number density = 17.466435 Si / 1000 Ang^3
#
#
#
# Elastic Constant Matrix: (Units=GPa)
#
#
# Indices 1 2 3 4 5 6 
#
# 1 159.5997 65.7716 105.2802 0.0000 9.0511 0.0000
# 2 65.7716 64.8340 58.7037 0.0000 0.3591 0.0000
# 3 105.2802 58.7037 145.6990 0.0000 -6.7368 0.0000
# 4 0.0000 0.0000 0.0000 27.8759 0.0000 -0.5885
# 5 9.0511 0.3591 -6.7368 0.0000 24.6520 0.0000
# 6 0.0000 0.0000 0.0000 -0.5885 0.0000 26.3654
#
#
#
# Elastic Compliance Matrix: (Units=1/GPa)
#
#
# Indices 1 2 3 4 5 6 
#
# 1 0.015592 -0.008254 -0.008305 0.000000 -0.007874 0.000000
# 2 -0.008254 0.028883 -0.005623 0.000000 0.001073 0.000000
# 3 -0.008305 -0.005623 0.015471 0.000000 0.007359 0.000000
# 4 0.000000 0.000000 0.000000 0.035890 0.000000 0.000801
# 5 -0.007874 0.001073 0.007359 0.000000 0.045451 0.000000
# 6 0.000000 0.000000 0.000000 0.000801 0.000000 0.037946
#
#
# Mechanical properties :
#
#
# Convention : Reuss Voigt Hill
#
# Bulk Modulus (GPa) = 64.18192 92.18263 78.18228
# Shear Modulus (GPa) = 21.85377 25.13714 23.49546
#
# Velocity S-wave (km/s) = 3.54105 3.79775 3.67165
# Velocity P-wave (km/s) = 7.31740 8.49248 7.92674
#
# Compressibility (1/GPa) = 0.01558071
#
# Stress axis : x y z
#
# Youngs Moduli (GPa) = 64.13380 34.62193 64.63861
#
# Poissons Ratio (x) = 0.28578 0.53683
# Poissons Ratio (y) = 0.52939 0.36348
# Poissons Ratio (z) = 0.53264 0.19469
#
# Static dielectric constant tensor:
#      x y z
#    x 1.596880 0.000000 -0.009330 
#    y 0.000000 1.581880 0.000000 
#    z -0.009330 0.000000 1.558910 
# 
# From -- ./inp_files/71968.got.cif
#   From: 2010.05.17/outbox.cif.g08.bks.cpg/sg11_36_cif.got.tgz:71968.got - 2010.06.03 12:22:45.
