data_PCOD9159383
_publ_section_title
;
Structure prediction by ZEFSAII (Michael W. Deem and Ramdas Pophale) SiO2 
 PCOD9159383
Probable space group: P 21/M
;
_chemical_formula_sum "Si O2"
_cell_formula_units_Z 32
_cell_length_a 25.611954
_cell_length_b 13.857786
_cell_length_c 10.163914
_cell_angle_alpha 90.000000
_cell_angle_beta 26.624685
_cell_angle_gamma 90.000000
_cell_volume 1616.647748
_symmetry_space_group_name_H-M "P 21/M"
_symmetry_group_IT_number 11
_symmetry_cell_setting 'monoclinic'
loop_
_space_group_symop_operation_xyz
x,y,z
-x,1/2+y,-z
-x,-y,-z
x,1/2-y,z
loop_
_atom_site_type_symbol
_atom_site_label
_atom_site_fract_x
_atom_site_fract_y
_atom_site_fract_z
Si Si1 0.692457 0.135105 0.738144
Si Si2 0.841614 0.638868 0.064073
Si Si3 0.988219 0.365587 0.830426
Si Si4 0.885548 0.546642 0.695248
Si Si5 0.498280 0.639688 0.607982
Si Si6 0.953538 0.366442 0.203572
Si Si7 0.346926 0.550183 0.731180
Si Si8 0.728005 0.051607 0.383959
O O1 0.702671 0.250000 0.689450
O O2 0.818943 0.101458 0.507970
O O3 0.671580 0.083079 0.647017
O O4 0.589965 0.121562 0.072479
O O5 0.817965 0.750000 0.148456
O O6 0.850101 0.623253 0.888516
O O7 0.962305 0.608227 0.865485
O O8 0.747414 0.563276 0.329446
O O9 0.989743 0.250000 0.819115
O O10 0.080519 0.407627 0.519929
O O11 0.007117 0.393983 0.940620
O O12 0.857704 0.401436 0.089501
O O13 0.000000 0.500000 0.500000
O O14 0.783212 0.467751 0.921411
O O15 0.541787 0.750000 0.516973
O O16 0.420889 0.622857 0.652100
O O17 0.593165 0.555390 0.395300
O O18 0.949304 0.250000 0.215033
O O19 0.337325 0.581397 0.601473
#
# Coordination Sequence:
#
# PCOD9159383 Si02
#       8
#     4   4   4   4   4   4   4   4
#     4   9  19  35  57  84 109 144 193 240 287 334
#     4  10  20  33  50  79 118 157 192 228 282 347
#     4  10  19  33  53  81 117 154 187 228 288 344
#     4  11  21  37  54  86 118 150 188 229 291 347
#     4  10  23  42  63  84 110 153 198 244 291 334
#     4   8  17  31  49  77 110 143 186 229 272 334
#     4  10  23  40  59  84 118 148 196 242 285 349
#     4  10  20  35  56  83 117 147 187 239 290 341
#
# _framework density 19.794044
#
# number of rings (size 3 to 8) (size 9 to 14) (size 15 to 20)
#    0.000    2.250    2.500    1.500    1.750    7.000 
#    0.000    0.000    0.000    3.000    0.000    0.000 
#    0.000    0.000    0.000    0.000    0.000    0.000 
#
# Total GULP energy -178651.065755 kJ/mol
# GULP energy per Si atom -5582.845805 kJ/mol
# Density = 1.974899 g / cm^3
# Si number density = 19.794044 Si / 1000 Ang^3
#
#
#
# Elastic Constant Matrix: (Units=GPa)
#
#
# Indices 1 2 3 4 5 6 
#
# 1 73.8319 1.0524 9.7039 0.0000 12.6709 0.0000
# 2 1.0524 62.5309 18.8975 0.0000 15.1293 0.0000
# 3 9.7039 18.8975 41.7156 0.0000 8.2073 0.0000
# 4 0.0000 0.0000 0.0000 19.5230 0.0000 6.9284
# 5 12.6709 15.1293 8.2073 0.0000 23.2233 0.0000
# 6 0.0000 0.0000 0.0000 6.9284 0.0000 25.3834
#
#
#
# Elastic Compliance Matrix: (Units=1/GPa)
#
#
# Indices 1 2 3 4 5 6 
#
# 1 0.015500 0.002918 -0.003106 0.000000 -0.009261 0.000000
# 2 0.002918 0.021407 -0.007866 0.000000 -0.012758 0.000000
# 3 -0.003106 -0.007866 0.028928 0.000000 -0.003404 0.000000
# 4 0.000000 0.000000 0.000000 0.056716 0.000000 -0.015480
# 5 -0.009261 -0.012758 -0.003404 0.000000 0.057628 0.000000
# 6 0.000000 0.000000 0.000000 -0.015480 0.000000 0.043621
#
#
# Mechanical properties :
#
#
# Convention : Reuss Voigt Hill
#
# Bulk Modulus (GPa) = 20.10961 26.37622 23.24291
# Shear Modulus (GPa) = 19.49451 23.52091 21.50771
#
# Velocity S-wave (km/s) = 3.14166 3.45089 3.29990
# Velocity P-wave (km/s) = 4.83131 5.40670 5.12708
#
# Compressibility (1/GPa) = 0.04972747
#
# Stress axis : x y z
#
# Youngs Moduli (GPa) = 64.51542 46.71328 34.56915
#
# Poissons Ratio (x) = -0.13632 0.10736
# Poissons Ratio (y) = -0.18828 0.27193
# Poissons Ratio (z) = 0.20036 0.36746
#
# Static dielectric constant tensor:
#      x y z
#    x 1.715010 0.000000 -0.006730 
#    y 0.000000 1.710190 0.000000 
#    z -0.006730 0.000000 1.691970 
# 
# From -- ./inp_files/27788.got.cif
#   From: 2010.05.17/outbox.cif.g08.bks.cpg/sg11_14_cif.got.tgz:27788.got - 2010.06.03 12:22:45.
