data_PCOD9159039
_publ_section_title
;
Structure prediction by ZEFSAII (Michael W. Deem and Ramdas Pophale) SiO2 
 PCOD9159039
Probable space group: P 21/M
;
_chemical_formula_sum "Si O2"
_cell_formula_units_Z 28
_cell_length_a 29.548306
_cell_length_b 9.230457
_cell_length_c 9.167010
_cell_angle_alpha 90.000000
_cell_angle_beta 39.238297
_cell_angle_gamma 90.000000
_cell_volume 1581.526210
_symmetry_space_group_name_H-M "P 21/M"
_symmetry_group_IT_number 11
_symmetry_cell_setting 'monoclinic'
loop_
_space_group_symop_operation_xyz
x,y,z
-x,1/2+y,-z
-x,-y,-z
x,1/2-y,z
loop_
_atom_site_type_symbol
_atom_site_label
_atom_site_fract_x
_atom_site_fract_y
_atom_site_fract_z
Si Si1 0.643795 0.576316 0.478685
Si Si2 0.501886 0.922833 0.649377
Si Si3 0.066711 0.420922 0.259704
Si Si4 0.634597 0.075164 0.813665
Si Si5 0.207823 0.915521 0.552931
Si Si6 0.065693 0.080962 0.910676
Si Si7 0.211790 0.582342 0.898335
O O1 0.653242 0.750000 0.464355
O O2 0.574877 0.543235 0.552806
O O3 0.630265 0.509787 0.672576
O O4 0.715928 0.501005 0.239860
O O5 0.499557 0.750000 0.634553
O O6 0.500000 0.000000 0.500000
O O7 0.432655 0.962060 0.918543
O O8 0.067811 0.250000 0.291332
O O9 0.000000 0.500000 0.500000
O O10 0.061110 0.435360 0.097823
O O11 0.140434 0.498224 0.122759
O O12 0.634593 0.250000 0.786106
O O13 0.711867 0.041207 0.692566
O O14 0.194098 0.750000 0.541623
O O15 0.210761 0.917640 0.723059
O O16 0.141935 0.014884 0.672514
O O17 0.062724 0.250000 0.883147
O O18 0.000000 0.000000 0.000000
O O19 0.211860 0.750000 0.945210
#
# Coordination Sequence:
#
# PCOD9159039 Si02
#       7
#     4   4   4   4   4   4   4
#     4  10  19  32  53  80 104 130 170 217 257 300
#     4  10  22  37  52  74 106 140 172 207 254 308
#     4  10  20  34  53  78 106 137 173 213 257 306
#     4   9  18  34  55  78 101 130 170 213 255 304
#     4   8  15  29  50  73  98 128 165 209 253 295
#     4  10  20  33  51  75 103 134 169 207 251 301
#     4   9  17  31  52  76 102 135 171 210 257 304
#
# _framework density 17.704416999999999
#
# number of rings (size 3 to 8) (size 9 to 14) (size 15 to 20)
#    0.000    2.571    0.000    3.000    0.000    6.857 
#    0.000    1.429    0.000    5.143    0.000    0.000 
#    0.000    0.000    0.000    0.000    0.000    0.000 
#
# Total GULP energy -156174.730917 kJ/mol
# GULP energy per Si atom -5577.668961 kJ/mol
# Density = 1.766412 g / cm^3
# Si number density = 17.704417 Si / 1000 Ang^3
#
#
#
# Elastic Constant Matrix: (Units=GPa)
#
#
# Indices 1 2 3 4 5 6 
#
# 1 96.5371 78.4457 70.1830 0.0000 -38.5318 0.0000
# 2 78.4457 116.3112 85.0958 0.0000 -31.4953 0.0000
# 3 70.1830 85.0958 149.9867 0.0000 -47.3352 0.0000
# 4 0.0000 0.0000 0.0000 31.2898 0.0000 -4.5379
# 5 -38.5318 -31.4953 -47.3352 0.0000 31.9472 0.0000
# 6 0.0000 0.0000 0.0000 -4.5379 0.0000 30.0350
#
#
#
# Elastic Compliance Matrix: (Units=1/GPa)
#
#
# Indices 1 2 3 4 5 6 
#
# 1 0.032850 -0.016807 0.002703 0.000000 0.027057 0.000000
# 2 -0.016807 0.023576 -0.008591 0.000000 -0.009757 0.000000
# 3 0.002703 -0.008591 0.016215 0.000000 0.018815 0.000000
# 4 0.000000 0.000000 0.000000 0.032675 0.000000 0.004937
# 5 0.027057 -0.009757 0.018815 0.000000 0.082194 0.000000
# 6 0.000000 0.000000 0.000000 0.004937 0.000000 0.034040
#
#
# Mechanical properties :
#
#
# Convention : Reuss Voigt Hill
#
# Bulk Modulus (GPa) = 36.69545 92.25379 64.47462
# Shear Modulus (GPa) = 18.11435 27.26175 22.68805
#
# Velocity S-wave (km/s) = 3.20215 3.92832 3.58368
# Velocity P-wave (km/s) = 5.86885 8.53209 7.32256
#
# Compressibility (1/GPa) = 0.02725134
#
# Stress axis : x y z
#
# Youngs Moduli (GPa) = 30.44124 42.41585 61.67223
#
# Poissons Ratio (x) = 0.71286 -0.16669
# Poissons Ratio (y) = 0.51161 0.52983
# Poissons Ratio (z) = -0.08228 0.36440
#
# Static dielectric constant tensor:
#      x y z
#    x 1.587120 0.000000 -0.008930 
#    y 0.000000 1.597690 0.000000 
#    z -0.008930 0.000000 1.606830 
# 
# From -- ./inp_files/28273.got.cif
#   From: 2010.05.17/outbox.cif.g08.bks.cpg/sg11_15_cif.got.tgz:28273.got - 2010.06.03 12:22:45.
