data_PCOD9159726
_publ_section_title
;
Structure prediction by ZEFSAII (Michael W. Deem and Ramdas Pophale) SiO2 
 PCOD9159726
Probable space group: P 21/M
;
_chemical_formula_sum "Si O2"
_cell_formula_units_Z 24
_cell_length_a 16.168375
_cell_length_b 13.777946
_cell_length_c 9.232298
_cell_angle_alpha 90.000000
_cell_angle_beta 33.740797
_cell_angle_gamma 90.000000
_cell_volume 1142.339559
_symmetry_space_group_name_H-M "P 21/M"
_symmetry_group_IT_number 11
_symmetry_cell_setting 'monoclinic'
loop_
_space_group_symop_operation_xyz
x,y,z
-x,1/2+y,-z
-x,-y,-z
x,1/2-y,z
loop_
_atom_site_type_symbol
_atom_site_label
_atom_site_fract_x
_atom_site_fract_y
_atom_site_fract_z
Si Si1 0.811130 0.559505 0.859925
Si Si2 0.903877 0.493153 0.996468
Si Si3 0.359211 0.453906 0.421827
Si Si4 0.510879 0.142012 0.668207
Si Si5 0.362752 0.640384 0.844388
Si Si6 0.120286 0.364040 0.550565
O O1 0.878591 0.591033 0.610577
O O2 0.925564 0.563407 0.827385
O O3 0.664847 0.625061 0.096063
O O4 0.746560 0.449047 0.959460
O O5 0.744028 0.525374 0.287698
O O6 0.000000 0.500000 0.000000
O O7 0.961074 0.389046 0.855798
O O8 0.433986 0.560236 0.299047
O O9 0.489290 0.380106 0.275577
O O10 0.252303 0.415916 0.450704
O O11 0.541650 0.250000 0.676996
O O12 0.585282 0.132677 0.400067
O O13 0.307388 0.750000 0.949606
O O14 0.146349 0.250000 0.509381
#
# Coordination Sequence:
#
# PCOD9159726 Si02
#       6
#     4   4   4   4   4   4
#     4  11  20  40  58  88 124 156 197 248 311 356
#     4  10  21  39  62  81 112 158 206 252 293 348
#     4  10  19  40  60  89 122 156 202 251 303 353
#     4  10  19  33  63  95 121 155 199 253 305 360
#     4  10  19  33  63  93 119 155 198 250 305 361
#     4  11  25  39  59  88 126 169 202 246 301 362
#
# _framework density 21.009515
#
# number of rings (size 3 to 8) (size 9 to 14) (size 15 to 20)
#    0.000    1.667    3.333    2.500    0.000    4.000 
#    0.000    3.333    0.000    9.000    0.000    0.000 
#    0.000    0.000    0.000    0.000    0.000    0.000 
#
# Total GULP energy -133720.445973 kJ/mol
# GULP energy per Si atom -5571.685249 kJ/mol
# Density = 2.096170 g / cm^3
# Si number density = 21.009515 Si / 1000 Ang^3
#
#
#
# Elastic Constant Matrix: (Units=GPa)
#
#
# Indices 1 2 3 4 5 6 
#
# 1 115.1298 32.8672 12.0986 0.0000 11.4786 0.0000
# 2 32.8672 127.8039 24.4978 0.0000 15.1585 0.0000
# 3 12.0986 24.4978 55.7268 0.0000 14.4473 0.0000
# 4 0.0000 0.0000 0.0000 21.1224 0.0000 4.5164
# 5 11.4786 15.1585 14.4473 0.0000 21.0593 0.0000
# 6 0.0000 0.0000 0.0000 4.5164 0.0000 21.2774
#
#
#
# Elastic Compliance Matrix: (Units=1/GPa)
#
#
# Indices 1 2 3 4 5 6 
#
# 1 0.009647 -0.001997 -0.000275 0.000000 -0.003632 0.000000
# 2 -0.001997 0.009298 -0.002677 0.000000 -0.003768 0.000000
# 3 -0.000275 -0.002677 0.022676 0.000000 -0.013479 0.000000
# 4 0.000000 0.000000 0.000000 0.049594 0.000000 -0.010527
# 5 -0.003632 -0.003768 -0.013479 0.000000 0.061424 0.000000
# 6 0.000000 0.000000 0.000000 -0.010527 0.000000 0.049233
#
#
# Mechanical properties :
#
#
# Convention : Reuss Voigt Hill
#
# Bulk Modulus (GPa) = 31.52354 48.62087 40.07221
# Shear Modulus (GPa) = 22.48762 27.97159 25.22961
#
# Velocity S-wave (km/s) = 3.27518 3.65276 3.46911
# Velocity P-wave (km/s) = 5.41658 6.40178 5.92968
#
# Compressibility (1/GPa) = 0.03172233
#
# Stress axis : x y z
#
# Youngs Moduli (GPa) = 103.65836 107.54776 44.09992
#
# Poissons Ratio (x) = 0.21483 0.01212
# Poissons Ratio (y) = 0.20706 0.11806
# Poissons Ratio (z) = 0.02848 0.28792
#
# Static dielectric constant tensor:
#      x y z
#    x 1.801690 0.000000 -0.039500 
#    y 0.000000 1.750700 0.000000 
#    z -0.039500 0.000000 1.820810 
# 
# From -- ./inp_files/21998.got.cif
#   From: 2010.05.17/outbox.cif.g08.bks.cpg/sg11_11_cif.got.tgz:21998.got - 2010.06.03 12:22:45.
