data_PCOD9159548
_publ_section_title
;
Structure prediction by ZEFSAII (Michael W. Deem and Ramdas Pophale) SiO2 
 PCOD9159548
Probable space group: P 21/M
;
_chemical_formula_sum "Si O2"
_cell_formula_units_Z 28
_cell_length_a 12.245452
_cell_length_b 8.320708
_cell_length_c 13.796604
_cell_angle_alpha 90.000000
_cell_angle_beta 103.136143
_cell_angle_gamma 90.000000
_cell_volume 1368.962962
_symmetry_space_group_name_H-M "P 21/M"
_symmetry_group_IT_number 11
_symmetry_cell_setting 'monoclinic'
loop_
_space_group_symop_operation_xyz
x,y,z
-x,1/2+y,-z
-x,-y,-z
x,1/2-y,z
loop_
_atom_site_type_symbol
_atom_site_label
_atom_site_fract_x
_atom_site_fract_y
_atom_site_fract_z
Si Si1 0.894684 0.943850 0.041783
Si Si2 0.523785 0.940227 0.112844
Si Si3 0.619568 0.442274 0.485296
Si Si4 0.706010 0.942641 0.857528
Si Si5 0.192067 0.555139 0.324714
Si Si6 0.706239 0.555562 0.297629
Si Si7 0.061213 0.053925 0.729169
O O1 0.893598 0.750000 0.042583
O O2 0.909614 0.997392 0.155118
O O3 0.781967 0.996263 0.964214
O O4 0.000000 0.000000 0.000000
O O5 0.535225 0.750000 0.108412
O O6 0.635070 0.001427 0.189811
O O7 0.416859 0.983915 0.156997
O O8 0.500000 0.000000 0.000000
O O9 0.500000 0.500000 0.500000
O O10 0.619747 0.250000 0.485749
O O11 0.718581 0.498810 0.577154
O O12 0.645988 0.501112 0.382896
O O13 0.696645 0.750000 0.857938
O O14 0.768043 0.994643 0.772103
O O15 0.192449 0.750000 0.321999
O O16 0.064807 0.501154 0.320371
O O17 0.706121 0.750000 0.295832
O O18 0.835382 0.500874 0.316602
O O19 0.060015 0.250000 0.727857
#
# Coordination Sequence:
#
# PCOD9159548 Si02
#       7
#     4   4   4   4   4   4   4
#     4  10  19  33  55  83 117 156 194 234 283 342
#     4  11  23  39  60  86 118 155 196 239 290 352
#     4  11  24  41  62  88 115 149 196 246 294 350
#     4  11  22  35  56  88 121 153 197 245 290 347
#     4  10  21  38  60  85 114 152 197 240 292 352
#     4  10  22  41  63  86 116 156 194 236 295 354
#     4   9  18  36  60  83 115 155 191 233 289 350
#
# _framework density 20.453438999999999
#
# number of rings (size 3 to 8) (size 9 to 14) (size 15 to 20)
#    0.000    1.714    1.429    3.000    0.000    9.143 
#    0.000    1.429    0.000    0.000    0.000    0.000 
#    0.000    0.000    0.000    0.000    0.000    0.000 
#
# Total GULP energy -156469.598614 kJ/mol
# GULP energy per Si atom -5588.199951 kJ/mol
# Density = 2.040689 g / cm^3
# Si number density = 20.453439 Si / 1000 Ang^3
#
#
#
# Elastic Constant Matrix: (Units=GPa)
#
#
# Indices 1 2 3 4 5 6 
#
# 1 168.7170 12.3504 71.1338 0.0000 5.7523 0.0000
# 2 12.3504 10.8515 18.4748 0.0000 6.1767 0.0000
# 3 71.1338 18.4748 121.7886 0.0000 12.9152 0.0000
# 4 0.0000 0.0000 0.0000 27.4419 0.0000 -5.4613
# 5 5.7523 6.1767 12.9152 0.0000 39.5808 0.0000
# 6 0.0000 0.0000 0.0000 -5.4613 0.0000 24.8336
#
#
#
# Elastic Compliance Matrix: (Units=1/GPa)
#
#
# Indices 1 2 3 4 5 6 
#
# 1 0.007894 -0.001829 -0.004394 0.000000 0.000572 0.000000
# 2 -0.001829 0.132290 -0.017442 0.000000 -0.014687 0.000000
# 3 -0.004394 -0.017442 0.013535 0.000000 -0.001056 0.000000
# 4 0.000000 0.000000 0.000000 0.038108 0.000000 0.008381
# 5 0.000572 -0.014687 -0.001056 0.000000 0.027818 0.000000
# 6 0.000000 0.000000 0.000000 0.008381 0.000000 0.042111
#
#
# Mechanical properties :
#
#
# Convention : Reuss Voigt Hill
#
# Bulk Modulus (GPa) = 9.39943 56.14166 32.77055
# Shear Modulus (GPa) = 14.51166 31.66446 23.08806
#
# Velocity S-wave (km/s) = 2.66653 3.93889 3.36342
# Velocity P-wave (km/s) = 3.75313 6.94223 5.58035
#
# Compressibility (1/GPa) = 0.10638942
#
# Stress axis : x y z
#
# Youngs Moduli (GPa) = 126.67817 7.55913 73.88175
#
# Poissons Ratio (x) = 0.01383 0.32463
# Poissons Ratio (y) = 0.23174 1.28863
# Poissons Ratio (z) = 0.55661 0.13185
#
# Static dielectric constant tensor:
#      x y z
#    x 1.725330 0.000000 0.032930 
#    y 0.000000 1.718880 0.000000 
#    z 0.032930 0.000000 1.727110 
# 
# From -- ./inp_files/49024.got.cif
#   From: 2010.05.17/outbox.cif.g08.bks.cpg/sg11_25_cif.got.tgz:49024.got - 2010.06.03 12:22:45.
