data_PCOD9159263
_publ_section_title
;
Structure prediction by ZEFSAII (Michael W. Deem and Ramdas Pophale) SiO2 
 PCOD9159263
Probable space group: P 21/M
;
_chemical_formula_sum "Si O2"
_cell_formula_units_Z 28
_cell_length_a 14.899478
_cell_length_b 8.069168
_cell_length_c 14.859278
_cell_angle_alpha 90.000000
_cell_angle_beta 59.980246
_cell_angle_gamma 90.000000
_cell_volume 1546.826728
_symmetry_space_group_name_H-M "P 21/M"
_symmetry_group_IT_number 11
_symmetry_cell_setting 'monoclinic'
loop_
_space_group_symop_operation_xyz
x,y,z
-x,1/2+y,-z
-x,-y,-z
x,1/2-y,z
loop_
_atom_site_type_symbol
_atom_site_label
_atom_site_fract_x
_atom_site_fract_y
_atom_site_fract_z
Si Si1 0.735008 0.549403 0.559807
Si Si2 0.097151 0.049377 0.387944
Si Si3 0.939391 0.951195 0.796550
Si Si4 0.302520 0.441213 0.767967
Si Si5 0.112236 0.049156 0.983858
Si Si6 0.482956 0.444661 0.405037
Si Si7 0.824122 0.446502 0.330023
O O1 0.732133 0.750000 0.563492
O O2 0.795440 0.494940 0.618981
O O3 0.620400 0.485631 0.591277
O O4 0.806545 0.491247 0.441781
O O5 0.095890 0.250000 0.385598
O O6 0.088493 0.988213 0.289348
O O7 0.000000 0.000000 0.500000
O O8 0.932573 0.750000 0.797059
O O9 0.879841 0.006056 0.915985
O O10 0.059463 0.992081 0.754022
O O11 0.317098 0.250000 0.784869
O O12 0.415001 0.521582 0.705152
O O13 0.256343 0.456603 0.690826
O O14 0.210701 0.512422 0.876755
O O15 0.114537 0.250000 0.980028
O O16 0.000000 0.000000 0.000000
O O17 0.500000 0.500000 0.500000
O O18 0.467764 0.250000 0.418842
O O19 0.808927 0.250000 0.324025
#
# Coordination Sequence:
#
# PCOD9159263 Si02
#       7
#     4   4   4   4   4   4   4
#     4  10  21  34  50  74 105 135 170 211 255 303
#     4  10  19  33  52  75 103 134 167 207 254 307
#     4   9  18  32  50  75 104 135 170 203 250 308
#     4  11  22  34  50  75 106 139 173 211 256 307
#     4  10  20  34  52  75 103 135 172 211 254 306
#     4  11  22  35  52  75 103 137 174 213 260 308
#     4  11  19  29  51  77 105 138 170 205 248 307
#
# _framework density 18.101576000000001
#
# number of rings (size 3 to 8) (size 9 to 14) (size 15 to 20)
#    0.000    1.714    4.286    1.286    0.000    1.143 
#    0.000    0.714    0.000    0.857    0.000    0.000 
#    0.000    0.000    0.000    0.000    0.000    0.286 
#
# Total GULP energy -156139.273163 kJ/mol
# GULP energy per Si atom -5576.402613 kJ/mol
# Density = 1.806038 g / cm^3
# Si number density = 18.101576 Si / 1000 Ang^3
#
#
#
# Elastic Constant Matrix: (Units=GPa)
#
#
# Indices 1 2 3 4 5 6 
#
# 1 97.9231 17.5135 41.8213 0.0000 -4.3120 0.0000
# 2 17.5135 6.9287 -0.0173 0.0000 0.1833 0.0000
# 3 41.8213 -0.0173 94.2897 0.0000 1.0181 0.0000
# 4 0.0000 0.0000 0.0000 18.6680 0.0000 -4.0826
# 5 -4.3120 0.1833 1.0181 0.0000 26.9978 0.0000
# 6 0.0000 0.0000 0.0000 -4.0826 0.0000 14.3326
#
#
#
# Elastic Compliance Matrix: (Units=1/GPa)
#
#
# Indices 1 2 3 4 5 6 
#
# 1 0.029366 -0.074411 -0.013100 0.000000 0.005689 0.000000
# 2 -0.074411 0.332906 0.033231 0.000000 -0.015398 0.000000
# 3 -0.013100 0.033231 0.016454 0.000000 -0.002938 0.000000
# 4 0.000000 0.000000 0.000000 0.057126 0.000000 0.016272
# 5 0.005689 -0.015398 -0.002938 0.000000 0.038164 0.000000
# 6 0.000000 0.000000 0.000000 0.016272 0.000000 0.074406
#
#
# Mechanical properties :
#
#
# Convention : Reuss Voigt Hill
#
# Bulk Modulus (GPa) = 3.70142 35.30851 19.50496
# Shear Modulus (GPa) = 6.69311 21.32129 14.00720
#
# Velocity S-wave (km/s) = 1.92498 3.43573 2.78476
# Velocity P-wave (km/s) = 2.64386 5.94030 4.59767
#
# Compressibility (1/GPa) = 0.27016693
#
# Stress axis : x y z
#
# Youngs Moduli (GPa) = 34.05325 3.00385 60.77636
#
# Poissons Ratio (x) = 0.22352 0.79617
# Poissons Ratio (y) = 2.53393 -2.01968
# Poissons Ratio (z) = 0.44610 -0.09982
#
# Static dielectric constant tensor:
#      x y z
#    x 1.639310 0.000000 -0.001200 
#    y 0.000000 1.649800 0.000000 
#    z -0.001200 0.000000 1.628330 
# 
# From -- ./inp_files/51107.got.cif
#   From: 2010.05.17/outbox.cif.g08.bks.cpg/sg11_26_cif.got.tgz:51107.got - 2010.06.03 12:22:45.
