data_PCOD9159019
_publ_section_title
;
Structure prediction by ZEFSAII (Michael W. Deem and Ramdas Pophale) SiO2 
 PCOD9159019
Probable space group: P 21/M
;
_chemical_formula_sum "Si O2"
_cell_formula_units_Z 24
_cell_length_a 9.367990
_cell_length_b 15.101212
_cell_length_c 12.333069
_cell_angle_alpha 90.000000
_cell_angle_beta 40.597330
_cell_angle_gamma 90.000000
_cell_volume 1135.366587
_symmetry_space_group_name_H-M "P 21/M"
_symmetry_group_IT_number 11
_symmetry_cell_setting 'monoclinic'
loop_
_space_group_symop_operation_xyz
x,y,z
-x,1/2+y,-z
-x,-y,-z
x,1/2-y,z
loop_
_atom_site_type_symbol
_atom_site_label
_atom_site_fract_x
_atom_site_fract_y
_atom_site_fract_z
Si Si1 0.266317 0.149488 0.500070
Si Si2 0.919509 0.857275 0.811100
Si Si3 0.785865 0.358270 0.815331
Si Si4 0.539851 0.857266 0.190211
Si Si5 0.415829 0.141726 0.184879
Si Si6 0.576593 0.406133 0.499409
O O1 0.209197 0.250000 0.500178
O O2 0.370294 0.108372 0.331884
O O3 0.436143 0.154559 0.499623
O O4 0.034286 0.108416 0.668599
O O5 0.932664 0.750000 0.804205
O O6 0.780483 0.881802 0.783981
O O7 0.165047 0.892329 0.664866
O O8 0.769722 0.883238 0.000753
O O9 0.785934 0.250000 0.821629
O O10 0.652707 0.381843 0.783412
O O11 0.641473 0.389987 0.000191
O O12 0.539171 0.750000 0.196993
O O13 0.492297 0.892182 0.336853
O O14 0.428385 0.250000 0.178721
O O15 0.500000 0.500000 0.500000
#
# Coordination Sequence:
#
# PCOD9159019 Si02
#       6
#     4   4   4   4   4   4
#     4  10  19  32  53  78 103 132 169 216 266 312
#     4   9  18  36  61  81  99 133 181 225 264 313
#     4   8  15  30  55  83 102 121 163 224 275 309
#     4   9  18  36  61  81  99 133 181 225 264 313
#     4   8  15  30  55  83 102 121 163 224 275 309
#     4  12  25  36  48  74 116 154 179 210 256 314
#
# _framework density 21.138546999999999
#
# number of rings (size 3 to 8) (size 9 to 14) (size 15 to 20)
#    0.000    2.667    0.000    4.500    0.000    4.667 
#    0.000    6.667    0.000    4.000    0.000    0.000 
#    0.000    0.000    0.000    0.000    0.000    0.000 
#
# Total GULP energy -133964.437937 kJ/mol
# GULP energy per Si atom -5581.851581 kJ/mol
# Density = 2.109043 g / cm^3
# Si number density = 21.138547 Si / 1000 Ang^3
#
#
#
# Elastic Constant Matrix: (Units=GPa)
#
#
# Indices 1 2 3 4 5 6 
#
# 1 96.8428 10.3031 112.5815 0.0000 -1.9186 0.0000
# 2 10.3031 38.6834 20.1242 0.0000 -0.5242 0.0000
# 3 112.5815 20.1242 199.3169 0.0000 -1.7750 0.0000
# 4 0.0000 0.0000 0.0000 -21.4351 0.0000 -0.6591
# 5 -1.9186 -0.5242 -1.7750 0.0000 -1.5854 0.0000
# 6 0.0000 0.0000 0.0000 -0.6591 0.0000 15.8883
#
#
#
# Elastic Compliance Matrix: (Units=1/GPa)
#
#
# Indices 1 2 3 4 5 6 
#
# 1 0.029624 0.000699 -0.016956 0.000000 -0.017098 0.000000
# 2 0.000699 0.027245 -0.003201 0.000000 -0.006270 0.000000
# 3 -0.016956 -0.003201 0.014961 0.000000 0.004828 0.000000
# 4 0.000000 0.000000 0.000000 -0.046593 0.000000 -0.001933
# 5 -0.017098 -0.006270 0.004828 0.000000 -0.613386 0.000000
# 6 0.000000 0.000000 0.000000 -0.001933 0.000000 0.062859
#
#
# Mechanical properties :
#
#
# Convention : Reuss Voigt Hill
#
# Bulk Modulus (GPa) = 30.38254 68.98451 49.68352
# Shear Modulus (GPa) = -10.51741 11.36249 0.42254
#
# Velocity S-wave (km/s) = -2.23299 2.32097 0.44758
# Velocity P-wave (km/s) = 2.78494 6.31568 4.88077
#
# Compressibility (1/GPa) = 0.03291364
#
# Stress axis : x y z
#
# Youngs Moduli (GPa) = 33.75619 36.70362 66.84247
#
# Poissons Ratio (x) = -0.02565 1.13336
# Poissons Ratio (y) = -0.02359 0.21399
# Poissons Ratio (z) = 0.57236 0.11751
#
# Static dielectric constant tensor:
#      x y z
#    x 1.712830 0.000000 0.000840 
#    y 0.000000 1.499330 0.000000 
#    z 0.000840 0.000000 1.779530 
# 
# From -- ./inp_files/13215.got.cif
#   From: 2010.05.17/outbox.cif.g08.bks.cpg/sg11_7_cif.got.tgz:13215.got - 2010.06.03 12:22:45.
