data_PCOD9159146
_publ_section_title
;
Structure prediction by ZEFSAII (Michael W. Deem and Ramdas Pophale) SiO2 
 PCOD9159146
Probable space group: P 21/M
;
_chemical_formula_sum "Si O2"
_cell_formula_units_Z 32
_cell_length_a 9.266965
_cell_length_b 13.969612
_cell_length_c 22.310155
_cell_angle_alpha 90.000000
_cell_angle_beta 31.334046
_cell_angle_gamma 90.000000
_cell_volume 1501.931550
_symmetry_space_group_name_H-M "P 21/M"
_symmetry_group_IT_number 11
_symmetry_cell_setting 'monoclinic'
loop_
_space_group_symop_operation_xyz
x,y,z
-x,1/2+y,-z
-x,-y,-z
x,1/2-y,z
loop_
_atom_site_type_symbol
_atom_site_label
_atom_site_fract_x
_atom_site_fract_y
_atom_site_fract_z
Si Si1 0.093403 0.365227 0.480536
Si Si2 0.549926 0.635888 0.281471
Si Si3 0.060436 0.646114 0.790927
Si Si4 0.086364 0.133962 0.612986
Si Si5 0.468096 0.043670 0.834247
Si Si6 0.487058 0.090637 0.961075
Si Si7 0.553156 0.138240 0.228818
Si Si8 0.112466 0.437597 0.726108
O O1 0.105025 0.250000 0.474280
O O2 0.216921 0.390956 0.501999
O O3 0.266684 0.395594 0.361880
O O4 0.772208 0.392318 0.594433
O O5 0.562759 0.750000 0.277354
O O6 0.652581 0.599429 0.180349
O O7 0.719279 0.593175 0.275757
O O8 0.150487 0.750000 0.733978
O O9 0.233257 0.629598 0.791242
O O10 0.082595 0.552938 0.740820
O O11 0.741471 0.652914 0.924988
O O12 0.042607 0.250000 0.630075
O O13 0.237950 0.098566 0.618877
O O14 0.791066 0.077974 0.718985
O O15 0.373922 0.068920 0.934408
O O16 0.409620 0.933316 0.839404
O O17 0.810950 0.115183 0.838307
O O18 0.500000 0.000000 0.000000
O O19 0.544783 0.250000 0.214717
#
# Coordination Sequence:
#
# PCOD9159146 Si02
#       8
#     4   4   4   4   4   4   4   4
#     4   8  17  34  57  84 116 157 196 233 282 342
#     4  10  19  32  55  88 120 146 189 246 290 332
#     4  10  21  38  59  83 114 155 193 233 287 347
#     4   9  18  33  56  83 116 154 192 236 288 339
#     4  10  19  35  59  85 112 141 195 239 289 343
#     4   9  21  39  60  77 108 146 187 235 290 342
#     4  10  20  37  60  85 119 157 195 237 283 337
#     4  10  19  37  57  89 116 148 191 246 286 341
#
# _framework density 21.305896000000001
#
# number of rings (size 3 to 8) (size 9 to 14) (size 15 to 20)
#    0.000    2.500    1.250    1.500    0.000    5.500 
#    0.000    6.250    5.500    0.750    0.000    0.875 
#    0.000    0.000    0.000    0.000    0.000    0.000 
#
# Total GULP energy -178390.199906 kJ/mol
# GULP energy per Si atom -5574.693747 kJ/mol
# Density = 2.125740 g / cm^3
# Si number density = 21.305896 Si / 1000 Ang^3
#
#
#
# Elastic Constant Matrix: (Units=GPa)
#
#
# Indices 1 2 3 4 5 6 
#
# 1 94.6676 16.5769 6.9712 0.0000 13.2079 0.0000
# 2 16.5769 105.7080 -4.4265 0.0000 -12.0526 0.0000
# 3 6.9712 -4.4265 25.0601 0.0000 -3.5569 0.0000
# 4 0.0000 0.0000 0.0000 2.7733 0.0000 7.5314
# 5 13.2079 -12.0526 -3.5569 0.0000 14.5504 0.0000
# 6 0.0000 0.0000 0.0000 7.5314 0.0000 17.4828
#
#
#
# Elastic Compliance Matrix: (Units=1/GPa)
#
#
# Indices 1 2 3 4 5 6 
#
# 1 0.014632 -0.004794 -0.007631 0.000000 -0.019118 0.000000
# 2 -0.004794 0.012268 0.005760 0.000000 0.015922 0.000000
# 3 -0.007631 0.005760 0.046311 0.000000 0.023019 0.000000
# 4 0.000000 0.000000 0.000000 -2.122437 0.000000 0.914327
# 5 -0.019118 0.015922 0.023019 0.000000 0.104897 0.000000
# 6 0.000000 0.000000 0.000000 0.914327 0.000000 -0.336685
#
#
# Mechanical properties :
#
#
# Convention : Reuss Voigt Hill
#
# Bulk Modulus (GPa) = 16.69904 29.29765 22.99834
# Shear Modulus (GPa) = -2.22447 20.71558 9.24555
#
# Velocity S-wave (km/s) = -1.02290 3.12154 2.08539
# Velocity P-wave (km/s) = 2.54159 5.17425 4.07630
#
# Compressibility (1/GPa) = 0.05988370
#
# Stress axis : x y z
#
# Youngs Moduli (GPa) = 68.34354 81.51017 21.59300
#
# Poissons Ratio (x) = 0.39075 0.16477
# Poissons Ratio (y) = 0.32763 -0.12439
# Poissons Ratio (z) = 0.52150 -0.46954
#
# Static dielectric constant tensor:
#      x y z
#    x 1.771360 0.000000 -0.025670 
#    y 0.000000 1.781030 0.000000 
#    z -0.025670 0.000000 1.831120 
# 
# From -- ./inp_files/63808.got.cif
#   From: 2010.05.17/outbox.cif.g08.bks.cpg/sg11_32_cif.got.tgz:63808.got - 2010.06.03 12:22:45.
