data_PCOD9159130
_publ_section_title
;
Structure prediction by ZEFSAII (Michael W. Deem and Ramdas Pophale) SiO2 
 PCOD9159130
Probable space group: P 21/M
;
_chemical_formula_sum "Si O2"
_cell_formula_units_Z 32
_cell_length_a 10.023152
_cell_length_b 18.601051
_cell_length_c 10.795200
_cell_angle_alpha 90.000000
_cell_angle_beta 45.506525
_cell_angle_gamma 90.000000
_cell_volume 1435.698160
_symmetry_space_group_name_H-M "P 21/M"
_symmetry_group_IT_number 11
_symmetry_cell_setting 'monoclinic'
loop_
_space_group_symop_operation_xyz
x,y,z
-x,1/2+y,-z
-x,-y,-z
x,1/2-y,z
loop_
_atom_site_type_symbol
_atom_site_label
_atom_site_fract_x
_atom_site_fract_y
_atom_site_fract_z
Si Si1 0.325724 0.905913 0.125198
Si Si2 0.721754 0.332189 0.092642
Si Si3 0.336455 0.163802 0.978063
Si Si4 0.801583 0.962127 0.652259
Si Si5 0.473882 0.836869 0.411435
Si Si6 0.914698 0.163517 0.225928
Si Si7 0.987029 0.829457 0.470822
Si Si8 0.340879 0.375406 0.461791
O O1 0.261013 0.888663 0.028885
O O2 0.530764 0.874181 0.009446
O O3 0.304739 0.987300 0.184031
O O4 0.186648 0.860137 0.303898
O O5 0.761075 0.250000 0.025540
O O6 0.847076 0.350822 0.129606
O O7 0.509238 0.335722 0.281067
O O8 0.336999 0.250000 0.999204
O O9 0.439756 0.150562 0.778916
O O10 0.124367 0.136440 0.106327
O O11 0.870409 0.881294 0.636360
O O12 0.691711 0.949570 0.593713
O O13 0.000000 0.000000 0.500000
O O14 0.483562 0.750000 0.429021
O O15 0.596100 0.876017 0.437811
O O16 0.256363 0.859070 0.572823
O O17 0.924276 0.250000 0.230092
O O18 0.002099 0.750000 0.510242
O O19 0.854325 0.834330 0.435098
#
# Coordination Sequence:
#
# PCOD9159130 Si02
#       8
#     4   4   4   4   4   4   4   4
#     4  11  21  35  50  80 121 149 174 213 280 350
#     4  10  19  32  55  84 110 138 186 242 275 312
#     4  10  20  33  52  77 111 152 182 216 277 340
#     4   8  19  34  51  77 114 145 174 221 277 335
#     4   9  17  32  55  80 105 139 189 238 274 317
#     4   8  17  33  51  78 109 138 184 242 278 306
#     4   9  17  32  56  79 103 136 186 237 267 313
#     4   9  18  33  57  79 104 131 185 237 278 305
#
# _framework density 22.288808
#
# number of rings (size 3 to 8) (size 9 to 14) (size 15 to 20)
#    0.750    2.000    0.000    3.000    1.750    0.500 
#    2.250    0.625    0.000    3.000    0.000    0.000 
#    0.000    0.000    0.000    0.000    0.000    0.000 
#
# Total GULP energy -178609.900734 kJ/mol
# GULP energy per Si atom -5581.559398 kJ/mol
# Density = 2.223808 g / cm^3
# Si number density = 22.288808 Si / 1000 Ang^3
#
#
#
# Elastic Constant Matrix: (Units=GPa)
#
#
# Indices 1 2 3 4 5 6 
#
# 1 97.8247 11.5401 62.8936 0.0000 -27.4980 0.0000
# 2 11.5401 63.7191 22.1593 0.0000 -8.6083 0.0000
# 3 62.8936 22.1593 92.9984 0.0000 -20.3228 0.0000
# 4 0.0000 0.0000 0.0000 24.0711 0.0000 -7.7210
# 5 -27.4980 -8.6083 -20.3228 0.0000 40.6602 0.0000
# 6 0.0000 0.0000 0.0000 -7.7210 0.0000 52.2609
#
#
#
# Elastic Compliance Matrix: (Units=1/GPa)
#
#
# Indices 1 2 3 4 5 6 
#
# 1 0.020138 0.001692 -0.012312 0.000000 0.007823 0.000000
# 2 0.001692 0.017369 -0.004748 0.000000 0.002448 0.000000
# 3 -0.012312 -0.004748 0.020400 0.000000 0.000864 0.000000
# 4 0.000000 0.000000 0.000000 0.043610 0.000000 0.006443
# 5 0.007823 0.002448 0.000864 0.000000 0.030835 0.000000
# 6 0.000000 0.000000 0.000000 0.006443 0.000000 0.020087
#
#
# Mechanical properties :
#
#
# Convention : Reuss Voigt Hill
#
# Bulk Modulus (GPa) = 36.80550 49.74757 43.27653
# Shear Modulus (GPa) = 26.01022 33.92840 29.96931
#
# Velocity S-wave (km/s) = 3.41979 3.90579 3.67084
# Velocity P-wave (km/s) = 5.66940 6.53516 6.11761
#
# Compressibility (1/GPa) = 0.02716985
#
# Stress axis : x y z
#
# Youngs Moduli (GPa) = 49.65808 57.57262 49.02033
#
# Poissons Ratio (x) = -0.09739 0.60356
# Poissons Ratio (y) = -0.08400 0.23273
# Poissons Ratio (z) = 0.61141 0.27334
#
# Static dielectric constant tensor:
#      x y z
#    x 1.836940 0.000000 0.014940 
#    y 0.000000 1.836290 0.000000 
#    z 0.014940 0.000000 1.836690 
# 
# From -- ./inp_files/32823.got.cif
#   From: 2010.05.17/outbox.cif.g08.bks.cpg/sg11_17_cif.got.tgz:32823.got - 2010.06.03 12:22:45.
