data_PCOD9159114
_publ_section_title
;
Structure prediction by ZEFSAII (Michael W. Deem and Ramdas Pophale) SiO2 
 PCOD9159114
Probable space group: P 21/M
;
_chemical_formula_sum "Si O2"
_cell_formula_units_Z 24
_cell_length_a 17.874608
_cell_length_b 8.684625
_cell_length_c 25.517301
_cell_angle_alpha 90.000000
_cell_angle_beta 160.530818
_cell_angle_gamma 90.000000
_cell_volume 1320.253628
_symmetry_space_group_name_H-M "P 21/M"
_symmetry_group_IT_number 11
_symmetry_cell_setting 'monoclinic'
loop_
_space_group_symop_operation_xyz
x,y,z
-x,1/2+y,-z
-x,-y,-z
x,1/2-y,z
loop_
_atom_site_type_symbol
_atom_site_label
_atom_site_fract_x
_atom_site_fract_y
_atom_site_fract_z
Si Si1 0.353102 0.934359 0.561415
Si Si2 0.342198 0.935354 0.739240
Si Si3 0.066064 0.066325 0.459473
Si Si4 0.192016 0.566452 0.089365
Si Si5 0.306135 0.563959 0.409466
Si Si6 0.842640 0.564148 0.050062
O O1 0.374043 0.750000 0.577326
O O2 0.339248 0.983112 0.491687
O O3 0.139815 0.985979 0.454731
O O4 0.569682 0.008370 0.731745
O O5 0.327277 0.750000 0.722005
O O6 0.179363 0.975323 0.680006
O O7 0.238267 0.013574 0.618898
O O8 0.602588 0.977063 0.916984
O O9 0.079469 0.250000 0.462348
O O10 0.185483 0.750000 0.085529
O O11 0.154258 0.505570 0.005844
O O12 0.000000 0.500000 0.000000
O O13 0.500000 0.500000 0.500000
O O14 0.315229 0.750000 0.413857
O O15 0.061870 0.515323 0.226933
O O16 0.848744 0.750000 0.049616
#
# Coordination Sequence:
#
# PCOD9159114 Si02
#       6
#     4   4   4   4   4   4
#     4  11  22  38  57  82 115 152 189 232 282 335
#     4   9  18  33  56  83 115 149 184 232 288 337
#     4  10  19  32  54  86 116 147 188 233 282 337
#     4  12  24  37  56  84 112 143 186 237 285 339
#     4  10  23  40  59  81 110 150 193 232 283 342
#     4  10  20  38  60  83 111 147 188 235 286 336
#
# _framework density 18.178325000000001
#
# number of rings (size 3 to 8) (size 9 to 14) (size 15 to 20)
#    0.000    1.667    1.667    3.500    0.000    5.333 
#    0.000    0.833    0.000    0.000    0.000    0.000 
#    0.000    0.000    0.000    0.000    0.000    0.000 
#
# Total GULP energy -134064.184010 kJ/mol
# GULP energy per Si atom -5586.007667 kJ/mol
# Density = 1.813695 g / cm^3
# Si number density = 18.178325 Si / 1000 Ang^3
#
#
#
# Elastic Constant Matrix: (Units=GPa)
#
#
# Indices 1 2 3 4 5 6 
#
# 1 115.4922 18.1086 26.5491 0.0000 7.4685 0.0000
# 2 18.1086 25.4547 14.2649 0.0000 2.5671 0.0000
# 3 26.5491 14.2649 70.9927 0.0000 6.9539 0.0000
# 4 0.0000 0.0000 0.0000 9.4607 0.0000 9.8125
# 5 7.4685 2.5671 6.9539 0.0000 35.5597 0.0000
# 6 0.0000 0.0000 0.0000 9.8125 0.0000 29.5730
#
#
#
# Elastic Compliance Matrix: (Units=1/GPa)
#
#
# Indices 1 2 3 4 5 6 
#
# 1 0.010222 -0.005717 -0.002553 0.000000 -0.001235 0.000000
# 2 -0.005717 0.047545 -0.007338 0.000000 -0.000797 0.000000
# 3 -0.002553 -0.007338 0.016731 0.000000 -0.002206 0.000000
# 4 0.000000 0.000000 0.000000 0.161165 0.000000 -0.053475
# 5 -0.001235 -0.000797 -0.002206 0.000000 0.028870 0.000000
# 6 0.000000 0.000000 0.000000 -0.053475 0.000000 0.051558
#
#
# Mechanical properties :
#
#
# Convention : Reuss Voigt Hill
#
# Bulk Modulus (GPa) = 23.10354 36.64277 29.87315
# Shear Modulus (GPa) = 13.82238 25.11981 19.47110
#
# Velocity S-wave (km/s) = 2.76049 3.72136 3.27634
# Velocity P-wave (km/s) = 4.78512 6.21819 5.54812
#
# Compressibility (1/GPa) = 0.04328341
#
# Stress axis : x y z
#
# Youngs Moduli (GPa) = 97.83165 21.03287 59.76884
#
# Poissons Ratio (x) = 0.12023 0.15259
# Poissons Ratio (y) = 0.55926 0.43855
# Poissons Ratio (z) = 0.24976 0.15433
#
# Static dielectric constant tensor:
#      x y z
#    x 1.617920 0.000000 0.026610 
#    y 0.000000 1.613440 0.000000 
#    z 0.026610 0.000000 1.615180 
# 
# From -- ./inp_files/56501.got.cif
#   From: 2010.05.17/outbox.cif.g08.bks.cpg/sg11_29_cif.got.tgz:56501.got - 2010.06.03 12:22:45.
