data_PCOD9159676
_publ_section_title
;
Structure prediction by ZEFSAII (Michael W. Deem and Ramdas Pophale) SiO2 
 PCOD9159676
Probable space group: P 21/M
;
_chemical_formula_sum "Si O2"
_cell_formula_units_Z 32
_cell_length_a 33.646925
_cell_length_b 9.157460
_cell_length_c 12.892896
_cell_angle_alpha 90.000000
_cell_angle_beta 26.229016
_cell_angle_gamma 90.000000
_cell_volume 1755.715089
_symmetry_space_group_name_H-M "P 21/M"
_symmetry_group_IT_number 11
_symmetry_cell_setting 'monoclinic'
loop_
_space_group_symop_operation_xyz
x,y,z
-x,1/2+y,-z
-x,-y,-z
x,1/2-y,z
loop_
_atom_site_type_symbol
_atom_site_label
_atom_site_fract_x
_atom_site_fract_y
_atom_site_fract_z
Si Si1 0.765027 0.575988 0.978366
Si Si2 0.069734 0.075109 0.540193
Si Si3 0.366063 0.081594 0.301074
Si Si4 0.488245 0.580145 0.855772
Si Si5 0.978202 0.921556 0.945304
Si Si6 0.814139 0.086460 0.250457
Si Si7 0.895925 0.414731 0.828872
Si Si8 0.444327 0.073174 0.535884
O O1 0.762463 0.750000 0.000764
O O2 0.827560 0.547626 0.731746
O O3 0.827016 0.507638 0.922628
O O4 0.661460 0.526885 0.214507
O O5 0.057531 0.250000 0.583410
O O6 0.997589 0.033270 0.618554
O O7 0.039687 0.989217 0.711200
O O8 0.337095 0.250000 0.356843
O O9 0.428966 0.076333 0.256322
O O10 0.286239 0.969627 0.507705
O O11 0.417954 0.026873 0.076594
O O12 0.456595 0.750000 0.928340
O O13 0.516720 0.540926 0.671253
O O14 0.989412 0.750000 0.924636
O O15 0.876752 0.967755 0.157538
O O16 0.000000 0.000000 0.000000
O O17 0.825123 0.250000 0.268836
O O18 0.849249 0.092645 0.050788
O O19 0.902560 0.250000 0.770051
O O20 0.447324 0.250000 0.541073
O O21 0.500000 0.000000 0.500000
#
# Coordination Sequence:
#
# PCOD9159676 Si02
#       8
#     4   4   4   4   4   4   4   4
#     4  10  20  35  57  82 110 146 185 228 279 329
#     4   9  19  36  55  81 116 148 179 224 276 330
#     4  10  19  33  57  88 113 141 186 232 287 350
#     4   9  19  36  56  79 114 150 183 234 294 344
#     4  11  22  38  58  79 107 146 187 226 270 322
#     4  10  20  35  54  81 115 147 180 223 277 332
#     4   9  18  31  52  83 117 147 178 218 272 333
#     4  10  22  40  58  78 107 150 196 240 286 333
#
# _framework density 18.226192000000001
#
# number of rings (size 3 to 8) (size 9 to 14) (size 15 to 20)
#    0.000    2.250    0.000    3.750    0.000    5.500 
#    2.250    0.000    0.000    0.000    0.000    0.000 
#    0.000    0.000    0.000    0.000    0.000    0.000 
#
# Total GULP energy -178354.433492 kJ/mol
# GULP energy per Si atom -5573.576047 kJ/mol
# Density = 1.818471 g / cm^3
# Si number density = 18.226192 Si / 1000 Ang^3
#
#
#
# Elastic Constant Matrix: (Units=GPa)
#
#
# Indices 1 2 3 4 5 6 
#
# 1 83.9939 34.4687 26.8081 0.0000 10.7116 0.0000
# 2 34.4687 50.9014 23.7483 0.0000 10.8655 0.0000
# 3 26.8081 23.7483 74.8463 0.0000 -3.9750 0.0000
# 4 0.0000 0.0000 0.0000 25.2967 0.0000 -1.9717
# 5 10.7116 10.8655 -3.9750 0.0000 18.8559 0.0000
# 6 0.0000 0.0000 0.0000 -1.9717 0.0000 32.6373
#
#
#
# Elastic Compliance Matrix: (Units=1/GPa)
#
#
# Indices 1 2 3 4 5 6 
#
# 1 0.017455 -0.008890 -0.003727 0.000000 -0.005579 0.000000
# 2 -0.008890 0.032714 -0.008018 0.000000 -0.015491 0.000000
# 3 -0.003727 -0.008018 0.017797 0.000000 0.010490 0.000000
# 4 0.000000 0.000000 0.000000 0.039718 0.000000 0.002399
# 5 -0.005579 -0.015491 0.010490 0.000000 0.067341 0.000000
# 6 0.000000 0.000000 0.000000 0.002399 0.000000 0.030785
#
#
# Mechanical properties :
#
#
# Convention : Reuss Voigt Hill
#
# Bulk Modulus (GPa) = 37.46164 42.19909 39.83036
# Shear Modulus (GPa) = 19.53287 23.67242 21.60265
#
# Velocity S-wave (km/s) = 3.27722 3.60782 3.44649
# Velocity P-wave (km/s) = 5.90920 6.36854 6.14317
#
# Compressibility (1/GPa) = 0.02669397
#
# Stress axis : x y z
#
# Youngs Moduli (GPa) = 57.29039 30.56834 56.18890
#
# Poissons Ratio (x) = 0.27175 0.20944
# Poissons Ratio (y) = 0.50931 0.45054
# Poissons Ratio (z) = 0.21355 0.24511
#
# Static dielectric constant tensor:
#      x y z
#    x 1.542140 0.000000 -0.007090 
#    y 0.000000 1.611820 0.000000 
#    z -0.007090 0.000000 1.656810 
# 
# From -- ./inp_files/45225.got.cif
#   From: 2010.05.17/outbox.cif.g08.bks.cpg/sg11_23_cif.got.tgz:45225.got - 2010.06.03 12:22:45.
