data_PCOD9159356
_publ_section_title
;
Structure prediction by ZEFSAII (Michael W. Deem and Ramdas Pophale) SiO2 
 PCOD9159356
Probable space group: P 21/M
;
_chemical_formula_sum "Si O2"
_cell_formula_units_Z 32
_cell_length_a 21.856641
_cell_length_b 8.820252
_cell_length_c 28.830018
_cell_angle_alpha 90.000000
_cell_angle_beta 161.263189
_cell_angle_gamma 90.000000
_cell_volume 1785.311106
_symmetry_space_group_name_H-M "P 21/M"
_symmetry_group_IT_number 11
_symmetry_cell_setting 'monoclinic'
loop_
_space_group_symop_operation_xyz
x,y,z
-x,1/2+y,-z
-x,-y,-z
x,1/2-y,z
loop_
_atom_site_type_symbol
_atom_site_label
_atom_site_fract_x
_atom_site_fract_y
_atom_site_fract_z
Si Si1 0.565325 0.434292 0.896910
Si Si2 0.845099 0.432308 0.923454
Si Si3 0.157017 0.567363 0.578551
Si Si4 0.904235 0.068409 0.571218
Si Si5 0.091826 0.934372 0.925354
Si Si6 0.812314 0.925840 0.648754
Si Si7 0.168088 0.924677 0.832016
Si Si8 0.561947 0.068786 0.393950
O O1 0.553035 0.250000 0.887943
O O2 0.363805 0.506625 0.741365
O O3 0.720851 0.478911 0.969476
O O4 0.651995 0.480783 0.009137
O O5 0.849681 0.250000 0.925284
O O6 0.637032 0.490411 0.759761
O O7 0.891024 0.481505 0.009248
O O8 0.000000 0.500000 0.000000
O O9 0.154135 0.750000 0.578107
O O10 0.113231 0.517898 0.494239
O O11 0.000000 0.500000 0.500000
O O12 0.905403 0.250000 0.572651
O O13 0.719000 0.020272 0.468155
O O14 0.091079 0.012053 0.732291
O O15 0.086802 0.750000 0.920260
O O16 0.902406 0.984112 0.761593
O O17 0.752986 0.750000 0.610983
O O18 0.994047 0.927765 0.744273
O O19 0.649168 0.019779 0.506124
O O20 0.201058 0.750000 0.843066
O O21 0.541538 0.250000 0.377433
#
# Coordination Sequence:
#
# PCOD9159356 Si02
#       8
#     4   4   4   4   4   4   4   4
#     4   9  17  33  56  81 104 129 164 209 254 302
#     4  11  22  36  52  73 102 138 174 210 251 298
#     4  11  23  37  51  72 102 138 174 210 250 296
#     4   9  19  34  53  77 105 132 165 208 252 296
#     4   8  16  32  56  80 102 130 168 209 252 300
#     4   8  14  29  52  78 103 128 161 205 250 297
#     4   8  15  28  51  80 105 127 159 202 251 302
#     4  10  19  33  53  79 106 132 163 205 253 303
#
# _framework density 17.924046000000001
#
# number of rings (size 3 to 8) (size 9 to 14) (size 15 to 20)
#    0.000    2.750    0.000    3.375    0.000    2.000 
#    0.000    5.000    0.000    0.000    0.000    0.000 
#    0.000    0.000    0.000    0.000    0.000    0.000 
#
# Total GULP energy -178399.197888 kJ/mol
# GULP energy per Si atom -5574.974934 kJ/mol
# Density = 1.788325 g / cm^3
# Si number density = 17.924046 Si / 1000 Ang^3
#
#
#
# Elastic Constant Matrix: (Units=GPa)
#
#
# Indices 1 2 3 4 5 6 
#
# 1 102.0394 36.5571 112.0484 0.0000 -15.1003 0.0000
# 2 36.5571 35.7219 41.7375 0.0000 -8.7738 0.0000
# 3 112.0484 41.7375 141.6970 0.0000 -46.7166 0.0000
# 4 0.0000 0.0000 0.0000 28.8784 0.0000 -0.5105
# 5 -15.1003 -8.7738 -46.7166 0.0000 18.4581 0.0000
# 6 0.0000 0.0000 0.0000 -0.5105 0.0000 21.6071
#
#
#
# Elastic Compliance Matrix: (Units=1/GPa)
#
#
# Indices 1 2 3 4 5 6 
#
# 1 -0.004762 -0.009993 0.023305 0.000000 0.050339 0.000000
# 2 -0.009993 0.044429 -0.005541 0.000000 -0.001080 0.000000
# 3 0.023305 -0.005541 -0.026105 0.000000 -0.049640 0.000000
# 4 0.000000 0.000000 0.000000 0.034642 0.000000 0.000818
# 5 0.050339 -0.001080 -0.049640 0.000000 -0.030791 0.000000
# 6 0.000000 0.000000 0.000000 0.000818 0.000000 0.046300
#
#
# Mechanical properties :
#
#
# Convention : Reuss Voigt Hill
#
# Bulk Modulus (GPa) = 34.35797 73.34937 53.85367
# Shear Modulus (GPa) = 86.39655 19.72973 53.06314
#
# Velocity S-wave (km/s) = 6.95026 3.32134 5.44690
# Velocity P-wave (km/s) = 9.14431 7.46455 8.34680
#
# Compressibility (1/GPa) = 0.02910533
#
# Stress axis : x y z
#
# Youngs Moduli (GPa) = -210.01696 22.50765 -38.30611
#
# Poissons Ratio (x) = 0.22492 0.89273
# Poissons Ratio (y) = -2.09870 -0.21224
# Poissons Ratio (z) = 4.89450 0.12471
#
# Static dielectric constant tensor:
#      x y z
#    x 1.609660 0.000000 -0.022320 
#    y 0.000000 1.605430 0.000000 
#    z -0.022320 0.000000 1.606820 
# 
# From -- ./inp_files/67060.got.cif
#   From: 2010.05.17/outbox.cif.g08.bks.cpg/sg11_34_cif.got.tgz:67060.got - 2010.06.03 12:22:45.
