data_PCOD9159368
_publ_section_title
;
Structure prediction by ZEFSAII (Michael W. Deem and Ramdas Pophale) SiO2 
 PCOD9159368
Probable space group: P 21/M
;
_chemical_formula_sum "Si O2"
_cell_formula_units_Z 28
_cell_length_a 19.627498
_cell_length_b 7.589224
_cell_length_c 13.932993
_cell_angle_alpha 90.000000
_cell_angle_beta 37.090094
_cell_angle_gamma 90.000000
_cell_volume 1251.625828
_symmetry_space_group_name_H-M "P 21/M"
_symmetry_group_IT_number 11
_symmetry_cell_setting 'monoclinic'
loop_
_space_group_symop_operation_xyz
x,y,z
-x,1/2+y,-z
-x,-y,-z
x,1/2-y,z
loop_
_atom_site_type_symbol
_atom_site_label
_atom_site_fract_x
_atom_site_fract_y
_atom_site_fract_z
Si Si1 0.618054 0.038068 0.924825
Si Si2 0.943206 0.537624 0.166134
Si Si3 0.689929 0.965171 0.433985
Si Si4 0.474852 0.537274 0.769108
Si Si5 0.131555 0.961979 0.323191
Si Si6 0.681265 0.955781 0.228193
Si Si7 0.889865 0.047450 0.867408
O O1 0.623878 0.250000 0.917299
O O2 0.749838 0.977222 0.757222
O O3 0.589429 0.974029 0.064953
O O4 0.500000 0.000000 0.000000
O O5 0.941899 0.750000 0.175665
O O6 0.816009 0.473261 0.308855
O O7 0.011175 0.464833 0.180561
O O8 0.000000 0.500000 0.000000
O O9 0.688376 0.750000 0.436069
O O10 0.604115 0.020151 0.613199
O O11 0.657940 0.020723 0.361614
O O12 0.469081 0.750000 0.778692
O O13 0.420212 0.479023 0.730989
O O14 0.139396 0.750000 0.317651
O O15 0.139445 0.027338 0.203575
O O16 0.000000 0.000000 0.500000
O O17 0.711520 0.750000 0.201778
O O18 0.784762 0.046821 0.057909
O O19 0.921280 0.250000 0.812010
#
# Coordination Sequence:
#
# PCOD9159368 Si02
#       7
#     4   4   4   4   4   4   4
#     4  10  22  40  63  88 117 152 196 246 299 356
#     4  10  19  33  53  79 111 149 188 228 272 329
#     4   9  19  33  52  82 116 149 188 229 273 331
#     4  10  20  38  59  79 111 152 189 231 282 341
#     4  10  22  41  62  90 118 149 196 247 296 356
#     4  11  20  32  54  84 115 145 184 232 273 322
#     4  10  20  36  59  82 110 150 190 225 275 344
#
# _framework density 22.370903999999999
#
# number of rings (size 3 to 8) (size 9 to 14) (size 15 to 20)
#    0.000    2.000    2.857    0.857    0.000    2.857 
#    0.000    4.286    0.000    0.000    0.000    0.000 
#    0.000    0.000    0.000    0.000    0.000    0.000 
#
# Total GULP energy -156030.054570 kJ/mol
# GULP energy per Si atom -5572.501949 kJ/mol
# Density = 2.231999 g / cm^3
# Si number density = 22.370904 Si / 1000 Ang^3
#
#
#
# Elastic Constant Matrix: (Units=GPa)
#
#
# Indices 1 2 3 4 5 6 
#
# 1 115.7885 6.4000 54.0242 0.0000 -34.1354 0.0000
# 2 6.4000 54.8642 4.3576 0.0000 -1.3380 0.0000
# 3 54.0242 4.3576 135.4805 0.0000 -29.2770 0.0000
# 4 0.0000 0.0000 0.0000 18.5775 0.0000 -3.7780
# 5 -34.1354 -1.3380 -29.2770 0.0000 34.1098 0.0000
# 6 0.0000 0.0000 0.0000 -3.7780 0.0000 16.7493
#
#
#
# Elastic Compliance Matrix: (Units=1/GPa)
#
#
# Indices 1 2 3 4 5 6 
#
# 1 0.013203 -0.001048 -0.002928 0.000000 0.010658 0.000000
# 2 -0.001048 0.018359 -0.000299 0.000000 -0.000585 0.000000
# 3 -0.002928 -0.000299 0.009727 0.000000 0.005407 0.000000
# 4 0.000000 0.000000 0.000000 0.056417 0.000000 0.012725
# 5 0.010658 -0.000585 0.005407 0.000000 0.044601 0.000000
# 6 0.000000 0.000000 0.000000 0.012725 0.000000 0.062574
#
#
# Mechanical properties :
#
#
# Convention : Reuss Voigt Hill
#
# Bulk Modulus (GPa) = 30.54491 48.41078 39.47785
# Shear Modulus (GPa) = 22.28743 29.97742 26.13242
#
# Velocity S-wave (km/s) = 3.15980 3.66460 3.42152
# Velocity P-wave (km/s) = 5.19576 6.29228 5.77012
#
# Compressibility (1/GPa) = 0.03273868
#
# Stress axis : x y z
#
# Youngs Moduli (GPa) = 75.74309 54.47066 102.81063
#
# Poissons Ratio (x) = 0.05707 0.30100
# Poissons Ratio (y) = 0.07935 0.03076
# Poissons Ratio (z) = 0.22175 0.01630
#
# Static dielectric constant tensor:
#      x y z
#    x 1.869690 0.000000 -0.076500 
#    y 0.000000 1.851070 0.000000 
#    z -0.076500 0.000000 1.879330 
# 
# From -- ./inp_files/54461.got.cif
#   From: 2010.05.17/outbox.cif.g08.bks.cpg/sg11_28_cif.got.tgz:54461.got - 2010.06.03 12:22:45.
