data_PCOD9159055
_publ_section_title
;
Structure prediction by ZEFSAII (Michael W. Deem and Ramdas Pophale) SiO2 
 PCOD9159055
Probable space group: P 21/M
;
_chemical_formula_sum "Si O2"
_cell_formula_units_Z 28
_cell_length_a 12.914183
_cell_length_b 8.685591
_cell_length_c 15.433242
_cell_angle_alpha 90.000000
_cell_angle_beta 74.279390
_cell_angle_gamma 90.000000
_cell_volume 1666.352140
_symmetry_space_group_name_H-M "P 21/M"
_symmetry_group_IT_number 11
_symmetry_cell_setting 'monoclinic'
loop_
_space_group_symop_operation_xyz
x,y,z
-x,1/2+y,-z
-x,-y,-z
x,1/2-y,z
loop_
_atom_site_type_symbol
_atom_site_label
_atom_site_fract_x
_atom_site_fract_y
_atom_site_fract_z
Si Si1 0.244291 0.934953 0.090899
Si Si2 0.362358 0.434876 0.895757
Si Si3 0.414239 0.564568 0.402379
Si Si4 0.984524 0.565680 0.906901
Si Si5 0.657765 0.566631 0.404717
Si Si6 0.786422 0.066281 0.222596
Si Si7 0.603018 0.437338 0.789686
O O1 0.240471 0.750000 0.089987
O O2 0.304893 0.986060 0.164612
O O3 0.124618 0.999660 0.108171
O O4 0.313229 0.992170 0.993216
O O5 0.359450 0.250000 0.903344
O O6 0.289861 0.486111 0.831100
O O7 0.485342 0.484151 0.850940
O O8 0.404296 0.750000 0.410177
O O9 0.540183 0.527551 0.390837
O O10 0.347564 0.489607 0.495240
O O11 0.383585 0.512896 0.312816
O O12 0.976662 0.750000 0.914286
O O13 0.090621 0.525851 0.827703
O O14 0.000000 0.500000 0.000000
O O15 0.670056 0.750000 0.397913
O O16 0.747080 0.487046 0.325482
O O17 0.774781 0.250000 0.216697
O O18 0.602352 0.250000 0.788501
#
# Coordination Sequence:
#
# PCOD9159055 Si02
#       7
#     4   4   4   4   4   4   4
#     4  11  22  36  54  78 109 145 185 220 264 321
#     4  11  20  34  54  78 110 145 180 218 265 316
#     4   9  17  33  53  76 109 143 174 212 263 319
#     4  11  23  38  56  77 105 140 183 228 270 311
#     4  10  19  32  53  81 109 138 173 217 268 320
#     4  11  22  35  54  79 107 140 178 222 270 319
#     4   9  19  35  54  78 110 147 180 217 264 320
#
# _framework density 16.803172
#
# number of rings (size 3 to 8) (size 9 to 14) (size 15 to 20)
#    0.000    1.714    2.857    2.571    0.000    2.286 
#    0.000    3.571    0.000    0.857    0.000    0.000 
#    0.000    0.000    0.000    0.000    0.000    0.000 
#
# Total GULP energy -156356.304480 kJ/mol
# GULP energy per Si atom -5584.153731 kJ/mol
# Density = 1.676493 g / cm^3
# Si number density = 16.803172 Si / 1000 Ang^3
#
#
#
# Elastic Constant Matrix: (Units=GPa)
#
#
# Indices 1 2 3 4 5 6 
#
# 1 138.2506 39.8084 84.0908 0.0000 5.5429 0.0000
# 2 39.8084 41.4381 38.6250 0.0000 -6.8173 0.0000
# 3 84.0908 38.6250 141.1436 0.0000 -10.4577 0.0000
# 4 0.0000 0.0000 0.0000 20.5364 0.0000 -0.2628
# 5 5.5429 -6.8173 -10.4577 0.0000 18.4922 0.0000
# 6 0.0000 0.0000 0.0000 -0.2628 0.0000 21.7314
#
#
#
# Elastic Compliance Matrix: (Units=1/GPa)
#
#
# Indices 1 2 3 4 5 6 
#
# 1 0.014762 -0.009563 -0.007063 0.000000 -0.011944 0.000000
# 2 -0.009563 0.039545 -0.003999 0.000000 0.015183 0.000000
# 3 -0.007063 -0.003999 0.012979 0.000000 0.007982 0.000000
# 4 0.000000 0.000000 0.000000 0.048702 0.000000 0.000589
# 5 -0.011944 0.015183 0.007982 0.000000 0.067769 0.000000
# 6 0.000000 0.000000 0.000000 0.000589 0.000000 0.046024
#
#
# Mechanical properties :
#
#
# Convention : Reuss Voigt Hill
#
# Bulk Modulus (GPa) = 38.40935 71.76453 55.08694
# Shear Modulus (GPa) = 17.87580 22.70586 20.29083
#
# Velocity S-wave (km/s) = 3.26519 3.67997 3.47877
# Velocity P-wave (km/s) = 6.09289 7.80115 6.99933
#
# Compressibility (1/GPa) = 0.02603533
#
# Stress axis : x y z
#
# Youngs Moduli (GPa) = 67.74345 25.28760 77.04912
#
# Poissons Ratio (x) = 0.24182 0.54418
# Poissons Ratio (y) = 0.64782 0.30816
# Poissons Ratio (z) = 0.47845 0.10114
#
# Static dielectric constant tensor:
#      x y z
#    x 1.549070 0.000000 0.001540 
#    y 0.000000 1.565540 0.000000 
#    z 0.001540 0.000000 1.557410 
# 
# From -- ./inp_files/37408.got.cif
#   From: 2010.05.17/outbox.cif.g08.bks.cpg/sg11_19_cif.got.tgz:37408.got - 2010.06.03 12:22:45.
