data_PCOD9159504
_publ_section_title
;
Structure prediction by ZEFSAII (Michael W. Deem and Ramdas Pophale) SiO2 
 PCOD9159504
Probable space group: P 21/M
;
_chemical_formula_sum "Si O2"
_cell_formula_units_Z 28
_cell_length_a 20.120474
_cell_length_b 8.631369
_cell_length_c 12.964530
_cell_angle_alpha 90.000000
_cell_angle_beta 31.145069
_cell_angle_gamma 90.000000
_cell_volume 1164.498194
_symmetry_space_group_name_H-M "P 21/M"
_symmetry_group_IT_number 11
_symmetry_cell_setting 'monoclinic'
loop_
_space_group_symop_operation_xyz
x,y,z
-x,1/2+y,-z
-x,-y,-z
x,1/2-y,z
loop_
_atom_site_type_symbol
_atom_site_label
_atom_site_fract_x
_atom_site_fract_y
_atom_site_fract_z
Si Si1 0.003144 0.420144 0.652809
Si Si2 0.024346 0.425385 0.111872
Si Si3 0.518406 0.072185 0.639754
Si Si4 0.200443 0.072725 0.198933
Si Si5 0.360884 0.064707 0.166320
Si Si6 0.252769 0.560933 0.519022
Si Si7 0.701978 0.072449 0.196037
O O1 0.014409 0.250000 0.688217
O O2 0.017712 0.560813 0.711969
O O3 0.862462 0.450542 0.793270
O O4 0.100255 0.420959 0.428959
O O5 0.042099 0.250000 0.053495
O O6 0.887860 0.487465 0.246141
O O7 0.163474 0.505301 0.937863
O O8 0.496174 0.250000 0.700507
O O9 0.620219 0.005009 0.587575
O O10 0.604392 0.068593 0.422125
O O11 0.379946 0.006386 0.788076
O O12 0.206309 0.250000 0.150898
O O13 0.324966 0.022694 0.096241
O O14 0.355024 0.250000 0.178400
O O15 0.274487 0.999511 0.374054
O O16 0.500000 0.000000 0.000000
O O17 0.251639 0.750000 0.522589
O O18 0.723616 0.250000 0.140864
#
# Coordination Sequence:
#
# PCOD9159504 Si02
#       7
#     4   4   4   4   4   4   4
#     4  10  19  33  55  80 107 142 186 232 280 335
#     4  11  22  36  58  88 122 156 194 241 296 349
#     4   9  20  41  64  87 119 156 194 240 292 347
#     4   9  19  35  53  76 107 143 184 231 283 332
#     4  11  23  39  58  82 114 151 192 238 288 344
#     4  10  22  40  62  87 117 155 196 241 295 351
#     4  10  21  38  62  90 119 154 196 240 289 348
#
# _framework density 24.044691
#
# number of rings (size 3 to 8) (size 9 to 14) (size 15 to 20)
#    0.000    2.000    1.429    1.714    0.000    5.143 
#    0.000    1.429    0.000    0.000    0.000    0.000 
#    0.000    0.000    0.000    0.000    0.000    0.000 
#
# Total GULP energy -156160.686241 kJ/mol
# GULP energy per Si atom -5577.167366 kJ/mol
# Density = 2.398996 g / cm^3
# Si number density = 24.044691 Si / 1000 Ang^3
#
#
#
# Elastic Constant Matrix: (Units=GPa)
#
#
# Indices 1 2 3 4 5 6 
#
# 1 106.9610 20.5939 2.9750 0.0000 -37.4531 0.0000
# 2 20.5939 44.4558 9.1661 0.0000 -17.9321 0.0000
# 3 2.9750 9.1661 125.1405 0.0000 -45.8522 0.0000
# 4 0.0000 0.0000 0.0000 29.8153 0.0000 -1.0988
# 5 -37.4531 -17.9321 -45.8522 0.0000 45.7202 0.0000
# 6 0.0000 0.0000 0.0000 -1.0988 0.0000 23.8899
#
#
#
# Elastic Compliance Matrix: (Units=1/GPa)
#
#
# Indices 1 2 3 4 5 6 
#
# 1 0.016379 -0.000922 0.007054 0.000000 0.020130 0.000000
# 2 -0.000922 0.027494 0.002660 0.000000 0.012696 0.000000
# 3 0.007054 0.002660 0.016012 0.000000 0.022880 0.000000
# 4 0.000000 0.000000 0.000000 0.033597 0.000000 0.001545
# 5 0.020130 0.012696 0.022880 0.000000 0.066288 0.000000
# 6 0.000000 0.000000 0.000000 0.001545 0.000000 0.041930
#
#
# Mechanical properties :
#
#
# Convention : Reuss Voigt Hill
#
# Bulk Modulus (GPa) = 12.90844 38.00302 25.45573
# Shear Modulus (GPa) = 23.81650 36.13993 29.97821
#
# Velocity S-wave (km/s) = 3.15065 3.88110 3.53479
# Velocity P-wave (km/s) = 4.31458 5.99361 5.22202
#
# Compressibility (1/GPa) = 0.07746871
#
# Stress axis : x y z
#
# Youngs Moduli (GPa) = 61.05271 36.37150 62.45410
#
# Poissons Ratio (x) = 0.03354 -0.44055
# Poissons Ratio (y) = 0.05630 -0.16612
# Poissons Ratio (z) = -0.43067 -0.09674
#
# Static dielectric constant tensor:
#      x y z
#    x 2.002840 0.000000 -0.036730 
#    y 0.000000 1.834590 0.000000 
#    z -0.036730 0.000000 2.027210 
# 
# From -- ./inp_files/54454.got.cif
#   From: 2010.05.17/outbox.cif.g08.bks.cpg/sg11_28_cif.got.tgz:54454.got - 2010.06.03 12:22:45.
