data_PCOD9159314
_publ_section_title
;
Structure prediction by ZEFSAII (Michael W. Deem and Ramdas Pophale) SiO2 
 PCOD9159314
Probable space group: P 21/M
;
_chemical_formula_sum "Si O2"
_cell_formula_units_Z 32
_cell_length_a 7.014824
_cell_length_b 12.163041
_cell_length_c 20.021001
_cell_angle_alpha 90.000000
_cell_angle_beta 115.747603
_cell_angle_gamma 90.000000
_cell_volume 1538.625104
_symmetry_space_group_name_H-M "P 21/M"
_symmetry_group_IT_number 11
_symmetry_cell_setting 'monoclinic'
loop_
_space_group_symop_operation_xyz
x,y,z
-x,1/2+y,-z
-x,-y,-z
x,1/2-y,z
loop_
_atom_site_type_symbol
_atom_site_label
_atom_site_fract_x
_atom_site_fract_y
_atom_site_fract_z
Si Si1 0.787380 0.996186 0.582605
Si Si2 0.284548 0.482952 0.679550
Si Si3 0.899370 0.512743 0.838791
Si Si4 0.403400 0.126610 0.564259
Si Si5 0.472853 0.876557 0.167043
Si Si6 0.301685 0.124451 0.925427
Si Si7 0.892009 0.622709 0.970044
Si Si8 0.349512 0.124270 0.311874
O O1 0.737561 0.958163 0.500001
O O2 0.685243 0.905186 0.616325
O O3 0.645569 0.101885 0.579909
O O4 0.034278 0.007486 0.634265
O O5 0.369327 0.396266 0.637245
O O6 0.361056 0.447023 0.764489
O O7 0.417410 0.590686 0.678269
O O8 0.755302 0.412536 0.842688
O O9 0.854264 0.609173 0.885590
O O10 0.814483 0.550135 0.754791
O O11 0.135103 0.467134 0.876827
O O12 0.342636 0.250000 0.538721
O O13 0.510893 0.750000 0.187838
O O14 0.496109 0.891887 0.090793
O O15 0.229057 0.250000 0.898376
O O16 0.300651 0.120380 0.005646
O O17 0.983369 0.750000 0.993593
O O18 0.000000 0.500000 0.000000
O O19 0.306497 0.250000 0.292763
#
# Coordination Sequence:
#
# PCOD9159314 Si02
#       8
#     4   4   4   4   4   4   4   4
#     4  10  21  38  56  78 107 137 173 215 261 314
#     4  10  21  37  54  77 107 137 175 219 263 316
#     4  10  19  33  53  75 107 140 176 220 269 318
#     4  10  21  36  56  81 106 135 172 213 260 314
#     4  10  20  33  52  78 106 139 178 218 265 319
#     4   9  18  33  52  76 105 138 178 222 268 318
#     4   9  18  33  55  80 108 143 182 225 273 325
#     4  10  21  35  53  77 104 138 178 218 265 321
#
# _framework density 20.797788000000001
#
# number of rings (size 3 to 8) (size 9 to 14) (size 15 to 20)
#    0.000    2.250    0.000    2.625    0.000    3.000 
#    0.000    3.125    0.000   10.500    0.000    0.000 
#    0.000    0.000    0.000    0.000    0.000    0.000 
#
# Total GULP energy -178244.972682 kJ/mol
# GULP energy per Si atom -5570.155396 kJ/mol
# Density = 2.075045 g / cm^3
# Si number density = 20.797788 Si / 1000 Ang^3
#
#
#
# Elastic Constant Matrix: (Units=GPa)
#
#
# Indices 1 2 3 4 5 6 
#
# 1 39.8892 13.8383 -1.5113 0.0000 -6.0950 0.0000
# 2 13.8383 57.7207 6.2060 0.0000 -11.5721 0.0000
# 3 -1.5113 6.2060 44.2722 0.0000 -13.3277 0.0000
# 4 0.0000 0.0000 0.0000 19.8790 0.0000 -1.7320
# 5 -6.0950 -11.5721 -13.3277 0.0000 36.0214 0.0000
# 6 0.0000 0.0000 0.0000 -1.7320 0.0000 10.0386
#
#
#
# Elastic Compliance Matrix: (Units=1/GPa)
#
#
# Indices 1 2 3 4 5 6 
#
# 1 0.027935 -0.006252 0.002980 0.000000 0.003821 0.000000
# 2 -0.006252 0.019949 -0.001574 0.000000 0.004768 0.000000
# 3 0.002980 -0.001574 0.025781 0.000000 0.009537 0.000000
# 4 0.000000 0.000000 0.000000 0.051072 0.000000 0.008812
# 5 0.003821 0.004768 0.009537 0.000000 0.033468 0.000000
# 6 0.000000 0.000000 0.000000 0.008812 0.000000 0.101136
#
#
# Mechanical properties :
#
#
# Convention : Reuss Voigt Hill
#
# Bulk Modulus (GPa) = 15.63150 19.88313 17.75731
# Shear Modulus (GPa) = 17.22016 21.41108 19.31562
#
# Velocity S-wave (km/s) = 2.88059 3.21204 3.05082
# Velocity P-wave (km/s) = 4.31230 4.83087 4.57893
#
# Compressibility (1/GPa) = 0.06397340
#
# Stress axis : x y z
#
# Youngs Moduli (GPa) = 35.79742 50.12816 38.78810
#
# Poissons Ratio (x) = 0.31338 -0.11560
# Poissons Ratio (y) = 0.22379 0.06106
# Poissons Ratio (z) = -0.10668 0.07892
#
# Static dielectric constant tensor:
#      x y z
#    x 1.736360 0.000000 0.002760 
#    y 0.000000 1.748940 0.000000 
#    z 0.002760 0.000000 1.768940 
# 
# From -- ./inp_files/67630.got.cif
#   From: 2010.05.17/outbox.cif.g08.bks.cpg/sg11_34_cif.got.tgz:67630.got - 2010.06.03 12:22:45.
