data_PCOD9159789
_publ_section_title
;
Structure prediction by ZEFSAII (Michael W. Deem and Ramdas Pophale) SiO2 
 PCOD9159789
Probable space group: P 21/M
;
_chemical_formula_sum "Si O2"
_cell_formula_units_Z 28
_cell_length_a 27.108624
_cell_length_b 9.601823
_cell_length_c 9.543078
_cell_angle_alpha 90.000000
_cell_angle_beta 139.846032
_cell_angle_gamma 90.000000
_cell_volume 1601.784909
_symmetry_space_group_name_H-M "P 21/M"
_symmetry_group_IT_number 11
_symmetry_cell_setting 'monoclinic'
loop_
_space_group_symop_operation_xyz
x,y,z
-x,1/2+y,-z
-x,-y,-z
x,1/2-y,z
loop_
_atom_site_type_symbol
_atom_site_label
_atom_site_fract_x
_atom_site_fract_y
_atom_site_fract_z
Si Si1 0.071482 0.411565 0.208683
Si Si2 0.404023 0.585739 0.406938
Si Si3 0.789938 0.589104 0.712496
Si Si4 0.171645 0.588108 0.625613
Si Si5 0.543534 0.084348 0.798431
Si Si6 0.225204 0.914346 0.056779
Si Si7 0.310895 0.913648 0.709153
O O1 0.051769 0.250000 0.191448
O O2 0.137650 0.416020 0.234184
O O3 0.109274 0.485605 0.425173
O O4 0.000000 0.500000 0.000000
O O5 0.417118 0.750000 0.457915
O O6 0.420190 0.557751 0.277195
O O7 0.464313 0.498133 0.627564
O O8 0.315952 0.555622 0.246898
O O9 0.770039 0.750000 0.693746
O O10 0.808787 0.509620 0.896209
O O11 0.721560 0.507201 0.485867
O O12 0.147368 0.750000 0.558041
O O13 0.249551 0.574296 0.703377
O O14 0.190402 0.560591 0.827902
O O15 0.530618 0.250000 0.780660
O O16 0.606432 0.045503 0.050958
O O17 0.215857 0.750000 0.068413
O O18 0.312717 0.750000 0.672618
#
# Coordination Sequence:
#
# PCOD9159789 Si02
#       7
#     4   4   4   4   4   4   4
#     4  10  21  38  59  83 108 134 167 207 251 303
#     4   9  17  29  46  72 104 135 171 217 261 304
#     4  10  22  36  52  78 109 135 167 213 259 303
#     4   9  17  32  56  81 104 134 173 214 253 301
#     4   9  16  28  47  73 101 132 174 220 263 305
#     4  10  19  34  54  77 106 141 177 210 255 313
#     4   9  16  31  53  74  99 135 178 218 258 309
#
# _framework density 17.480498000000001
#
# number of rings (size 3 to 8) (size 9 to 14) (size 15 to 20)
#    0.000    2.571    1.429    0.857    0.000    3.429 
#    0.000    1.429    0.000    0.000    0.000    0.000 
#    0.000    0.000    0.000    0.000    0.000    0.000 
#
# Total GULP energy -156184.777617 kJ/mol
# GULP energy per Si atom -5578.027772 kJ/mol
# Density = 1.744071 g / cm^3
# Si number density = 17.480498 Si / 1000 Ang^3
#
#
#
# Elastic Constant Matrix: (Units=GPa)
#
#
# Indices 1 2 3 4 5 6 
#
# 1 20.2233 34.4127 24.8876 0.0000 -12.9512 0.0000
# 2 34.4127 96.4968 85.3394 0.0000 -6.4768 0.0000
# 3 24.8876 85.3394 121.4612 0.0000 2.3483 0.0000
# 4 0.0000 0.0000 0.0000 32.5273 0.0000 1.5761
# 5 -12.9512 -6.4768 2.3483 0.0000 25.9327 0.0000
# 6 0.0000 0.0000 0.0000 1.5761 0.0000 24.2557
#
#
#
# Elastic Compliance Matrix: (Units=1/GPa)
#
#
# Indices 1 2 3 4 5 6 
#
# 1 0.294033 -0.109960 0.014729 0.000000 0.118047 0.000000
# 2 -0.109960 0.070546 -0.026360 0.000000 -0.034910 0.000000
# 3 0.014729 -0.026360 0.023763 0.000000 -0.001380 0.000000
# 4 0.000000 0.000000 0.000000 0.030841 0.000000 -0.002004
# 5 0.118047 -0.034910 -0.001380 0.000000 0.088922 0.000000
# 6 0.000000 0.000000 0.000000 -0.002004 0.000000 0.041358
#
#
# Mechanical properties :
#
#
# Convention : Reuss Voigt Hill
#
# Bulk Modulus (GPa) = 6.88904 58.60673 32.74789
# Shear Modulus (GPa) = 5.94507 22.77924 14.36216
#
# Velocity S-wave (km/s) = 1.84617 3.61380 2.86948
# Velocity P-wave (km/s) = 2.91445 7.14230 5.45465
#
# Compressibility (1/GPa) = 0.14515801
#
# Stress axis : x y z
#
# Youngs Moduli (GPa) = 3.40098 14.17506 42.08264
#
# Poissons Ratio (x) = 1.55870 -0.61982
# Poissons Ratio (y) = 0.37397 1.10931
# Poissons Ratio (z) = -0.05009 0.37366
#
# Static dielectric constant tensor:
#      x y z
#    x 1.594210 0.000000 -0.004690 
#    y 0.000000 1.583280 0.000000 
#    z -0.004690 0.000000 1.573120 
# 
# From -- ./inp_files/28345.got.cif
#   From: 2010.05.17/outbox.cif.g08.bks.cpg/sg11_15_cif.got.tgz:28345.got - 2010.06.03 12:22:45.
