data_PCOD9159625
_publ_section_title
;
Structure prediction by ZEFSAII (Michael W. Deem and Ramdas Pophale) SiO2 
 PCOD9159625
Probable space group: P 21/M
;
_chemical_formula_sum "Si O2"
_cell_formula_units_Z 28
_cell_length_a 15.878449
_cell_length_b 9.043257
_cell_length_c 17.631501
_cell_angle_alpha 90.000000
_cell_angle_beta 144.107873
_cell_angle_gamma 90.000000
_cell_volume 1484.271247
_symmetry_space_group_name_H-M "P 21/M"
_symmetry_group_IT_number 11
_symmetry_cell_setting 'monoclinic'
loop_
_space_group_symop_operation_xyz
x,y,z
-x,1/2+y,-z
-x,-y,-z
x,1/2-y,z
loop_
_atom_site_type_symbol
_atom_site_label
_atom_site_fract_x
_atom_site_fract_y
_atom_site_fract_z
Si Si1 0.151388 0.427714 0.087459
Si Si2 0.380342 0.916114 0.960445
Si Si3 0.812711 0.927336 0.060867
Si Si4 0.837439 0.084245 0.335460
Si Si5 0.839461 0.925273 0.478771
Si Si6 0.655371 0.571801 0.628243
Si Si7 0.860667 0.072386 0.652524
O O1 0.132752 0.250000 0.074938
O O2 0.275316 0.463983 0.238840
O O3 0.188814 0.470872 0.028666
O O4 0.000000 0.500000 0.000000
O O5 0.426596 0.750000 0.013872
O O6 0.253221 0.908914 0.806423
O O7 0.314301 0.998294 0.984473
O O8 0.500000 0.000000 0.000000
O O9 0.797973 0.750000 0.055145
O O10 0.970790 0.964699 0.210150
O O11 0.850189 0.250000 0.377686
O O12 0.994858 0.038844 0.421656
O O13 0.766625 0.982177 0.348222
O O14 0.823057 0.750000 0.477388
O O15 0.808859 0.012001 0.533343
O O16 0.500000 0.500000 0.500000
O O17 0.646346 0.750000 0.615067
O O18 0.766272 0.505655 0.648020
O O19 0.846286 0.250000 0.646281
#
# Coordination Sequence:
#
# PCOD9159625 Si02
#       7
#     4   4   4   4   4   4   4
#     4  10  21  39  65  96 126 161 206 258 311 370
#     4  11  23  40  60  84 118 159 202 253 308 364
#     4  10  21  38  62  91 120 155 203 255 308 368
#     4   9  19  35  54  79 112 149 189 237 294 348
#     4  10  19  33  56  85 114 144 190 241 289 347
#     4  11  24  42  64  90 126 166 205 253 312 371
#     4  11  21  36  62  90 120 156 197 247 304 367
#
# _framework density 18.864477000000001
#
# number of rings (size 3 to 8) (size 9 to 14) (size 15 to 20)
#    0.000    1.714    2.857    1.714    0.000    3.429 
#    2.571    0.000    0.000    0.000    0.000    0.000 
#    0.000    0.000    0.000    0.000    0.000    0.000 
#
# Total GULP energy -156208.238256 kJ/mol
# GULP energy per Si atom -5578.865652 kJ/mol
# Density = 1.882154 g / cm^3
# Si number density = 18.864477 Si / 1000 Ang^3
#
#
#
# Elastic Constant Matrix: (Units=GPa)
#
#
# Indices 1 2 3 4 5 6 
#
# 1 155.8620 66.1947 41.5712 0.0000 -10.9770 0.0000
# 2 66.1947 64.1308 28.1764 0.0000 -3.8029 0.0000
# 3 41.5712 28.1764 54.8495 0.0000 -10.6106 0.0000
# 4 0.0000 0.0000 0.0000 24.3582 0.0000 -0.2667
# 5 -10.9770 -3.8029 -10.6106 0.0000 37.0813 0.0000
# 6 0.0000 0.0000 0.0000 -0.2667 0.0000 38.8395
#
#
#
# Elastic Compliance Matrix: (Units=1/GPa)
#
#
# Indices 1 2 3 4 5 6 
#
# 1 0.012004 -0.010890 -0.003210 0.000000 0.001518 0.000000
# 2 -0.010890 0.030049 -0.007633 0.000000 -0.002326 0.000000
# 3 -0.003210 -0.007633 0.025671 0.000000 0.005613 0.000000
# 4 0.000000 0.000000 0.000000 0.041057 0.000000 0.000282
# 5 0.001518 -0.002326 0.005613 0.000000 0.028785 0.000000
# 6 0.000000 0.000000 0.000000 0.000282 0.000000 0.025749
#
#
# Mechanical properties :
#
#
# Convention : Reuss Voigt Hill
#
# Bulk Modulus (GPa) = 41.22174 60.74742 50.98458
# Shear Modulus (GPa) = 23.27024 29.31581 26.29302
#
# Velocity S-wave (km/s) = 3.51600 3.94638 3.73739
# Velocity P-wave (km/s) = 6.19532 7.28266 6.76089
#
# Compressibility (1/GPa) = 0.02425905
#
# Stress axis : x y z
#
# Youngs Moduli (GPa) = 83.30562 33.27897 38.95381
#
# Poissons Ratio (x) = 0.36240 0.12505
# Poissons Ratio (y) = 0.90719 0.29732
# Poissons Ratio (z) = 0.26742 0.25401
#
# Static dielectric constant tensor:
#      x y z
#    x 1.633330 0.000000 -0.012290 
#    y 0.000000 1.661970 0.000000 
#    z -0.012290 0.000000 1.724340 
# 
# From -- ./inp_files/60146.got.cif
#   From: 2010.05.17/outbox.cif.g08.bks.cpg/sg11_31_cif.got.tgz:60146.got - 2010.06.03 12:22:45.
