data_PCOD9159704
_publ_section_title
;
Structure prediction by ZEFSAII (Michael W. Deem and Ramdas Pophale) SiO2 
 PCOD9159704
Probable space group: P 21/M
;
_chemical_formula_sum "Si O2"
_cell_formula_units_Z 28
_cell_length_a 9.374205
_cell_length_b 14.644557
_cell_length_c 12.324154
_cell_angle_alpha 90.000000
_cell_angle_beta 120.459662
_cell_angle_gamma 90.000000
_cell_volume 1458.371438
_symmetry_space_group_name_H-M "P 21/M"
_symmetry_group_IT_number 11
_symmetry_cell_setting 'monoclinic'
loop_
_space_group_symop_operation_xyz
x,y,z
-x,1/2+y,-z
-x,-y,-z
x,1/2-y,z
loop_
_atom_site_type_symbol
_atom_site_label
_atom_site_fract_x
_atom_site_fract_y
_atom_site_fract_z
Si Si1 0.365732 0.357893 0.322063
Si Si2 0.604512 0.536315 0.886832
Si Si3 0.596976 0.351429 0.755570
Si Si4 0.247174 0.487608 0.828511
Si Si5 0.727652 0.354207 0.565084
Si Si6 0.211575 0.145540 0.616971
Si Si7 0.099058 0.041490 0.370595
O O1 0.330473 0.250000 0.316157
O O2 0.361817 0.394071 0.197427
O O3 0.551580 0.372549 0.439246
O O4 0.236578 0.414295 0.344901
O O5 0.633096 0.434694 0.849133
O O6 0.412589 0.539315 0.851161
O O7 0.715724 0.546582 0.036254
O O8 0.622611 0.250000 0.813317
O O9 0.697119 0.358115 0.682762
O O10 0.402829 0.357726 0.649720
O O11 0.220272 0.404446 0.735111
O O12 0.080196 0.545285 0.753580
O O13 0.778169 0.250000 0.557249
O O14 0.849551 0.436686 0.586338
O O15 0.162420 0.250000 0.608276
O O16 0.104701 0.094315 0.486209
#
# Coordination Sequence:
#
# PCOD9159704 Si02
#       7
#     4   4   4   4   4   4   4
#     4  11  22  37  62  91 119 154 196 244 301 353
#     4  10  21  43  60  81 118 164 201 240 285 356
#     4   9  16  32  59  86 111 150 197 235 282 348
#     4  10  24  39  60  83 119 162 203 236 292 350
#     4  10  19  33  58  91 119 148 190 241 299 353
#     4  10  20  36  60  86 117 155 195 237 293 355
#     4  12  21  37  61  92 122 148 191 256 303 343
#
# _framework density 19.199497999999998
#
# number of rings (size 3 to 8) (size 9 to 14) (size 15 to 20)
#    0.000    1.714    2.857    3.000    0.000    1.714 
#    0.000    6.429    0.000    0.857    0.000    0.000 
#    0.000    0.000    0.000    0.000    0.000    0.000 
#
# Total GULP energy -156402.611167 kJ/mol
# GULP energy per Si atom -5585.807542 kJ/mol
# Density = 1.915580 g / cm^3
# Si number density = 19.199498 Si / 1000 Ang^3
#
#
#
# Elastic Constant Matrix: (Units=GPa)
#
#
# Indices 1 2 3 4 5 6 
#
# 1 54.8374 33.3484 51.9277 0.0000 -0.9323 0.0000
# 2 33.3484 62.9826 41.9690 0.0000 12.3244 0.0000
# 3 51.9277 41.9690 137.7461 0.0000 0.5542 0.0000
# 4 0.0000 0.0000 0.0000 -0.6055 0.0000 0.4275
# 5 -0.9323 12.3244 0.5542 0.0000 24.0915 0.0000
# 6 0.0000 0.0000 0.0000 0.4275 0.0000 0.9048
#
#
#
# Elastic Compliance Matrix: (Units=1/GPa)
#
#
# Indices 1 2 3 4 5 6 
#
# 1 0.036010 -0.014795 -0.009104 0.000000 0.009171 0.000000
# 2 -0.014795 0.028774 -0.003128 0.000000 -0.015220 0.000000
# 3 -0.009104 -0.003128 0.011641 0.000000 0.000980 0.000000
# 4 0.000000 0.000000 0.000000 -1.238388 0.000000 0.585120
# 5 0.009171 -0.015220 0.000980 0.000000 0.049627 0.000000
# 6 0.000000 0.000000 0.000000 0.585120 0.000000 0.828802
#
#
# Mechanical properties :
#
#
# Convention : Reuss Voigt Hill
#
# Bulk Modulus (GPa) = 44.70220 56.67292 50.68756
# Shear Modulus (GPa) = -22.52025 13.43288 -4.54369
#
# Velocity S-wave (km/s) = -3.42857 2.64795 -1.54003
# Velocity P-wave (km/s) = 2.76769 6.23946 4.82654
#
# Compressibility (1/GPa) = 0.02237026
#
# Stress axis : x y z
#
# Youngs Moduli (GPa) = 27.77002 34.75375 85.90246
#
# Poissons Ratio (x) = 0.51417 0.78208
# Poissons Ratio (y) = 0.41085 0.26873
# Poissons Ratio (z) = 0.25283 0.10872
#
# Static dielectric constant tensor:
#      x y z
#    x 1.704850 0.000000 -0.001370 
#    y 0.000000 1.670250 0.000000 
#    z -0.001370 0.000000 1.627710 
# 
# From -- ./inp_files/17941.got.cif
#   From: 2010.05.17/outbox.cif.g08.bks.cpg/sg11_9_cif.got.tgz:17941.got - 2010.06.03 12:22:45.
