data_PCOD9159702
_publ_section_title
;
Structure prediction by ZEFSAII (Michael W. Deem and Ramdas Pophale) SiO2 
 PCOD9159702
Probable space group: P 21/M
;
_chemical_formula_sum "Si O2"
_cell_formula_units_Z 28
_cell_length_a 10.434513
_cell_length_b 8.768127
_cell_length_c 30.686744
_cell_angle_alpha 90.000000
_cell_angle_beta 33.424778
_cell_angle_gamma 90.000000
_cell_volume 1546.523971
_symmetry_space_group_name_H-M "P 21/M"
_symmetry_group_IT_number 11
_symmetry_cell_setting 'monoclinic'
loop_
_space_group_symop_operation_xyz
x,y,z
-x,1/2+y,-z
-x,-y,-z
x,1/2-y,z
loop_
_atom_site_type_symbol
_atom_site_label
_atom_site_fract_x
_atom_site_fract_y
_atom_site_fract_z
Si Si1 0.847626 0.068446 0.263415
Si Si2 0.109404 0.067827 0.405902
Si Si3 0.622719 0.431605 0.007971
Si Si4 0.845407 0.931870 0.166682
Si Si5 0.587569 0.567757 0.762284
Si Si6 0.633414 0.430936 0.584154
Si Si7 0.684876 0.068164 0.828967
O O1 0.865265 0.250000 0.256093
O O2 0.841315 0.000254 0.216400
O O3 0.606511 0.018749 0.354224
O O4 0.069849 0.000603 0.224858
O O5 0.140899 0.250000 0.404702
O O6 0.839287 0.032909 0.491564
O O7 0.206074 0.033662 0.330745
O O8 0.260267 0.979840 0.399230
O O9 0.582127 0.250000 0.020576
O O10 0.508807 0.507264 0.082479
O O11 0.500000 0.500000 0.000000
O O12 0.898255 0.458237 0.925707
O O13 0.805780 0.750000 0.180338
O O14 0.647444 0.009382 0.193889
O O15 0.577021 0.750000 0.771303
O O16 0.628359 0.487490 0.796550
O O17 0.590934 0.250000 0.595897
O O18 0.694764 0.250000 0.828342
#
# Coordination Sequence:
#
# PCOD9159702 Si02
#       7
#     4   4   4   4   4   4   4
#     4  12  23  38  61  90 122 159 205 252 304 361
#     4   9  19  35  57  88 123 160 199 248 303 358
#     4  11  23  40  64  92 124 158 202 252 304 358
#     4  11  23  39  63  93 122 158 202 249 300 359
#     4  11  23  41  63  90 125 163 203 248 306 365
#     4  10  19  33  58  90 123 156 201 252 300 356
#     4  12  26  43  63  88 122 162 205 252 309 367
#
# _framework density 18.105118999999998
#
# number of rings (size 3 to 8) (size 9 to 14) (size 15 to 20)
#    0.000    1.143    2.857    4.286    0.000    3.429 
#    0.000    0.714    0.000    0.000    0.000    0.000 
#    0.000    0.000    0.000    0.000    0.000    0.000 
#
# Total GULP energy -156553.418597 kJ/mol
# GULP energy per Si atom -5591.193521 kJ/mol
# Density = 1.806391 g / cm^3
# Si number density = 18.105119 Si / 1000 Ang^3
#
#
#
# Elastic Constant Matrix: (Units=GPa)
#
#
# Indices 1 2 3 4 5 6 
#
# 1 99.3269 32.1128 54.2590 0.0000 2.8311 0.0000
# 2 32.1128 88.7217 66.5675 0.0000 -3.9289 0.0000
# 3 54.2590 66.5675 129.5286 0.0000 1.9619 0.0000
# 4 0.0000 0.0000 0.0000 24.8843 0.0000 -7.6198
# 5 2.8311 -3.9289 1.9619 0.0000 27.8830 0.0000
# 6 0.0000 0.0000 0.0000 -7.6198 0.0000 29.4987
#
#
#
# Elastic Compliance Matrix: (Units=1/GPa)
#
#
# Indices 1 2 3 4 5 6 
#
# 1 0.013147 -0.001124 -0.004912 0.000000 -0.001148 0.000000
# 2 -0.001124 0.018740 -0.009212 0.000000 0.003403 0.000000
# 3 -0.004912 -0.009212 0.014540 0.000000 -0.001822 0.000000
# 4 0.000000 0.000000 0.000000 0.043638 0.000000 0.011272
# 5 -0.001148 0.003403 -0.001822 0.000000 0.036588 0.000000
# 6 0.000000 0.000000 0.000000 0.011272 0.000000 0.036811
#
#
# Mechanical properties :
#
#
# Convention : Reuss Voigt Hill
#
# Bulk Modulus (GPa) = 62.76911 69.27289 66.02100
# Shear Modulus (GPa) = 25.09144 27.42906 26.26025
#
# Velocity S-wave (km/s) = 3.72677 3.89651 3.81259
# Velocity P-wave (km/s) = 7.29815 7.65430 7.47834
#
# Compressibility (1/GPa) = 0.01593140
#
# Stress axis : x y z
#
# Youngs Moduli (GPa) = 76.06127 53.36124 68.77637
#
# Poissons Ratio (x) = 0.05996 0.33786
# Poissons Ratio (y) = 0.08547 0.63356
# Poissons Ratio (z) = 0.37365 0.49155
#
# Static dielectric constant tensor:
#      x y z
#    x 1.570470 0.000000 -0.008460 
#    y 0.000000 1.604880 0.000000 
#    z -0.008460 0.000000 1.631280 
# 
# From -- ./inp_files/70851.got.cif
#   From: 2010.05.17/outbox.cif.g08.bks.cpg/sg11_36_cif.got.tgz:70851.got - 2010.06.03 12:22:45.
