data_PCOD9159556
_publ_section_title
;
Structure prediction by ZEFSAII (Michael W. Deem and Ramdas Pophale) SiO2 
 PCOD9159556
Probable space group: P 21/M
;
_chemical_formula_sum "Si O2"
_cell_formula_units_Z 28
_cell_length_a 22.492858
_cell_length_b 8.713204
_cell_length_c 15.378080
_cell_angle_alpha 90.000000
_cell_angle_beta 32.830486
_cell_angle_gamma 90.000000
_cell_volume 1633.986311
_symmetry_space_group_name_H-M "P 21/M"
_symmetry_group_IT_number 11
_symmetry_cell_setting 'monoclinic'
loop_
_space_group_symop_operation_xyz
x,y,z
-x,1/2+y,-z
-x,-y,-z
x,1/2-y,z
loop_
_atom_site_type_symbol
_atom_site_label
_atom_site_fract_x
_atom_site_fract_y
_atom_site_fract_z
Si Si1 0.407504 0.434028 0.500925
Si Si2 0.803881 0.567676 0.913169
Si Si3 0.254357 0.566753 0.335624
Si Si4 0.658490 0.067383 0.240456
Si Si5 0.391720 0.434286 0.321705
Si Si6 0.979194 0.567284 0.429520
Si Si7 0.372610 0.066135 0.021824
O O1 0.397907 0.250000 0.523516
O O2 0.342516 0.515959 0.658073
O O3 0.536519 0.472783 0.354681
O O4 0.373458 0.475262 0.445216
O O5 0.823637 0.750000 0.887658
O O6 0.717952 0.532070 0.940994
O O7 0.916212 0.479828 0.756229
O O8 0.746944 0.516939 0.072394
O O9 0.255001 0.750000 0.330826
O O10 0.304476 0.508660 0.364374
O O11 0.132382 0.503791 0.470249
O O12 0.329363 0.500302 0.165687
O O13 0.672109 0.250000 0.216236
O O14 0.388631 0.250000 0.317945
O O15 0.512053 0.492723 0.146370
O O16 0.968223 0.750000 0.448759
O O17 0.000000 0.500000 0.500000
O O18 0.384181 0.250000 0.014008
#
# Coordination Sequence:
#
# PCOD9159556 Si02
#       7
#     4   4   4   4   4   4   4
#     4   9  19  34  54  81 114 150 186 230 282 337
#     4  11  22  36  58  85 117 151 188 234 283 335
#     4  12  25  40  58  81 114 153 195 236 282 339
#     4  10  19  33  55  84 115 148 187 233 283 336
#     4  11  22  38  58  82 117 154 193 235 284 341
#     4  12  24  40  61  84 112 148 192 237 284 332
#     4  11  22  36  56  83 116 153 192 232 282 339
#
# _framework density 17.136005000000001
#
# number of rings (size 3 to 8) (size 9 to 14) (size 15 to 20)
#    0.000    1.143    2.857    4.714    0.000    2.857 
#    0.000    0.000    0.000    0.857    0.000    0.000 
#    0.000    0.000    0.000    0.000    0.000    0.000 
#
# Total GULP energy -156551.443798 kJ/mol
# GULP energy per Si atom -5591.122993 kJ/mol
# Density = 1.709700 g / cm^3
# Si number density = 17.136005 Si / 1000 Ang^3
#
#
#
# Elastic Constant Matrix: (Units=GPa)
#
#
# Indices 1 2 3 4 5 6 
#
# 1 119.8284 40.8445 49.5904 0.0000 10.6027 0.0000
# 2 40.8445 65.6698 23.8079 0.0000 5.8419 0.0000
# 3 49.5904 23.8079 62.7187 0.0000 17.7084 0.0000
# 4 0.0000 0.0000 0.0000 31.6901 0.0000 0.0236
# 5 10.6027 5.8419 17.7084 0.0000 25.0929 0.0000
# 6 0.0000 0.0000 0.0000 0.0236 0.0000 26.4023
#
#
#
# Elastic Compliance Matrix: (Units=1/GPa)
#
#
# Indices 1 2 3 4 5 6 
#
# 1 0.013968 -0.005398 -0.009596 0.000000 0.002126 0.000000
# 2 -0.005398 0.019756 -0.003218 0.000000 -0.000048 0.000000
# 3 -0.009596 -0.003218 0.029218 0.000000 -0.015816 0.000000
# 4 0.000000 0.000000 0.000000 0.031556 0.000000 -0.000028
# 5 0.002126 -0.000048 -0.015816 0.000000 0.050126 0.000000
# 6 0.000000 0.000000 0.000000 -0.000028 0.000000 0.037875
#
#
# Mechanical properties :
#
#
# Convention : Reuss Voigt Hill
#
# Bulk Modulus (GPa) = 37.70793 52.96696 45.33744
# Shear Modulus (GPa) = 21.95269 25.56867 23.76068
#
# Velocity S-wave (km/s) = 3.58311 3.86696 3.72774
# Velocity P-wave (km/s) = 6.25868 7.13546 6.71140
#
# Compressibility (1/GPa) = 0.02651962
#
# Stress axis : x y z
#
# Youngs Moduli (GPa) = 71.59105 50.61767 34.22514
#
# Poissons Ratio (x) = 0.27324 0.32841
# Poissons Ratio (y) = 0.38646 0.11012
# Poissons Ratio (z) = 0.68696 0.16287
#
# Static dielectric constant tensor:
#      x y z
#    x 1.568320 0.000000 0.005620 
#    y 0.000000 1.562350 0.000000 
#    z 0.005620 0.000000 1.553640 
# 
# From -- ./inp_files/37707.got.cif
#   From: 2010.05.17/outbox.cif.g08.bks.cpg/sg11_19_cif.got.tgz:37707.got - 2010.06.03 12:22:45.
