data_PCOD9159688
_publ_section_title
;
Structure prediction by ZEFSAII (Michael W. Deem and Ramdas Pophale) SiO2 
 PCOD9159688
Probable space group: P 21/M
;
_chemical_formula_sum "Si O2"
_cell_formula_units_Z 24
_cell_length_a 10.925916
_cell_length_b 13.855869
_cell_length_c 13.604083
_cell_angle_alpha 90.000000
_cell_angle_beta 149.892048
_cell_angle_gamma 90.000000
_cell_volume 1033.106509
_symmetry_space_group_name_H-M "P 21/M"
_symmetry_group_IT_number 11
_symmetry_cell_setting 'monoclinic'
loop_
_space_group_symop_operation_xyz
x,y,z
-x,1/2+y,-z
-x,-y,-z
x,1/2-y,z
loop_
_atom_site_type_symbol
_atom_site_label
_atom_site_fract_x
_atom_site_fract_y
_atom_site_fract_z
Si Si1 0.901671 0.555464 0.287665
Si Si2 0.001691 0.356363 0.436066
Si Si3 0.561538 0.147435 0.812152
Si Si4 0.432555 0.587277 0.579742
Si Si5 0.301972 0.069324 0.049961
Si Si6 0.756596 0.403684 0.748094
O O1 0.940376 0.621404 0.409384
O O2 0.850060 0.446960 0.290005
O O3 0.164993 0.546828 0.418455
O O4 0.724194 0.598387 0.081806
O O5 0.895531 0.250000 0.348990
O O6 0.276824 0.356489 0.583403
O O7 0.596591 0.250000 0.891098
O O8 0.724565 0.150124 0.827797
O O9 0.622249 0.044331 0.902598
O O10 0.525406 0.622743 0.750964
O O11 0.625046 0.505321 0.681984
O O12 0.381902 0.641765 0.442371
O O13 0.035127 0.080259 0.912639
#
# Coordination Sequence:
#
# PCOD9159688 Si02
#       6
#     4   4   4   4   4   4
#     4  10  20  36  60  80 104 150 182 226 280 321
#     4  10  21  38  56  80 111 143 185 231 275 328
#     4  10  19  34  54  81 113 142 177 229 276 316
#     4   9  16  32  54  79 106 136 180 215 262 329
#     4  10  19  33  58  83 104 141 184 223 265 335
#     4   9  17  31  55  80 105 140 174 215 264 327
#
# _framework density 23.230906000000001
#
# number of rings (size 3 to 8) (size 9 to 14) (size 15 to 20)
#    0.000    2.333    3.333    2.000    0.000    1.333 
#    0.000    3.333    0.000    5.000    0.000    0.000 
#    0.000    0.000    0.000    0.000    0.000    0.000 
#
# Total GULP energy -133671.678079 kJ/mol
# GULP energy per Si atom -5569.653253 kJ/mol
# Density = 2.317803 g / cm^3
# Si number density = 23.230906 Si / 1000 Ang^3
#
#
#
# Elastic Constant Matrix: (Units=GPa)
#
#
# Indices 1 2 3 4 5 6 
#
# 1 50.4218 -3.6618 22.5728 0.0000 -8.5906 0.0000
# 2 -3.6618 54.1040 -11.9125 0.0000 11.4563 0.0000
# 3 22.5728 -11.9125 91.5533 0.0000 -18.7618 0.0000
# 4 0.0000 0.0000 0.0000 12.1220 0.0000 9.6225
# 5 -8.5906 11.4563 -18.7618 0.0000 43.6464 0.0000
# 6 0.0000 0.0000 0.0000 9.6225 0.0000 2.8256
#
#
#
# Elastic Compliance Matrix: (Units=1/GPa)
#
#
# Indices 1 2 3 4 5 6 
#
# 1 0.022492 -0.000077 -0.005093 0.000000 0.002258 0.000000
# 2 -0.000077 0.019798 0.001674 0.000000 -0.004492 0.000000
# 3 -0.005093 0.001674 0.013270 0.000000 0.004262 0.000000
# 4 0.000000 0.000000 0.000000 -0.048435 0.000000 0.164940
# 5 0.002258 -0.004492 0.004262 0.000000 0.026367 0.000000
# 6 0.000000 0.000000 0.000000 0.164940 0.000000 -0.207786
#
#
# Mechanical properties :
#
#
# Convention : Reuss Voigt Hill
#
# Bulk Modulus (GPa) = 20.58973 23.34180 21.96577
# Shear Modulus (GPa) = -33.08747 24.32418 -4.38164
#
# Velocity S-wave (km/s) = -3.77807 3.23934 -1.37485
# Velocity P-wave (km/s) = 3.18581 4.90517 2.63735
#
# Compressibility (1/GPa) = 0.04856789
#
# Stress axis : x y z
#
# Youngs Moduli (GPa) = 44.46081 50.51141 75.36056
#
# Poissons Ratio (x) = 0.00390 0.38379
# Poissons Ratio (y) = 0.00343 -0.12619
# Poissons Ratio (z) = 0.22643 -0.08458
#
# Static dielectric constant tensor:
#      x y z
#    x 1.923880 0.000000 -0.045060 
#    y 0.000000 1.870990 0.000000 
#    z -0.045060 0.000000 1.881540 
# 
# From -- ./inp_files/50435.got.cif
#   From: 2010.05.17/outbox.cif.g08.bks.cpg/sg11_26_cif.got.tgz:50435.got - 2010.06.03 12:22:45.
