data_PCOD9159242
_publ_section_title
;
Structure prediction by ZEFSAII (Michael W. Deem and Ramdas Pophale) SiO2 
 PCOD9159242
Probable space group: P 21/M
;
_chemical_formula_sum "Si O2"
_cell_formula_units_Z 32
_cell_length_a 15.404584
_cell_length_b 8.949927
_cell_length_c 31.425349
_cell_angle_alpha 90.000000
_cell_angle_beta 28.640253
_cell_angle_gamma 90.000000
_cell_volume 2076.656981
_symmetry_space_group_name_H-M "P 21/M"
_symmetry_group_IT_number 11
_symmetry_cell_setting 'monoclinic'
loop_
_space_group_symop_operation_xyz
x,y,z
-x,1/2+y,-z
-x,-y,-z
x,1/2-y,z
loop_
_atom_site_type_symbol
_atom_site_label
_atom_site_fract_x
_atom_site_fract_y
_atom_site_fract_z
Si Si1 0.227097 0.071287 0.600813
Si Si2 0.756637 0.071287 0.071274
Si Si3 0.461957 0.929770 0.917204
Si Si4 0.824479 0.429770 0.796362
Si Si5 0.768452 0.428088 0.243849
Si Si6 0.862316 0.069740 0.879228
Si Si7 0.460048 0.072557 0.585456
Si Si8 0.176466 0.072557 0.869040
O O1 0.238260 0.250000 0.588926
O O2 0.318371 0.042827 0.607728
O O3 0.017702 0.026041 0.693233
O O4 0.348464 0.986988 0.514097
O O5 0.743305 0.250000 0.083883
O O6 0.615108 0.026042 0.095828
O O7 0.739216 0.986990 0.123342
O O8 0.959931 0.042822 0.966171
O O9 0.476423 0.750000 0.911466
O O10 0.652661 0.000001 0.847340
O O11 0.309437 0.970293 0.017769
O O12 0.812760 0.250000 0.799353
O O13 0.827827 0.470293 0.844971
O O14 0.771646 0.250000 0.242784
O O15 0.612439 0.489749 0.341860
O O16 0.750454 0.489752 0.203842
O O17 0.957601 0.492392 0.180799
O O18 0.888706 0.250000 0.870431
O O19 0.464211 0.250000 0.590609
O O20 0.200248 0.250000 0.854573
#
# Coordination Sequence:
#
# PCOD9159242 Si02
#       8
#     4   4   4   4   4   4   4   4
#     4   9  18  33  50  71  98 129 165 208 251 290
#     4   9  18  33  50  71  98 129 165 208 251 290
#     4  10  20  33  50  70 100 136 172 210 246 289
#     4  10  20  33  50  70 100 136 172 210 246 289
#     4  12  22  31  49  76 102 131 168 205 246 303
#     4  10  19  35  49  66 100 139 173 209 248 283
#     4  10  19  33  52  71  98 130 163 204 253 301
#     4  10  19  33  52  71  98 130 163 204 253 301
#
# _framework density 15.409382000000001
#
# number of rings (size 3 to 8) (size 9 to 14) (size 15 to 20)
#    0.000    2.000    2.500    2.250    0.000    3.000 
#    0.000    0.000    0.000    0.000    0.000    0.875 
#    0.000    0.000    0.000    0.000    0.000    0.000 
#
# Total GULP energy -178609.419106 kJ/mol
# GULP energy per Si atom -5581.544347 kJ/mol
# Density = 1.537431 g / cm^3
# Si number density = 15.409382 Si / 1000 Ang^3
#
#
#
# Elastic Constant Matrix: (Units=GPa)
#
#
# Indices 1 2 3 4 5 6 
#
# 1 113.5648 48.2475 80.3688 0.0000 5.7158 0.0000
# 2 48.2475 50.4501 54.4571 0.0000 11.2084 0.0000
# 3 80.3688 54.4571 121.1971 0.0000 8.0472 0.0000
# 4 0.0000 0.0000 0.0000 23.9841 0.0000 -2.6573
# 5 5.7158 11.2084 8.0472 0.0000 22.3934 0.0000
# 6 0.0000 0.0000 0.0000 -2.6573 0.0000 25.4557
#
#
#
# Elastic Compliance Matrix: (Units=1/GPa)
#
#
# Indices 1 2 3 4 5 6 
#
# 1 0.018487 -0.009507 -0.008186 0.000000 0.002981 0.000000
# 2 -0.009507 0.047726 -0.014051 0.000000 -0.016412 0.000000
# 3 -0.008186 -0.014051 0.019861 0.000000 0.001985 0.000000
# 4 0.000000 0.000000 0.000000 0.042182 0.000000 0.004403
# 5 0.002981 -0.016412 0.001985 0.000000 0.051396 0.000000
# 6 0.000000 0.000000 0.000000 0.004403 0.000000 0.039744
#
#
# Mechanical properties :
#
#
# Convention : Reuss Voigt Hill
#
# Bulk Modulus (GPa) = 44.27142 72.37321 58.32231
# Shear Modulus (GPa) = 17.21688 21.17587 19.19638
#
# Velocity S-wave (km/s) = 3.34623 3.71107 3.53336
# Velocity P-wave (km/s) = 6.61228 8.08898 7.38762
#
# Compressibility (1/GPa) = 0.02258794
#
# Stress axis : x y z
#
# Youngs Moduli (GPa) = 54.09106 20.95282 50.35017
#
# Poissons Ratio (x) = 0.19919 0.41216
# Poissons Ratio (y) = 0.51422 0.70747
# Poissons Ratio (z) = 0.44278 0.29441
#
# Static dielectric constant tensor:
#      x y z
#    x 1.493980 0.000000 0.008250 
#    y 0.000000 1.513220 0.000000 
#    z 0.008250 0.000000 1.498550 
# 
# From -- ./inp_files/51396.got.cif
#   From: 2010.05.17/outbox.cif.g08.bks.cpg/sg11_26_cif.got.tgz:51396.got - 2010.06.03 12:22:45.
