data_PCOD9159765
_publ_section_title
;
Structure prediction by ZEFSAII (Michael W. Deem and Ramdas Pophale) SiO2 
 PCOD9159765
Probable space group: P 21/M
;
_chemical_formula_sum "Si O2"
_cell_formula_units_Z 32
_cell_length_a 15.776646
_cell_length_b 8.645903
_cell_length_c 15.840904
_cell_angle_alpha 90.000000
_cell_angle_beta 56.873722
_cell_angle_gamma 90.000000
_cell_volume 1809.561339
_symmetry_space_group_name_H-M "P 21/M"
_symmetry_group_IT_number 11
_symmetry_cell_setting 'monoclinic'
loop_
_space_group_symop_operation_xyz
x,y,z
-x,1/2+y,-z
-x,-y,-z
x,1/2-y,z
loop_
_atom_site_type_symbol
_atom_site_label
_atom_site_fract_x
_atom_site_fract_y
_atom_site_fract_z
Si Si1 0.594696 0.935862 0.139117
Si Si2 0.653285 0.434206 0.463606
Si Si3 0.135822 0.433216 0.591557
Si Si4 0.456662 0.934455 0.653414
Si Si5 0.824916 0.064166 0.613951
Si Si6 0.620444 0.437101 0.815585
Si Si7 0.733381 0.064103 0.923412
Si Si8 0.924018 0.933972 0.728609
O O1 0.597509 0.750000 0.134851
O O2 0.489577 0.991500 0.152537
O O3 0.590153 0.992522 0.237491
O O4 0.686705 0.003960 0.035375
O O5 0.663676 0.250000 0.468774
O O6 0.759800 0.513951 0.422717
O O7 0.610848 0.466469 0.392886
O O8 0.567150 0.495109 0.574216
O O9 0.124135 0.250000 0.602208
O O10 0.142575 0.487038 0.490482
O O11 0.037957 0.514195 0.684957
O O12 0.465286 0.750000 0.657908
O O13 0.830954 0.250000 0.603077
O O14 0.709449 0.020590 0.701699
O O15 0.891860 0.009418 0.656507
O O16 0.617440 0.250000 0.818376
O O17 0.658378 0.486765 0.887442
O O18 0.738608 0.250000 0.919589
O O19 0.842419 0.996111 0.840047
O O20 0.917077 0.750000 0.725659
#
# Coordination Sequence:
#
# PCOD9159765 Si02
#       8
#     4   4   4   4   4   4   4   4
#     4  11  20  32  53  80 108 141 181 221 265 316
#     4  10  21  38  58  81 110 141 174 216 265 318
#     4  12  23  35  54  80 107 139 179 220 267 321
#     4  10  21  37  57  82 111 142 175 214 264 319
#     4  10  19  34  53  77 110 145 180 219 264 312
#     4   8  17  31  49  74 106 141 175 214 257 304
#     4  10  20  36  53  73 105 143 183 225 268 312
#     4  11  22  37  54  75 105 142 183 224 267 314
#
# _framework density 17.683844000000001
#
# number of rings (size 3 to 8) (size 9 to 14) (size 15 to 20)
#    0.000    1.750    0.000    6.375    0.000    2.500 
#    0.000    6.250    0.000    0.750    0.000    0.000 
#    0.000    0.000    0.000    0.000    0.000    0.000 
#
# Total GULP energy -178822.685128 kJ/mol
# GULP energy per Si atom -5588.208910 kJ/mol
# Density = 1.764360 g / cm^3
# Si number density = 17.683844 Si / 1000 Ang^3
#
#
#
# Elastic Constant Matrix: (Units=GPa)
#
#
# Indices 1 2 3 4 5 6 
#
# 1 61.6855 25.0106 45.0885 0.0000 -19.2494 0.0000
# 2 25.0106 61.0817 36.6437 0.0000 -4.9237 0.0000
# 3 45.0885 36.6437 126.3188 0.0000 -9.9816 0.0000
# 4 0.0000 0.0000 0.0000 30.5142 0.0000 -0.0626
# 5 -19.2494 -4.9237 -9.9816 0.0000 16.3472 0.0000
# 6 0.0000 0.0000 0.0000 -0.0626 0.0000 25.3972
#
#
#
# Elastic Compliance Matrix: (Units=1/GPa)
#
#
# Indices 1 2 3 4 5 6 
#
# 1 0.035934 -0.007078 -0.007983 0.000000 0.035307 0.000000
# 2 -0.007078 0.021320 -0.004002 0.000000 -0.004358 0.000000
# 3 -0.007983 -0.004002 0.011651 0.000000 -0.003492 0.000000
# 4 0.000000 0.000000 0.000000 0.032772 0.000000 0.000081
# 5 0.035307 -0.004358 -0.003492 0.000000 0.099303 0.000000
# 6 0.000000 0.000000 0.000000 0.000081 0.000000 0.039375
#
#
# Mechanical properties :
#
#
# Convention : Reuss Voigt Hill
#
# Bulk Modulus (GPa) = 32.49154 51.39684 41.94419
# Shear Modulus (GPa) = 17.31650 23.94127 20.62889
#
# Velocity S-wave (km/s) = 3.13266 3.68346 3.41917
# Velocity P-wave (km/s) = 5.61232 6.87153 6.27360
#
# Compressibility (1/GPa) = 0.03077725
#
# Stress axis : x y z
#
# Youngs Moduli (GPa) = 27.82856 46.90503 85.82877
#
# Poissons Ratio (x) = 0.33202 0.68518
# Poissons Ratio (y) = 0.19698 0.34351
# Poissons Ratio (z) = 0.22216 0.18773
#
# Static dielectric constant tensor:
#      x y z
#    x 1.603410 0.000000 -0.006280 
#    y 0.000000 1.589330 0.000000 
#    z -0.006280 0.000000 1.588480 
# 
# From -- ./inp_files/51627.got.cif
#   From: 2010.05.17/outbox.cif.g08.bks.cpg/sg11_26_cif.got.tgz:51627.got - 2010.06.03 12:22:45.
