data_PCOD9159005
_publ_section_title
;
Structure prediction by ZEFSAII (Michael W. Deem and Ramdas Pophale) SiO2 
 PCOD9159005
Probable space group: P 21/M
;
_chemical_formula_sum "Si O2"
_cell_formula_units_Z 32
_cell_length_a 20.242728
_cell_length_b 9.695594
_cell_length_c 12.236348
_cell_angle_alpha 90.000000
_cell_angle_beta 132.708384
_cell_angle_gamma 90.000000
_cell_volume 1764.710633
_symmetry_space_group_name_H-M "P 21/M"
_symmetry_group_IT_number 11
_symmetry_cell_setting 'monoclinic'
loop_
_space_group_symop_operation_xyz
x,y,z
-x,1/2+y,-z
-x,-y,-z
x,1/2-y,z
loop_
_atom_site_type_symbol
_atom_site_label
_atom_site_fract_x
_atom_site_fract_y
_atom_site_fract_z
Si Si1 0.724616 0.090706 0.507562
Si Si2 0.513752 0.095885 0.221249
Si Si3 0.366253 0.912857 0.957370
Si Si4 0.571291 0.596353 0.637494
Si Si5 0.265464 0.906379 0.228584
Si Si6 0.807404 0.406589 0.084144
Si Si7 0.250987 0.408891 0.662796
Si Si8 0.081745 0.091051 0.635125
O O1 0.741896 0.250000 0.494063
O O2 0.616266 0.069385 0.374125
O O3 0.756826 0.075750 0.668857
O O4 0.766455 0.981475 0.472174
O O5 0.511139 0.250000 0.167369
O O6 0.455631 0.102452 0.266645
O O7 0.461972 0.981092 0.093595
O O8 0.373735 0.750000 0.943646
O O9 0.292455 0.927517 0.973858
O O10 0.323033 0.996968 0.808401
O O11 0.500000 0.500000 0.500000
O O12 0.568880 0.750000 0.588774
O O13 0.665303 0.524717 0.723730
O O14 0.305861 0.750000 0.267086
O O15 0.195394 0.912253 0.050431
O O16 0.833558 0.250000 0.145981
O O17 0.873584 0.517562 0.210187
O O18 0.281137 0.250000 0.686008
O O19 0.160961 0.410002 0.633906
O O20 0.056249 0.250000 0.627089
O O21 0.000000 0.000000 0.500000
#
# Coordination Sequence:
#
# PCOD9159005 Si02
#       8
#     4   4   4   4   4   4   4   4
#     4  10  21  36  52  72 105 149 190 224 263 313
#     4  10  20  32  47  70 103 142 186 235 276 309
#     4  10  19  32  53  76 101 139 184 228 274 321
#     4  11  20  30  46  69 101 141 187 237 278 313
#     4  10  19  34  52  76 108 143 183 226 268 314
#     4   9  18  32  54  83 113 139 170 215 268 318
#     4  10  22  39  56  78 108 138 173 218 266 319
#     4  10  21  38  63  90 113 133 162 208 262 320
#
# _framework density 18.133284
#
# number of rings (size 3 to 8) (size 9 to 14) (size 15 to 20)
#    0.000    2.000    2.500    1.500    0.000    4.500 
#    0.000    0.000    0.000    0.750    0.000    0.000 
#    0.000    0.000    0.000    0.000    0.000    0.000 
#
# Total GULP energy -178440.360243 kJ/mol
# GULP energy per Si atom -5576.261258 kJ/mol
# Density = 1.809201 g / cm^3
# Si number density = 18.133284 Si / 1000 Ang^3
#
#
#
# Elastic Constant Matrix: (Units=GPa)
#
#
# Indices 1 2 3 4 5 6 
#
# 1 18.3164 28.3172 26.5640 0.0000 -15.2154 0.0000
# 2 28.3172 151.6616 74.6324 0.0000 -6.5370 0.0000
# 3 26.5640 74.6324 93.0538 0.0000 -13.3751 0.0000
# 4 0.0000 0.0000 0.0000 30.8534 0.0000 1.1235
# 5 -15.2154 -6.5370 -13.3751 0.0000 25.2117 0.0000
# 6 0.0000 0.0000 0.0000 1.1235 0.0000 24.5553
#
#
#
# Elastic Compliance Matrix: (Units=1/GPa)
#
#
# Indices 1 2 3 4 5 6 
#
# 1 0.235093 -0.023400 -0.031203 0.000000 0.119259 0.000000
# 2 -0.023400 0.013312 -0.005987 0.000000 -0.013846 0.000000
# 3 -0.031203 -0.005987 0.023303 0.000000 -0.008021 0.000000
# 4 0.000000 0.000000 0.000000 0.032465 0.000000 -0.001485
# 5 0.119259 -0.013846 -0.008021 0.000000 0.103792 0.000000
# 6 0.000000 0.000000 0.000000 -0.001485 0.000000 0.040792
#
#
# Mechanical properties :
#
#
# Convention : Reuss Voigt Hill
#
# Bulk Modulus (GPa) = 6.64325 58.00657 32.32491
# Shear Modulus (GPa) = 8.06305 25.02530 16.54418
#
# Velocity S-wave (km/s) = 2.11097 3.71897 3.02382
# Velocity P-wave (km/s) = 3.10050 7.10629 5.48236
#
# Compressibility (1/GPa) = 0.15052872
#
# Stress axis : x y z
#
# Youngs Moduli (GPa) = 4.25364 75.11980 42.91325
#
# Poissons Ratio (x) = 1.75779 1.33901
# Poissons Ratio (y) = 0.09953 0.25692
# Poissons Ratio (z) = 0.13272 0.44975
#
# Static dielectric constant tensor:
#      x y z
#    x 1.626750 0.000000 -0.020640 
#    y 0.000000 1.613770 0.000000 
#    z -0.020640 0.000000 1.630700 
# 
# From -- ./inp_files/38280.got.cif
#   From: 2010.05.17/outbox.cif.g08.bks.cpg/sg11_20_cif.got.tgz:38280.got - 2010.06.03 12:22:45.
