data_PCOD9159651
_publ_section_title
;
Structure prediction by ZEFSAII (Michael W. Deem and Ramdas Pophale) SiO2 
 PCOD9159651
Probable space group: P 21/M
;
_chemical_formula_sum "Si O2"
_cell_formula_units_Z 28
_cell_length_a 14.824754
_cell_length_b 17.516874
_cell_length_c 8.149770
_cell_angle_alpha 90.000000
_cell_angle_beta 45.744244
_cell_angle_gamma 90.000000
_cell_volume 1515.804098
_symmetry_space_group_name_H-M "P 21/M"
_symmetry_group_IT_number 11
_symmetry_cell_setting 'monoclinic'
loop_
_space_group_symop_operation_xyz
x,y,z
-x,1/2+y,-z
-x,-y,-z
x,1/2-y,z
loop_
_atom_site_type_symbol
_atom_site_label
_atom_site_fract_x
_atom_site_fract_y
_atom_site_fract_z
Si Si1 0.746256 0.500355 0.573029
Si Si2 0.895805 0.836905 0.878964
Si Si3 0.233146 0.606820 0.961684
Si Si4 0.317085 0.058273 0.001461
Si Si5 0.429196 0.938974 0.477547
Si Si6 0.825149 0.164638 0.610165
Si Si7 0.029942 0.080563 0.879952
O O1 0.677267 0.537814 0.814418
O O2 0.663840 0.489049 0.516285
O O3 0.779180 0.412471 0.578385
O O4 0.863428 0.556085 0.385420
O O5 0.855413 0.750000 0.944377
O O6 0.790683 0.884402 0.918418
O O7 0.024759 0.839832 0.610015
O O8 0.923564 0.867716 0.027834
O O9 0.345581 0.620434 0.688239
O O10 0.270112 0.521276 0.976207
O O11 0.218062 0.655727 0.145955
O O12 0.098577 0.608886 0.041081
O O13 0.453191 0.090570 0.776844
O O14 0.500000 0.000000 0.500000
O O15 0.786400 0.250000 0.599992
O O16 0.000000 0.000000 0.000000
#
# Coordination Sequence:
#
# PCOD9159651 Si02
#       7
#     4   4   4   4   4   4   4
#     4  11  20  35  60  84 108 146 189 233 281 331
#     4  11  22  37  55  81 115 148 183 232 286 337
#     4  10  19  33  57  82 110 144 183 227 277 327
#     4  10  20  35  55  79 108 148 186 223 268 332
#     4  10  19  34  56  83 109 138 187 234 267 323
#     4  10  21  36  55  83 113 140 180 234 286 333
#     4  12  18  33  58  85 113 145 189 233 284 337
#
# _framework density 18.472042999999999
#
# number of rings (size 3 to 8) (size 9 to 14) (size 15 to 20)
#    0.000    1.429    4.286    2.143    0.000    2.857 
#    0.000    2.857    0.000    0.000    0.000    0.000 
#    0.000    0.000    0.000    0.000    0.000    0.000 
#
# Total GULP energy -155966.877674 kJ/mol
# GULP energy per Si atom -5570.245631 kJ/mol
# Density = 1.843000 g / cm^3
# Si number density = 18.472043 Si / 1000 Ang^3
#
#
#
# Elastic Constant Matrix: (Units=GPa)
#
#
# Indices 1 2 3 4 5 6 
#
# 1 43.4420 -4.4914 31.2655 0.0000 -4.8870 0.0000
# 2 -4.4914 69.1045 29.6972 0.0000 -1.6410 0.0000
# 3 31.2655 29.6972 131.7413 0.0000 2.9071 0.0000
# 4 0.0000 0.0000 0.0000 11.4690 0.0000 5.5731
# 5 -4.8870 -1.6410 2.9071 0.0000 22.8799 0.0000
# 6 0.0000 0.0000 0.0000 5.5731 0.0000 16.4592
#
#
#
# Elastic Compliance Matrix: (Units=1/GPa)
#
#
# Indices 1 2 3 4 5 6 
#
# 1 0.030956 0.006024 -0.008885 0.000000 0.008173 0.000000
# 2 0.006024 0.017255 -0.005390 0.000000 0.003209 0.000000
# 3 -0.008885 -0.005390 0.010996 0.000000 -0.003681 0.000000
# 4 0.000000 0.000000 0.000000 0.104363 0.000000 -0.035338
# 5 0.008173 0.003209 -0.003681 0.000000 0.046150 0.000000
# 6 0.000000 0.000000 0.000000 -0.035338 0.000000 0.072722
#
#
# Mechanical properties :
#
#
# Convention : Reuss Voigt Hill
#
# Bulk Modulus (GPa) = 23.41650 39.69226 31.55438
# Shear Modulus (GPa) = 15.96532 22.68271 19.32402
#
# Velocity S-wave (km/s) = 2.94308 3.50801 3.23789
# Velocity P-wave (km/s) = 4.92476 6.15976 5.57655
#
# Compressibility (1/GPa) = 0.04270492
#
# Stress axis : x y z
#
# Youngs Moduli (GPa) = 32.30386 57.95426 90.94583
#
# Poissons Ratio (x) = -0.34914 0.80805
# Poissons Ratio (y) = -0.19461 0.49021
# Poissons Ratio (z) = 0.28702 0.31238
#
# Static dielectric constant tensor:
#      x y z
#    x 1.493870 0.000000 0.119340 
#    y 0.000000 1.621530 0.000000 
#    z 0.119340 0.000000 1.755570 
# 
# From -- ./inp_files/22742.got.cif
#   From: 2010.05.17/outbox.cif.g08.bks.cpg/sg11_12_cif.got.tgz:22742.got - 2010.06.03 12:22:45.
