data_PCOD9159995
_publ_section_title
;
Structure prediction by ZEFSAII (Michael W. Deem and Ramdas Pophale) SiO2 
 PCOD9159995
Probable space group: P 21/M
;
_chemical_formula_sum "Si O2"
_cell_formula_units_Z 28
_cell_length_a 16.136629
_cell_length_b 13.671515
_cell_length_c 19.290219
_cell_angle_alpha 90.000000
_cell_angle_beta 158.476033
_cell_angle_gamma 90.000000
_cell_volume 1561.359656
_symmetry_space_group_name_H-M "P 21/M"
_symmetry_group_IT_number 11
_symmetry_cell_setting 'monoclinic'
loop_
_space_group_symop_operation_xyz
x,y,z
-x,1/2+y,-z
-x,-y,-z
x,1/2-y,z
loop_
_atom_site_type_symbol
_atom_site_label
_atom_site_fract_x
_atom_site_fract_y
_atom_site_fract_z
Si Si1 0.605387 0.636828 0.813895
Si Si2 0.532867 0.366352 0.528626
Si Si3 0.347940 0.558934 0.743515
Si Si4 0.068588 0.636704 0.262348
Si Si5 0.777490 0.633019 0.156954
Si Si6 0.138291 0.362437 0.614193
Si Si7 0.263571 0.020040 0.218992
O O1 0.566139 0.750000 0.763853
O O2 0.421762 0.602706 0.727028
O O3 0.629203 0.569602 0.765456
O O4 0.845214 0.631969 0.040836
O O5 0.535920 0.250000 0.538712
O O6 0.607482 0.421934 0.656169
O O7 0.305041 0.405237 0.315545
O O8 0.724037 0.400206 0.621386
O O9 0.283099 0.444939 0.688364
O O10 0.126481 0.613474 0.600080
O O11 0.556525 0.578478 0.957221
O O12 0.125254 0.750000 0.318590
O O13 0.988856 0.596972 0.274604
O O14 0.748205 0.750000 0.119470
O O15 0.815124 0.622711 0.267465
O O16 0.186536 0.250000 0.633719
O O17 0.000000 0.000000 0.000000
#
# Coordination Sequence:
#
# PCOD9159995 Si02
#       7
#     4   4   4   4   4   4   4
#     4  10  19  34  57  82 109 139 179 228 276 321
#     4  10  21  36  54  79 111 145 182 227 276 332
#     4  10  20  34  52  80 110 141 180 227 270 321
#     4   8  15  29  50  78 108 136 172 221 269 314
#     4   9  17  30  51  79 108 138 174 220 268 316
#     4  10  20  33  52  77 108 144 183 222 269 322
#     4  11  22  35  55  84 112 144 181 225 280 334
#
# _framework density 17.933088000000001
#
# number of rings (size 3 to 8) (size 9 to 14) (size 15 to 20)
#    0.000    2.286    1.429    3.000    2.000    0.571 
#    0.000    0.714    0.000    0.000    0.000    0.000 
#    0.000    0.000    0.000    0.000    0.000    0.000 
#
# Total GULP energy -156125.699942 kJ/mol
# GULP energy per Si atom -5575.917855 kJ/mol
# Density = 1.789227 g / cm^3
# Si number density = 17.933088 Si / 1000 Ang^3
#
#
#
# Elastic Constant Matrix: (Units=GPa)
#
#
# Indices 1 2 3 4 5 6 
#
# 1 44.6141 27.2392 20.3896 0.0000 6.1435 0.0000
# 2 27.2392 104.5603 29.6807 0.0000 4.3296 0.0000
# 3 20.3896 29.6807 70.4173 0.0000 -5.2821 0.0000
# 4 0.0000 0.0000 0.0000 20.4497 0.0000 -1.8127
# 5 6.1435 4.3296 -5.2821 0.0000 19.9639 0.0000
# 6 0.0000 0.0000 0.0000 -1.8127 0.0000 34.0216
#
#
#
# Elastic Compliance Matrix: (Units=1/GPa)
#
#
# Indices 1 2 3 4 5 6 
#
# 1 0.030464 -0.005450 -0.007283 0.000000 -0.010120 0.000000
# 2 -0.005450 0.012104 -0.003668 0.000000 -0.001918 0.000000
# 3 -0.007283 -0.003668 0.018450 0.000000 0.007918 0.000000
# 4 0.000000 0.000000 0.000000 0.049133 0.000000 0.002618
# 5 -0.010120 -0.001918 0.007918 0.000000 0.055716 0.000000
# 6 0.000000 0.000000 0.000000 0.002618 0.000000 0.029533
#
#
# Mechanical properties :
#
#
# Convention : Reuss Voigt Hill
#
# Bulk Modulus (GPa) = 35.43999 41.57899 38.50949
# Shear Modulus (GPa) = 21.04332 24.37251 22.70792
#
# Velocity S-wave (km/s) = 3.42926 3.69057 3.56231
# Velocity P-wave (km/s) = 5.95693 6.43400 6.20006
#
# Compressibility (1/GPa) = 0.02821672
#
# Stress axis : x y z
#
# Youngs Moduli (GPa) = 32.82585 82.61617 54.20129
#
# Poissons Ratio (x) = 0.45024 0.39474
# Poissons Ratio (y) = 0.17889 0.19880
# Poissons Ratio (z) = 0.23907 0.30302
#
# Static dielectric constant tensor:
#      x y z
#    x 1.630660 0.000000 -0.005240 
#    y 0.000000 1.614260 0.000000 
#    z -0.005240 0.000000 1.655400 
# 
# From -- ./inp_files/61523.got.cif
#   From: 2010.05.17/outbox.cif.g08.bks.cpg/sg11_31_cif.got.tgz:61523.got - 2010.06.03 12:22:45.
