data_PCOD9159533
_publ_section_title
;
Structure prediction by ZEFSAII (Michael W. Deem and Ramdas Pophale) SiO2 
 PCOD9159533
Probable space group: P 21/M
;
_chemical_formula_sum "Si O2"
_cell_formula_units_Z 28
_cell_length_a 23.971318
_cell_length_b 8.932546
_cell_length_c 20.050027
_cell_angle_alpha 90.000000
_cell_angle_beta 22.407918
_cell_angle_gamma 90.000000
_cell_volume 1636.563684
_symmetry_space_group_name_H-M "P 21/M"
_symmetry_group_IT_number 11
_symmetry_cell_setting 'monoclinic'
loop_
_space_group_symop_operation_xyz
x,y,z
-x,1/2+y,-z
-x,-y,-z
x,1/2-y,z
loop_
_atom_site_type_symbol
_atom_site_label
_atom_site_fract_x
_atom_site_fract_y
_atom_site_fract_z
Si Si1 0.059090 0.574110 0.868052
Si Si2 0.191707 0.927671 0.114887
Si Si3 0.934918 0.571494 0.504910
Si Si4 0.622102 0.428876 0.817191
Si Si5 0.253656 0.071533 0.550030
Si Si6 0.497555 0.071811 0.807681
Si Si7 0.967361 0.574124 0.826880
O O1 0.087687 0.750000 0.845906
O O2 0.201281 0.492198 0.679628
O O3 0.945918 0.560092 0.930589
O O4 0.000000 0.500000 0.000000
O O5 0.214760 0.750000 0.084778
O O6 0.052774 0.955326 0.316179
O O7 0.151314 0.996677 0.087901
O O8 0.335161 0.005626 0.985551
O O9 0.917886 0.750000 0.532120
O O10 0.779508 0.499190 0.658913
O O11 0.000000 0.500000 0.500000
O O12 0.627747 0.250000 0.820886
O O13 0.573139 0.458352 0.795314
O O14 0.500000 0.500000 0.000000
O O15 0.253089 0.250000 0.550230
O O16 0.404860 0.005565 0.357045
O O17 0.124585 0.007294 0.644549
O O18 0.493907 0.250000 0.801541
O O19 0.980436 0.750000 0.796614
#
# Coordination Sequence:
#
# PCOD9159533 Si02
#       7
#     4   4   4   4   4   4   4
#     4   9  18  32  55  86 117 149 188 231 280 335
#     4  11  23  37  56  82 111 146 189 235 283 336
#     4  11  24  40  59  83 112 146 187 235 285 340
#     4  11  24  40  60  83 111 147 188 235 287 341
#     4  10  19  33  55  82 112 145 185 231 277 328
#     4  11  23  38  56  80 112 149 188 233 285 340
#     4   9  19  34  54  81 112 145 184 227 276 331
#
# _framework density 17.109017999999999
#
# number of rings (size 3 to 8) (size 9 to 14) (size 15 to 20)
#    0.857    0.857    0.000    5.143    0.000    9.143 
#    0.000    0.000    0.000    0.857    0.000    0.000 
#    0.000    0.000    0.000    0.000    0.000    0.000 
#
# Total GULP energy -156188.135378 kJ/mol
# GULP energy per Si atom -5578.147692 kJ/mol
# Density = 1.707008 g / cm^3
# Si number density = 17.109018 Si / 1000 Ang^3
#
#
#
# Elastic Constant Matrix: (Units=GPa)
#
#
# Indices 1 2 3 4 5 6 
#
# 1 90.1067 71.6255 62.4038 0.0000 -0.3338 0.0000
# 2 71.6255 123.6551 78.2697 0.0000 6.8081 0.0000
# 3 62.4038 78.2697 129.7393 0.0000 -3.1007 0.0000
# 4 0.0000 0.0000 0.0000 33.2516 0.0000 -3.7452
# 5 -0.3338 6.8081 -3.1007 0.0000 33.4508 0.0000
# 6 0.0000 0.0000 0.0000 -3.7452 0.0000 26.0724
#
#
#
# Elastic Compliance Matrix: (Units=1/GPa)
#
#
# Indices 1 2 3 4 5 6 
#
# 1 0.022341 -0.010143 -0.004582 0.000000 0.001862 0.000000
# 2 -0.010143 0.018086 -0.006136 0.000000 -0.004351 0.000000
# 3 -0.004582 -0.006136 0.013673 0.000000 0.002471 0.000000
# 4 0.000000 0.000000 0.000000 0.030568 0.000000 0.004391
# 5 0.001862 -0.004351 0.002471 0.000000 0.031028 0.000000
# 6 0.000000 0.000000 0.000000 0.004391 0.000000 0.038985
#
#
# Mechanical properties :
#
#
# Convention : Reuss Voigt Hill
#
# Bulk Modulus (GPa) = 80.79686 85.34436 83.07061
# Shear Modulus (GPa) = 24.93414 27.30178 26.11796
#
# Velocity S-wave (km/s) = 3.82169 3.99902 3.91136
# Velocity P-wave (km/s) = 8.17319 8.44475 8.31008
#
# Compressibility (1/GPa) = 0.01237672
#
# Stress axis : x y z
#
# Youngs Moduli (GPa) = 44.76139 55.29282 73.13824
#
# Poissons Ratio (x) = 0.56081 0.33514
# Poissons Ratio (y) = 0.45400 0.44879
# Poissons Ratio (z) = 0.20511 0.33929
#
# Static dielectric constant tensor:
#      x y z
#    x 1.577020 0.000000 0.005380 
#    y 0.000000 1.566580 0.000000 
#    z 0.005380 0.000000 1.562840 
# 
# From -- ./inp_files/66669.got.cif
#   From: 2010.05.17/outbox.cif.g08.bks.cpg/sg11_34_cif.got.tgz:66669.got - 2010.06.03 12:22:45.
