data_PCOD9159817
_publ_section_title
;
Structure prediction by ZEFSAII (Michael W. Deem and Ramdas Pophale) SiO2 
 PCOD9159817
Probable space group: P 21/M
;
_chemical_formula_sum "Si O2"
_cell_formula_units_Z 32
_cell_length_a 17.305465
_cell_length_b 14.562323
_cell_length_c 12.107155
_cell_angle_alpha 90.000000
_cell_angle_beta 150.885655
_cell_angle_gamma 90.000000
_cell_volume 1484.523915
_symmetry_space_group_name_H-M "P 21/M"
_symmetry_group_IT_number 11
_symmetry_cell_setting 'monoclinic'
loop_
_space_group_symop_operation_xyz
x,y,z
-x,1/2+y,-z
-x,-y,-z
x,1/2-y,z
loop_
_atom_site_type_symbol
_atom_site_label
_atom_site_fract_x
_atom_site_fract_y
_atom_site_fract_z
Si Si1 0.262257 0.846172 0.797408
Si Si2 0.988426 0.430505 0.650639
Si Si3 0.204305 0.912019 0.960746
Si Si4 0.592668 0.925989 0.190124
Si Si5 0.065616 0.139799 0.984464
Si Si6 0.218046 0.938663 0.218760
Si Si7 0.743815 0.856399 0.173510
Si Si8 0.492332 0.537585 0.721720
O O1 0.211088 0.750000 0.683567
O O2 0.181844 0.920989 0.618302
O O3 0.203460 0.852266 0.849566
O O4 0.450714 0.854606 0.036366
O O5 0.111932 0.406078 0.707390
O O6 0.041971 0.530273 0.755356
O O7 0.017759 0.368488 0.795193
O O8 0.219646 0.883091 0.105741
O O9 0.359729 0.976331 0.134601
O O10 0.722580 0.880567 0.275234
O O11 0.623428 0.977005 0.343744
O O12 0.500000 0.000000 0.000000
O O13 0.107712 0.250000 0.057807
O O14 0.184474 0.049822 0.154031
O O15 0.916707 0.107038 0.872779
O O16 0.385880 0.928867 0.489278
O O17 0.768903 0.750000 0.190918
O O18 0.581342 0.886832 0.907881
#
# Coordination Sequence:
#
# PCOD9159817 Si02
#       8
#     4   4   4   4   4   4   4   4
#     4  11  21  35  57  87 118 151 188 240 298 349
#     4  10  21  38  59  83 116 153 194 239 292 347
#     4   9  20  38  58  83 114 152 189 237 288 350
#     4   9  20  35  52  79 115 148 186 234 286 344
#     4  10  22  39  58  83 115 152 196 247 292 344
#     4  10  21  39  60  84 114 153 199 241 288 348
#     4  10  19  34  54  85 117 147 191 242 285 341
#     4   9  19  36  58  81 110 150 191 234 290 345
#
# _framework density 21.555734000000001
#
# number of rings (size 3 to 8) (size 9 to 14) (size 15 to 20)
#    0.000    2.250    0.000    3.000    3.500    1.000 
#    4.500    3.125    0.000    1.500    0.000    0.000 
#    0.000    0.000    0.000    0.000    0.000    0.000 
#
# Total GULP energy -178330.835445 kJ/mol
# GULP energy per Si atom -5572.838608 kJ/mol
# Density = 2.150667 g / cm^3
# Si number density = 21.555734 Si / 1000 Ang^3
#
#
#
# Elastic Constant Matrix: (Units=GPa)
#
#
# Indices 1 2 3 4 5 6 
#
# 1 85.6024 -7.6681 15.9465 0.0000 -17.5606 0.0000
# 2 -7.6681 53.1271 4.8187 0.0000 -0.4244 0.0000
# 3 15.9465 4.8187 73.6917 0.0000 -13.1971 0.0000
# 4 0.0000 0.0000 0.0000 8.4633 0.0000 -11.0045
# 5 -17.5606 -0.4244 -13.1971 0.0000 19.6433 0.0000
# 6 0.0000 0.0000 0.0000 -11.0045 0.0000 8.9559
#
#
#
# Elastic Compliance Matrix: (Units=1/GPa)
#
#
# Indices 1 2 3 4 5 6 
#
# 1 0.014637 0.002311 -0.001098 0.000000 0.012397 0.000000
# 2 0.002311 0.019304 -0.001498 0.000000 0.001477 0.000000
# 3 -0.001098 -0.001498 0.015601 0.000000 0.009467 0.000000
# 4 0.000000 0.000000 0.000000 -0.197696 0.000000 -0.242917
# 5 0.012397 0.001477 0.009467 0.000000 0.068383 0.000000
# 6 0.000000 0.000000 0.000000 -0.242917 0.000000 -0.186824
#
#
# Mechanical properties :
#
#
# Convention : Reuss Voigt Hill
#
# Bulk Modulus (GPa) = 20.41997 26.51283 23.46640
# Shear Modulus (GPa) = -20.02391 20.70078 0.33843
#
# Velocity S-wave (km/s) = -3.05115 3.10229 0.39667
# Velocity P-wave (km/s) = 1.70852 5.01584 3.33464
#
# Compressibility (1/GPa) = 0.04897166
#
# Stress axis : x y z
#
# Youngs Moduli (GPa) = 68.32159 51.80268 64.09814
#
# Poissons Ratio (x) = -0.11973 0.07040
# Poissons Ratio (y) = -0.15791 0.09601
# Poissons Ratio (z) = 0.07504 0.07760
#
# Static dielectric constant tensor:
#      x y z
#    x 1.829200 0.000000 0.008110 
#    y 0.000000 1.844150 0.000000 
#    z 0.008110 0.000000 1.781720 
# 
# From -- ./inp_files/41732.got.cif
#   From: 2010.05.17/outbox.cif.g08.bks.cpg/sg11_21_cif.got.tgz:41732.got - 2010.06.03 12:22:45.
