data_PCOD9159378
_publ_section_title
;
Structure prediction by ZEFSAII (Michael W. Deem and Ramdas Pophale) SiO2 
 PCOD9159378
Probable space group: P 21/M
;
_chemical_formula_sum "Si O2"
_cell_formula_units_Z 28
_cell_length_a 14.869978
_cell_length_b 8.355867
_cell_length_c 13.685433
_cell_angle_alpha 90.000000
_cell_angle_beta 122.928585
_cell_angle_gamma 90.000000
_cell_volume 1427.259181
_symmetry_space_group_name_H-M "P 21/M"
_symmetry_group_IT_number 11
_symmetry_cell_setting 'monoclinic'
loop_
_space_group_symop_operation_xyz
x,y,z
-x,1/2+y,-z
-x,-y,-z
x,1/2-y,z
loop_
_atom_site_type_symbol
_atom_site_label
_atom_site_fract_x
_atom_site_fract_y
_atom_site_fract_z
Si Si1 0.178408 0.440827 0.282887
Si Si2 0.957245 0.940524 0.203907
Si Si3 0.175897 0.056632 0.060985
Si Si4 0.238756 0.560296 0.792329
Si Si5 0.396953 0.554312 0.725611
Si Si6 0.378210 0.057163 0.052988
Si Si7 0.600176 0.059053 0.496131
O O1 0.188466 0.250000 0.284213
O O2 0.159830 0.503315 0.160956
O O3 0.288101 0.508969 0.389649
O O4 0.074333 0.486459 0.283743
O O5 0.966939 0.750000 0.203339
O O6 0.870906 0.981279 0.236081
O O7 0.905050 0.002512 0.070688
O O8 0.165162 0.250000 0.056356
O O9 0.295303 0.022559 0.092173
O O10 0.221700 0.750000 0.777690
O O11 0.291060 0.503842 0.721788
O O12 0.327705 0.523092 0.927887
O O13 0.397690 0.750000 0.725875
O O14 0.503386 0.504903 0.847413
O O15 0.403122 0.499049 0.617753
O O16 0.377286 0.250000 0.037661
O O17 0.594462 0.250000 0.489071
O O18 0.500000 0.000000 0.500000
#
# Coordination Sequence:
#
# PCOD9159378 Si02
#       7
#     4   4   4   4   4   4   4
#     4  11  21  36  57  82 109 142 180 223 268 316
#     4  10  20  36  55  79 109 144 179 218 266 321
#     4   8  16  30  52  79 110 142 174 211 263 322
#     4  10  19  33  53  81 110 140 177 222 269 319
#     4   9  19  35  56  77 106 145 183 220 267 317
#     4   9  16  31  53  79 109 143 175 213 266 324
#     4  11  23  41  60  81 108 142 180 221 263 313
#
# _framework density 19.618020000000001
#
# number of rings (size 3 to 8) (size 9 to 14) (size 15 to 20)
#    0.000    2.286    0.000    4.286    0.000    2.286 
#    0.000   15.000    0.000    0.000    0.000    0.000 
#    0.000    0.000    0.000    0.000    0.000    0.000 
#
# Total GULP energy -156318.932513 kJ/mol
# GULP energy per Si atom -5582.819018 kJ/mol
# Density = 1.957337 g / cm^3
# Si number density = 19.618020 Si / 1000 Ang^3
#
#
#
# Elastic Constant Matrix: (Units=GPa)
#
#
# Indices 1 2 3 4 5 6 
#
# 1 140.2852 5.4908 66.3156 0.0000 1.3109 0.0000
# 2 5.4908 22.8497 8.6954 0.0000 -0.8599 0.0000
# 3 66.3156 8.6954 51.7225 0.0000 8.8525 0.0000
# 4 0.0000 0.0000 0.0000 24.2850 0.0000 5.5479
# 5 1.3109 -0.8599 8.8525 0.0000 33.9425 0.0000
# 6 0.0000 0.0000 0.0000 5.5479 0.0000 25.6414
#
#
#
# Elastic Compliance Matrix: (Units=1/GPa)
#
#
# Indices 1 2 3 4 5 6 
#
# 1 0.019909 0.005991 -0.027662 0.000000 0.006597 0.000000
# 2 0.005991 0.048933 -0.016832 0.000000 0.005398 0.000000
# 3 -0.027662 -0.016832 0.060208 0.000000 -0.015061 0.000000
# 4 0.000000 0.000000 0.000000 0.043319 0.000000 -0.009373
# 5 0.006597 0.005398 -0.015061 0.000000 0.033272 0.000000
# 6 0.000000 0.000000 0.000000 -0.009373 0.000000 0.041027
#
#
# Mechanical properties :
#
#
# Convention : Reuss Voigt Hill
#
# Bulk Modulus (GPa) = 19.21444 41.76233 30.48838
# Shear Modulus (GPa) = 14.66188 25.73081 20.19635
#
# Velocity S-wave (km/s) = 2.73677 3.62552 3.21203
# Velocity P-wave (km/s) = 4.44995 6.23376 5.41580
#
# Compressibility (1/GPa) = 0.05204420
#
# Stress axis : x y z
#
# Youngs Moduli (GPa) = 50.22975 20.43613 16.60913
#
# Poissons Ratio (x) = -0.12243 0.45944
# Poissons Ratio (y) = -0.30092 0.27956
# Poissons Ratio (z) = 1.38945 0.34397
#
# Static dielectric constant tensor:
#      x y z
#    x 1.693660 0.000000 -0.018680 
#    y 0.000000 1.674710 0.000000 
#    z -0.018680 0.000000 1.675290 
# 
# From -- ./inp_files/51102.got.cif
#   From: 2010.05.17/outbox.cif.g08.bks.cpg/sg11_26_cif.got.tgz:51102.got - 2010.06.03 12:22:45.
