data_PCOD9159232
_publ_section_title
;
Structure prediction by ZEFSAII (Michael W. Deem and Ramdas Pophale) SiO2 
 PCOD9159232
Probable space group: P 21/M
;
_chemical_formula_sum "Si O2"
_cell_formula_units_Z 32
_cell_length_a 26.601022
_cell_length_b 8.598111
_cell_length_c 15.032021
_cell_angle_alpha 90.000000
_cell_angle_beta 32.075316
_cell_angle_gamma 90.000000
_cell_volume 1825.747542
_symmetry_space_group_name_H-M "P 21/M"
_symmetry_group_IT_number 11
_symmetry_cell_setting 'monoclinic'
loop_
_space_group_symop_operation_xyz
x,y,z
-x,1/2+y,-z
-x,-y,-z
x,1/2-y,z
loop_
_atom_site_type_symbol
_atom_site_label
_atom_site_fract_x
_atom_site_fract_y
_atom_site_fract_z
Si Si1 0.348863 0.934712 0.074575
Si Si2 0.103063 0.437737 0.746034
Si Si3 0.106233 0.064276 0.945527
Si Si4 0.559715 0.063402 0.764962
Si Si5 0.728857 0.436261 0.180369
Si Si6 0.439072 0.938404 0.440136
Si Si7 0.655869 0.563509 0.111740
Si Si8 0.274987 0.435908 0.360736
O O1 0.358455 0.750000 0.059346
O O2 0.279942 0.988011 0.256483
O O3 0.451867 0.009534 0.939875
O O4 0.319225 0.994585 0.021754
O O5 0.093598 0.250000 0.758116
O O6 0.129168 0.481084 0.808623
O O7 0.184560 0.483949 0.555127
O O8 0.001739 0.512217 0.877013
O O9 0.114062 0.250000 0.940974
O O10 0.178266 0.985751 0.905359
O O11 0.564173 0.250000 0.766112
O O12 0.585594 0.018082 0.624435
O O13 0.631668 0.987105 0.725400
O O14 0.724395 0.250000 0.181188
O O15 0.638136 0.494081 0.373896
O O16 0.720866 0.507026 0.094416
O O17 0.438761 0.750000 0.443502
O O18 0.547126 0.988622 0.295214
O O19 0.656058 0.750000 0.105395
O O20 0.274219 0.250000 0.353014
#
# Coordination Sequence:
#
# PCOD9159232 Si02
#       8
#     4   4   4   4   4   4   4   4
#     4  11  22  36  52  73 102 138 178 217 259 304
#     4   9  20  37  56  79 107 137 169 208 256 309
#     4  10  20  35  55  80 108 137 169 208 255 305
#     4  10  19  33  51  75 107 141 176 213 255 302
#     4  11  20  32  52  78 106 138 175 212 255 306
#     4   8  17  31  49  74 105 139 173 211 253 300
#     4  10  20  36  53  73 103 138 177 218 259 301
#     4  11  21  34  53  77 104 136 174 214 258 307
#
# _framework density 17.527068
#
# number of rings (size 3 to 8) (size 9 to 14) (size 15 to 20)
#    0.000    2.000    0.000    5.250    0.000    1.500 
#    0.000    6.250    0.000    0.750    0.000    0.000 
#    0.000    0.000    0.000    0.000    0.000    0.000 
#
# Total GULP energy -178727.379237 kJ/mol
# GULP energy per Si atom -5585.230601 kJ/mol
# Density = 1.748718 g / cm^3
# Si number density = 17.527068 Si / 1000 Ang^3
#
#
#
# Elastic Constant Matrix: (Units=GPa)
#
#
# Indices 1 2 3 4 5 6 
#
# 1 121.6557 21.9920 54.9500 0.0000 8.7660 0.0000
# 2 21.9920 33.4023 13.8768 0.0000 7.1880 0.0000
# 3 54.9500 13.8768 79.9215 0.0000 23.9373 0.0000
# 4 0.0000 0.0000 0.0000 22.0352 0.0000 -0.4934
# 5 8.7660 7.1880 23.9373 0.0000 18.8944 0.0000
# 6 0.0000 0.0000 0.0000 -0.4934 0.0000 25.4064
#
#
#
# Elastic Compliance Matrix: (Units=1/GPa)
#
#
# Indices 1 2 3 4 5 6 
#
# 1 0.013903 -0.006646 -0.011652 0.000000 0.010839 0.000000
# 2 -0.006646 0.036279 0.002386 0.000000 -0.013741 0.000000
# 3 -0.011652 0.002386 0.030234 0.000000 -0.033806 0.000000
# 4 0.000000 0.000000 0.000000 0.045402 0.000000 0.000882
# 5 0.010839 -0.013741 -0.033806 0.000000 0.095952 0.000000
# 6 0.000000 0.000000 0.000000 0.000882 0.000000 0.039377
#
#
# Mechanical properties :
#
#
# Convention : Reuss Voigt Hill
#
# Bulk Modulus (GPa) = 20.57907 46.29078 33.43492
# Shear Modulus (GPa) = 16.17235 22.87791 19.52513
#
# Velocity S-wave (km/s) = 3.04090 3.61680 3.34128
# Velocity P-wave (km/s) = 4.90879 6.62646 5.83122
#
# Compressibility (1/GPa) = 0.04859306
#
# Stress axis : x y z
#
# Youngs Moduli (GPa) = 71.92618 27.56379 33.07498
#
# Poissons Ratio (x) = 0.18318 0.38538
# Poissons Ratio (y) = 0.47800 -0.07890
# Poissons Ratio (z) = 0.83806 -0.06575
#
# Static dielectric constant tensor:
#      x y z
#    x 1.582900 0.000000 0.019900 
#    y 0.000000 1.583660 0.000000 
#    z 0.019900 0.000000 1.589670 
# 
# From -- ./inp_files/55523.got.cif
#   From: 2010.05.17/outbox.cif.g08.bks.cpg/sg11_28_cif.got.tgz:55523.got - 2010.06.03 12:22:45.
