data_PCOD9159514
_publ_section_title
;
Structure prediction by ZEFSAII (Michael W. Deem and Ramdas Pophale) SiO2 
 PCOD9159514
Probable space group: P 21/M
;
_chemical_formula_sum "Si O2"
_cell_formula_units_Z 32
_cell_length_a 20.546196
_cell_length_b 8.616326
_cell_length_c 26.849475
_cell_angle_alpha 90.000000
_cell_angle_beta 159.865265
_cell_angle_gamma 90.000000
_cell_volume 1636.201313
_symmetry_space_group_name_H-M "P 21/M"
_symmetry_group_IT_number 11
_symmetry_cell_setting 'monoclinic'
loop_
_space_group_symop_operation_xyz
x,y,z
-x,1/2+y,-z
-x,-y,-z
x,1/2-y,z
loop_
_atom_site_type_symbol
_atom_site_label
_atom_site_fract_x
_atom_site_fract_y
_atom_site_fract_z
Si Si1 0.395565 0.938467 0.846092
Si Si2 0.812492 0.934785 0.151334
Si Si3 0.981603 0.064915 0.366466
Si Si4 0.288935 0.936710 0.223569
Si Si5 0.601663 0.563048 0.523983
Si Si6 0.090877 0.065456 0.987715
Si Si7 0.959755 0.435330 0.156127
Si Si8 0.178718 0.935643 0.597176
O O1 0.396538 0.750000 0.849158
O O2 0.215374 0.990797 0.748908
O O3 0.354693 0.980059 0.758843
O O4 0.599718 0.993696 0.010387
O O5 0.817686 0.750000 0.161212
O O6 0.964015 0.009615 0.297405
O O7 0.851955 0.980379 0.123085
O O8 0.986848 0.250000 0.372555
O O9 0.151731 0.000683 0.522487
O O10 0.288945 0.750000 0.217332
O O11 0.480669 0.985936 0.388844
O O12 0.113049 0.975260 0.134040
O O13 0.244135 0.014146 0.138704
O O14 0.500000 0.500000 0.500000
O O15 0.594393 0.750000 0.520431
O O16 0.819865 0.516590 0.680986
O O17 0.095840 0.250000 0.984190
O O18 0.109835 0.982684 0.948531
O O19 0.946852 0.250000 0.153190
O O20 0.168747 0.750000 0.588315
O O21 0.000000 0.000000 0.500000
#
# Coordination Sequence:
#
# PCOD9159514 Si02
#       8
#     4   4   4   4   4   4   4   4
#     4   8  17  33  55  81 108 139 180 227 270 318
#     4  11  22  37  55  77 107 146 185 223 270 323
#     4  10  19  34  55  82 112 141 179 226 273 323
#     4   9  18  33  54  82 110 135 170 216 265 314
#     4  10  20  35  57  82 108 138 175 218 265 318
#     4  10  19  33  55  81 108 138 174 215 262 317
#     4  11  23  38  55  78 110 145 179 222 274 323
#     4   9  16  30  52  80 109 137 173 220 271 319
#
# _framework density 19.557496
#
# number of rings (size 3 to 8) (size 9 to 14) (size 15 to 20)
#    0.000    2.250    1.250    3.000    0.000    1.500 
#    0.000    8.125    0.000    0.000    0.000    0.000 
#    0.000    0.000    0.000    0.000    0.000    0.000 
#
# Total GULP energy -178559.568111 kJ/mol
# GULP energy per Si atom -5579.986503 kJ/mol
# Density = 1.951298 g / cm^3
# Si number density = 19.557496 Si / 1000 Ang^3
#
#
#
# Elastic Constant Matrix: (Units=GPa)
#
#
# Indices 1 2 3 4 5 6 
#
# 1 53.6526 8.1217 15.3397 0.0000 -26.4014 0.0000
# 2 8.1217 31.4544 7.9477 0.0000 -9.7588 0.0000
# 3 15.3397 7.9477 63.8928 0.0000 -31.3900 0.0000
# 4 0.0000 0.0000 0.0000 19.9716 0.0000 -8.8878
# 5 -26.4014 -9.7588 -31.3900 0.0000 36.3955 0.0000
# 6 0.0000 0.0000 0.0000 -8.8878 0.0000 30.2869
#
#
#
# Elastic Compliance Matrix: (Units=1/GPa)
#
#
# Indices 1 2 3 4 5 6 
#
# 1 0.030331 -0.000997 0.006108 0.000000 0.027003 0.000000
# 2 -0.000997 0.034717 0.000241 0.000000 0.008793 0.000000
# 3 0.006108 0.000241 0.028395 0.000000 0.028986 0.000000
# 4 0.000000 0.000000 0.000000 0.057592 0.000000 0.016901
# 5 0.027003 0.008793 0.028986 0.000000 0.074421 0.000000
# 6 0.000000 0.000000 0.000000 0.016901 0.000000 0.037977
#
#
# Mechanical properties :
#
#
# Convention : Reuss Voigt Hill
#
# Bulk Modulus (GPa) = 9.60183 23.53533 16.56858
# Shear Modulus (GPa) = 17.39469 25.17017 21.28243
#
# Velocity S-wave (km/s) = 2.98554 3.59135 3.30236
# Velocity P-wave (km/s) = 4.09936 5.40898 4.79906
#
# Compressibility (1/GPa) = 0.10414678
#
# Stress axis : x y z
#
# Youngs Moduli (GPa) = 32.97009 28.80455 35.21737
#
# Poissons Ratio (x) = 0.02872 -0.21512
# Poissons Ratio (y) = 0.03288 -0.00849
# Poissons Ratio (z) = -0.20140 -0.00694
#
# Static dielectric constant tensor:
#      x y z
#    x 1.660370 0.000000 -0.004900 
#    y 0.000000 1.653370 0.000000 
#    z -0.004900 0.000000 1.701600 
# 
# From -- ./inp_files/72223.got.cif
#   From: 2010.05.17/outbox.cif.g08.bks.cpg/sg11_37_cif.got.tgz:72223.got - 2010.06.03 12:22:45.
