data_PCOD9159481
_publ_section_title
;
Structure prediction by ZEFSAII (Michael W. Deem and Ramdas Pophale) SiO2 
 PCOD9159481
Probable space group: P 21/M
;
_chemical_formula_sum "Si O2"
_cell_formula_units_Z 32
_cell_length_a 13.316083
_cell_length_b 15.426644
_cell_length_c 20.870843
_cell_angle_alpha 90.000000
_cell_angle_beta 18.911787
_cell_angle_gamma 90.000000
_cell_volume 1389.578573
_symmetry_space_group_name_H-M "P 21/M"
_symmetry_group_IT_number 11
_symmetry_cell_setting 'monoclinic'
loop_
_space_group_symop_operation_xyz
x,y,z
-x,1/2+y,-z
-x,-y,-z
x,1/2-y,z
loop_
_atom_site_type_symbol
_atom_site_label
_atom_site_fract_x
_atom_site_fract_y
_atom_site_fract_z
Si Si1 0.229297 0.429993 0.644750
Si Si2 0.662612 0.508698 0.737156
Si Si3 0.258627 0.440811 0.085256
Si Si4 0.167699 0.353446 0.274991
Si Si5 0.458980 0.538486 0.324062
Si Si6 0.919034 0.650352 0.130772
Si Si7 0.179442 0.654550 0.750102
Si Si8 0.436471 0.653664 0.722103
O O1 0.500000 0.500000 0.500000
O O2 0.099612 0.386409 0.786800
O O3 0.450267 0.360453 0.477990
O O4 0.942548 0.471742 0.779900
O O5 0.645507 0.604546 0.778262
O O6 0.460858 0.472440 0.799716
O O7 0.000000 0.500000 0.500000
O O8 0.572757 0.455176 0.855504
O O9 0.281567 0.386325 0.136262
O O10 0.028352 0.401844 0.170578
O O11 0.156759 0.250000 0.283667
O O12 0.831463 0.398468 0.487762
O O13 0.724705 0.581256 0.206319
O O14 0.391257 0.438623 0.385739
O O15 0.795034 0.750000 0.202679
O O16 0.261137 0.653337 0.895553
O O17 0.104714 0.750000 0.773342
O O18 0.151879 0.648326 0.842803
O O19 0.583136 0.750000 0.626313
#
# Coordination Sequence:
#
# PCOD9159481 Si02
#       8
#     4   4   4   4   4   4   4   4
#     4  10  20  33  55  89 127 163 197 240 297 371
#     4  10  24  42  63  87 117 160 215 276 325 367
#     4  11  20  38  64  86 118 166 209 253 314 374
#     4  11  24  42  64  91 119 157 213 275 326 373
#     4  11  20  38  62  86 122 167 206 257 321 378
#     4  11  21  34  56  91 130 168 206 246 300 377
#     4  10  19  33  54  89 126 153 191 242 292 363
#     4  10  21  34  54  87 127 166 206 247 300 375
#
# _framework density 23.028566000000001
#
# number of rings (size 3 to 8) (size 9 to 14) (size 15 to 20)
#    0.000    1.500    0.000    7.125    0.000    0.500 
#    0.000    6.875    0.000    8.250    0.000    0.000 
#    0.000    0.000    0.000    0.000    0.000    0.000 
#
# Total GULP energy -178313.934331 kJ/mol
# GULP energy per Si atom -5572.310448 kJ/mol
# Density = 2.297615 g / cm^3
# Si number density = 23.028566 Si / 1000 Ang^3
#
#
#
# Elastic Constant Matrix: (Units=GPa)
#
#
# Indices 1 2 3 4 5 6 
#
# 1 100.1909 58.3605 34.7420 0.0000 22.6009 0.0000
# 2 58.3605 165.9889 52.5821 0.0000 19.1880 0.0000
# 3 34.7420 52.5821 95.1275 0.0000 20.9851 0.0000
# 4 0.0000 0.0000 0.0000 19.9129 0.0000 3.9585
# 5 22.6009 19.1880 20.9851 0.0000 34.1473 0.0000
# 6 0.0000 0.0000 0.0000 3.9585 0.0000 33.1573
#
#
#
# Elastic Compliance Matrix: (Units=1/GPa)
#
#
# Indices 1 2 3 4 5 6 
#
# 1 0.014144 -0.003701 -0.001751 0.000000 -0.006206 0.000000
# 2 -0.003701 0.008377 -0.003217 0.000000 -0.000281 0.000000
# 3 -0.001751 -0.003217 0.014201 0.000000 -0.005760 0.000000
# 4 0.000000 0.000000 0.000000 0.051439 0.000000 -0.006141
# 5 -0.006206 -0.000281 -0.005760 0.000000 0.037090 0.000000
# 6 0.000000 0.000000 0.000000 -0.006141 0.000000 0.030892
#
#
# Mechanical properties :
#
#
# Convention : Reuss Voigt Hill
#
# Bulk Modulus (GPa) = 51.58859 72.51963 62.05411
# Shear Modulus (GPa) = 27.78671 31.81834 29.80253
#
# Velocity S-wave (km/s) = 3.47741 3.72114 3.60134
# Velocity P-wave (km/s) = 6.21078 7.07263 6.65567
#
# Compressibility (1/GPa) = 0.01938413
#
# Stress axis : x y z
#
# Youngs Moduli (GPa) = 70.70322 119.37118 70.41952
#
# Poissons Ratio (x) = 0.44177 0.12330
# Poissons Ratio (y) = 0.26166 0.22654
# Poissons Ratio (z) = 0.12379 0.38402
#
# Static dielectric constant tensor:
#      x y z
#    x 1.931040 0.000000 0.025110 
#    y 0.000000 1.923390 0.000000 
#    z 0.025110 0.000000 1.961840 
# 
# From -- ./inp_files/65755.got.cif
#   From: 2010.05.17/outbox.cif.g08.bks.cpg/sg11_33_cif.got.tgz:65755.got - 2010.06.03 12:22:45.
