data_PCOD9159947
_publ_section_title
;
Structure prediction by ZEFSAII (Michael W. Deem and Ramdas Pophale) SiO2 
 PCOD9159947
Probable space group: P 21/M
;
_chemical_formula_sum "Si O2"
_cell_formula_units_Z 24
_cell_length_a 15.121886
_cell_length_b 7.985517
_cell_length_c 8.150870
_cell_angle_alpha 90.000000
_cell_angle_beta 77.509666
_cell_angle_gamma 90.000000
_cell_volume 960.971957
_symmetry_space_group_name_H-M "P 21/M"
_symmetry_group_IT_number 11
_symmetry_cell_setting 'monoclinic'
loop_
_space_group_symop_operation_xyz
x,y,z
-x,1/2+y,-z
-x,-y,-z
x,1/2-y,z
loop_
_atom_site_type_symbol
_atom_site_label
_atom_site_fract_x
_atom_site_fract_y
_atom_site_fract_z
Si Si1 0.613274 0.448025 0.799861
Si Si2 0.774973 0.944272 0.912877
Si Si3 0.445247 0.047775 0.687696
Si Si4 0.275487 0.050258 0.566302
Si Si5 0.048312 0.047219 0.313109
Si Si6 0.116427 0.555860 0.819963
O O1 0.606769 0.250000 0.785155
O O2 0.674560 0.483241 0.933714
O O3 0.511407 0.515437 0.806654
O O4 0.674889 0.515225 0.624842
O O5 0.761717 0.750000 0.882849
O O6 0.849946 0.016077 0.756281
O O7 0.827966 0.961998 0.062162
O O8 0.437560 0.250000 0.703925
O O9 0.344776 0.989173 0.681625
O O10 0.500000 0.000000 0.500000
O O11 0.261803 0.250000 0.584497
O O12 0.180558 0.961821 0.634400
O O13 0.051761 0.250000 0.303273
O O14 0.981559 0.989246 0.193590
O O15 0.000000 0.000000 0.500000
O O16 0.109550 0.750000 0.868839
#
# Coordination Sequence:
#
# PCOD9159947 Si02
#       6
#     4   4   4   4   4   4
#     4  10  19  34  56  83 112 145 184 228 272 322
#     4  11  23  39  57  81 111 146 183 224 273 326
#     4   8  16  30  51  78 109 142 180 224 272 318
#     4  10  19  34  56  83 112 145 184 228 272 322
#     4  10  23  40  60  84 110 140 179 222 269 322
#     4  11  23  39  57  81 111 146 183 224 273 326
#
# _framework density 24.974713999999999
#
# number of rings (size 3 to 8) (size 9 to 14) (size 15 to 20)
#    0.000    2.000    0.000    3.500    0.000    6.667 
#    0.000    0.833    0.000    0.000    0.000    0.000 
#    0.000    0.000    0.000    0.000    0.000    0.000 
#
# Total GULP energy -134138.970615 kJ/mol
# GULP energy per Si atom -5589.123776 kJ/mol
# Density = 2.491787 g / cm^3
# Si number density = 24.974714 Si / 1000 Ang^3
#
#
#
# Elastic Constant Matrix: (Units=GPa)
#
#
# Indices 1 2 3 4 5 6 
#
# 1 173.7415 11.0703 13.7838 0.0000 26.4228 0.0000
# 2 11.0703 39.1415 -15.5592 0.0000 4.0684 0.0000
# 3 13.7838 -15.5592 75.8981 0.0000 20.7387 0.0000
# 4 0.0000 0.0000 0.0000 26.5038 0.0000 6.9314
# 5 26.4228 4.0684 20.7387 0.0000 47.4613 0.0000
# 6 0.0000 0.0000 0.0000 6.9314 0.0000 19.0920
#
#
#
# Elastic Compliance Matrix: (Units=1/GPa)
#
#
# Indices 1 2 3 4 5 6 
#
# 1 0.006394 -0.001750 -0.000668 0.000000 -0.003118 0.000000
# 2 -0.001750 0.029637 0.007746 0.000000 -0.004951 0.000000
# 3 -0.000668 0.007746 0.016994 0.000000 -0.007718 0.000000
# 4 0.000000 0.000000 0.000000 0.041689 0.000000 -0.015135
# 5 -0.003118 -0.004951 -0.007718 0.000000 0.026602 0.000000
# 6 0.000000 0.000000 0.000000 -0.015135 0.000000 0.057873
#
#
# Mechanical properties :
#
#
# Convention : Reuss Voigt Hill
#
# Bulk Modulus (GPa) = 15.70309 34.15231 24.92770
# Shear Modulus (GPa) = 26.34914 37.24385 31.79650
#
# Velocity S-wave (km/s) = 3.25165 3.86588 3.57199
# Velocity P-wave (km/s) = 4.51651 5.79923 5.19760
#
# Compressibility (1/GPa) = 0.06368175
#
# Stress axis : x y z
#
# Youngs Moduli (GPa) = 156.38765 33.74148 58.84536
#
# Poissons Ratio (x) = 0.05905 0.03931
# Poissons Ratio (y) = 0.27367 -0.45583
# Poissons Ratio (z) = 0.10447 -0.26137
#
# Static dielectric constant tensor:
#      x y z
#    x 1.989980 0.000000 0.033750 
#    y 0.000000 1.852400 0.000000 
#    z 0.033750 0.000000 2.066430 
# 
# From -- ./inp_files/20473.got.cif
#   From: 2010.05.17/outbox.cif.g08.bks.cpg/sg11_11_cif.got.tgz:20473.got - 2010.06.03 12:22:45.
