data_PCOD9159259
_publ_section_title
;
Structure prediction by ZEFSAII (Michael W. Deem and Ramdas Pophale) SiO2 
 PCOD9159259
Probable space group: P 21/M
;
_chemical_formula_sum "Si O2"
_cell_formula_units_Z 32
_cell_length_a 23.751624
_cell_length_b 8.275703
_cell_length_c 17.147703
_cell_angle_alpha 90.000000
_cell_angle_beta 31.435411
_cell_angle_gamma 90.000000
_cell_volume 1757.880436
_symmetry_space_group_name_H-M "P 21/M"
_symmetry_group_IT_number 11
_symmetry_cell_setting 'monoclinic'
loop_
_space_group_symop_operation_xyz
x,y,z
-x,1/2+y,-z
-x,-y,-z
x,1/2-y,z
loop_
_atom_site_type_symbol
_atom_site_label
_atom_site_fract_x
_atom_site_fract_y
_atom_site_fract_z
Si Si1 0.163418 0.947806 0.162622
Si Si2 0.386532 0.054101 0.459759
Si Si3 0.933867 0.560018 0.388089
Si Si4 0.832342 0.439571 0.665106
Si Si5 0.380135 0.062087 0.155179
Si Si6 0.375803 0.056762 0.644274
Si Si7 0.636499 0.443794 0.174154
Si Si8 0.719817 0.062368 0.571601
O O1 0.164992 0.750000 0.162182
O O2 0.150221 0.999450 0.267853
O O3 0.057574 0.996021 0.239066
O O4 0.274989 0.003385 0.992034
O O5 0.386271 0.250000 0.456063
O O6 0.339255 0.007348 0.600665
O O7 0.512852 0.999725 0.306885
O O8 0.319775 0.985480 0.466919
O O9 0.928515 0.750000 0.376726
O O10 0.895869 0.533361 0.522594
O O11 0.845939 0.471297 0.438983
O O12 0.860542 0.250000 0.626640
O O13 0.706561 0.462409 0.792480
O O14 0.371271 0.250000 0.145070
O O15 0.344941 0.038229 0.286595
O O16 0.500000 0.000000 0.000000
O O17 0.371679 0.250000 0.653294
O O18 0.500000 0.000000 0.500000
O O19 0.326812 0.987043 0.781369
O O20 0.632518 0.250000 0.173331
O O21 0.697800 0.250000 0.612459
#
# Coordination Sequence:
#
# PCOD9159259 Si02
#       8
#     4   4   4   4   4   4   4   4
#     4   9  19  33  53  78 103 136 173 213 260 309
#     4   9  18  32  53  77 104 137 169 203 252 312
#     4  10  19  35  54  72 100 138 179 216 257 305
#     4  10  19  33  52  75 101 134 176 217 258 302
#     4  11  22  36  51  71 102 138 172 209 258 306
#     4   9  17  31  51  76 105 137 167 201 251 307
#     4   9  18  33  52  78 108 136 166 205 259 311
#     4  11  22  35  52  76 102 132 175 217 256 301
#
# _framework density 18.203741000000001
#
# number of rings (size 3 to 8) (size 9 to 14) (size 15 to 20)
#    0.000    2.250    0.000    6.000    1.750    2.500 
#    0.000    4.375    0.000    0.750    0.000    0.000 
#    0.000    0.000    0.000    0.000    0.000    0.000 
#
# Total GULP energy -178482.627311 kJ/mol
# GULP energy per Si atom -5577.582103 kJ/mol
# Density = 1.816231 g / cm^3
# Si number density = 18.203741 Si / 1000 Ang^3
#
#
#
# Elastic Constant Matrix: (Units=GPa)
#
#
# Indices 1 2 3 4 5 6 
#
# 1 117.3579 -1.0035 29.8229 0.0000 2.3785 0.0000
# 2 -1.0035 22.7962 -3.4218 0.0000 -0.2027 0.0000
# 3 29.8229 -3.4218 37.8922 0.0000 -6.6039 0.0000
# 4 0.0000 0.0000 0.0000 15.5584 0.0000 4.3534
# 5 2.3785 -0.2027 -6.6039 0.0000 11.4591 0.0000
# 6 0.0000 0.0000 0.0000 4.3534 0.0000 25.9522
#
#
#
# Elastic Compliance Matrix: (Units=1/GPa)
#
#
# Indices 1 2 3 4 5 6 
#
# 1 0.011352 -0.001153 -0.010509 0.000000 -0.008433 0.000000
# 2 -0.001153 0.044710 0.005696 0.000000 0.004313 0.000000
# 3 -0.010509 0.005696 0.039546 0.000000 0.025072 0.000000
# 4 0.000000 0.000000 0.000000 0.067439 0.000000 -0.011313
# 5 -0.008433 0.004313 0.025072 0.000000 0.103543 0.000000
# 6 0.000000 0.000000 0.000000 -0.011313 0.000000 0.040430
#
#
# Mechanical properties :
#
#
# Convention : Reuss Voigt Hill
#
# Bulk Modulus (GPa) = 11.95066 25.42683 18.68875
# Shear Modulus (GPa) = 14.41575 20.77051 17.59313
#
# Velocity S-wave (km/s) = 2.81715 3.38154 3.11216
# Velocity P-wave (km/s) = 4.14258 5.40783 4.81693
#
# Compressibility (1/GPa) = 0.08367740
#
# Stress axis : x y z
#
# Youngs Moduli (GPa) = 88.08659 22.36659 25.28728
#
# Poissons Ratio (x) = 0.02578 0.26574
# Poissons Ratio (y) = 0.10153 -0.14404
# Poissons Ratio (z) = 0.92568 -0.12741
#
# Static dielectric constant tensor:
#      x y z
#    x 1.632680 0.000000 0.003960 
#    y 0.000000 1.620700 0.000000 
#    z 0.003960 0.000000 1.624350 
# 
# From -- ./inp_files/61762.got.cif
#   From: 2010.05.17/outbox.cif.g08.bks.cpg/sg11_31_cif.got.tgz:61762.got - 2010.06.03 12:22:45.
