data_PCOD9159144
_publ_section_title
;
Structure prediction by ZEFSAII (Michael W. Deem and Ramdas Pophale) SiO2 
 PCOD9159144
Probable space group: P 21/M
;
_chemical_formula_sum "Si O2"
_cell_formula_units_Z 24
_cell_length_a 14.666502
_cell_length_b 8.619834
_cell_length_c 15.399066
_cell_angle_alpha 90.000000
_cell_angle_beta 140.680981
_cell_angle_gamma 90.000000
_cell_volume 1233.561606
_symmetry_space_group_name_H-M "P 21/M"
_symmetry_group_IT_number 11
_symmetry_cell_setting 'monoclinic'
loop_
_space_group_symop_operation_xyz
x,y,z
-x,1/2+y,-z
-x,-y,-z
x,1/2-y,z
loop_
_atom_site_type_symbol
_atom_site_label
_atom_site_fract_x
_atom_site_fract_y
_atom_site_fract_z
Si Si1 0.691792 0.434894 0.305585
Si Si2 0.615164 0.436939 0.947700
Si Si3 0.139126 0.938665 0.733545
Si Si4 0.814400 0.436957 0.937821
Si Si5 0.827646 0.935302 0.571505
Si Si6 0.128254 0.564816 0.212255
O O1 0.700535 0.250000 0.318813
O O2 0.537583 0.482826 0.154143
O O3 0.814340 0.490122 0.328144
O O4 0.715685 0.508886 0.417070
O O5 0.597225 0.250000 0.938505
O O6 0.684303 0.478317 0.905311
O O7 0.733497 0.482258 0.106472
O O8 0.134331 0.750000 0.729652
O O9 0.984905 0.992915 0.654249
O O10 0.830380 0.250000 0.953322
O O11 0.799463 0.482764 0.826067
O O12 0.963095 0.507811 0.082864
O O13 0.830213 0.750000 0.575736
O O14 0.803986 0.996266 0.650954
O O15 0.130335 0.750000 0.218846
#
# Coordination Sequence:
#
# PCOD9159144 Si02
#       6
#     4   4   4   4   4   4
#     4  11  23  37  53  82 116 145 182 234 277 319
#     4  10  19  37  59  81 110 149 185 218 269 336
#     4   9  19  36  59  81 108 144 188 229 270 323
#     4   9  18  34  57  82 112 145 180 221 271 329
#     4  11  21  38  59  80 109 151 187 222 275 334
#     4  10  19  32  55  87 113 138 178 231 276 317
#
# _framework density 19.455859
#
# number of rings (size 3 to 8) (size 9 to 14) (size 15 to 20)
#    0.000    2.000    1.667    2.500    0.000    1.333 
#    0.000    4.167    0.000    0.000    0.000    0.000 
#    0.000    0.000    0.000    0.000    0.000    0.000 
#
# Total GULP energy -134024.229904 kJ/mol
# GULP energy per Si atom -5584.342913 kJ/mol
# Density = 1.941158 g / cm^3
# Si number density = 19.455859 Si / 1000 Ang^3
#
#
#
# Elastic Constant Matrix: (Units=GPa)
#
#
# Indices 1 2 3 4 5 6 
#
# 1 49.8952 9.8187 -6.8243 0.0000 -18.1885 0.0000
# 2 9.8187 16.8491 0.3061 0.0000 -7.0944 0.0000
# 3 -6.8243 0.3061 54.9377 0.0000 -15.1279 0.0000
# 4 0.0000 0.0000 0.0000 26.2526 0.0000 0.7874
# 5 -18.1885 -7.0944 -15.1279 0.0000 30.1193 0.0000
# 6 0.0000 0.0000 0.0000 0.7874 0.0000 19.5271
#
#
#
# Elastic Compliance Matrix: (Units=1/GPa)
#
#
# Indices 1 2 3 4 5 6 
#
# 1 0.031042 -0.009209 0.009832 0.000000 0.021514 0.000000
# 2 -0.009209 0.069604 0.001684 0.000000 0.011680 0.000000
# 3 0.009832 0.001684 0.024554 0.000000 0.018667 0.000000
# 4 0.000000 0.000000 0.000000 0.038138 0.000000 -0.001538
# 5 0.021514 0.011680 0.018667 0.000000 0.058320 0.000000
# 6 0.000000 0.000000 0.000000 -0.001538 0.000000 0.051273
#
#
# Mechanical properties :
#
#
# Convention : Reuss Voigt Hill
#
# Bulk Modulus (GPa) = 7.70335 14.25368 10.97852
# Shear Modulus (GPa) = 16.04682 23.07190 19.55936
#
# Velocity S-wave (km/s) = 2.87502 3.44737 3.17412
# Velocity P-wave (km/s) = 3.87156 4.81538 4.36903
#
# Compressibility (1/GPa) = 0.12981364
#
# Stress axis : x y z
#
# Youngs Moduli (GPa) = 32.21484 14.36702 40.72583
#
# Poissons Ratio (x) = 0.13231 -0.40040
# Poissons Ratio (y) = 0.29667 -0.06860
# Poissons Ratio (z) = -0.31672 -0.02420
#
# Static dielectric constant tensor:
#      x y z
#    x 1.695560 0.000000 -0.021220 
#    y 0.000000 1.653370 0.000000 
#    z -0.021220 0.000000 1.654880 
# 
# From -- ./inp_files/25748.got.cif
#   From: 2010.05.17/outbox.cif.g08.bks.cpg/sg11_13_cif.got.tgz:25748.got - 2010.06.03 12:22:45.
