data_PCOD9159339
_publ_section_title
;
Structure prediction by ZEFSAII (Michael W. Deem and Ramdas Pophale) SiO2 
 PCOD9159339
Probable space group: P 21/M
;
_chemical_formula_sum "Si O2"
_cell_formula_units_Z 28
_cell_length_a 12.900112
_cell_length_b 8.981281
_cell_length_c 15.385367
_cell_angle_alpha 90.000000
_cell_angle_beta 74.240691
_cell_angle_gamma 90.000000
_cell_volume 1715.537671
_symmetry_space_group_name_H-M "P 21/M"
_symmetry_group_IT_number 11
_symmetry_cell_setting 'monoclinic'
loop_
_space_group_symop_operation_xyz
x,y,z
-x,1/2+y,-z
-x,-y,-z
x,1/2-y,z
loop_
_atom_site_type_symbol
_atom_site_label
_atom_site_fract_x
_atom_site_fract_y
_atom_site_fract_z
Si Si1 0.637717 0.570594 0.611743
Si Si2 0.787085 0.428269 0.726027
Si Si3 0.749537 0.571075 0.404103
Si Si4 0.392460 0.570753 0.710659
Si Si5 0.587372 0.428351 0.095708
Si Si6 0.342422 0.427161 0.094335
Si Si7 0.013352 0.070741 0.591858
O O1 0.646277 0.750000 0.621051
O O2 0.710743 0.493508 0.667833
O O3 0.682193 0.532170 0.506339
O O4 0.513061 0.528717 0.652352
O O5 0.777539 0.250000 0.730224
O O6 0.746453 0.496151 0.825595
O O7 0.909655 0.467860 0.673344
O O8 0.746839 0.750000 0.396105
O O9 0.694586 0.498993 0.333285
O O10 0.872991 0.524825 0.392345
O O11 0.385987 0.750000 0.708164
O O12 0.380878 0.526748 0.814216
O O13 0.600678 0.250000 0.083898
O O14 0.460117 0.459593 0.109983
O O15 0.650835 0.509822 0.004565
O O16 0.328352 0.250000 0.097287
O O17 0.015776 0.250000 0.581365
O O18 0.000000 0.000000 0.500000
#
# Coordination Sequence:
#
# PCOD9159339 Si02
#       7
#     4   4   4   4   4   4   4
#     4  10  19  34  52  74 107 143 173 211 258 307
#     4  11  21  32  52  80 107 136 174 217 260 308
#     4  10  21  35  52  74 105 142 178 216 258 304
#     4  10  20  34  52  76 108 141 173 210 258 312
#     4   9  18  33  52  76 106 136 169 212 259 310
#     4  10  19  33  53  77 106 138 169 210 264 315
#     4  10  21  36  54  76 103 137 178 222 261 300
#
# _framework density 16.321414000000001
#
# number of rings (size 3 to 8) (size 9 to 14) (size 15 to 20)
#    0.000    2.000    2.857    1.286    0.000    3.429 
#    0.000    0.000    0.000    0.857    0.000    0.000 
#    0.000    0.000    0.000    0.000    0.000    0.000 
#
# Total GULP energy -156286.095652 kJ/mol
# GULP energy per Si atom -5581.646273 kJ/mol
# Density = 1.628427 g / cm^3
# Si number density = 16.321414 Si / 1000 Ang^3
#
#
#
# Elastic Constant Matrix: (Units=GPa)
#
#
# Indices 1 2 3 4 5 6 
#
# 1 134.0228 39.9640 95.1875 0.0000 7.6066 0.0000
# 2 39.9640 25.5858 53.7524 0.0000 -2.7848 0.0000
# 3 95.1875 53.7524 166.3360 0.0000 -3.6845 0.0000
# 4 0.0000 0.0000 0.0000 26.3704 0.0000 8.6751
# 5 7.6066 -2.7848 -3.6845 0.0000 22.4486 0.0000
# 6 0.0000 0.0000 0.0000 8.6751 0.0000 21.8327
#
#
#
# Elastic Compliance Matrix: (Units=1/GPa)
#
#
# Indices 1 2 3 4 5 6 
#
# 1 0.015812 -0.019314 -0.002990 0.000000 -0.008244 0.000000
# 2 -0.019314 0.147021 -0.036040 0.000000 0.018867 0.000000
# 3 -0.002990 -0.036040 0.019363 0.000000 -0.000280 0.000000
# 4 0.000000 0.000000 0.000000 0.043624 0.000000 -0.017334
# 5 -0.008244 0.018867 -0.000280 0.000000 0.049634 0.000000
# 6 0.000000 0.000000 0.000000 -0.017334 0.000000 0.052690
#
#
# Mechanical properties :
#
#
# Convention : Reuss Voigt Hill
#
# Bulk Modulus (GPa) = 15.26520 78.19472 46.72996
# Shear Modulus (GPa) = 10.71426 23.26637 16.99032
#
# Velocity S-wave (km/s) = 2.56492 3.77969 3.22993
# Velocity P-wave (km/s) = 4.25968 8.18910 6.52711
#
# Compressibility (1/GPa) = 0.06550848
#
# Stress axis : x y z
#
# Youngs Moduli (GPa) = 63.24327 6.80177 51.64426
#
# Poissons Ratio (x) = 0.13137 0.15441
# Poissons Ratio (y) = 1.22147 1.86126
# Poissons Ratio (z) = 0.18909 0.24514
#
# Static dielectric constant tensor:
#      x y z
#    x 1.526530 0.000000 -0.012420 
#    y 0.000000 1.545390 0.000000 
#    z -0.012420 0.000000 1.536450 
# 
# From -- ./inp_files/37415.got.cif
#   From: 2010.05.17/outbox.cif.g08.bks.cpg/sg11_19_cif.got.tgz:37415.got - 2010.06.03 12:22:45.
