data_PCOD9159745
_publ_section_title
;
Structure prediction by ZEFSAII (Michael W. Deem and Ramdas Pophale) SiO2 
 PCOD9159745
Probable space group: P 21/M
;
_chemical_formula_sum "Si O2"
_cell_formula_units_Z 20
_cell_length_a 9.551250
_cell_length_b 11.785474
_cell_length_c 8.325460
_cell_angle_alpha 90.000000
_cell_angle_beta 54.119158
_cell_angle_gamma 90.000000
_cell_volume 759.325406
_symmetry_space_group_name_H-M "P 21/M"
_symmetry_group_IT_number 11
_symmetry_cell_setting 'monoclinic'
loop_
_space_group_symop_operation_xyz
x,y,z
-x,1/2+y,-z
-x,-y,-z
x,1/2-y,z
loop_
_atom_site_type_symbol
_atom_site_label
_atom_site_fract_x
_atom_site_fract_y
_atom_site_fract_z
Si Si1 0.623940 0.411629 0.730318
Si Si2 0.659703 0.951129 0.287981
Si Si3 0.582603 0.126868 0.121007
Si Si4 0.023337 0.378549 0.714710
Si Si5 0.998005 0.373452 0.352709
O O1 0.442761 0.375023 0.773003
O O2 0.584083 0.545632 0.773524
O O3 0.788630 0.381923 0.513765
O O4 0.648018 0.369477 0.894432
O O5 0.806492 0.893242 0.290541
O O6 0.500000 0.000000 0.500000
O O7 0.713414 0.064561 0.154016
O O8 0.537715 0.250000 0.210971
O O9 0.953729 0.250000 0.802691
O O10 0.947231 0.509826 0.769384
O O11 0.056182 0.373056 0.500041
O O12 0.043336 0.250000 0.250811
#
# Coordination Sequence:
#
# PCOD9159745 Si02
#       5
#     4   4   4   4   4
#     4   9  19  35  55  81 106 147 182 222 267 333
#     4  10  19  34  52  85 105 137 181 232 268 316
#     4   9  19  35  54  79 112 145 181 227 274 324
#     4  10  21  36  53  81 116 142 178 228 274 322
#     4  10  20  35  56  80 110 149 181 217 274 331
#
# _framework density 26.339171
#
# number of rings (size 3 to 8) (size 9 to 14) (size 15 to 20)
#    1.200    1.200    2.000    0.600    0.000    5.600 
#    0.000    1.000    0.000    0.000    0.000    0.000 
#    0.000    0.000    0.000    0.000    0.000    0.000 
#
# Total GULP energy -111498.790663 kJ/mol
# GULP energy per Si atom -5574.939533 kJ/mol
# Density = 2.627922 g / cm^3
# Si number density = 26.339171 Si / 1000 Ang^3
#
#
#
# Elastic Constant Matrix: (Units=GPa)
#
#
# Indices 1 2 3 4 5 6 
#
# 1 133.8718 60.7768 10.6206 0.0000 43.4108 0.0000
# 2 60.7768 275.8900 39.8493 0.0000 0.9666 0.0000
# 3 10.6206 39.8493 62.0804 0.0000 10.5811 0.0000
# 4 0.0000 0.0000 0.0000 5.5012 0.0000 1.5872
# 5 43.4108 0.9666 10.5811 0.0000 36.1746 0.0000
# 6 0.0000 0.0000 0.0000 1.5872 0.0000 36.7416
#
#
#
# Elastic Compliance Matrix: (Units=1/GPa)
#
#
# Indices 1 2 3 4 5 6 
#
# 1 0.014976 -0.003665 0.002986 0.000000 -0.018747 0.000000
# 2 -0.003665 0.004908 -0.003421 0.000000 0.005267 0.000000
# 3 0.002986 -0.003421 0.019353 0.000000 -0.009152 0.000000
# 4 0.000000 0.000000 0.000000 0.184072 0.000000 -0.007952
# 5 -0.018747 0.005267 -0.009152 0.000000 0.052677 0.000000
# 6 0.000000 0.000000 0.000000 -0.007952 0.000000 0.027561
#
#
# Mechanical properties :
#
#
# Convention : Reuss Voigt Hill
#
# Bulk Modulus (GPa) = 32.22025 77.14840 54.68432
# Shear Modulus (GPa) = 15.52354 39.72318 27.62336
#
# Velocity S-wave (km/s) = 2.43033 3.88769 3.24196
# Velocity P-wave (km/s) = 4.48717 7.03606 5.90088
#
# Compressibility (1/GPa) = 0.03103639
#
# Stress axis : x y z
#
# Youngs Moduli (GPa) = 66.77477 203.76580 51.67096
#
# Poissons Ratio (x) = 0.74672 -0.15426
# Poissons Ratio (y) = 0.24470 0.17677
# Poissons Ratio (z) = -0.19936 0.69708
#
# Static dielectric constant tensor:
#      x y z
#    x 2.116030 0.000000 0.008170 
#    y 0.000000 2.128690 0.000000 
#    z 0.008170 0.000000 2.119670 
# 
# From -- ./inp_files/16350.got.cif
#   From: 2010.05.17/outbox.cif.g08.bks.cpg/sg11_9_cif.got.tgz:16350.got - 2010.06.03 12:22:45.
