data_PCOD9159399
_publ_section_title
;
Structure prediction by ZEFSAII (Michael W. Deem and Ramdas Pophale) SiO2 
 PCOD9159399
Probable space group: P 21/M
;
_chemical_formula_sum "Si O2"
_cell_formula_units_Z 26
_cell_length_a 19.018300
_cell_length_b 9.437793
_cell_length_c 9.013336
_cell_angle_alpha 90.000000
_cell_angle_beta 137.543526
_cell_angle_gamma 90.000000
_cell_volume 1092.070631
_symmetry_space_group_name_H-M "P 21/M"
_symmetry_group_IT_number 11
_symmetry_cell_setting 'monoclinic'
loop_
_space_group_symop_operation_xyz
x,y,z
-x,1/2+y,-z
-x,-y,-z
x,1/2-y,z
loop_
_atom_site_type_symbol
_atom_site_label
_atom_site_fract_x
_atom_site_fract_y
_atom_site_fract_z
Si Si1 0.947484 0.409285 0.788603
Si Si2 0.725326 0.090745 0.595277
Si Si3 0.543430 0.750000 0.570600
Si Si4 0.866712 0.588091 0.403682
Si Si5 0.215988 0.910878 0.987521
Si Si6 0.560686 0.471027 0.794954
Si Si7 0.363642 0.413639 0.797859
O O1 0.991595 0.250000 0.841311
O O2 0.829057 0.393876 0.659740
O O3 0.940725 0.497871 0.626983
O O4 0.000000 0.500000 0.000000
O O5 0.680967 0.250000 0.553218
O O6 0.762264 0.033961 0.812548
O O7 0.653352 0.991726 0.384860
O O8 0.555442 0.626069 0.715701
O O9 0.524275 0.873052 0.413756
O O10 0.901610 0.750000 0.441708
O O11 0.752125 0.591676 0.303868
O O12 0.850847 0.510453 0.222453
O O13 0.174322 0.750000 0.933948
O O14 0.329655 0.905388 0.089965
O O15 0.570463 0.490937 0.985725
O O16 0.397901 0.250000 0.837634
#
# Coordination Sequence:
#
# PCOD9159399 Si02
#       7
#     4   4   2   4   4   4   4
#     4  10  19  34  55  78 107 138 171 211 256 303
#     4   9  20  34  53  77 103 135 172 210 254 306
#     4  10  20  32  52  80 102 130 176 206 260 308
#     4   9  18  31  52  78 103 133 175 214 248 300
#     4  10  19  34  53  77 105 134 171 214 258 295
#     4  10  19  33  54  77 101 137 168 218 250 307
#     4   9  17  31  50  75 101 130 172 213 250 293
#
# _framework density 23.807984999999999
#
# number of rings (size 3 to 8) (size 9 to 14) (size 15 to 20)
#    0.000    2.462    1.538    0.923    2.154    3.077 
#    0.000    0.769    0.000    5.538    0.000    0.000 
#    0.000    0.000    0.000    0.000    0.000    0.000 
#
# Total GULP energy -144926.332865 kJ/mol
# GULP energy per Si atom -5574.089726 kJ/mol
# Density = 2.375380 g / cm^3
# Si number density = 23.807985 Si / 1000 Ang^3
#
#
#
# Elastic Constant Matrix: (Units=GPa)
#
#
# Indices 1 2 3 4 5 6 
#
# 1 56.9912 1.4240 22.3295 0.0000 -11.3500 0.0000
# 2 1.4240 185.3608 107.9450 0.0000 -23.1471 0.0000
# 3 22.3295 107.9450 201.3048 0.0000 -59.3415 0.0000
# 4 0.0000 0.0000 0.0000 -48.0484 0.0000 2.4058
# 5 -11.3500 -23.1471 -59.3415 0.0000 45.0068 0.0000
# 6 0.0000 0.0000 0.0000 2.4058 0.0000 11.2762
#
#
#
# Elastic Compliance Matrix: (Units=1/GPa)
#
#
# Indices 1 2 3 4 5 6 
#
# 1 0.018857 0.001368 -0.001989 0.000000 0.002836 0.000000
# 2 0.001368 0.008116 -0.005188 0.000000 -0.002321 0.000000
# 3 -0.001989 -0.005188 0.011509 0.000000 0.012005 0.000000
# 4 0.000000 0.000000 0.000000 -0.020592 0.000000 0.004393
# 5 0.002836 -0.002321 0.012005 0.000000 0.037569 0.000000
# 6 0.000000 0.000000 0.000000 0.004393 0.000000 0.087745
#
#
# Mechanical properties :
#
#
# Convention : Reuss Voigt Hill
#
# Bulk Modulus (GPa) = 37.22620 78.56152 57.89386
# Shear Modulus (GPa) = 30.52973 22.44414 26.48694
#
# Velocity S-wave (km/s) = 3.58485 3.07370 3.33907
# Velocity P-wave (km/s) = 5.72755 6.75769 6.26383
#
# Compressibility (1/GPa) = 0.02686280
#
# Stress axis : x y z
#
# Youngs Moduli (GPa) = 53.03204 123.21923 86.88964
#
# Poissons Ratio (x) = -0.16851 0.17281
# Poissons Ratio (y) = -0.07252 0.45077
# Poissons Ratio (z) = 0.10547 0.63924
#
# Static dielectric constant tensor:
#      x y z
#    x 2.013950 0.000000 0.049980 
#    y 0.000000 1.865420 0.000000 
#    z 0.049980 0.000000 1.862890 
# 
# From -- ./inp_files/23786.got.cif
#   From: 2010.05.17/outbox.cif.g08.bks.cpg/sg11_12_cif.got.tgz:23786.got - 2010.06.03 12:22:45.
