data_PCOD9159350
_publ_section_title
;
Structure prediction by ZEFSAII (Michael W. Deem and Ramdas Pophale) SiO2 
 PCOD9159350
Probable space group: P 21/M
;
_chemical_formula_sum "Si O2"
_cell_formula_units_Z 28
_cell_length_a 13.765659
_cell_length_b 13.759624
_cell_length_c 9.149735
_cell_angle_alpha 90.000000
_cell_angle_beta 117.803236
_cell_angle_gamma 90.000000
_cell_volume 1532.980925
_symmetry_space_group_name_H-M "P 21/M"
_symmetry_group_IT_number 11
_symmetry_cell_setting 'monoclinic'
loop_
_space_group_symop_operation_xyz
x,y,z
-x,1/2+y,-z
-x,-y,-z
x,1/2-y,z
loop_
_atom_site_type_symbol
_atom_site_label
_atom_site_fract_x
_atom_site_fract_y
_atom_site_fract_z
Si Si1 0.995247 0.861264 0.653323
Si Si2 0.982311 0.361885 0.980952
Si Si3 0.585252 0.635202 0.163112
Si Si4 0.767397 0.136643 0.320055
Si Si5 0.766332 0.952499 0.495405
Si Si6 0.364009 0.969930 0.028172
Si Si7 0.808942 0.521307 0.846304
O O1 0.958654 0.750000 0.606508
O O2 0.022415 0.871389 0.845168
O O3 0.892513 0.928203 0.544213
O O4 0.105881 0.875434 0.640437
O O5 0.970026 0.250000 0.931870
O O6 0.101813 0.403900 0.023746
O O7 0.885811 0.429931 0.854548
O O8 0.573014 0.750000 0.128955
O O9 0.684976 0.613254 0.343473
O O10 0.607978 0.571867 0.032618
O O11 0.474716 0.586161 0.149206
O O12 0.746937 0.250000 0.334207
O O13 0.695300 0.097579 0.134254
O O14 0.743243 0.063822 0.435426
O O15 0.757766 0.936313 0.662444
O O16 0.281604 0.989426 0.102383
#
# Coordination Sequence:
#
# PCOD9159350 Si02
#       7
#     4   4   4   4   4   4   4
#     4   9  16  30  53  77 105 146 186 222 270 329
#     4   9  18  32  53  82 114 148 184 222 272 334
#     4  10  22  40  59  82 108 145 192 233 274 326
#     4  10  19  33  53  78 107 146 189 229 274 326
#     4  10  21  34  53  79 118 145 177 226 284 328
#     4  10  21  38  62  82 107 145 191 236 273 319
#     4  10  20  35  56  83 115 146 182 227 279 333
#
# _framework density 18.265067999999999
#
# number of rings (size 3 to 8) (size 9 to 14) (size 15 to 20)
#    0.000    2.286    1.429    1.286    0.000    2.857 
#    0.000    0.000    0.000    0.000    0.000    0.000 
#    0.000    0.000    0.000    0.000    0.000    0.000 
#
# Total GULP energy -156195.393054 kJ/mol
# GULP energy per Si atom -5578.406895 kJ/mol
# Density = 1.822350 g / cm^3
# Si number density = 18.265068 Si / 1000 Ang^3
#
#
#
# Elastic Constant Matrix: (Units=GPa)
#
#
# Indices 1 2 3 4 5 6 
#
# 1 55.9343 8.7083 -0.8075 0.0000 6.8422 0.0000
# 2 8.7083 108.6672 4.3526 0.0000 7.2041 0.0000
# 3 -0.8075 4.3526 34.3244 0.0000 12.3292 0.0000
# 4 0.0000 0.0000 0.0000 15.5747 0.0000 2.9186
# 5 6.8422 7.2041 12.3292 0.0000 13.4835 0.0000
# 6 0.0000 0.0000 0.0000 2.9186 0.0000 20.2107
#
#
#
# Elastic Compliance Matrix: (Units=1/GPa)
#
#
# Indices 1 2 3 4 5 6 
#
# 1 0.019954 -0.000833 0.006034 0.000000 -0.015198 0.000000
# 2 -0.000833 0.009595 0.000675 0.000000 -0.005321 0.000000
# 3 0.006034 0.000675 0.045297 0.000000 -0.044842 0.000000
# 4 0.000000 0.000000 0.000000 0.065993 0.000000 -0.009530
# 5 -0.015198 -0.005321 -0.044842 0.000000 0.125723 0.000000
# 6 0.000000 0.000000 0.000000 -0.009530 0.000000 0.050855
#
#
# Mechanical properties :
#
#
# Convention : Reuss Voigt Hill
#
# Bulk Modulus (GPa) = 11.54763 24.82587 18.18675
# Shear Modulus (GPa) = 14.94631 22.29861 18.62246
#
# Velocity S-wave (km/s) = 2.86370 3.49783 3.19653
# Velocity P-wave (km/s) = 4.15576 5.47125 4.85824
#
# Compressibility (1/GPa) = 0.08659782
#
# Stress axis : x y z
#
# Youngs Moduli (GPa) = 50.11519 104.22219 22.07638
#
# Poissons Ratio (x) = 0.08684 -0.13321
# Poissons Ratio (y) = 0.04176 -0.01490
# Poissons Ratio (z) = -0.30240 -0.07034
#
# Static dielectric constant tensor:
#      x y z
#    x 1.609540 0.000000 0.014150 
#    y 0.000000 1.630800 0.000000 
#    z 0.014150 0.000000 1.627370 
# 
# From -- ./inp_files/18131.got.cif
#   From: 2010.05.17/outbox.cif.g08.bks.cpg/sg11_10_cif.got.tgz:18131.got - 2010.06.03 12:22:45.
