data_PCOD9159447
_publ_section_title
;
Structure prediction by ZEFSAII (Michael W. Deem and Ramdas Pophale) SiO2 
 PCOD9159447
Probable space group: P 21/M
;
_chemical_formula_sum "Si O2"
_cell_formula_units_Z 28
_cell_length_a 27.820523
_cell_length_b 8.333991
_cell_length_c 12.590683
_cell_angle_alpha 90.000000
_cell_angle_beta 148.601792
_cell_angle_gamma 90.000000
_cell_volume 1520.866541
_symmetry_space_group_name_H-M "P 21/M"
_symmetry_group_IT_number 11
_symmetry_cell_setting 'monoclinic'
loop_
_space_group_symop_operation_xyz
x,y,z
-x,1/2+y,-z
-x,-y,-z
x,1/2-y,z
loop_
_atom_site_type_symbol
_atom_site_label
_atom_site_fract_x
_atom_site_fract_y
_atom_site_fract_z
Si Si1 0.763859 0.441842 0.388866
Si Si2 0.970851 0.444241 0.828078
Si Si3 0.312011 0.441994 0.536234
Si Si4 0.844303 0.554732 0.926698
Si Si5 0.702942 0.556302 0.832022
Si Si6 0.448261 0.942065 0.620021
Si Si7 0.658472 0.555954 0.983929
O O1 0.765750 0.250000 0.392131
O O2 0.868577 0.501516 0.605816
O O3 0.701966 0.497907 0.371300
O O4 0.722644 0.501321 0.200791
O O5 0.969678 0.250000 0.825435
O O6 0.000000 0.500000 0.000000
O O7 0.052039 0.498749 0.901525
O O8 0.314482 0.250000 0.540504
O O9 0.223123 0.493540 0.297689
O O10 0.400818 0.504607 0.640433
O O11 0.844877 0.750000 0.928987
O O12 0.793616 0.500494 0.938562
O O13 0.705535 0.750000 0.839093
O O14 0.615687 0.507767 0.595473
O O15 0.692287 0.498557 0.932134
O O16 0.446937 0.750000 0.612328
O O17 0.553254 0.998286 0.805652
O O18 0.657670 0.750000 0.980581
#
# Coordination Sequence:
#
# PCOD9159447 Si02
#       7
#     4   4   4   4   4   4   4
#     4  11  23  35  52  79 111 142 178 225 270 313
#     4  10  19  33  54  81 108 137 173 217 266 317
#     4  10  19  34  56  79 106 142 177 216 269 326
#     4   8  15  30  54  80 104 132 169 215 261 309
#     4   9  18  35  58  81 104 139 184 220 259 316
#     4  10  20  34  55  82 108 136 176 227 272 312
#     4  10  22  38  54  74 107 149 184 216 263 322
#
# _framework density 18.410554999999999
#
# number of rings (size 3 to 8) (size 9 to 14) (size 15 to 20)
#    0.000    2.286    1.429    2.571    0.000    2.857 
#    0.000    0.714    0.000    0.000    0.000    0.000 
#    0.000    0.000    0.000    0.000    0.000    0.000 
#
# Total GULP energy -156250.616747 kJ/mol
# GULP energy per Si atom -5580.379170 kJ/mol
# Density = 1.836865 g / cm^3
# Si number density = 18.410555 Si / 1000 Ang^3
#
#
#
# Elastic Constant Matrix: (Units=GPa)
#
#
# Indices 1 2 3 4 5 6 
#
# 1 169.6242 24.8066 124.0944 0.0000 10.7149 0.0000
# 2 24.8066 8.9529 1.1283 0.0000 -4.5120 0.0000
# 3 124.0944 1.1283 79.8403 0.0000 -21.0930 0.0000
# 4 0.0000 0.0000 0.0000 11.2935 0.0000 -7.0033
# 5 10.7149 -4.5120 -21.0930 0.0000 10.9471 0.0000
# 6 0.0000 0.0000 0.0000 -7.0033 0.0000 20.3550
#
#
#
# Elastic Compliance Matrix: (Units=1/GPa)
#
#
# Indices 1 2 3 4 5 6 
#
# 1 -0.001047 0.010622 0.005915 0.000000 0.016800 0.000000
# 2 0.010622 0.069745 -0.025760 0.000000 -0.031284 0.000000
# 3 0.005915 -0.025760 -0.001303 0.000000 -0.018917 0.000000
# 4 0.000000 0.000000 0.000000 0.112562 0.000000 0.038728
# 5 0.016800 -0.031284 -0.018917 0.000000 0.025560 0.000000
# 6 0.000000 0.000000 0.000000 0.038728 0.000000 0.062452
#
#
# Mechanical properties :
#
#
# Convention : Reuss Voigt Hill
#
# Bulk Modulus (GPa) = 20.42889 62.05289 41.24089
# Shear Modulus (GPa) = 16.51624 15.74500 16.13062
#
# Velocity S-wave (km/s) = 2.99842 2.92758 2.96321
# Velocity P-wave (km/s) = 4.80705 6.72353 5.84438
#
# Compressibility (1/GPa) = 0.04895030
#
# Stress axis : x y z
#
# Youngs Moduli (GPa) = -955.30318 14.33790 -767.55499
#
# Poissons Ratio (x) = -0.15229 4.54034
# Poissons Ratio (y) = 10.14695 -19.77198
# Poissons Ratio (z) = 5.65094 0.36934
#
# Static dielectric constant tensor:
#      x y z
#    x 1.645250 0.000000 0.023350 
#    y 0.000000 1.632070 0.000000 
#    z 0.023350 0.000000 1.608360 
# 
# From -- ./inp_files/44669.got.cif
#   From: 2010.05.17/outbox.cif.g08.bks.cpg/sg11_23_cif.got.tgz:44669.got - 2010.06.03 12:22:45.
