data_PCOD9159347
_publ_section_title
;
Structure prediction by ZEFSAII (Michael W. Deem and Ramdas Pophale) SiO2 
 PCOD9159347
Probable space group: P 21/M
;
_chemical_formula_sum "Si O2"
_cell_formula_units_Z 32
_cell_length_a 23.440461
_cell_length_b 8.657498
_cell_length_c 28.901716
_cell_angle_alpha 90.000000
_cell_angle_beta 162.178478
_cell_angle_gamma 90.000000
_cell_volume 1795.058975
_symmetry_space_group_name_H-M "P 21/M"
_symmetry_group_IT_number 11
_symmetry_cell_setting 'monoclinic'
loop_
_space_group_symop_operation_xyz
x,y,z
-x,1/2+y,-z
-x,-y,-z
x,1/2-y,z
loop_
_atom_site_type_symbol
_atom_site_label
_atom_site_fract_x
_atom_site_fract_y
_atom_site_fract_z
Si Si1 0.652678 0.565173 0.153051
Si Si2 0.665401 0.935169 0.910720
Si Si3 0.072363 0.064830 0.206776
Si Si4 0.355479 0.064274 0.603219
Si Si5 0.924525 0.063404 0.540288
Si Si6 0.384017 0.564285 0.773054
Si Si7 0.392168 0.437517 0.526246
Si Si8 0.662185 0.435549 0.658764
O O1 0.648516 0.750000 0.147820
O O2 0.615058 0.511494 0.176280
O O3 0.862438 0.514327 0.301480
O O4 0.500000 0.500000 0.000000
O O5 0.668868 0.750000 0.910416
O O6 0.563559 0.976430 0.880417
O O7 0.531497 0.000727 0.767477
O O8 0.870499 0.001864 0.063451
O O9 0.070876 0.250000 0.204418
O O10 0.221762 0.014229 0.361382
O O11 0.149390 0.003352 0.217089
O O12 0.357935 0.250000 0.605840
O O13 0.366058 0.009410 0.558395
O O14 0.174379 0.005416 0.490911
O O15 0.916881 0.250000 0.537444
O O16 0.796521 0.019144 0.397216
O O17 0.379927 0.750000 0.775175
O O18 0.388826 0.250000 0.524346
O O19 0.586530 0.480835 0.651149
O O20 0.500000 0.500000 0.500000
O O21 0.667466 0.250000 0.660060
#
# Coordination Sequence:
#
# PCOD9159347 Si02
#       8
#     4   4   4   4   4   4   4   4
#     4  11  23  37  55  80 111 141 173 214 261 307
#     4  10  21  37  54  77 108 140 172 213 262 312
#     4  10  19  33  53  78 105 136 177 222 262 310
#     4  10  19  34  56  80 104 135 173 214 258 309
#     4   9  20  38  56  77 105 138 173 213 258 309
#     4   9  19  37  58  77 102 135 175 217 259 309
#     4   8  17  32  51  76 105 133 169 217 263 307
#     4   9  16  30  50  73 103 138 174 216 264 315
#
# _framework density 17.826712000000001
#
# number of rings (size 3 to 8) (size 9 to 14) (size 15 to 20)
#    0.000    2.500    0.000    3.750    0.000    4.500 
#    0.000   10.625    0.000    0.000    0.000    0.000 
#    0.000    0.000    0.000    0.000    0.000    0.000 
#
# Total GULP energy -178461.403756 kJ/mol
# GULP energy per Si atom -5576.918867 kJ/mol
# Density = 1.778614 g / cm^3
# Si number density = 17.826712 Si / 1000 Ang^3
#
#
#
# Elastic Constant Matrix: (Units=GPa)
#
#
# Indices 1 2 3 4 5 6 
#
# 1 191.0034 46.5454 99.0438 0.0000 11.7150 0.0000
# 2 46.5454 43.7796 38.1806 0.0000 7.7904 0.0000
# 3 99.0438 38.1806 132.2126 0.0000 33.8869 0.0000
# 4 0.0000 0.0000 0.0000 27.7792 0.0000 4.0934
# 5 11.7150 7.7904 33.8869 0.0000 24.1005 0.0000
# 6 0.0000 0.0000 0.0000 4.0934 0.0000 30.2036
#
#
#
# Elastic Compliance Matrix: (Units=1/GPa)
#
#
# Indices 1 2 3 4 5 6 
#
# 1 0.010348 -0.005151 -0.008446 0.000000 0.008510 0.000000
# 2 -0.005151 0.033337 -0.005704 0.000000 -0.000252 0.000000
# 3 -0.008446 -0.005704 0.021909 0.000000 -0.024856 0.000000
# 4 0.000000 0.000000 0.000000 0.036732 0.000000 -0.004978
# 5 0.008510 -0.000252 -0.024856 0.000000 0.072386 0.000000
# 6 0.000000 0.000000 0.000000 -0.004978 0.000000 0.033783
#
#
# Mechanical properties :
#
#
# Convention : Reuss Voigt Hill
#
# Bulk Modulus (GPa) = 37.04718 81.61502 59.33110
# Shear Modulus (GPa) = 19.52404 28.63171 24.07788
#
# Velocity S-wave (km/s) = 3.31299 4.01198 3.67912
# Velocity P-wave (km/s) = 5.95495 8.20629 7.16954
#
# Compressibility (1/GPa) = 0.02699261
#
# Stress axis : x y z
#
# Youngs Moduli (GPa) = 96.63361 29.99656 45.64405
#
# Poissons Ratio (x) = 0.15450 0.38551
# Poissons Ratio (y) = 0.49772 0.26036
# Poissons Ratio (z) = 0.81618 0.17110
#
# Static dielectric constant tensor:
#      x y z
#    x 1.613830 0.000000 0.016970 
#    y 0.000000 1.601450 0.000000 
#    z 0.016970 0.000000 1.609040 
# 
# From -- ./inp_files/72140.got.cif
#   From: 2010.05.17/outbox.cif.g08.bks.cpg/sg11_37_cif.got.tgz:72140.got - 2010.06.03 12:22:45.
