data_PCOD9159969
_publ_section_title
;
Structure prediction by ZEFSAII (Michael W. Deem and Ramdas Pophale) SiO2 
 PCOD9159969
Probable space group: P 21/M
;
_chemical_formula_sum "Si O2"
_cell_formula_units_Z 32
_cell_length_a 22.264040
_cell_length_b 8.743122
_cell_length_c 28.685490
_cell_angle_alpha 90.000000
_cell_angle_beta 18.773918
_cell_angle_gamma 90.000000
_cell_volume 1797.072898
_symmetry_space_group_name_H-M "P 21/M"
_symmetry_group_IT_number 11
_symmetry_cell_setting 'monoclinic'
loop_
_space_group_symop_operation_xyz
x,y,z
-x,1/2+y,-z
-x,-y,-z
x,1/2-y,z
loop_
_atom_site_type_symbol
_atom_site_label
_atom_site_fract_x
_atom_site_fract_y
_atom_site_fract_z
Si Si1 0.084819 0.566728 0.596470
Si Si2 0.557610 0.567451 0.407885
Si Si3 0.622663 0.932110 0.549344
Si Si4 0.303194 0.065546 0.160396
Si Si5 0.385960 0.932487 0.294498
Si Si6 0.952518 0.067692 0.085597
Si Si7 0.678882 0.432417 0.148252
Si Si8 0.203444 0.433691 0.339418
O O1 0.087208 0.750000 0.602055
O O2 0.191611 0.487295 0.560581
O O3 0.209091 0.537154 0.458747
O O4 0.873811 0.516372 0.741000
O O5 0.500000 0.500000 0.500000
O O6 0.562490 0.750000 0.406228
O O7 0.418159 0.513543 0.469366
O O8 0.760290 0.502817 0.244979
O O9 0.626504 0.750000 0.539934
O O10 0.451397 0.967576 0.710844
O O11 0.308746 0.250000 0.154312
O O12 0.261452 0.022307 0.244543
O O13 0.500000 0.000000 0.000000
O O14 0.410369 0.750000 0.274349
O O15 0.561354 0.010721 0.190486
O O16 0.341509 0.000467 0.276891
O O17 0.064499 0.750000 0.904925
O O18 0.126194 0.018388 0.989922
O O19 0.000000 0.000000 0.000000
O O20 0.706918 0.250000 0.126420
O O21 0.197117 0.250000 0.346772
O O22 0.000000 0.500000 0.500000
#
# Coordination Sequence:
#
# PCOD9159969 Si02
#       8
#     4   4   4   4   4   4   4   4
#     4   9  18  35  56  81 115 150 190 239 292 347
#     4  12  25  42  63  88 122 161 200 247 299 355
#     4  10  20  35  58  88 118 150 197 244 292 353
#     4  10  22  39  57  83 117 153 193 239 287 346
#     4  10  19  34  56  85 118 151 192 244 298 350
#     4  12  23  38  61  90 121 156 198 244 295 351
#     4  10  20  35  57  88 122 155 196 246 296 349
#     4  11  21  36  57  84 115 148 191 240 292 348
#
# _framework density 17.806736000000001
#
# number of rings (size 3 to 8) (size 9 to 14) (size 15 to 20)
#    0.000    1.500    2.500    3.750    0.000    3.000 
#    0.000    1.250    0.000    3.000    0.000    0.000 
#    0.000    0.000    0.000    0.000    0.000    0.000 
#
# Total GULP energy -178808.394110 kJ/mol
# GULP energy per Si atom -5587.762316 kJ/mol
# Density = 1.776621 g / cm^3
# Si number density = 17.806736 Si / 1000 Ang^3
#
#
#
# Elastic Constant Matrix: (Units=GPa)
#
#
# Indices 1 2 3 4 5 6 
#
# 1 157.9774 68.9405 78.2817 0.0000 -10.8602 0.0000
# 2 68.9405 95.1140 51.1517 0.0000 -1.4342 0.0000
# 3 78.2817 51.1517 119.1254 0.0000 -7.4192 0.0000
# 4 0.0000 0.0000 0.0000 30.2130 0.0000 -4.6315
# 5 -10.8602 -1.4342 -7.4192 0.0000 29.3715 0.0000
# 6 0.0000 0.0000 0.0000 -4.6315 0.0000 34.5502
#
#
#
# Elastic Compliance Matrix: (Units=1/GPa)
#
#
# Indices 1 2 3 4 5 6 
#
# 1 0.011382 -0.005561 -0.004924 0.000000 0.002693 0.000000
# 2 -0.005561 0.016408 -0.003524 0.000000 -0.002145 0.000000
# 3 -0.004924 -0.003524 0.013227 0.000000 0.001349 0.000000
# 4 0.000000 0.000000 0.000000 0.033793 0.000000 0.004530
# 5 0.002693 -0.002145 0.001349 0.000000 0.035278 0.000000
# 6 0.000000 0.000000 0.000000 0.004530 0.000000 0.029551
#
#
# Mechanical properties :
#
#
# Convention : Reuss Voigt Hill
#
# Bulk Modulus (GPa) = 76.93439 85.44053 81.18746
# Shear Modulus (GPa) = 29.07137 30.41647 29.74392
#
# Velocity S-wave (km/s) = 4.04493 4.13745 4.09146
# Velocity P-wave (km/s) = 8.06935 8.42087 8.24698
#
# Compressibility (1/GPa) = 0.01299809
#
# Stress axis : x y z
#
# Youngs Moduli (GPa) = 87.85864 60.94704 75.60017
#
# Poissons Ratio (x) = 0.33894 0.37224
# Poissons Ratio (y) = 0.48860 0.26645
# Poissons Ratio (z) = 0.43260 0.21481
#
# Static dielectric constant tensor:
#      x y z
#    x 1.618500 0.000000 -0.020800 
#    y 0.000000 1.593190 0.000000 
#    z -0.020800 0.000000 1.592740 
# 
# From -- ./inp_files/42508.got.cif
#   From: 2010.05.17/outbox.cif.g08.bks.cpg/sg11_22_cif.got.tgz:42508.got - 2010.06.03 12:22:45.
