data_PCOD9159257
_publ_section_title
;
Structure prediction by ZEFSAII (Michael W. Deem and Ramdas Pophale) SiO2 
 PCOD9159257
Probable space group: P 21/M
;
_chemical_formula_sum "Si O2"
_cell_formula_units_Z 24
_cell_length_a 9.404895
_cell_length_b 8.901394
_cell_length_c 19.133887
_cell_angle_alpha 90.000000
_cell_angle_beta 120.709367
_cell_angle_gamma 90.000000
_cell_volume 1377.199507
_symmetry_space_group_name_H-M "P 21/M"
_symmetry_group_IT_number 11
_symmetry_cell_setting 'monoclinic'
loop_
_space_group_symop_operation_xyz
x,y,z
-x,1/2+y,-z
-x,-y,-z
x,1/2-y,z
loop_
_atom_site_type_symbol
_atom_site_label
_atom_site_fract_x
_atom_site_fract_y
_atom_site_fract_z
Si Si1 0.511409 0.923121 0.166035
Si Si2 0.150300 0.930495 0.580633
Si Si3 0.853384 0.067963 0.917661
Si Si4 0.161136 0.431208 0.240639
Si Si5 0.495498 0.075445 0.665684
Si Si6 0.149550 0.929706 0.743604
O O1 0.530157 0.750000 0.150147
O O2 0.328642 0.975856 0.098352
O O3 0.506405 0.929627 0.249709
O O4 0.674560 0.010931 0.184787
O O5 0.150124 0.750000 0.575813
O O6 0.131612 0.974076 0.657799
O O7 0.327084 0.995079 0.600284
O O8 0.000000 0.000000 0.500000
O O9 0.859163 0.250000 0.916903
O O10 0.864025 0.002252 0.842200
O O11 0.000000 0.000000 0.000000
O O12 0.166772 0.250000 0.236974
O O13 0.336306 0.491892 0.313139
O O14 0.008018 0.477618 0.250939
O O15 0.497886 0.250000 0.645591
O O16 0.155077 0.750000 0.746682
#
# Coordination Sequence:
#
# PCOD9159257 Si02
#       6
#     4   4   4   4   4   4
#     4   8  16  30  49  71  96 125 162 201 240 288
#     4  10  19  33  52  75 101 131 166 207 250 295
#     4  10  20  34  52  76 101 130 166 205 246 293
#     4  10  19  33  52  75 101 130 163 203 246 293
#     4   9  17  31  50  73  98 129 167 204 242 293
#     4   9  19  33  51  74 100 129 164 202 245 294
#
# _framework density 17.426667999999999
#
# number of rings (size 3 to 8) (size 9 to 14) (size 15 to 20)
#    0.000    2.667    0.000    3.000    0.000    6.667 
#    0.000    1.667    0.000    0.000    0.000    0.000 
#    0.000    0.000    0.000    0.000    0.000    0.000 
#
# Total GULP energy -133759.331828 kJ/mol
# GULP energy per Si atom -5573.305493 kJ/mol
# Density = 1.738700 g / cm^3
# Si number density = 17.426668 Si / 1000 Ang^3
#
#
#
# Elastic Constant Matrix: (Units=GPa)
#
#
# Indices 1 2 3 4 5 6 
#
# 1 151.0355 52.7338 63.7922 0.0000 42.4511 0.0000
# 2 52.7338 64.3643 43.1084 0.0000 19.2259 0.0000
# 3 63.7922 43.1084 109.7940 0.0000 45.7927 0.0000
# 4 0.0000 0.0000 0.0000 29.0155 0.0000 10.6381
# 5 42.4511 19.2259 45.7927 0.0000 32.3538 0.0000
# 6 0.0000 0.0000 0.0000 10.6381 0.0000 27.9054
#
#
#
# Elastic Compliance Matrix: (Units=1/GPa)
#
#
# Indices 1 2 3 4 5 6 
#
# 1 0.012418 -0.006875 0.001406 0.000000 -0.014198 0.000000
# 2 -0.006875 0.024938 -0.008247 0.000000 0.005873 0.000000
# 3 0.001406 -0.008247 0.025031 0.000000 -0.032372 0.000000
# 4 0.000000 0.000000 0.000000 0.040064 0.000000 -0.015273
# 5 -0.014198 0.005873 -0.032372 0.000000 0.091866 0.000000
# 6 0.000000 0.000000 0.000000 -0.015273 0.000000 0.041658
#
#
# Mechanical properties :
#
#
# Convention : Reuss Voigt Hill
#
# Bulk Modulus (GPa) = 28.60772 71.60696 50.10734
# Shear Modulus (GPa) = 18.17806 28.89223 23.53514
#
# Velocity S-wave (km/s) = 3.23324 4.07619 3.67894
# Velocity P-wave (km/s) = 5.51272 7.95823 6.84556
#
# Compressibility (1/GPa) = 0.03495560
#
# Stress axis : x y z
#
# Youngs Moduli (GPa) = 80.52740 40.09964 39.95120
#
# Poissons Ratio (x) = 0.27567 -0.05617
# Poissons Ratio (y) = 0.55360 0.32946
# Poissons Ratio (z) = -0.11321 0.33069
#
# Static dielectric constant tensor:
#      x y z
#    x 1.598230 0.000000 0.010230 
#    y 0.000000 1.585530 0.000000 
#    z 0.010230 0.000000 1.586730 
# 
# From -- ./inp_files/20504.got.cif
#   From: 2010.05.17/outbox.cif.g08.bks.cpg/sg11_11_cif.got.tgz:20504.got - 2010.06.03 12:22:45.
