data_PCOD9159689
_publ_section_title
;
Structure prediction by ZEFSAII (Michael W. Deem and Ramdas Pophale) SiO2 
 PCOD9159689
Probable space group: P 21/M
;
_chemical_formula_sum "Si O2"
_cell_formula_units_Z 32
_cell_length_a 28.788448
_cell_length_b 8.606578
_cell_length_c 22.269473
_cell_angle_alpha 90.000000
_cell_angle_beta 18.790294
_cell_angle_gamma 90.000000
_cell_volume 1777.283087
_symmetry_space_group_name_H-M "P 21/M"
_symmetry_group_IT_number 11
_symmetry_cell_setting 'monoclinic'
loop_
_space_group_symop_operation_xyz
x,y,z
-x,1/2+y,-z
-x,-y,-z
x,1/2-y,z
loop_
_atom_site_type_symbol
_atom_site_label
_atom_site_fract_x
_atom_site_fract_y
_atom_site_fract_z
Si Si1 0.343575 0.436829 0.707597
Si Si2 0.150843 0.563480 0.190725
Si Si3 0.950161 0.563719 0.997019
Si Si4 0.817705 0.563639 0.975211
Si Si5 0.904913 0.936085 0.297500
Si Si6 0.673498 0.060862 0.907088
Si Si7 0.657799 0.561991 0.687878
Si Si8 0.827113 0.063262 0.595670
O O1 0.500000 0.500000 0.500000
O O2 0.348142 0.250000 0.699257
O O3 0.211281 0.487809 0.826081
O O4 0.294983 0.480395 0.834648
O O5 0.151205 0.750000 0.188105
O O6 0.216504 0.498957 0.048619
O O7 0.238595 0.510771 0.141887
O O8 0.987251 0.504597 0.395569
O O9 0.949775 0.750000 0.998985
O O10 0.056897 0.508343 0.813483
O O11 0.000000 0.500000 0.000000
O O12 0.829981 0.750000 0.959170
O O13 0.970428 0.493874 0.809782
O O14 0.911894 0.750000 0.284337
O O15 0.752695 0.980464 0.513450
O O16 0.673407 0.250000 0.907229
O O17 0.750941 0.012180 0.750824
O O18 0.507577 0.010340 0.112728
O O19 0.660868 0.750000 0.688654
O O20 0.734590 0.493684 0.652449
O O21 0.835306 0.250000 0.584882
#
# Coordination Sequence:
#
# PCOD9159689 Si02
#       8
#     4   4   4   4   4   4   4   4
#     4   9  20  37  58  84 114 146 181 226 273 326
#     4  11  21  36  57  80 109 147 189 228 276 333
#     4  10  21  38  59  85 117 149 187 231 275 327
#     4  10  20  36  57  82 114 145 185 232 272 322
#     4  10  19  33  58  85 111 146 187 227 273 328
#     4   9  21  38  54  79 113 146 182 232 285 331
#     4  10  20  37  58  81 111 144 186 231 276 335
#     4  11  21  35  58  82 108 144 186 232 281 332
#
# _framework density 18.005009000000001
#
# number of rings (size 3 to 8) (size 9 to 14) (size 15 to 20)
#    0.000    2.000    1.250    3.375    0.000    3.500 
#    2.250    3.750    0.000    0.000    0.000    0.000 
#    0.000    0.000    0.000    0.000    0.000    0.000 
#
# Total GULP energy -178655.609858 kJ/mol
# GULP energy per Si atom -5582.987808 kJ/mol
# Density = 1.796403 g / cm^3
# Si number density = 18.005009 Si / 1000 Ang^3
#
#
#
# Elastic Constant Matrix: (Units=GPa)
#
#
# Indices 1 2 3 4 5 6 
#
# 1 166.9633 34.1719 92.9800 0.0000 8.0105 0.0000
# 2 34.1719 37.8543 34.4294 0.0000 4.1377 0.0000
# 3 92.9800 34.4294 154.6051 0.0000 5.7952 0.0000
# 4 0.0000 0.0000 0.0000 20.4398 0.0000 9.6450
# 5 8.0105 4.1377 5.7952 0.0000 26.7490 0.0000
# 6 0.0000 0.0000 0.0000 9.6450 0.0000 23.2764
#
#
#
# Elastic Compliance Matrix: (Units=1/GPa)
#
#
# Indices 1 2 3 4 5 6 
#
# 1 0.009557 -0.004152 -0.004779 0.000000 -0.001185 0.000000
# 2 -0.004152 0.035269 -0.005242 0.000000 -0.003077 0.000000
# 3 -0.004779 -0.005242 0.010511 0.000000 -0.000035 0.000000
# 4 0.000000 0.000000 0.000000 0.060815 0.000000 -0.025200
# 5 -0.001185 -0.003077 -0.000035 0.000000 0.038223 0.000000
# 6 0.000000 0.000000 0.000000 -0.025200 0.000000 0.053404
#
#
# Mechanical properties :
#
#
# Convention : Reuss Voigt Hill
#
# Bulk Modulus (GPa) = 37.04801 75.84280 56.44541
# Shear Modulus (GPa) = 20.39811 27.28246 23.84029
#
# Velocity S-wave (km/s) = 3.36953 3.89687 3.64275
# Velocity P-wave (km/s) = 5.97992 7.90330 7.00791
#
# Compressibility (1/GPa) = 0.02699200
#
# Stress axis : x y z
#
# Youngs Moduli (GPa) = 104.63440 28.35367 95.14086
#
# Poissons Ratio (x) = 0.11771 0.45465
# Poissons Ratio (y) = 0.43439 0.49873
# Poissons Ratio (z) = 0.50002 0.14863
#
# Static dielectric constant tensor:
#      x y z
#    x 1.598400 0.000000 0.011640 
#    y 0.000000 1.611470 0.000000 
#    z 0.011640 0.000000 1.606240 
# 
# From -- ./inp_files/66936.got.cif
#   From: 2010.05.17/outbox.cif.g08.bks.cpg/sg11_34_cif.got.tgz:66936.got - 2010.06.03 12:22:45.
