data_PCOD9159234
_publ_section_title
;
Structure prediction by ZEFSAII (Michael W. Deem and Ramdas Pophale) SiO2 
 PCOD9159234
Probable space group: P 21/M
;
_chemical_formula_sum "Si O2"
_cell_formula_units_Z 32
_cell_length_a 13.715205
_cell_length_b 12.789226
_cell_length_c 18.490014
_cell_angle_alpha 90.000000
_cell_angle_beta 26.740806
_cell_angle_gamma 90.000000
_cell_volume 1459.328370
_symmetry_space_group_name_H-M "P 21/M"
_symmetry_group_IT_number 11
_symmetry_cell_setting 'monoclinic'
loop_
_space_group_symop_operation_xyz
x,y,z
-x,1/2+y,-z
-x,-y,-z
x,1/2-y,z
loop_
_atom_site_type_symbol
_atom_site_label
_atom_site_fract_x
_atom_site_fract_y
_atom_site_fract_z
Si Si1 0.778661 0.128711 0.429001
Si Si2 0.190994 0.627626 0.432681
Si Si3 0.396894 0.132190 0.561935
Si Si4 0.261848 0.028203 0.254359
Si Si5 0.190994 0.127626 0.932681
Si Si6 0.396894 0.867810 0.061935
Si Si7 0.261848 0.528203 0.754359
Si Si8 0.221339 0.128711 0.070999
O O1 0.830947 0.250000 0.410496
O O2 0.718467 0.092150 0.549215
O O3 0.590032 0.130634 0.494555
O O4 1.000000 0.082873 0.250000
O O5 0.244501 0.750000 0.380586
O O6 0.256087 0.546484 0.327518
O O7 0.930917 0.611760 0.612935
O O8 0.319724 0.250000 0.604304
O O9 0.514208 0.087194 0.413134
O O10 0.229018 0.052507 0.708933
O O11 0.485792 0.087194 0.086866
O O12 0.229019 0.947493 0.208933
O O13 0.244501 0.250000 0.880586
O O14 0.256087 0.046484 0.827518
O O15 0.281533 0.092150 0.950785
O O16 0.930917 0.111760 0.112935
O O17 0.319724 0.750000 0.104304
O O18 0.590032 0.869366 0.994555
O O19 0.169052 0.250000 0.089504
#
# Coordination Sequence:
#
# PCOD9159234 Si02
#       8
#     4   4   4   4   4   4   4   4
#     4   9  16  29  51  73  98 128 155 204 263 291
#     4  10  19  33  51  76 104 127 162 205 246 295
#     4  10  19  33  51  76 104 127 162 205 246 295
#     4  10  20  30  48  78 102 134 162 190 254 298
#     4  10  19  33  51  76 104 127 162 205 246 295
#     4  10  19  33  51  76 104 127 162 205 246 295
#     4  10  20  30  48  78 102 134 162 190 254 298
#     4   9  16  29  51  73  98 128 155 204 263 291
#
# _framework density 21.927896
#
# number of rings (size 3 to 8) (size 9 to 14) (size 15 to 20)
#    0.000    2.250    2.500    1.500    0.000    1.000 
#    0.000    3.750    0.000    0.000    0.000  122.500 
#    0.000    0.000    0.000    0.000    0.000    0.000 
#
# Total GULP energy -178500.025819 kJ/mol
# GULP energy per Si atom -5578.125807 kJ/mol
# Density = 2.187799 g / cm^3
# Si number density = 21.927896 Si / 1000 Ang^3
#
#
#
# Elastic Constant Matrix: (Units=GPa)
#
#
# Indices 1 2 3 4 5 6 
#
# 1 66.7237 20.1754 27.6715 0.0000 19.1498 0.0000
# 2 20.1754 104.2297 10.6681 0.0000 12.9025 0.0000
# 3 27.6715 10.6681 72.0313 0.0000 22.3648 0.0000
# 4 0.0000 0.0000 0.0000 30.2500 0.0000 8.6391
# 5 19.1498 12.9025 22.3648 0.0000 35.8662 0.0000
# 6 0.0000 0.0000 0.0000 8.6391 0.0000 25.1027
#
#
#
# Elastic Compliance Matrix: (Units=1/GPa)
#
#
# Indices 1 2 3 4 5 6 
#
# 1 0.019744 -0.002496 -0.005234 0.000000 -0.006380 0.000000
# 2 -0.002496 0.010369 0.000208 0.000000 -0.002527 0.000000
# 3 -0.005234 0.000208 0.018624 0.000000 -0.008893 0.000000
# 4 0.000000 0.000000 0.000000 0.036661 0.000000 -0.012617
# 5 -0.006380 -0.002527 -0.008893 0.000000 0.037742 0.000000
# 6 0.000000 0.000000 0.000000 -0.012617 0.000000 0.044178
#
#
# Mechanical properties :
#
#
# Convention : Reuss Voigt Hill
#
# Bulk Modulus (GPa) = 29.68104 40.00165 34.84134
# Shear Modulus (GPa) = 25.82722 30.54176 28.18449
#
# Velocity S-wave (km/s) = 3.43567 3.73611 3.58903
# Velocity P-wave (km/s) = 5.41328 6.07399 5.75312
#
# Compressibility (1/GPa) = 0.03369155
#
# Stress axis : x y z
#
# Youngs Moduli (GPa) = 50.64910 96.44208 53.69386
#
# Poissons Ratio (x) = 0.24074 0.28104
# Poissons Ratio (y) = 0.12643 -0.01116
# Poissons Ratio (z) = 0.26511 -0.02005
#
# Static dielectric constant tensor:
#      x y z
#    x 1.816770 0.000000 0.003130 
#    y 0.000000 1.841460 0.000000 
#    z 0.003130 0.000000 1.917950 
# 
# From -- ./inp_files/24458.got.cif
#   From: 2010.05.17/outbox.cif.g08.bks.cpg/sg11_13_cif.got.tgz:24458.got - 2010.06.03 12:22:45.
