data_PCOD9159448
_publ_section_title
;
Structure prediction by ZEFSAII (Michael W. Deem and Ramdas Pophale) SiO2 
 PCOD9159448
Probable space group: P 21/M
;
_chemical_formula_sum "Si O2"
_cell_formula_units_Z 32
_cell_length_a 12.215478
_cell_length_b 8.749917
_cell_length_c 19.344177
_cell_angle_alpha 90.000000
_cell_angle_beta 109.025027
_cell_angle_gamma 90.000000
_cell_volume 1954.651586
_symmetry_space_group_name_H-M "P 21/M"
_symmetry_group_IT_number 11
_symmetry_cell_setting 'monoclinic'
loop_
_space_group_symop_operation_xyz
x,y,z
-x,1/2+y,-z
-x,-y,-z
x,1/2-y,z
loop_
_atom_site_type_symbol
_atom_site_label
_atom_site_fract_x
_atom_site_fract_y
_atom_site_fract_z
Si Si1 0.207705 0.931934 0.702172
Si Si2 0.624427 0.931569 0.371613
Si Si3 0.160792 0.930634 0.226282
Si Si4 0.025977 0.069402 0.079416
Si Si5 0.992437 0.432645 0.575478
Si Si6 0.925364 0.430840 0.197372
Si Si7 0.376492 0.068444 0.351045
Si Si8 0.275684 0.568405 0.467418
O O1 0.223772 0.750000 0.698602
O O2 0.182784 0.971079 0.777277
O O3 0.311415 0.015697 0.684796
O O4 0.089456 0.982558 0.639868
O O5 0.628866 0.750000 0.378946
O O6 0.493475 0.990340 0.348689
O O7 0.691197 0.006021 0.450473
O O8 0.178245 0.750000 0.232223
O O9 0.268227 0.015543 0.282342
O O10 0.131323 0.989095 0.142602
O O11 0.041153 0.975790 0.240746
O O12 0.047263 0.250000 0.078246
O O13 0.921167 0.046932 0.113641
O O14 0.000000 0.000000 0.000000
O O15 0.014508 0.250000 0.579435
O O16 0.860855 0.457492 0.573323
O O17 0.000000 0.500000 0.500000
O O18 0.948901 0.250000 0.213466
O O19 0.389039 0.250000 0.352278
O O20 0.349331 0.013033 0.423251
O O21 0.297036 0.750000 0.469516
#
# Coordination Sequence:
#
# PCOD9159448 Si02
#       8
#     4   4   4   4   4   4   4   4
#     4  11  21  36  53  73 102 136 174 218 264 315
#     4  12  25  39  54  73  99 135 180 228 272 318
#     4  10  19  33  54  81 110 140 174 212 257 310
#     4   9  17  32  52  83 116 146 173 206 253 307
#     4  11  22  34  52  74 100 132 171 217 267 321
#     4   8  18  33  52  77 109 140 170 205 253 308
#     4  12  24  39  56  74 101 137 178 225 269 316
#     4  11  23  39  56  76 100 133 177 225 274 322
#
# _framework density 16.371203000000001
#
# number of rings (size 3 to 8) (size 9 to 14) (size 15 to 20)
#    0.750    0.750    1.250    5.625    0.000    4.500 
#    0.000    0.000    0.000    0.000    0.000    0.875 
#    0.000    0.000    0.000    0.000    0.000    0.000 
#
# Total GULP energy -178494.807888 kJ/mol
# GULP energy per Si atom -5577.962746 kJ/mol
# Density = 1.633394 g / cm^3
# Si number density = 16.371203 Si / 1000 Ang^3
#
#
#
# Elastic Constant Matrix: (Units=GPa)
#
#
# Indices 1 2 3 4 5 6 
#
# 1 71.9563 14.2466 17.6320 0.0000 -15.6433 0.0000
# 2 14.2466 43.5519 9.1946 0.0000 -5.5658 0.0000
# 3 17.6320 9.1946 63.7309 0.0000 -20.0764 0.0000
# 4 0.0000 0.0000 0.0000 26.1373 0.0000 -0.5466
# 5 -15.6433 -5.5658 -20.0764 0.0000 16.6113 0.0000
# 6 0.0000 0.0000 0.0000 -0.5466 0.0000 28.3882
#
#
#
# Elastic Compliance Matrix: (Units=1/GPa)
#
#
# Indices 1 2 3 4 5 6 
#
# 1 0.018117 -0.003963 0.000833 0.000000 0.016740 0.000000
# 2 -0.003963 0.024944 -0.001688 0.000000 0.002586 0.000000
# 3 0.000833 -0.001688 0.025470 0.000000 0.031002 0.000000
# 4 0.000000 0.000000 0.000000 0.038275 0.000000 0.000737
# 5 0.016740 0.002586 0.031002 0.000000 0.114301 0.000000
# 6 0.000000 0.000000 0.000000 0.000737 0.000000 0.035240
#
#
# Mechanical properties :
#
#
# Convention : Reuss Voigt Hill
#
# Bulk Modulus (GPa) = 16.97902 29.04285 23.01094
# Shear Modulus (GPa) = 17.50608 23.43841 20.47224
#
# Velocity S-wave (km/s) = 3.27360 3.78787 3.54008
# Velocity P-wave (km/s) = 4.96813 6.07530 5.54940
#
# Compressibility (1/GPa) = 0.05889621
#
# Stress axis : x y z
#
# Youngs Moduli (GPa) = 55.19617 40.08943 39.26137
#
# Poissons Ratio (x) = 0.15887 -0.03270
# Poissons Ratio (y) = 0.21874 0.06626
# Poissons Ratio (z) = -0.04597 0.06766
#
# Static dielectric constant tensor:
#      x y z
#    x 1.549610 0.000000 -0.027680 
#    y 0.000000 1.543730 0.000000 
#    z -0.027680 0.000000 1.555180 
# 
# From -- ./inp_files/64098.got.cif
#   From: 2010.05.17/outbox.cif.g08.bks.cpg/sg11_33_cif.got.tgz:64098.got - 2010.06.03 12:22:45.
