data_PCOD9159349
_publ_section_title
;
Structure prediction by ZEFSAII (Michael W. Deem and Ramdas Pophale) SiO2 
 PCOD9159349
Probable space group: P 21/M
;
_chemical_formula_sum "Si O2"
_cell_formula_units_Z 32
_cell_length_a 15.703541
_cell_length_b 7.409998
_cell_length_c 13.143835
_cell_angle_alpha 90.000000
_cell_angle_beta 118.505976
_cell_angle_gamma 90.000000
_cell_volume 1344.038439
_symmetry_space_group_name_H-M "P 21/M"
_symmetry_group_IT_number 11
_symmetry_cell_setting 'monoclinic'
loop_
_space_group_symop_operation_xyz
x,y,z
-x,1/2+y,-z
-x,-y,-z
x,1/2-y,z
loop_
_atom_site_type_symbol
_atom_site_label
_atom_site_fract_x
_atom_site_fract_y
_atom_site_fract_z
Si Si1 0.888061 0.963130 0.405520
Si Si2 0.757380 0.471120 0.998838
Si Si3 0.597082 0.459393 0.304371
Si Si4 0.936496 0.456828 0.213726
Si Si5 0.647982 0.459036 0.552121
Si Si6 0.388188 0.966138 0.907757
Si Si7 0.388146 0.968872 0.248272
Si Si8 0.852283 0.969110 0.604242
O O1 0.873440 0.750000 0.387182
O O2 0.833663 0.028457 0.476042
O O3 0.877893 0.043620 0.287865
O O4 0.000000 0.000000 0.500000
O O5 0.759573 0.250000 0.001909
O O6 0.864502 0.535701 0.089098
O O7 0.683793 0.530767 0.045871
O O8 0.709536 0.524446 0.865145
O O9 0.626892 0.250000 0.324330
O O10 0.622835 0.543292 0.428513
O O11 0.633384 0.537805 0.218312
O O12 0.480412 0.468981 0.236926
O O13 0.954891 0.250000 0.195568
O O14 0.042521 0.535218 0.298021
O O15 0.617466 0.250000 0.530909
O O16 0.605762 0.535638 0.632272
O O17 0.764295 0.469021 0.623185
O O18 0.377251 0.750000 0.896761
O O19 0.500000 0.000000 0.000000
O O20 0.389875 0.750000 0.251137
O O21 0.854909 0.750000 0.602815
#
# Coordination Sequence:
#
# PCOD9159349 Si02
#       8
#     4   4   4   4   4   4   4   4
#     4   9  17  30  48  73 103 136 171 210 258 310
#     4   9  18  33  55  78 104 141 177 209 256 316
#     4  10  21  35  53  80 108 135 172 214 265 319
#     4   9  18  33  54  77 104 141 179 214 258 314
#     4  10  22  36  54  78 103 137 179 220 260 311
#     4  10  19  33  53  78 107 138 172 211 260 315
#     4  10  20  37  57  77 102 137 180 217 259 314
#     4   9  19  34  50  74 105 136 174 216 260 306
#
# _framework density 23.808841000000001
#
# number of rings (size 3 to 8) (size 9 to 14) (size 15 to 20)
#    0.000    2.500    1.250    1.500    1.750    3.500 
#    0.000    1.875    0.000    0.000    0.000    0.000 
#    0.000    0.000    0.000    0.000    0.000    0.000 
#
# Total GULP energy -178729.584333 kJ/mol
# GULP energy per Si atom -5585.299510 kJ/mol
# Density = 2.375465 g / cm^3
# Si number density = 23.808841 Si / 1000 Ang^3
#
#
#
# Elastic Constant Matrix: (Units=GPa)
#
#
# Indices 1 2 3 4 5 6 
#
# 1 49.6603 -2.6351 6.0837 0.0000 -3.2484 0.0000
# 2 -2.6351 90.6665 10.1409 0.0000 -1.5610 0.0000
# 3 6.0837 10.1409 135.1720 0.0000 0.5476 0.0000
# 4 0.0000 0.0000 0.0000 4.9014 0.0000 7.3667
# 5 -3.2484 -1.5610 0.5476 0.0000 41.4584 0.0000
# 6 0.0000 0.0000 0.0000 7.3667 0.0000 14.4326
#
#
#
# Elastic Compliance Matrix: (Units=1/GPa)
#
#
# Indices 1 2 3 4 5 6 
#
# 1 0.020403 0.000731 -0.000980 0.000000 0.001639 0.000000
# 2 0.000731 0.011157 -0.000872 0.000000 0.000489 0.000000
# 3 -0.000980 -0.000872 0.007508 0.000000 -0.000209 0.000000
# 4 0.000000 0.000000 0.000000 0.876258 0.000000 -0.447261
# 5 0.001639 0.000489 -0.000209 0.000000 0.024270 0.000000
# 6 0.000000 0.000000 0.000000 -0.447261 0.000000 0.297580
#
#
# Mechanical properties :
#
#
# Convention : Reuss Voigt Hill
#
# Bulk Modulus (GPa) = 27.15464 33.63087 30.39276
# Shear Modulus (GPa) = 3.99459 29.61909 16.80684
#
# Velocity S-wave (km/s) = 1.29670 3.53092 2.65977
# Velocity P-wave (km/s) = 3.69756 5.54790 4.71440
#
# Compressibility (1/GPa) = 0.03682612
#
# Stress axis : x y z
#
# Youngs Moduli (GPa) = 49.01283 89.63301 133.18540
#
# Poissons Ratio (x) = -0.06550 0.13049
# Poissons Ratio (y) = -0.03582 0.11612
# Poissons Ratio (z) = 0.04802 0.07815
#
# Static dielectric constant tensor:
#      x y z
#    x 1.894430 0.000000 0.013310 
#    y 0.000000 1.897250 0.000000 
#    z 0.013310 0.000000 1.943020 
# 
# From -- ./inp_files/51741.got.cif
#   From: 2010.05.17/outbox.cif.g08.bks.cpg/sg11_26_cif.got.tgz:51741.got - 2010.06.03 12:22:45.
