data_PCOD9159996
_publ_section_title
;
Structure prediction by ZEFSAII (Michael W. Deem and Ramdas Pophale) SiO2 
 PCOD9159996
Probable space group: P 21/M
;
_chemical_formula_sum "Si O2"
_cell_formula_units_Z 32
_cell_length_a 27.822369
_cell_length_b 7.638020
_cell_length_c 21.862201
_cell_angle_alpha 90.000000
_cell_angle_beta 18.807726
_cell_angle_gamma 90.000000
_cell_volume 1497.803514
_symmetry_space_group_name_H-M "P 21/M"
_symmetry_group_IT_number 11
_symmetry_cell_setting 'monoclinic'
loop_
_space_group_symop_operation_xyz
x,y,z
-x,1/2+y,-z
-x,-y,-z
x,1/2-y,z
loop_
_atom_site_type_symbol
_atom_site_label
_atom_site_fract_x
_atom_site_fract_y
_atom_site_fract_z
Si Si1 0.210242 0.535871 0.147690
Si Si2 0.540466 0.960529 0.520455
Si Si3 0.681772 0.454234 0.531533
Si Si4 0.609407 0.954733 0.951365
Si Si5 0.380286 0.549401 0.829005
Si Si6 0.284044 0.537529 0.371031
Si Si7 0.880436 0.955229 0.546872
Si Si8 0.842248 0.541612 0.219968
O O1 0.213346 0.750000 0.144404
O O2 0.327993 0.471420 0.055506
O O3 0.044085 0.474207 0.364281
O O4 0.260260 0.473229 0.020314
O O5 0.541491 0.750000 0.525629
O O6 0.421695 0.030200 0.713505
O O7 0.704089 0.023195 0.344513
O O8 0.500000 0.000000 0.500000
O O9 0.640798 0.250000 0.586199
O O10 0.537253 0.547329 0.676948
O O11 0.722742 0.517510 0.549952
O O12 0.812386 0.471305 0.324181
O O13 0.594943 0.750000 0.952638
O O14 0.739125 0.034580 0.752862
O O15 0.442302 0.027206 0.152500
O O16 0.334367 0.750000 0.873681
O O17 0.282770 0.750000 0.371493
O O18 0.154556 0.473259 0.482662
O O19 0.885245 0.750000 0.557340
O O20 0.830347 0.750000 0.238779
O O21 0.000000 0.500000 0.000000
#
# Coordination Sequence:
#
# PCOD9159996 Si02
#       8
#     4   4   4   4   4   4   4   4
#     4  10  20  35  55  80 107 139 181 226 272 327
#     4   9  19  35  55  80 110 141 177 221 265 317
#     4  10  19  34  57  82 109 142 184 227 267 319
#     4  10  20  36  56  79 106 140 184 229 274 328
#     4   9  18  34  55  78 107 140 181 224 265 319
#     4  10  21  36  54  78 109 142 182 228 273 324
#     4  10  22  36  52  78 112 144 179 227 278 329
#     4  10  21  38  59  85 115 146 182 225 268 319
#
# _framework density 21.364616999999999
#
# number of rings (size 3 to 8) (size 9 to 14) (size 15 to 20)
#    0.000    2.250    1.250    2.250    0.000    5.000 
#    2.250    0.000    0.000    0.000    0.000    0.000 
#    0.000    0.000    0.000    0.000    0.000    0.000 
#
# Total GULP energy -178630.466791 kJ/mol
# GULP energy per Si atom -5582.202087 kJ/mol
# Density = 2.131599 g / cm^3
# Si number density = 21.364617 Si / 1000 Ang^3
#
#
#
# Elastic Constant Matrix: (Units=GPa)
#
#
# Indices 1 2 3 4 5 6 
#
# 1 60.1921 -11.9933 7.5395 0.0000 17.9270 0.0000
# 2 -11.9933 49.3495 -3.5948 0.0000 1.5791 0.0000
# 3 7.5395 -3.5948 82.8915 0.0000 14.0706 0.0000
# 4 0.0000 0.0000 0.0000 7.6388 0.0000 1.5152
# 5 17.9270 1.5791 14.0706 0.0000 35.5765 0.0000
# 6 0.0000 0.0000 0.0000 1.5152 0.0000 24.4159
#
#
#
# Elastic Compliance Matrix: (Units=1/GPa)
#
#
# Indices 1 2 3 4 5 6 
#
# 1 0.020905 0.005440 0.000175 0.000000 -0.010845 0.000000
# 2 0.005440 0.021804 0.001158 0.000000 -0.004167 0.000000
# 3 0.000175 0.001158 0.012994 0.000000 -0.005279 0.000000
# 4 0.000000 0.000000 0.000000 0.132542 0.000000 -0.008225
# 5 -0.010845 -0.004167 -0.005279 0.000000 0.035846 0.000000
# 6 0.000000 0.000000 0.000000 -0.008225 0.000000 0.041467
#
#
# Mechanical properties :
#
#
# Convention : Reuss Voigt Hill
#
# Bulk Modulus (GPa) = 14.44018 19.59287 17.01653
# Shear Modulus (GPa) = 18.17552 26.89168 22.53360
#
# Velocity S-wave (km/s) = 2.91989 3.55167 3.25116
# Velocity P-wave (km/s) = 4.25926 5.09997 4.69846
#
# Compressibility (1/GPa) = 0.06925121
#
# Stress axis : x y z
#
# Youngs Moduli (GPa) = 47.83432 45.86413 76.95658
#
# Poissons Ratio (x) = -0.24952 -0.01350
# Poissons Ratio (y) = -0.26024 -0.08912
# Poissons Ratio (z) = -0.00839 -0.05312
#
# Static dielectric constant tensor:
#      x y z
#    x 1.755910 0.000000 0.037200 
#    y 0.000000 1.823380 0.000000 
#    z 0.037200 0.000000 1.793770 
# 
# From -- ./inp_files/66992.got.cif
#   From: 2010.05.17/outbox.cif.g08.bks.cpg/sg11_34_cif.got.tgz:66992.got - 2010.06.03 12:22:45.
