data_PCOD9159508
_publ_section_title
;
Structure prediction by ZEFSAII (Michael W. Deem and Ramdas Pophale) SiO2 
 PCOD9159508
Probable space group: P 21/M
;
_chemical_formula_sum "Si O2"
_cell_formula_units_Z 28
_cell_length_a 9.377987
_cell_length_b 9.098645
_cell_length_c 30.037739
_cell_angle_alpha 90.000000
_cell_angle_beta 38.699941
_cell_angle_gamma 90.000000
_cell_volume 1602.513245
_symmetry_space_group_name_H-M "P 21/M"
_symmetry_group_IT_number 11
_symmetry_cell_setting 'monoclinic'
loop_
_space_group_symop_operation_xyz
x,y,z
-x,1/2+y,-z
-x,-y,-z
x,1/2-y,z
loop_
_atom_site_type_symbol
_atom_site_label
_atom_site_fract_x
_atom_site_fract_y
_atom_site_fract_z
Si Si1 0.478282 0.580538 0.778280
Si Si2 0.503776 0.925830 0.367535
Si Si3 0.827497 0.425408 0.633903
Si Si4 0.079884 0.927417 0.935181
Si Si5 0.866909 0.420329 0.222396
Si Si6 0.743710 0.573254 0.935644
Si Si7 0.642570 0.927346 0.504884
O O1 0.540095 0.750000 0.771247
O O2 0.696713 0.493943 0.707804
O O3 0.329365 0.524963 0.856252
O O4 0.299748 0.578352 0.780303
O O5 0.502413 0.750000 0.374014
O O6 0.313257 0.965174 0.376534
O O7 0.744262 0.980082 0.288721
O O8 0.445915 0.008791 0.426914
O O9 0.815514 0.250000 0.640619
O O10 0.090631 0.467894 0.565678
O O11 0.086660 0.750000 0.937492
O O12 0.898135 0.963778 0.940859
O O13 0.000000 0.000000 0.000000
O O14 0.880719 0.250000 0.233837
O O15 0.110904 0.469721 0.143661
O O16 0.722828 0.750000 0.939236
O O17 0.500000 0.500000 0.000000
O O18 0.623782 0.750000 0.508669
O O19 0.500000 0.000000 0.500000
#
# Coordination Sequence:
#
# PCOD9159508 Si02
#       7
#     4   4   4   4   4   4   4
#     4   8  15  29  50  73  98 128 165 206 247 290
#     4  10  19  33  55  81 102 125 163 208 250 297
#     4   9  19  34  54  79 102 125 162 208 250 293
#     4   9  18  32  49  73 102 132 166 205 247 294
#     4   8  15  30  50  72  99 131 165 206 250 291
#     4   9  18  32  50  73 102 133 168 207 249 296
#     4  11  23  38  53  73 104 138 167 200 245 297
#
# _framework density 17.472555
#
# number of rings (size 3 to 8) (size 9 to 14) (size 15 to 20)
#    0.000    2.857    0.000    3.000    0.000    3.429 
#    0.000    4.286    0.000    3.429    0.000    0.000 
#    0.000    0.000    0.000    0.000    0.000    0.000 
#
# Total GULP energy -156049.173112 kJ/mol
# GULP energy per Si atom -5573.184754 kJ/mol
# Density = 1.743279 g / cm^3
# Si number density = 17.472555 Si / 1000 Ang^3
#
#
#
# Elastic Constant Matrix: (Units=GPa)
#
#
# Indices 1 2 3 4 5 6 
#
# 1 57.5006 37.6763 75.5005 0.0000 -2.3407 0.0000
# 2 37.6763 41.3355 65.2184 0.0000 0.4130 0.0000
# 3 75.5005 65.2184 204.9439 0.0000 -0.8533 0.0000
# 4 0.0000 0.0000 0.0000 38.8331 0.0000 0.9800
# 5 -2.3407 0.4130 -0.8533 0.0000 25.2817 0.0000
# 6 0.0000 0.0000 0.0000 0.9800 0.0000 24.5202
#
#
#
# Elastic Compliance Matrix: (Units=1/GPa)
#
#
# Indices 1 2 3 4 5 6 
#
# 1 0.049044 -0.032688 -0.007646 0.000000 0.004817 0.000000
# 2 -0.032688 0.070418 -0.010386 0.000000 -0.004527 0.000000
# 3 -0.007646 -0.010386 0.011000 0.000000 -0.000167 0.000000
# 4 0.000000 0.000000 0.000000 0.025777 0.000000 -0.001030
# 5 0.004817 -0.004527 -0.000167 0.000000 0.040069 0.000000
# 6 0.000000 0.000000 0.000000 -0.001030 0.000000 0.040824
#
#
# Mechanical properties :
#
#
# Convention : Reuss Voigt Hill
#
# Bulk Modulus (GPa) = 34.45362 73.39670 53.92516
# Shear Modulus (GPa) = 14.35776 26.08601 20.22188
#
# Velocity S-wave (km/s) = 2.86970 3.86809 3.40568
# Velocity P-wave (km/s) = 5.54452 7.87703 6.81136
#
# Compressibility (1/GPa) = 0.02902452
#
# Stress axis : x y z
#
# Youngs Moduli (GPa) = 20.38983 14.20099 90.90715
#
# Poissons Ratio (x) = 0.46420 0.69503
# Poissons Ratio (y) = 0.66649 0.94412
# Poissons Ratio (z) = 0.15589 0.14749
#
# Static dielectric constant tensor:
#      x y z
#    x 1.587690 0.000000 -0.007210 
#    y 0.000000 1.585480 0.000000 
#    z -0.007210 0.000000 1.600700 
# 
# From -- ./inp_files/70826.got.cif
#   From: 2010.05.17/outbox.cif.g08.bks.cpg/sg11_36_cif.got.tgz:70826.got - 2010.06.03 12:22:45.
