data_PCOD9159222
_publ_section_title
;
Structure prediction by ZEFSAII (Michael W. Deem and Ramdas Pophale) SiO2 
 PCOD9159222
Probable space group: P 21/M
;
_chemical_formula_sum "Si O2"
_cell_formula_units_Z 32
_cell_length_a 17.456993
_cell_length_b 8.502569
_cell_length_c 26.531623
_cell_angle_alpha 90.000000
_cell_angle_beta 153.591703
_cell_angle_gamma 90.000000
_cell_volume 1751.515196
_symmetry_space_group_name_H-M "P 21/M"
_symmetry_group_IT_number 11
_symmetry_cell_setting 'monoclinic'
loop_
_space_group_symop_operation_xyz
x,y,z
-x,1/2+y,-z
-x,-y,-z
x,1/2-y,z
loop_
_atom_site_type_symbol
_atom_site_label
_atom_site_fract_x
_atom_site_fract_y
_atom_site_fract_z
Si Si1 0.026446 0.939753 0.958916
Si Si2 0.229925 0.938386 0.822780
Si Si3 0.602000 0.058033 0.866621
Si Si4 0.592488 0.565835 0.343404
Si Si5 0.559796 0.059674 0.957234
Si Si6 0.670889 0.068482 0.724066
Si Si7 0.148325 0.938532 0.420581
Si Si8 0.585469 0.071165 0.501311
O O1 0.012524 0.750000 0.949557
O O2 0.210239 0.985133 0.044111
O O3 0.868004 0.020494 0.837094
O O4 0.000000 0.000000 0.000000
O O5 0.223416 0.750000 0.817728
O O6 0.382699 0.997229 0.876594
O O7 0.288862 0.987136 0.914284
O O8 0.046676 0.004026 0.697327
O O9 0.595041 0.250000 0.861931
O O10 0.456244 0.003545 0.740800
O O11 0.581788 0.006615 0.912503
O O12 0.637032 0.750000 0.365475
O O13 0.414144 0.557550 0.270493
O O14 0.741661 0.489263 0.465368
O O15 0.554542 0.250000 0.954038
O O16 0.644524 0.250000 0.692182
O O17 0.561844 0.947581 0.627232
O O18 0.152258 0.750000 0.421285
O O19 0.250233 0.001658 0.430849
O O20 0.628306 0.250000 0.538156
O O21 0.500000 0.000000 0.500000
#
# Coordination Sequence:
#
# PCOD9159222 Si02
#       8
#     4   4   4   4   4   4   4   4
#     4  11  20  32  50  76 108 144 184 224 268 324
#     4  10  20  36  59  85 110 139 178 220 275 335
#     4   9  18  34  55  80 109 143 183 224 274 330
#     4   9  17  33  54  76 106 142 179 220 267 323
#     4   9  19  37  60  82 107 140 176 223 275 325
#     4  10  19  33  51  74 104 143 184 225 271 319
#     4  10  21  36  56  81 107 141 184 225 268 320
#     4  10  21  36  53  77 108 144 182 227 272 319
#
# _framework density 18.269895000000002
#
# number of rings (size 3 to 8) (size 9 to 14) (size 15 to 20)
#    0.000    2.250    1.250    1.875    0.000    3.500 
#    0.000    3.750    0.000    0.000    0.000    0.000 
#    0.000    0.000    0.000    0.000    0.000    0.000 
#
# Total GULP energy -178317.304199 kJ/mol
# GULP energy per Si atom -5572.415756 kJ/mol
# Density = 1.822831 g / cm^3
# Si number density = 18.269895 Si / 1000 Ang^3
#
#
#
# Elastic Constant Matrix: (Units=GPa)
#
#
# Indices 1 2 3 4 5 6 
#
# 1 119.9500 20.6555 63.7910 0.0000 -13.7182 0.0000
# 2 20.6555 28.9225 19.6042 0.0000 0.3297 0.0000
# 3 63.7910 19.6042 132.6511 0.0000 9.3593 0.0000
# 4 0.0000 0.0000 0.0000 25.0363 0.0000 2.1024
# 5 -13.7182 0.3297 9.3593 0.0000 19.9115 0.0000
# 6 0.0000 0.0000 0.0000 2.1024 0.0000 23.3791
#
#
#
# Elastic Compliance Matrix: (Units=1/GPa)
#
#
# Indices 1 2 3 4 5 6 
#
# 1 0.014706 -0.005794 -0.007175 0.000000 0.013600 0.000000
# 2 -0.005794 0.040792 -0.003013 0.000000 -0.003251 0.000000
# 3 -0.007175 -0.003013 0.012184 0.000000 -0.010620 0.000000
# 4 0.000000 0.000000 0.000000 0.040246 0.000000 -0.003619
# 5 0.013600 -0.003251 -0.010620 0.000000 0.064638 0.000000
# 6 0.000000 0.000000 0.000000 -0.003619 0.000000 0.043099
#
#
# Mechanical properties :
#
#
# Convention : Reuss Voigt Hill
#
# Bulk Modulus (GPa) = 27.99746 54.40278 41.20012
# Shear Modulus (GPa) = 19.26523 25.49690 22.38106
#
# Velocity S-wave (km/s) = 3.25080 3.73978 3.50383
# Velocity P-wave (km/s) = 5.42659 6.96347 6.24251
#
# Compressibility (1/GPa) = 0.03571752
#
# Stress axis : x y z
#
# Youngs Moduli (GPa) = 68.00024 24.51447 82.07682
#
# Poissons Ratio (x) = 0.14204 0.58892
# Poissons Ratio (y) = 0.39399 0.24729
# Poissons Ratio (z) = 0.48792 0.07386
#
# Static dielectric constant tensor:
#      x y z
#    x 1.601940 0.000000 0.027900 
#    y 0.000000 1.634340 0.000000 
#    z 0.027900 0.000000 1.575480 
# 
# From -- ./inp_files/69160.got.cif
#   From: 2010.05.17/outbox.cif.g08.bks.cpg/sg11_35_cif.got.tgz:69160.got - 2010.06.03 12:22:45.
