data_PCOD9159795
_publ_section_title
;
Structure prediction by ZEFSAII (Michael W. Deem and Ramdas Pophale) SiO2 
 PCOD9159795
Probable space group: P 21/M
;
_chemical_formula_sum "Si O2"
_cell_formula_units_Z 32
_cell_length_a 5.252218
_cell_length_b 12.119502
_cell_length_c 22.377601
_cell_angle_alpha 90.000000
_cell_angle_beta 77.079715
_cell_angle_gamma 90.000000
_cell_volume 1388.366199
_symmetry_space_group_name_H-M "P 21/M"
_symmetry_group_IT_number 11
_symmetry_cell_setting 'monoclinic'
loop_
_space_group_symop_operation_xyz
x,y,z
-x,1/2+y,-z
-x,-y,-z
x,1/2-y,z
loop_
_atom_site_type_symbol
_atom_site_label
_atom_site_fract_x
_atom_site_fract_y
_atom_site_fract_z
Si Si1 0.783694 0.378932 0.951873
Si Si2 0.417557 0.005327 0.210589
Si Si3 0.689186 0.013778 0.080892
Si Si4 0.962820 0.627212 0.575463
Si Si5 0.498537 0.371049 0.320500
Si Si6 0.086892 0.128110 0.770365
Si Si7 0.425762 0.622272 0.474646
Si Si8 0.804426 0.943493 0.357350
O O1 0.809207 0.250000 0.939028
O O2 0.529894 0.429737 0.933003
O O3 0.044955 0.446325 0.921288
O O4 0.744556 0.400682 0.024998
O O5 0.569516 0.062533 0.148067
O O6 0.629408 0.915468 0.223516
O O7 0.154061 0.949991 0.201037
O O8 0.348628 0.081969 0.270996
O O9 0.047246 0.750000 0.596660
O O10 0.113851 0.626060 0.504493
O O11 0.036322 0.510389 0.601434
O O12 0.659401 0.630031 0.608246
O O13 0.587708 0.250000 0.302035
O O14 0.725882 0.454314 0.319993
O O15 0.048212 0.250000 0.796618
O O16 0.069895 0.133476 0.698323
O O17 0.500000 0.500000 0.500000
O O18 0.512429 0.750000 0.489951
O O19 0.555459 0.610777 0.402961
#
# Coordination Sequence:
#
# PCOD9159795 Si02
#       8
#     4   4   4   4   4   4   4   4
#     4  10  21  39  63  89 121 158 193 241 298 348
#     4  11  23  40  59  88 121 155 201 247 292 355
#     4  10  22  38  60  90 121 154 199 243 288 354
#     4   9  17  33  54  77 107 144 191 246 303 366
#     4  10  21  36  56  81 112 155 198 246 305 365
#     4  11  23  38  58  83 118 160 201 248 303 359
#     4   9  18  32  55  82 111 149 199 258 319 381
#     4  10  19  34  54  77 113 147 198 249 312 363
#
# _framework density 23.048676
#
# number of rings (size 3 to 8) (size 9 to 14) (size 15 to 20)
#    0.000    2.000    1.250    2.250    0.000    4.500 
#    0.000    0.000    0.000    4.500    0.000    0.000 
#    0.000    0.000    0.000    0.000    0.000    0.000 
#
# Total GULP energy -178149.643131 kJ/mol
# GULP energy per Si atom -5567.176348 kJ/mol
# Density = 2.299622 g / cm^3
# Si number density = 23.048676 Si / 1000 Ang^3
#
#
#
# Elastic Constant Matrix: (Units=GPa)
#
#
# Indices 1 2 3 4 5 6 
#
# 1 79.2872 25.7206 10.2013 0.0000 -5.4033 0.0000
# 2 25.7206 125.3845 13.7346 0.0000 4.2136 0.0000
# 3 10.2013 13.7346 117.9389 0.0000 -21.5205 0.0000
# 4 0.0000 0.0000 0.0000 -4.6742 0.0000 -2.3330
# 5 -5.4033 4.2136 -21.5205 0.0000 35.5543 0.0000
# 6 0.0000 0.0000 0.0000 -2.3330 0.0000 15.2115
#
#
#
# Elastic Compliance Matrix: (Units=1/GPa)
#
#
# Indices 1 2 3 4 5 6 
#
# 1 0.013739 -0.002839 -0.000467 0.000000 0.002142 0.000000
# 2 -0.002839 0.008760 -0.001172 0.000000 -0.002179 0.000000
# 3 -0.000467 -0.001172 0.009745 0.000000 0.005966 0.000000
# 4 0.000000 0.000000 0.000000 -0.198729 0.000000 -0.030479
# 5 0.002142 -0.002179 0.005966 0.000000 0.032321 0.000000
# 6 0.000000 0.000000 0.000000 -0.030479 0.000000 0.061065
#
#
# Mechanical properties :
#
#
# Convention : Reuss Voigt Hill
#
# Bulk Modulus (GPa) = 42.94270 46.88040 44.91155
# Shear Modulus (GPa) = -88.68268 27.41527 -30.63371
#
# Velocity S-wave (km/s) = -6.20965 3.45258 -3.64962
# Velocity P-wave (km/s) = 5.72200 6.02309 1.32973
#
# Compressibility (1/GPa) = 0.02328685
#
# Stress axis : x y z
#
# Youngs Moduli (GPa) = 72.78299 114.16146 102.62194
#
# Poissons Ratio (x) = 0.32413 0.04792
# Poissons Ratio (y) = 0.20665 0.12029
# Poissons Ratio (z) = 0.03399 0.13381
#
# Static dielectric constant tensor:
#      x y z
#    x 1.906700 0.000000 0.052260 
#    y 0.000000 1.898200 0.000000 
#    z 0.052260 0.000000 1.951900 
# 
# From -- ./inp_files/67613.got.cif
#   From: 2010.05.17/outbox.cif.g08.bks.cpg/sg11_34_cif.got.tgz:67613.got - 2010.06.03 12:22:45.
