data_PCOD9159929
_publ_section_title
;
Structure prediction by ZEFSAII (Michael W. Deem and Ramdas Pophale) SiO2 
 PCOD9159929
Probable space group: P 21/M
;
_chemical_formula_sum "Si O2"
_cell_formula_units_Z 28
_cell_length_a 14.661768
_cell_length_b 8.729477
_cell_length_c 16.612139
_cell_angle_alpha 90.000000
_cell_angle_beta 40.343171
_cell_angle_gamma 90.000000
_cell_volume 1376.413221
_symmetry_space_group_name_H-M "P 21/M"
_symmetry_group_IT_number 11
_symmetry_cell_setting 'monoclinic'
loop_
_space_group_symop_operation_xyz
x,y,z
-x,1/2+y,-z
-x,-y,-z
x,1/2-y,z
loop_
_atom_site_type_symbol
_atom_site_label
_atom_site_fract_x
_atom_site_fract_y
_atom_site_fract_z
Si Si1 0.422160 0.564808 0.474658
Si Si2 0.941065 0.074779 0.459772
Si Si3 0.657172 0.931351 0.904613
Si Si4 0.413164 0.065009 0.798058
Si Si5 0.826168 0.432375 0.942895
Si Si6 0.667537 0.073447 0.736423
Si Si7 0.093383 0.936244 0.692827
O O1 0.500000 0.500000 0.500000
O O2 0.423843 0.750000 0.473952
O O3 0.509111 0.516581 0.336328
O O4 0.257233 0.518865 0.588458
O O5 0.989074 0.250000 0.425326
O O6 0.773502 0.073803 0.590094
O O7 0.961552 0.007419 0.357899
O O8 0.000000 0.000000 0.500000
O O9 0.652058 0.750000 0.920763
O O10 0.743393 0.005873 0.919277
O O11 0.721068 0.971804 0.774086
O O12 0.500000 0.000000 0.000000
O O13 0.401559 0.250000 0.805516
O O14 0.518337 0.024308 0.800988
O O15 0.263736 0.992196 0.920517
O O16 0.828166 0.250000 0.940450
O O17 0.984319 0.498235 0.830685
O O18 0.659290 0.250000 0.770569
O O19 0.086841 0.750000 0.697653
#
# Coordination Sequence:
#
# PCOD9159929 Si02
#       7
#     4   4   4   4   4   4   4
#     4  10  22  43  72 101 126 159 204 257 322 385
#     4  10  20  34  54  82 117 159 205 251 299 360
#     4  12  23  35  52  80 120 168 216 259 305 362
#     4  10  20  39  65  89 119 161 203 251 311 371
#     4  12  25  39  58  90 127 166 211 259 310 366
#     4  10  19  34  56  81 113 155 207 258 302 356
#     4  10  21  41  64  89 125 167 206 252 314 378
#
# _framework density 20.342727
#
# number of rings (size 3 to 8) (size 9 to 14) (size 15 to 20)
#    0.000    1.429    2.857    3.429    0.000    4.571 
#    0.000    0.714    0.000    0.000    0.000    0.000 
#    0.000    0.000    0.000    0.000    0.000    0.000 
#
# Total GULP energy -156380.313668 kJ/mol
# GULP energy per Si atom -5585.011202 kJ/mol
# Density = 2.029643 g / cm^3
# Si number density = 20.342727 Si / 1000 Ang^3
#
#
#
# Elastic Constant Matrix: (Units=GPa)
#
#
# Indices 1 2 3 4 5 6 
#
# 1 86.1071 29.4768 54.8564 0.0000 -4.4098 0.0000
# 2 29.4768 54.2630 39.3404 0.0000 -1.5386 0.0000
# 3 54.8564 39.3404 170.4355 0.0000 -11.6602 0.0000
# 4 0.0000 0.0000 0.0000 24.8432 0.0000 2.1294
# 5 -4.4098 -1.5386 -11.6602 0.0000 21.7295 0.0000
# 6 0.0000 0.0000 0.0000 2.1294 0.0000 26.4295
#
#
#
# Elastic Compliance Matrix: (Units=1/GPa)
#
#
# Indices 1 2 3 4 5 6 
#
# 1 0.016093 -0.006011 -0.003735 0.000000 0.000836 0.000000
# 2 -0.006011 0.024409 -0.003804 0.000000 -0.001533 0.000000
# 3 -0.003735 -0.003804 0.008178 0.000000 0.003361 0.000000
# 4 0.000000 0.000000 0.000000 0.040532 0.000000 -0.003266
# 5 0.000836 -0.001533 0.003361 0.000000 0.047885 0.000000
# 6 0.000000 0.000000 0.000000 -0.003266 0.000000 0.038100
#
#
# Mechanical properties :
#
#
# Convention : Reuss Voigt Hill
#
# Bulk Modulus (GPa) = 46.34086 62.01698 54.17892
# Shear Modulus (GPa) = 23.86750 27.07592 25.47171
#
# Velocity S-wave (km/s) = 3.42902 3.65223 3.54238
# Velocity P-wave (km/s) = 6.20541 6.95250 6.58955
#
# Compressibility (1/GPa) = 0.02157923
#
# Stress axis : x y z
#
# Youngs Moduli (GPa) = 62.13701 40.96933 122.28499
#
# Poissons Ratio (x) = 0.24625 0.45677
# Poissons Ratio (y) = 0.37348 0.46522
# Poissons Ratio (z) = 0.23210 0.15586
#
# Static dielectric constant tensor:
#      x y z
#    x 1.705590 0.000000 -0.028340 
#    y 0.000000 1.675100 0.000000 
#    z -0.028340 0.000000 1.845190 
# 
# From -- ./inp_files/60094.got.cif
#   From: 2010.05.17/outbox.cif.g08.bks.cpg/sg11_31_cif.got.tgz:60094.got - 2010.06.03 12:22:45.
