data_PCOD9159178
_publ_section_title
;
Structure prediction by ZEFSAII (Michael W. Deem and Ramdas Pophale) SiO2 
 PCOD9159178
Probable space group: P 21/M
;
_chemical_formula_sum "Si O2"
_cell_formula_units_Z 20
_cell_length_a 12.550352
_cell_length_b 10.125530
_cell_length_c 10.708348
_cell_angle_alpha 90.000000
_cell_angle_beta 41.873265
_cell_angle_gamma 90.000000
_cell_volume 908.317692
_symmetry_space_group_name_H-M "P 21/M"
_symmetry_group_IT_number 11
_symmetry_cell_setting 'monoclinic'
loop_
_space_group_symop_operation_xyz
x,y,z
-x,1/2+y,-z
-x,-y,-z
x,1/2-y,z
loop_
_atom_site_type_symbol
_atom_site_label
_atom_site_fract_x
_atom_site_fract_y
_atom_site_fract_z
Si Si1 0.990281 0.750000 0.788670
Si Si2 0.573479 0.750000 0.354186
Si Si3 0.058672 0.250000 0.890134
Si Si4 0.338426 0.250000 0.066797
Si Si5 0.039624 0.535583 0.222191
Si Si6 0.559937 0.750000 0.648879
Si Si7 0.414096 0.021921 0.857508
Si Si8 0.879894 0.750000 0.500349
O O1 0.041927 0.607662 0.693880
O O2 0.799141 0.750000 0.922406
O O3 0.030085 0.750000 0.899735
O O4 0.759489 0.750000 0.226145
O O5 0.498747 0.750000 0.558620
O O6 0.544616 0.618035 0.296755
O O7 0.016022 0.119766 0.849053
O O8 0.229243 0.250000 0.283202
O O9 0.440894 0.119336 0.952234
O O10 0.991150 0.623573 0.382838
O O11 0.227769 0.517544 0.035348
O O12 0.503806 0.615520 0.763711
O O13 0.750561 0.750000 0.500774
#
# Coordination Sequence:
#
# PCOD9159178 Si02
#       8
#     2   2   2   2   4   2   4   2
#     4  10  19  32  58  85 115 149 188 225 283 347
#     4  11  20  39  58  86 120 153 181 236 282 344
#     4  11  17  32  58  84 119 145 180 225 286 332
#     4   9  21  43  60  79 113 156 192 239 289 333
#     4  10  20  37  58  88 116 148 189 234 284 341
#     4  12  23  38  58  88 115 151 195 238 277 340
#     4  10  22  40  62  82 116 156 191 224 291 349
#     4  11  24  38  60  84 118 146 194 249 283 320
#
# _framework density 22.018726000000001
#
# number of rings (size 3 to 8) (size 9 to 14) (size 15 to 20)
#    0.000    1.600    6.000    2.400    0.000    4.000 
#    0.000    3.000    0.000    0.000    0.000    0.000 
#    0.000    0.000    0.000    0.000    0.000    0.000 
#
# Total GULP energy -111467.032815 kJ/mol
# GULP energy per Si atom -5573.351641 kJ/mol
# Density = 2.196861 g / cm^3
# Si number density = 22.018726 Si / 1000 Ang^3
#
#
#
# Elastic Constant Matrix: (Units=GPa)
#
#
# Indices 1 2 3 4 5 6 
#
# 1 20.1410 7.2580 9.0090 0.0000 6.4545 0.0000
# 2 7.2580 211.3028 54.0680 0.0000 3.6690 0.0000
# 3 9.0090 54.0680 77.0651 0.0000 25.6861 0.0000
# 4 0.0000 0.0000 0.0000 16.3533 0.0000 5.2079
# 5 6.4545 3.6690 25.6861 0.0000 33.2559 0.0000
# 6 0.0000 0.0000 0.0000 5.2079 0.0000 14.6085
#
#
#
# Elastic Compliance Matrix: (Units=1/GPa)
#
#
# Indices 1 2 3 4 5 6 
#
# 1 0.053900 -0.000961 -0.002929 0.000000 -0.008093 0.000000
# 2 -0.000961 0.006077 -0.005373 0.000000 0.003666 0.000000
# 3 -0.002929 -0.005373 0.022491 0.000000 -0.016210 0.000000
# 4 0.000000 0.000000 0.000000 0.068981 0.000000 -0.024592
# 5 -0.008093 0.003666 -0.016210 0.000000 0.043757 0.000000
# 6 0.000000 0.000000 0.000000 -0.024592 0.000000 0.077220
#
#
# Mechanical properties :
#
#
# Convention : Reuss Voigt Hill
#
# Bulk Modulus (GPa) = 15.63943 49.90877 32.77410
# Shear Modulus (GPa) = 16.01196 28.72178 22.36687
#
# Velocity S-wave (km/s) = 2.69959 3.61560 3.19064
# Velocity P-wave (km/s) = 4.10307 6.33607 5.33765
#
# Compressibility (1/GPa) = 0.06394094
#
# Stress axis : x y z
#
# Youngs Moduli (GPa) = 18.55285 164.56253 44.46232
#
# Poissons Ratio (x) = 0.15821 0.13024
# Poissons Ratio (y) = 0.01784 0.23889
# Poissons Ratio (z) = 0.05434 0.88417
#
# Static dielectric constant tensor:
#      x y z
#    x 1.836360 0.000000 0.065550 
#    y 0.000000 1.826150 0.000000 
#    z 0.065550 0.000000 1.860090 
# 
# From -- ./inp_files/39180.got.cif
#   From: 2010.05.17/outbox.cif.g08.bks.cpg/sg11_20_cif.got.tgz:39180.got - 2010.06.03 12:22:45.
