data_PCOD9159839
_publ_section_title
;
Structure prediction by ZEFSAII (Michael W. Deem and Ramdas Pophale) SiO2 
 PCOD9159839
Probable space group: P 21/M
;
_chemical_formula_sum "Si O2"
_cell_formula_units_Z 28
_cell_length_a 8.717014
_cell_length_b 10.202933
_cell_length_c 28.119023
_cell_angle_alpha 90.000000
_cell_angle_beta 142.267692
_cell_angle_gamma 90.000000
_cell_volume 1530.471818
_symmetry_space_group_name_H-M "P 21/M"
_symmetry_group_IT_number 11
_symmetry_cell_setting 'monoclinic'
loop_
_space_group_symop_operation_xyz
x,y,z
-x,1/2+y,-z
-x,-y,-z
x,1/2-y,z
loop_
_atom_site_type_symbol
_atom_site_label
_atom_site_fract_x
_atom_site_fract_y
_atom_site_fract_z
Si Si1 0.651240 0.099042 0.404504
Si Si2 0.746980 0.521483 0.326360
Si Si3 0.298982 0.903916 0.475460
Si Si4 0.629312 0.398280 0.200343
Si Si5 0.079114 0.103426 0.236953
Si Si6 0.177807 0.906013 0.074574
Si Si7 0.180258 0.892065 0.184633
O O1 0.731285 0.250000 0.421074
O O2 0.721983 0.052946 0.474342
O O3 0.350096 0.091469 0.327744
O O4 0.746007 0.030554 0.380090
O O5 0.709185 0.416039 0.274968
O O6 0.485423 0.601217 0.258999
O O7 0.018187 0.586480 0.385099
O O8 0.378583 0.750000 0.493695
O O9 0.500000 0.000000 0.500000
O O10 0.524157 0.250000 0.168405
O O11 0.440808 0.515200 0.140483
O O12 0.867203 0.411532 0.224395
O O13 0.061531 0.250000 0.212468
O O14 0.074618 0.001827 0.193123
O O15 0.191977 0.750000 0.064341
O O16 0.093563 0.907525 0.109162
O O17 0.000000 0.000000 0.000000
O O18 0.104586 0.750000 0.184276
#
# Coordination Sequence:
#
# PCOD9159839 Si02
#       7
#     4   4   4   4   4   4   4
#     4   9  18  33  53  77 105 139 180 225 271 320
#     4  10  19  34  55  79 104 138 180 226 272 322
#     4  11  23  37  52  74 107 143 182 229 277 325
#     4  10  20  35  58  84 110 141 177 219 267 319
#     4   9  18  33  53  79 108 139 178 220 264 318
#     4  10  21  37  58  84 113 143 179 219 261 313
#     4   9  19  35  55  79 107 139 175 218 265 315
#
# _framework density 18.295013000000001
#
# number of rings (size 3 to 8) (size 9 to 14) (size 15 to 20)
#    0.000    2.286    0.000    2.571    0.000    7.429 
#    0.000    7.143    0.000    0.000    0.000    0.000 
#    0.000    0.000    0.000    0.000    0.000    0.000 
#
# Total GULP energy -155920.988550 kJ/mol
# GULP energy per Si atom -5568.606734 kJ/mol
# Density = 1.825337 g / cm^3
# Si number density = 18.295013 Si / 1000 Ang^3
#
#
#
# Elastic Constant Matrix: (Units=GPa)
#
#
# Indices 1 2 3 4 5 6 
#
# 1 71.7678 60.1663 44.9994 0.0000 -0.8156 0.0000
# 2 60.1663 131.2672 55.2293 0.0000 -6.5834 0.0000
# 3 44.9994 55.2293 70.4779 0.0000 -16.7703 0.0000
# 4 0.0000 0.0000 0.0000 24.0609 0.0000 -6.1088
# 5 -0.8156 -6.5834 -16.7703 0.0000 18.8748 0.0000
# 6 0.0000 0.0000 0.0000 -6.1088 0.0000 20.6320
#
#
#
# Elastic Compliance Matrix: (Units=1/GPa)
#
#
# Indices 1 2 3 4 5 6 
#
# 1 0.031744 -0.007664 -0.018479 0.000000 -0.017720 0.000000
# 2 -0.007664 0.013601 -0.005980 0.000000 -0.000900 0.000000
# 3 -0.018479 -0.005980 0.038027 0.000000 0.030903 0.000000
# 4 0.000000 0.000000 0.000000 0.044939 0.000000 0.013306
# 5 -0.017720 -0.000900 0.030903 0.000000 0.079358 0.000000
# 6 0.000000 0.000000 0.000000 0.013306 0.000000 0.052408
#
#
# Mechanical properties :
#
#
# Convention : Reuss Voigt Hill
#
# Bulk Modulus (GPa) = 52.28116 66.03365 59.15741
# Shear Modulus (GPa) = 15.11953 20.25472 17.68712
#
# Velocity S-wave (km/s) = 2.87789 3.33095 3.11267
# Velocity P-wave (km/s) = 6.29934 7.13903 6.73229
#
# Compressibility (1/GPa) = 0.01912735
#
# Stress axis : x y z
#
# Youngs Moduli (GPa) = 31.50219 73.52187 26.29727
#
# Poissons Ratio (x) = 0.56344 0.48595
# Poissons Ratio (y) = 0.24142 0.15725
# Poissons Ratio (z) = 0.58213 0.43963
#
# Static dielectric constant tensor:
#      x y z
#    x 1.607850 0.000000 0.007340 
#    y 0.000000 1.694270 0.000000 
#    z 0.007340 0.000000 1.649960 
# 
# From -- ./inp_files/72756.got.cif
#   From: 2010.05.17/outbox.cif.g08.bks.cpg/sg11_37_cif.got.tgz:72756.got - 2010.06.03 12:22:45.
