data_PCOD9159891
_publ_section_title
;
Structure prediction by ZEFSAII (Michael W. Deem and Ramdas Pophale) SiO2 
 PCOD9159891
Probable space group: P 21/M
;
_chemical_formula_sum "Si O2"
_cell_formula_units_Z 32
_cell_length_a 14.833632
_cell_length_b 8.276589
_cell_length_c 12.819612
_cell_angle_alpha 90.000000
_cell_angle_beta 90.412154
_cell_angle_gamma 90.000000
_cell_volume 1573.847087
_symmetry_space_group_name_H-M "P 21/M"
_symmetry_group_IT_number 11
_symmetry_cell_setting 'monoclinic'
loop_
_space_group_symop_operation_xyz
x,y,z
-x,1/2+y,-z
-x,-y,-z
x,1/2-y,z
loop_
_atom_site_type_symbol
_atom_site_label
_atom_site_fract_x
_atom_site_fract_y
_atom_site_fract_z
Si Si1 0.352200 0.052343 0.709266
Si Si2 0.028699 0.063665 0.612499
Si Si3 0.223044 0.062139 0.531099
Si Si4 0.268413 0.940031 0.319163
Si Si5 0.467173 0.554879 0.385357
Si Si6 0.980873 0.438096 0.167499
Si Si7 0.826475 0.944399 0.890404
Si Si8 0.782440 0.943069 0.113063
O O1 0.347489 0.250000 0.708843
O O2 0.304686 0.997871 0.601358
O O3 0.456405 0.006855 0.698342
O O4 0.292107 0.993689 0.805949
O O5 0.001556 0.250000 0.627409
O O6 0.137023 0.056565 0.605441
O O7 0.997390 0.959092 0.709494
O O8 0.000000 0.000000 0.500000
O O9 0.238432 0.250000 0.504583
O O10 0.210230 0.970740 0.422916
O O11 0.275297 0.750000 0.300852
O O12 0.368122 0.003967 0.350951
O O13 0.224445 0.014353 0.216326
O O14 0.500000 0.500000 0.500000
O O15 0.463771 0.750000 0.388360
O O16 0.969348 0.250000 0.142256
O O17 0.885740 0.523571 0.147042
O O18 0.069665 0.504944 0.110620
O O19 0.832891 0.750000 0.896303
O O20 0.776304 0.003726 0.994022
O O21 0.770586 0.750000 0.111801
#
# Coordination Sequence:
#
# PCOD9159891 Si02
#       8
#     4   4   4   4   4   4   4   4
#     4   9  17  34  59  83 107 140 180 225 276 329
#     4  11  22  35  51  77 111 149 189 228 274 331
#     4  10  19  34  56  78 107 147 184 221 273 333
#     4  11  23  36  55  85 117 146 183 232 283 331
#     4  10  20  35  57  85 113 144 180 224 278 336
#     4  11  22  36  55  83 114 147 186 231 281 331
#     4  10  23  40  58  80 111 152 193 229 274 335
#     4  10  20  39  63  84 107 146 197 235 271 325
#
# _framework density 20.332345
#
# number of rings (size 3 to 8) (size 9 to 14) (size 15 to 20)
#    0.000    1.750    2.500    2.250    0.000    6.000 
#    0.000    1.250    0.000    0.000    0.000    0.000 
#    0.000    0.000    0.000    0.000    0.000    0.000 
#
# Total GULP energy -178639.993574 kJ/mol
# GULP energy per Si atom -5582.499799 kJ/mol
# Density = 2.028607 g / cm^3
# Si number density = 20.332345 Si / 1000 Ang^3
#
#
#
# Elastic Constant Matrix: (Units=GPa)
#
#
# Indices 1 2 3 4 5 6 
#
# 1 83.3822 6.0733 36.3700 0.0000 -16.4320 0.0000
# 2 6.0733 7.4195 -1.4493 0.0000 -4.0273 0.0000
# 3 36.3700 -1.4493 121.5457 0.0000 -19.4856 0.0000
# 4 0.0000 0.0000 0.0000 13.5077 0.0000 1.1684
# 5 -16.4320 -4.0273 -19.4856 0.0000 29.1616 0.0000
# 6 0.0000 0.0000 0.0000 1.1684 0.0000 19.7039
#
#
#
# Elastic Compliance Matrix: (Units=1/GPa)
#
#
# Indices 1 2 3 4 5 6 
#
# 1 0.015435 -0.010986 -0.004030 0.000000 0.004487 0.000000
# 2 -0.010986 0.156953 0.008558 0.000000 0.021204 0.000000
# 3 -0.004030 0.008558 0.010484 0.000000 0.005916 0.000000
# 4 0.000000 0.000000 0.000000 0.074413 0.000000 -0.004412
# 5 0.004487 0.021204 0.005916 0.000000 0.043702 0.000000
# 6 0.000000 0.000000 0.000000 -0.004412 0.000000 0.051013
#
#
# Mechanical properties :
#
#
# Convention : Reuss Voigt Hill
#
# Bulk Modulus (GPa) = 5.88388 32.70392 19.29390
# Shear Modulus (GPa) = 11.86044 23.89821 17.87933
#
# Velocity S-wave (km/s) = 2.41784 3.43210 2.96861
# Velocity P-wave (km/s) = 3.27028 5.64139 4.61086
#
# Compressibility (1/GPa) = 0.16995595
#
# Stress axis : x y z
#
# Youngs Moduli (GPa) = 64.78589 6.37132 95.38468
#
# Poissons Ratio (x) = 0.07000 0.38444
# Poissons Ratio (y) = 0.71176 -0.81633
# Poissons Ratio (z) = 0.26111 -0.05453
#
# Static dielectric constant tensor:
#      x y z
#    x 1.768750 0.000000 -0.014380 
#    y 0.000000 1.710280 0.000000 
#    z -0.014380 0.000000 1.726170 
# 
# From -- ./inp_files/38175.got.cif
#   From: 2010.05.17/outbox.cif.g08.bks.cpg/sg11_20_cif.got.tgz:38175.got - 2010.06.03 12:22:45.
