data_PCOD9159738
_publ_section_title
;
Structure prediction by ZEFSAII (Michael W. Deem and Ramdas Pophale) SiO2 
 PCOD9159738
Probable space group: P 21/M
;
_chemical_formula_sum "Si O2"
_cell_formula_units_Z 28
_cell_length_a 12.855489
_cell_length_b 8.703332
_cell_length_c 15.453142
_cell_angle_alpha 90.000000
_cell_angle_beta 74.046344
_cell_angle_gamma 90.000000
_cell_volume 1662.390922
_symmetry_space_group_name_H-M "P 21/M"
_symmetry_group_IT_number 11
_symmetry_cell_setting 'monoclinic'
loop_
_space_group_symop_operation_xyz
x,y,z
-x,1/2+y,-z
-x,-y,-z
x,1/2-y,z
loop_
_atom_site_type_symbol
_atom_site_label
_atom_site_fract_x
_atom_site_fract_y
_atom_site_fract_z
Si Si1 0.257342 0.436862 0.087661
Si Si2 0.394475 0.434183 0.220224
Si Si3 0.016785 0.065483 0.092370
Si Si4 0.652510 0.066359 0.397362
Si Si5 0.578954 0.433620 0.603313
Si Si6 0.372647 0.435410 0.884386
Si Si7 0.195828 0.066496 0.777328
O O1 0.257501 0.250000 0.087458
O O2 0.311563 0.486783 0.164745
O O3 0.133822 0.485626 0.101108
O O4 0.329217 0.483474 0.988505
O O5 0.392015 0.250000 0.225778
O O6 0.371759 0.503276 0.319663
O O7 0.514318 0.487713 0.165204
O O8 0.016635 0.250000 0.087694
O O9 0.918318 0.008639 0.173759
O O10 0.000000 0.000000 0.000000
O O11 0.656037 0.250000 0.387325
O O12 0.645060 0.028381 0.501020
O O13 0.540456 0.005004 0.381941
O O14 0.750985 0.991746 0.323381
O O15 0.567343 0.250000 0.610943
O O16 0.386207 0.250000 0.880261
O O17 0.281215 0.473478 0.834240
O O18 0.184860 0.250000 0.779109
#
# Coordination Sequence:
#
# PCOD9159738 Si02
#       7
#     4   4   4   4   4   4   4
#     4   9  20  37  53  73 106 145 180 220 262 307
#     4  11  21  33  53  79 107 142 182 215 258 319
#     4  11  21  37  57  77 106 142 184 226 266 310
#     4  10  20  34  54  79 105 139 178 214 263 322
#     4  10  20  34  52  77 110 140 170 217 269 314
#     4  10  19  34  52  74 109 145 173 212 267 312
#     4  11  21  34  55  81 111 140 173 222 272 312
#
# _framework density 16.843211
#
# number of rings (size 3 to 8) (size 9 to 14) (size 15 to 20)
#    0.000    1.714    2.857    2.571    0.000    2.286 
#    0.000    3.571    0.000    0.857    0.000    0.000 
#    0.000    0.000    0.000    0.000    0.000    0.000 
#
# Total GULP energy -156362.182209 kJ/mol
# GULP energy per Si atom -5584.363650 kJ/mol
# Density = 1.680487 g / cm^3
# Si number density = 16.843211 Si / 1000 Ang^3
#
#
#
# Elastic Constant Matrix: (Units=GPa)
#
#
# Indices 1 2 3 4 5 6 
#
# 1 89.8786 28.8519 63.8110 0.0000 12.5695 0.0000
# 2 28.8519 37.3722 35.3754 0.0000 2.9552 0.0000
# 3 63.8110 35.3754 142.3066 0.0000 6.7582 0.0000
# 4 0.0000 0.0000 0.0000 30.7647 0.0000 -1.5266
# 5 12.5695 2.9552 6.7582 0.0000 26.3438 0.0000
# 6 0.0000 0.0000 0.0000 -1.5266 0.0000 19.4373
#
#
#
# Elastic Compliance Matrix: (Units=1/GPa)
#
#
# Indices 1 2 3 4 5 6 
#
# 1 0.019131 -0.008401 -0.006177 0.000000 -0.006601 0.000000
# 2 -0.008401 0.038757 -0.005923 0.000000 0.001180 0.000000
# 3 -0.006177 -0.005923 0.011235 0.000000 0.000730 0.000000
# 4 0.000000 0.000000 0.000000 0.032632 0.000000 0.002563
# 5 -0.006601 0.001180 0.000730 0.000000 0.040790 0.000000
# 6 0.000000 0.000000 0.000000 0.002563 0.000000 0.051649
#
#
# Mechanical properties :
#
#
# Convention : Reuss Voigt Hill
#
# Bulk Modulus (GPa) = 35.56096 58.40378 46.98237
# Shear Modulus (GPa) = 20.44409 24.74379 22.59394
#
# Velocity S-wave (km/s) = 3.48773 3.83700 3.66652
# Velocity P-wave (km/s) = 6.11373 7.37430 6.77341
#
# Compressibility (1/GPa) = 0.02812072
#
# Stress axis : x y z
#
# Youngs Moduli (GPa) = 52.27010 25.80169 89.01065
#
# Poissons Ratio (x) = 0.21676 0.54980
# Poissons Ratio (y) = 0.43912 0.52725
# Poissons Ratio (z) = 0.32286 0.15284
#
# Static dielectric constant tensor:
#      x y z
#    x 1.542260 0.000000 0.009590 
#    y 0.000000 1.571710 0.000000 
#    z 0.009590 0.000000 1.572060 
# 
# From -- ./inp_files/42589.got.cif
#   From: 2010.05.17/outbox.cif.g08.bks.cpg/sg11_22_cif.got.tgz:42589.got - 2010.06.03 12:22:45.
