data_PCOD9159990
_publ_section_title
;
Structure prediction by ZEFSAII (Michael W. Deem and Ramdas Pophale) SiO2 
 PCOD9159990
Probable space group: P 21/M
;
_chemical_formula_sum "Si O2"
_cell_formula_units_Z 20
_cell_length_a 8.625529
_cell_length_b 14.951339
_cell_length_c 14.506632
_cell_angle_alpha 90.000000
_cell_angle_beta 32.915223
_cell_angle_gamma 90.000000
_cell_volume 1016.599910
_symmetry_space_group_name_H-M "P 21/M"
_symmetry_group_IT_number 11
_symmetry_cell_setting 'monoclinic'
loop_
_space_group_symop_operation_xyz
x,y,z
-x,1/2+y,-z
-x,-y,-z
x,1/2-y,z
loop_
_atom_site_type_symbol
_atom_site_label
_atom_site_fract_x
_atom_site_fract_y
_atom_site_fract_z
Si Si1 0.718387 0.008610 0.701665
Si Si2 0.155411 0.078412 0.978972
Si Si3 0.581438 0.346188 0.239084
Si Si4 0.532666 0.857105 0.487016
Si Si5 0.026158 0.508656 0.736644
O O1 0.537997 0.919626 0.770064
O O2 0.821829 0.014004 0.754352
O O3 0.000000 0.000000 0.500000
O O4 0.488752 0.085321 0.789143
O O5 0.924864 0.154676 0.075808
O O6 0.135796 0.049018 0.095179
O O7 0.000000 0.000000 0.000000
O O8 0.472556 0.250000 0.264959
O O9 0.476635 0.365160 0.396108
O O10 0.535857 0.750000 0.463848
O O11 0.256124 0.914264 0.592931
O O12 0.799438 0.918500 0.322919
#
# Coordination Sequence:
#
# PCOD9159990 Si02
#       5
#     4   4   4   4   4
#     4  11  20  34  57  84 109 142 185 228 279 329
#     4   9  20  36  56  78 109 147 185 220 276 334
#     4   9  18  36  56  78 112 148 183 227 276 330
#     4   9  18  33  55  81 110 145 184 225 277 333
#     4  10  19  34  57  81 112 146 183 231 276 326
#
# _framework density 19.673421999999999
#
# number of rings (size 3 to 8) (size 9 to 14) (size 15 to 20)
#    0.000    2.400    2.000    0.600    2.800    0.800 
#    0.000    6.000    0.000    2.400    0.000    0.000 
#    0.000    0.000    0.000    0.000    0.000    0.000 
#
# Total GULP energy -111339.943379 kJ/mol
# GULP energy per Si atom -5566.997169 kJ/mol
# Density = 1.962864 g / cm^3
# Si number density = 19.673422 Si / 1000 Ang^3
#
#
#
# Elastic Constant Matrix: (Units=GPa)
#
#
# Indices 1 2 3 4 5 6 
#
# 1 54.2145 -8.6255 14.5422 0.0000 -20.2025 0.0000
# 2 -8.6255 86.5537 7.9817 0.0000 -11.8463 0.0000
# 3 14.5422 7.9817 98.2714 0.0000 -23.3663 0.0000
# 4 0.0000 0.0000 0.0000 4.3239 0.0000 -3.5412
# 5 -20.2025 -11.8463 -23.3663 0.0000 25.0442 0.0000
# 6 0.0000 0.0000 0.0000 -3.5412 0.0000 16.2440
#
#
#
# Elastic Compliance Matrix: (Units=1/GPa)
#
#
# Indices 1 2 3 4 5 6 
#
# 1 0.029844 0.006777 0.001953 0.000000 0.029103 0.000000
# 2 0.006777 0.013911 0.000940 0.000000 0.012925 0.000000
# 3 0.001953 0.000940 0.013225 0.000000 0.014359 0.000000
# 4 0.000000 0.000000 0.000000 0.281543 0.000000 0.061377
# 5 0.029103 0.012925 0.014359 0.000000 0.082916 0.000000
# 6 0.000000 0.000000 0.000000 0.061377 0.000000 0.074941
#
#
# Mechanical properties :
#
#
# Convention : Reuss Voigt Hill
#
# Bulk Modulus (GPa) = 13.10247 29.64850 21.37549
# Shear Modulus (GPa) = 9.95063 24.13183 17.04123
#
# Velocity S-wave (km/s) = 2.25142 3.50611 2.94633
# Velocity P-wave (km/s) = 3.66510 5.61191 4.73954
#
# Compressibility (1/GPa) = 0.07632147
#
# Stress axis : x y z
#
# Youngs Moduli (GPa) = 33.50704 71.88492 75.61615
#
# Poissons Ratio (x) = -0.48718 -0.14768
# Poissons Ratio (y) = -0.22708 -0.07111
# Poissons Ratio (z) = -0.06544 -0.06760
#
# Static dielectric constant tensor:
#      x y z
#    x 1.672810 0.000000 0.018400 
#    y 0.000000 1.715340 0.000000 
#    z 0.018400 0.000000 1.779990 
# 
# From -- ./inp_files/12222.got.cif
#   From: 2010.05.17/outbox.cif.g08.bks.cpg/sg11_7_cif.got.tgz:12222.got - 2010.06.03 12:22:45.
