data_PCOD9159388
_publ_section_title
;
Structure prediction by ZEFSAII (Michael W. Deem and Ramdas Pophale) SiO2 
 PCOD9159388
Probable space group: P 21/M
;
_chemical_formula_sum "Si O2"
_cell_formula_units_Z 30
_cell_length_a 26.339960
_cell_length_b 7.569261
_cell_length_c 10.868874
_cell_angle_alpha 90.000000
_cell_angle_beta 38.339049
_cell_angle_gamma 90.000000
_cell_volume 1344.202028
_symmetry_space_group_name_H-M "P 21/M"
_symmetry_group_IT_number 11
_symmetry_cell_setting 'monoclinic'
loop_
_space_group_symop_operation_xyz
x,y,z
-x,1/2+y,-z
-x,-y,-z
x,1/2-y,z
loop_
_atom_site_type_symbol
_atom_site_label
_atom_site_fract_x
_atom_site_fract_y
_atom_site_fract_z
Si Si1 0.600303 0.046827 0.739337
Si Si2 0.775299 0.250000 0.865679
Si Si3 0.524885 0.459565 0.632706
Si Si4 0.904925 0.539284 0.194081
Si Si5 0.680064 0.546252 0.196575
Si Si6 0.761087 0.537475 0.305687
Si Si7 0.366196 0.963439 0.059469
Si Si8 0.178035 0.452413 0.393052
O O1 0.573658 0.250000 0.796000
O O2 0.559944 0.963333 0.695567
O O3 0.591839 0.974236 0.892221
O O4 0.696054 0.040152 0.524870
O O5 0.832518 0.406784 0.694851
O O6 0.713641 0.404327 0.038279
O O7 0.539172 0.250000 0.601088
O O8 0.583803 0.536556 0.416429
O O9 0.428688 0.491042 0.831681
O O10 0.896120 0.750000 0.212075
O O11 0.849757 0.476662 0.183631
O O12 0.866196 0.482526 0.397887
O O13 0.000000 0.500000 0.000000
O O14 0.698585 0.750000 0.128295
O O15 0.729845 0.496033 0.228219
O O16 0.756008 0.750000 0.323726
O O17 0.353853 0.750000 0.084917
O O18 0.276310 0.044221 0.228882
O O19 0.153315 0.250000 0.413609
#
# Coordination Sequence:
#
# PCOD9159388 Si02
#       8
#     4   2   4   4   4   4   4   4
#     4   9  18  29  50  82 121 163 200 246 312 384
#     4  12  24  44  66  88 120 170 226 258 312 354
#     4  10  19  33  53  84 123 161 211 264 316 367
#     4  10  22  39  65 103 135 162 193 245 316 393
#     4  10  21  40  65  91 121 164 217 274 306 356
#     4   9  18  34  59  93 126 157 200 251 315 378
#     4  11  20  33  53  83 124 166 209 255 316 381
#     4  11  24  42  64  93 126 166 209 254 315 382
#
# _framework density 22.318073999999999
#
# number of rings (size 3 to 8) (size 9 to 14) (size 15 to 20)
#    0.000    1.867    2.667    1.600    1.867    1.600 
#    0.000    0.667    0.000    0.800    0.000    0.000 
#    0.000    0.000    0.000    0.000    0.000    0.000 
#
# Total GULP energy -167088.429630 kJ/mol
# GULP energy per Si atom -5569.614321 kJ/mol
# Density = 2.226728 g / cm^3
# Si number density = 22.318074 Si / 1000 Ang^3
#
#
#
# Elastic Constant Matrix: (Units=GPa)
#
#
# Indices 1 2 3 4 5 6 
#
# 1 52.3658 12.0247 49.1843 0.0000 3.4865 0.0000
# 2 12.0247 109.8050 18.6585 0.0000 13.0414 0.0000
# 3 49.1843 18.6585 138.5861 0.0000 -0.5138 0.0000
# 4 0.0000 0.0000 0.0000 36.6450 0.0000 -2.7956
# 5 3.4865 13.0414 -0.5138 0.0000 34.0719 0.0000
# 6 0.0000 0.0000 0.0000 -2.7956 0.0000 17.7951
#
#
#
# Elastic Compliance Matrix: (Units=1/GPa)
#
#
# Indices 1 2 3 4 5 6 
#
# 1 0.029104 -0.001136 -0.010186 0.000000 -0.002697 0.000000
# 2 -0.001136 0.009825 -0.000933 0.000000 -0.003658 0.000000
# 3 -0.010186 -0.000933 0.010962 0.000000 0.001565 0.000000
# 4 0.000000 0.000000 0.000000 0.027620 0.000000 0.004339
# 5 -0.002697 -0.003658 0.001565 0.000000 0.031050 0.000000
# 6 0.000000 0.000000 0.000000 0.004339 0.000000 0.056877
#
#
# Mechanical properties :
#
#
# Convention : Reuss Voigt Hill
#
# Bulk Modulus (GPa) = 39.40051 51.16578 45.28314
# Shear Modulus (GPa) = 25.20061 32.42834 28.81447
#
# Velocity S-wave (km/s) = 3.36394 3.81597 3.59706
# Velocity P-wave (km/s) = 5.72543 6.51084 6.13072
#
# Compressibility (1/GPa) = 0.02538038
#
# Stress axis : x y z
#
# Youngs Moduli (GPa) = 34.35935 101.78626 91.22223
#
# Poissons Ratio (x) = 0.11563 0.92920
# Poissons Ratio (y) = 0.03903 0.08512
# Poissons Ratio (z) = 0.34999 0.09498
#
# Static dielectric constant tensor:
#      x y z
#    x 2.010470 0.000000 -0.016970 
#    y 0.000000 1.813480 0.000000 
#    z -0.016970 0.000000 1.810480 
# 
# From -- ./inp_files/45016.got.cif
#   From: 2010.05.17/outbox.cif.g08.bks.cpg/sg11_23_cif.got.tgz:45016.got - 2010.06.03 12:22:45.
