data_PCOD9159646
_publ_section_title
;
Structure prediction by ZEFSAII (Michael W. Deem and Ramdas Pophale) SiO2 
 PCOD9159646
Probable space group: P 21/M
;
_chemical_formula_sum "Si O2"
_cell_formula_units_Z 28
_cell_length_a 5.598463
_cell_length_b 17.413339
_cell_length_c 14.635335
_cell_angle_alpha 90.000000
_cell_angle_beta 110.133831
_cell_angle_gamma 90.000000
_cell_volume 1339.580416
_symmetry_space_group_name_H-M "P 21/M"
_symmetry_group_IT_number 11
_symmetry_cell_setting 'monoclinic'
loop_
_space_group_symop_operation_xyz
x,y,z
-x,1/2+y,-z
-x,-y,-z
x,1/2-y,z
loop_
_atom_site_type_symbol
_atom_site_label
_atom_site_fract_x
_atom_site_fract_y
_atom_site_fract_z
Si Si1 0.807484 0.504927 0.600883
Si Si2 0.564400 0.588541 0.035894
Si Si3 0.997254 0.911279 0.961946
Si Si4 0.390186 0.393851 0.573340
Si Si5 0.195829 0.250000 0.437508
Si Si6 0.585731 0.250000 0.315588
Si Si7 0.652990 0.908577 0.757034
Si Si8 0.682434 0.548396 0.245888
O O1 0.673530 0.421710 0.585611
O O2 0.772694 0.538126 0.495757
O O3 0.670068 0.564063 0.653678
O O4 0.076667 0.495623 0.682406
O O5 0.709030 0.586148 0.151551
O O6 0.500000 0.500000 0.000000
O O7 0.758942 0.622937 0.987555
O O8 0.280457 0.622165 0.011178
O O9 0.920004 0.902349 0.845460
O O10 0.000000 0.000000 0.000000
O O11 0.275271 0.321312 0.509934
O O12 0.381923 0.393278 0.681118
O O13 0.387333 0.250000 0.375814
O O14 0.891656 0.250000 0.375207
O O15 0.507800 0.330345 0.257082
O O16 0.528743 0.982366 0.789380
#
# Coordination Sequence:
#
# PCOD9159646 Si02
#       8
#     4   4   4   4   2   2   4   4
#     4  10  20  37  59  92 122 155 210 266 316 363
#     4  10  19  33  56  91 119 152 195 249 314 355
#     4  10  19  34  57  90 119 158 190 251 305 372
#     4  10  23  37  60  88 121 167 206 260 310 378
#     4  12  26  48  62  84 133 171 210 248 326 381
#     4  12  28  42  64  92 123 177 206 258 314 397
#     4  11  22  37  62  91 129 160 215 256 326 376
#     4  11  21  34  63  92 123 162 210 269 308 377
#
# _framework density 20.902066000000001
#
# number of rings (size 3 to 8) (size 9 to 14) (size 15 to 20)
#    0.000    1.429    4.286    3.000    4.000    0.000 
#    0.000    0.000    0.000    1.714    0.000    0.000 
#    0.000    0.000    0.000    0.000    0.000    0.000 
#
# Total GULP energy -156019.081417 kJ/mol
# GULP energy per Si atom -5572.110051 kJ/mol
# Density = 2.085449 g / cm^3
# Si number density = 20.902066 Si / 1000 Ang^3
#
#
#
# Elastic Constant Matrix: (Units=GPa)
#
#
# Indices 1 2 3 4 5 6 
#
# 1 82.6267 -1.4618 15.2359 0.0000 -5.9774 0.0000
# 2 -1.4618 33.7885 8.7180 0.0000 -7.8785 0.0000
# 3 15.2359 8.7180 124.4209 0.0000 0.1574 0.0000
# 4 0.0000 0.0000 0.0000 14.0115 0.0000 4.4038
# 5 -5.9774 -7.8785 0.1574 0.0000 18.0360 0.0000
# 6 0.0000 0.0000 0.0000 4.4038 0.0000 -1.1361
#
#
#
# Elastic Compliance Matrix: (Units=1/GPa)
#
#
# Indices 1 2 3 4 5 6 
#
# 1 0.012841 0.002226 -0.001735 0.000000 0.005243 0.000000
# 2 0.002226 0.034026 -0.002676 0.000000 0.015624 0.000000
# 3 -0.001735 -0.002676 0.008440 0.000000 -0.001818 0.000000
# 4 0.000000 0.000000 0.000000 0.032174 0.000000 0.124710
# 5 0.005243 0.015624 -0.001818 0.000000 0.064023 0.000000
# 6 0.000000 0.000000 0.000000 0.124710 0.000000 -0.396785
#
#
# Mechanical properties :
#
#
# Convention : Reuss Voigt Hill
#
# Bulk Modulus (GPa) = 19.63281 31.75779 25.69530
# Shear Modulus (GPa) = -22.32827 20.73855 -0.79486
#
# Velocity S-wave (km/s) = -3.27193 3.15330 -0.61734
# Velocity P-wave (km/s) = 2.20474 5.33707 3.43682
#
# Compressibility (1/GPa) = 0.05093514
#
# Stress axis : x y z
#
# Youngs Moduli (GPa) = 77.87409 29.38949 118.48998
#
# Poissons Ratio (x) = -0.06542 0.20559
# Poissons Ratio (y) = -0.17333 0.31713
# Poissons Ratio (z) = 0.13512 0.07866
#
# Static dielectric constant tensor:
#      x y z
#    x 1.819320 0.000000 -0.032950 
#    y 0.000000 1.735140 0.000000 
#    z -0.032950 0.000000 1.747480 
# 
# From -- ./inp_files/45940.got.cif
#   From: 2010.05.17/outbox.cif.g08.bks.cpg/sg11_23_cif.got.tgz:45940.got - 2010.06.03 12:22:45.
