data_PCOD9159308
_publ_section_title
;
Structure prediction by ZEFSAII (Michael W. Deem and Ramdas Pophale) SiO2 
 PCOD9159308
Probable space group: P 21/M
;
_chemical_formula_sum "Si O2"
_cell_formula_units_Z 32
_cell_length_a 11.101018
_cell_length_b 7.412057
_cell_length_c 22.183923
_cell_angle_alpha 90.000000
_cell_angle_beta 40.630204
_cell_angle_gamma 90.000000
_cell_volume 1188.604073
_symmetry_space_group_name_H-M "P 21/M"
_symmetry_group_IT_number 11
_symmetry_cell_setting 'monoclinic'
loop_
_space_group_symop_operation_xyz
x,y,z
-x,1/2+y,-z
-x,-y,-z
x,1/2-y,z
loop_
_atom_site_type_symbol
_atom_site_label
_atom_site_fract_x
_atom_site_fract_y
_atom_site_fract_z
Si Si1 0.669909 0.530141 0.184716
Si Si2 0.939885 0.542722 0.836878
Si Si3 0.763929 0.956859 0.374725
Si Si4 0.629045 0.033669 0.867934
Si Si5 0.256264 0.968290 0.305991
Si Si6 0.216378 0.470453 0.984389
Si Si7 0.862350 0.533144 0.469318
Si Si8 0.460627 0.464341 0.644219
O O1 0.677934 0.750000 0.181236
O O2 0.459310 0.473609 0.248365
O O3 0.794085 0.468262 0.081316
O O4 0.674932 0.467789 0.251763
O O5 0.994728 0.750000 0.819310
O O6 0.732511 0.538215 0.887105
O O7 0.069640 0.454992 0.737355
O O8 0.924816 0.465843 0.910506
O O9 0.718978 0.750000 0.405437
O O10 0.819504 0.036788 0.417614
O O11 0.597365 0.039410 0.398704
O O12 0.625358 0.250000 0.874645
O O13 0.750763 0.988898 0.762595
O O14 0.421121 0.976618 0.930472
O O15 0.261095 0.750000 0.309523
O O16 0.067083 0.034801 0.408189
O O17 0.209937 0.250000 0.987005
O O18 0.875912 0.750000 0.463171
O O19 0.676763 0.489076 0.575846
O O20 0.432685 0.250000 0.652092
#
# Coordination Sequence:
#
# PCOD9159308 Si02
#       8
#     4   4   4   4   4   4   4   4
#     4   8  15  31  52  73 100 132 168 202 237 291
#     4  11  20  29  47  78 105 127 165 212 249 282
#     4  10  21  37  52  70 100 136 169 199 248 306
#     4   9  15  29  50  71 102 139 166 190 238 307
#     4   8  14  27  50  75  98 132 164 188 235 305
#     4   8  16  29  49  75 102 135 167 196 241 301
#     4  10  19  33  53  74  99 131 164 198 250 314
#     4  10  21  35  54  76  95 125 172 218 246 280
#
# _framework density 26.922336999999999
#
# number of rings (size 3 to 8) (size 9 to 14) (size 15 to 20)
#    0.000    2.750    1.250    2.625    0.000    1.500 
#    0.000    1.250    0.000    4.500    0.000    0.000 
#    0.000    0.000    0.000    0.000    0.000    0.000 
#
# Total GULP energy -178887.596405 kJ/mol
# GULP energy per Si atom -5590.237388 kJ/mol
# Density = 2.686106 g / cm^3
# Si number density = 26.922337 Si / 1000 Ang^3
#
#
#
# Elastic Constant Matrix: (Units=GPa)
#
#
# Indices 1 2 3 4 5 6 
#
# 1 74.6383 5.7344 30.3897 0.0000 -1.4718 0.0000
# 2 5.7344 100.8648 3.4828 0.0000 2.3136 0.0000
# 3 30.3897 3.4828 173.1486 0.0000 -0.3616 0.0000
# 4 0.0000 0.0000 0.0000 14.3421 0.0000 -5.0963
# 5 -1.4718 2.3136 -0.3616 0.0000 52.1799 0.0000
# 6 0.0000 0.0000 0.0000 -5.0963 0.0000 8.5491
#
#
#
# Elastic Compliance Matrix: (Units=1/GPa)
#
#
# Indices 1 2 3 4 5 6 
#
# 1 0.014493 -0.000746 -0.002528 0.000000 0.000424 0.000000
# 2 -0.000746 0.009970 -0.000071 0.000000 -0.000464 0.000000
# 3 -0.002528 -0.000071 0.006220 0.000000 -0.000025 0.000000
# 4 0.000000 0.000000 0.000000 0.088464 0.000000 0.052735
# 5 0.000424 -0.000464 -0.000025 0.000000 0.019197 0.000000
# 6 0.000000 0.000000 0.000000 0.052735 0.000000 0.148408
#
#
# Mechanical properties :
#
#
# Convention : Reuss Voigt Hill
#
# Bulk Modulus (GPa) = 41.67765 47.54062 44.60914
# Shear Modulus (GPa) = 16.58712 35.61719 26.10216
#
# Velocity S-wave (km/s) = 2.48485 3.64120 3.11711
# Velocity P-wave (km/s) = 4.87308 5.94765 5.43698
#
# Compressibility (1/GPa) = 0.02399367
#
# Stress axis : x y z
#
# Youngs Moduli (GPa) = 68.99945 100.30322 160.76117
#
# Poissons Ratio (x) = 0.07487 0.40637
# Poissons Ratio (y) = 0.05150 0.01133
# Poissons Ratio (z) = 0.17442 0.00707
#
# Static dielectric constant tensor:
#      x y z
#    x 2.168300 0.000000 -0.001210 
#    y 0.000000 2.008670 0.000000 
#    z -0.001210 0.000000 2.107810 
# 
# From -- ./inp_files/64601.got.cif
#   From: 2010.05.17/outbox.cif.g08.bks.cpg/sg11_33_cif.got.tgz:64601.got - 2010.06.03 12:22:45.
