data_PCOD9159462
_publ_section_title
;
Structure prediction by ZEFSAII (Michael W. Deem and Ramdas Pophale) SiO2 
 PCOD9159462
Probable space group: P 21/M
;
_chemical_formula_sum "Si O2"
_cell_formula_units_Z 32
_cell_length_a 22.181033
_cell_length_b 8.385603
_cell_length_c 12.678656
_cell_angle_alpha 90.000000
_cell_angle_beta 47.031999
_cell_angle_gamma 90.000000
_cell_volume 1725.610606
_symmetry_space_group_name_H-M "P 21/M"
_symmetry_group_IT_number 11
_symmetry_cell_setting 'monoclinic'
loop_
_space_group_symop_operation_xyz
x,y,z
-x,1/2+y,-z
-x,-y,-z
x,1/2-y,z
loop_
_atom_site_type_symbol
_atom_site_label
_atom_site_fract_x
_atom_site_fract_y
_atom_site_fract_z
Si Si1 0.300665 0.939528 0.509804
Si Si2 0.228938 0.555848 0.383900
Si Si3 0.641886 0.443318 0.944692
Si Si4 0.218660 0.058006 0.059947
Si Si5 0.907080 0.441514 0.618660
Si Si6 0.448944 0.067213 0.657619
Si Si7 0.521684 0.933725 0.773726
Si Si8 0.734392 0.568535 0.215649
O O1 0.297779 0.750000 0.515517
O O2 0.239424 0.999736 0.490963
O O3 0.392005 0.986483 0.359860
O O4 0.277334 0.995698 0.654755
O O5 0.228283 0.750000 0.385454
O O6 0.308929 0.508371 0.219247
O O7 0.148527 0.504637 0.415097
O O8 0.639275 0.250000 0.951423
O O9 0.700857 0.499738 0.970422
O O10 0.547189 0.501791 0.063462
O O11 0.223409 0.250000 0.049952
O O12 0.140726 0.005416 0.221801
O O13 0.214600 0.996616 0.943691
O O14 0.905201 0.250000 0.623729
O O15 0.000000 0.500000 0.500000
O O16 0.472889 0.250000 0.656746
O O17 0.355849 0.070749 0.729774
O O18 0.500000 0.000000 0.500000
O O19 0.468365 0.951249 0.730314
O O20 0.538715 0.750000 0.778848
O O21 0.762648 0.750000 0.198786
#
# Coordination Sequence:
#
# PCOD9159462 Si02
#       8
#     4   4   4   4   4   4   4   4
#     4  11  22  34  51  71 100 145 189 220 259 313
#     4   8  18  37  55  76 105 137 171 213 262 315
#     4   9  18  33  52  71 100 139 179 226 275 314
#     4  10  19  33  54  82 111 136 169 215 267 312
#     4  10  20  38  64  91 115 134 161 203 256 316
#     4  11  20  31  46  67  97 136 181 233 275 307
#     4  11  21  31  46  70 101 139 185 232 273 310
#     4  10  21  34  49  72 106 140 176 224 269 306
#
# _framework density 18.544160000000002
#
# number of rings (size 3 to 8) (size 9 to 14) (size 15 to 20)
#    0.000    2.000    2.500    2.625    0.000    2.500 
#    0.000    6.250    0.000    0.750    0.000    0.000 
#    0.000    0.000    0.000    0.000    0.000    0.000 
#
# Total GULP energy -178332.601972 kJ/mol
# GULP energy per Si atom -5572.893812 kJ/mol
# Density = 1.850195 g / cm^3
# Si number density = 18.544160 Si / 1000 Ang^3
#
#
#
# Elastic Constant Matrix: (Units=GPa)
#
#
# Indices 1 2 3 4 5 6 
#
# 1 87.9270 12.5082 74.1794 0.0000 16.7331 0.0000
# 2 12.5082 34.7960 20.8906 0.0000 2.6362 0.0000
# 3 74.1794 20.8906 120.6459 0.0000 1.7300 0.0000
# 4 0.0000 0.0000 0.0000 17.4300 0.0000 -0.8612
# 5 16.7331 2.6362 1.7300 0.0000 24.5574 0.0000
# 6 0.0000 0.0000 0.0000 -0.8612 0.0000 12.1740
#
#
#
# Elastic Compliance Matrix: (Units=1/GPa)
#
#
# Indices 1 2 3 4 5 6 
#
# 1 0.031055 0.001835 -0.019125 0.000000 -0.020010 0.000000
# 2 0.001835 0.032412 -0.006679 0.000000 -0.004259 0.000000
# 3 -0.019125 -0.006679 0.021028 0.000000 0.012267 0.000000
# 4 0.000000 0.000000 0.000000 0.057574 0.000000 0.004073
# 5 -0.020010 -0.004259 0.012267 0.000000 0.053948 0.000000
# 6 0.000000 0.000000 0.000000 0.004073 0.000000 0.082431
#
#
# Mechanical properties :
#
#
# Convention : Reuss Voigt Hill
#
# Bulk Modulus (GPa) = 27.35507 50.94726 39.15116
# Shear Modulus (GPa) = 14.76789 19.88498 17.32643
#
# Velocity S-wave (km/s) = 2.82505 3.27816 3.06000
# Velocity P-wave (km/s) = 5.04228 6.47005 5.80026
#
# Compressibility (1/GPa) = 0.03655630
#
# Stress axis : x y z
#
# Youngs Moduli (GPa) = 32.20125 30.85254 47.55491
#
# Poissons Ratio (x) = -0.05661 0.90948
# Poissons Ratio (y) = -0.05908 0.31764
# Poissons Ratio (z) = 0.61584 0.20608
#
# Static dielectric constant tensor:
#      x y z
#    x 1.642120 0.000000 0.025440 
#    y 0.000000 1.719990 0.000000 
#    z 0.025440 0.000000 1.688260 
# 
# From -- ./inp_files/42838.got.cif
#   From: 2010.05.17/outbox.cif.g08.bks.cpg/sg11_22_cif.got.tgz:42838.got - 2010.06.03 12:22:45.
