data_PCOD9159787
_publ_section_title
;
Structure prediction by ZEFSAII (Michael W. Deem and Ramdas Pophale) SiO2 
 PCOD9159787
Probable space group: P 21/M
;
_chemical_formula_sum "Si O2"
_cell_formula_units_Z 28
_cell_length_a 30.324068
_cell_length_b 8.413354
_cell_length_c 9.183983
_cell_angle_alpha 90.000000
_cell_angle_beta 140.544753
_cell_angle_gamma 90.000000
_cell_volume 1488.971497
_symmetry_space_group_name_H-M "P 21/M"
_symmetry_group_IT_number 11
_symmetry_cell_setting 'monoclinic'
loop_
_space_group_symop_operation_xyz
x,y,z
-x,1/2+y,-z
-x,-y,-z
x,1/2-y,z
loop_
_atom_site_type_symbol
_atom_site_label
_atom_site_fract_x
_atom_site_fract_y
_atom_site_fract_z
Si Si1 0.645170 0.556995 0.196116
Si Si2 0.931842 0.939335 0.744839
Si Si3 0.204213 0.056748 0.436215
Si Si4 0.346056 0.559783 0.447117
Si Si5 0.504098 0.058067 0.177989
Si Si6 0.198414 0.439372 0.080052
Si Si7 0.935104 0.437365 0.426786
O O1 0.645486 0.750000 0.205601
O O2 0.718684 0.507431 0.314275
O O3 0.648580 0.490262 0.369228
O O4 0.569861 0.508362 0.941440
O O5 0.930765 0.750000 0.755591
O O6 0.861031 0.002557 0.638469
O O7 0.934667 0.985154 0.584121
O O8 0.000000 0.000000 0.000000
O O9 0.203209 0.250000 0.438187
O O10 0.196615 0.012742 0.246446
O O11 0.340372 0.750000 0.421648
O O12 0.420474 0.506482 0.570441
O O13 0.274371 0.483383 0.211912
O O14 0.505657 0.250000 0.180758
O O15 0.500000 0.000000 0.000000
O O16 0.189377 0.250000 0.050231
O O17 0.136088 0.520989 0.836625
O O18 0.942151 0.250000 0.461597
O O19 0.000000 0.500000 0.500000
#
# Coordination Sequence:
#
# PCOD9159787 Si02
#       7
#     4   4   4   4   4   4   4
#     4   8  13  24  40  61  91 131 172 212 253 298
#     4  11  22  38  58  81 107 138 173 214 260 311
#     4   8  16  30  51  75 101 132 171 212 254 303
#     4   9  15  23  37  64  98 132 167 208 255 304
#     4   8  13  20  34  57  90 128 167 207 252 299
#     4  10  19  34  54  77 104 138 175 213 255 305
#     4  12  25  41  59  81 106 135 170 212 259 312
#
# _framework density 18.804926999999999
#
# number of rings (size 3 to 8) (size 9 to 14) (size 15 to 20)
#    0.000    2.571    0.000    4.286    0.000    1.714 
#    0.000    6.429    0.000    0.000    0.000    1.000 
#    0.000    0.000    0.000    0.000    0.000    0.000 
#
# Total GULP energy -155960.472150 kJ/mol
# GULP energy per Si atom -5570.016863 kJ/mol
# Density = 1.876213 g / cm^3
# Si number density = 18.804927 Si / 1000 Ang^3
#
#
#
# Elastic Constant Matrix: (Units=GPa)
#
#
# Indices 1 2 3 4 5 6 
#
# 1 113.9806 8.8377 63.3020 0.0000 38.0965 0.0000
# 2 8.8377 25.4923 -1.5868 0.0000 6.6691 0.0000
# 3 63.3020 -1.5868 76.3717 0.0000 35.9872 0.0000
# 4 0.0000 0.0000 0.0000 26.0331 0.0000 4.6701
# 5 38.0965 6.6691 35.9872 0.0000 34.8264 0.0000
# 6 0.0000 0.0000 0.0000 4.6701 0.0000 18.9298
#
#
#
# Elastic Compliance Matrix: (Units=1/GPa)
#
#
# Indices 1 2 3 4 5 6 
#
# 1 0.017964 -0.005395 -0.012140 0.000000 -0.006073 0.000000
# 2 -0.005395 0.046301 0.013313 0.000000 -0.016722 0.000000
# 3 -0.012140 0.013313 0.035816 0.000000 -0.026279 0.000000
# 4 0.000000 0.000000 0.000000 0.040191 0.000000 -0.009915
# 5 -0.006073 -0.016722 -0.026279 0.000000 0.065714 0.000000
# 6 0.000000 0.000000 0.000000 -0.009915 0.000000 0.055273
#
#
# Mechanical properties :
#
#
# Convention : Reuss Voigt Hill
#
# Bulk Modulus (GPa) = 10.91255 39.66116 25.28685
# Shear Modulus (GPa) = 16.65285 25.64397 21.14841
#
# Velocity S-wave (km/s) = 2.97906 3.69682 3.35717
# Velocity P-wave (km/s) = 4.20104 6.27364 5.33888
#
# Compressibility (1/GPa) = 0.09163765
#
# Stress axis : x y z
#
# Youngs Moduli (GPa) = 55.66765 21.59776 27.92030
#
# Poissons Ratio (x) = 0.11651 0.33896
# Poissons Ratio (y) = 0.30031 -0.37171
# Poissons Ratio (z) = 0.67582 -0.28753
#
# Static dielectric constant tensor:
#      x y z
#    x 1.685310 0.000000 0.056770 
#    y 0.000000 1.635410 0.000000 
#    z 0.056770 0.000000 1.667830 
# 
# From -- ./inp_files/29090.got.cif
#   From: 2010.05.17/outbox.cif.g08.bks.cpg/sg11_15_cif.got.tgz:29090.got - 2010.06.03 12:22:45.
