data_PCOD9159252
_publ_section_title
;
Structure prediction by ZEFSAII (Michael W. Deem and Ramdas Pophale) SiO2 
 PCOD9159252
Probable space group: P 21/M
;
_chemical_formula_sum "Si O2"
_cell_formula_units_Z 32
_cell_length_a 27.515034
_cell_length_b 7.690448
_cell_length_c 20.206553
_cell_angle_alpha 90.000000
_cell_angle_beta 159.592295
_cell_angle_gamma 90.000000
_cell_volume 1490.951422
_symmetry_space_group_name_H-M "P 21/M"
_symmetry_group_IT_number 11
_symmetry_cell_setting 'monoclinic'
loop_
_space_group_symop_operation_xyz
x,y,z
-x,1/2+y,-z
-x,-y,-z
x,1/2-y,z
loop_
_atom_site_type_symbol
_atom_site_label
_atom_site_fract_x
_atom_site_fract_y
_atom_site_fract_z
Si Si1 0.721370 0.453076 0.114477
Si Si2 0.918588 0.042924 0.996940
Si Si3 0.701298 0.450545 0.229472
Si Si4 0.028735 0.961387 0.793907
Si Si5 0.211114 0.538587 0.302913
Si Si6 0.463455 0.552955 0.710004
Si Si7 0.026170 0.962377 0.645280
Si Si8 0.703760 0.547821 0.378275
O O1 0.745295 0.250000 0.159296
O O2 0.662072 0.527539 0.107720
O O3 0.867320 0.526008 0.274550
O O4 0.608260 0.463561 0.912216
O O5 0.895777 0.250000 0.970148
O O6 0.823537 0.975671 0.815506
O O7 0.901443 0.973808 0.049466
O O8 0.078568 0.013932 0.178396
O O9 0.658727 0.250000 0.179916
O O10 0.656573 0.533870 0.241696
O O11 0.870167 0.466732 0.441449
O O12 0.032042 0.750000 0.799853
O O13 0.082467 0.012022 0.790197
O O14 0.865038 0.009531 0.586260
O O15 0.214137 0.750000 0.307115
O O16 0.355365 0.476475 0.518907
O O17 0.495177 0.750000 0.730923
O O18 0.380310 0.551700 0.673397
O O19 0.017408 0.750000 0.631601
O O20 0.695708 0.750000 0.386963
#
# Coordination Sequence:
#
# PCOD9159252 Si02
#       8
#     4   4   4   4   4   4   4   4
#     4  10  22  37  52  70  96 134 174 206 243 298
#     4   9  15  27  48  73 100 129 160 193 240 296
#     4  10  20  34  53  77 100 124 160 209 259 297
#     4   8  14  26  49  76  97 122 158 198 239 286
#     4   9  18  29  44  71 103 130 158 199 244 289
#     4  11  22  34  49  71 102 135 168 207 250 296
#     4   9  18  34  54  76  99 126 166 210 247 290
#     4  10  19  33  52  74 100 132 166 199 246 303
#
# _framework density 21.462806
#
# number of rings (size 3 to 8) (size 9 to 14) (size 15 to 20)
#    0.000    2.500    1.250    2.250    0.000    2.500 
#    0.000    0.000    0.000    0.750    0.000    0.000 
#    0.000    0.000    0.000    0.000    0.000    0.125 
#
# Total GULP energy -178537.652371 kJ/mol
# GULP energy per Si atom -5579.301637 kJ/mol
# Density = 2.141396 g / cm^3
# Si number density = 21.462806 Si / 1000 Ang^3
#
#
#
# Elastic Constant Matrix: (Units=GPa)
#
#
# Indices 1 2 3 4 5 6 
#
# 1 60.0017 2.3296 24.1238 0.0000 -22.0791 0.0000
# 2 2.3296 40.6985 -4.2279 0.0000 -0.6189 0.0000
# 3 24.1238 -4.2279 87.3701 0.0000 -29.7756 0.0000
# 4 0.0000 0.0000 0.0000 17.8513 0.0000 1.1479
# 5 -22.0791 -0.6189 -29.7756 0.0000 38.8960 0.0000
# 6 0.0000 0.0000 0.0000 1.1479 0.0000 9.0847
#
#
#
# Elastic Compliance Matrix: (Units=1/GPa)
#
#
# Indices 1 2 3 4 5 6 
#
# 1 0.021503 -0.001335 -0.002502 0.000000 0.010269 0.000000
# 2 -0.001335 0.024868 0.001960 0.000000 0.001138 0.000000
# 3 -0.002502 0.001960 0.015908 0.000000 0.010789 0.000000
# 4 0.000000 0.000000 0.000000 0.056477 0.000000 -0.007136
# 5 0.010269 0.001138 0.010789 0.000000 0.039816 0.000000
# 6 0.000000 0.000000 0.000000 -0.007136 0.000000 0.110977
#
#
# Mechanical properties :
#
#
# Convention : Reuss Voigt Hill
#
# Bulk Modulus (GPa) = 17.08649 25.83570 21.46109
# Shear Modulus (GPa) = 17.07583 24.22273 20.64928
#
# Velocity S-wave (km/s) = 2.82370 3.36310 3.10513
# Velocity P-wave (km/s) = 4.31385 5.21000 4.78296
#
# Compressibility (1/GPa) = 0.05852576
#
# Stress axis : x y z
#
# Youngs Moduli (GPa) = 46.50562 40.21196 62.86126
#
# Poissons Ratio (x) = 0.05367 0.15727
# Poissons Ratio (y) = 0.06207 -0.12320
# Poissons Ratio (z) = 0.11635 -0.07881
#
# Static dielectric constant tensor:
#      x y z
#    x 1.799080 0.000000 -0.049540 
#    y 0.000000 1.761500 0.000000 
#    z -0.049540 0.000000 1.806040 
# 
# From -- ./inp_files/58690.got.cif
#   From: 2010.05.17/outbox.cif.g08.bks.cpg/sg11_30_cif.got.tgz:58690.got - 2010.06.03 12:22:45.
