data_PCOD9159887
_publ_section_title
;
Structure prediction by ZEFSAII (Michael W. Deem and Ramdas Pophale) SiO2 
 PCOD9159887
Probable space group: P 21/M
;
_chemical_formula_sum "Si O2"
_cell_formula_units_Z 20
_cell_length_a 7.961579
_cell_length_b 18.545737
_cell_length_c 9.756726
_cell_angle_alpha 90.000000
_cell_angle_beta 40.793675
_cell_angle_gamma 90.000000
_cell_volume 941.206008
_symmetry_space_group_name_H-M "P 21/M"
_symmetry_group_IT_number 11
_symmetry_cell_setting 'monoclinic'
loop_
_space_group_symop_operation_xyz
x,y,z
-x,1/2+y,-z
-x,-y,-z
x,1/2-y,z
loop_
_atom_site_type_symbol
_atom_site_label
_atom_site_fract_x
_atom_site_fract_y
_atom_site_fract_z
Si Si1 0.604929 0.038168 0.267720
Si Si2 0.263020 0.329634 0.504818
Si Si3 0.112305 0.961845 0.639044
Si Si4 0.759885 0.088360 0.871097
Si Si5 0.755363 0.667137 0.815874
O O1 0.823049 0.019698 0.242242
O O2 0.693667 0.061452 0.064168
O O3 0.460195 0.107909 0.421825
O O4 0.383063 0.977685 0.398406
O O5 0.337068 0.250000 0.505183
O O6 0.255808 0.330384 0.343256
O O7 0.982037 0.351530 0.731517
O O8 0.998664 0.882399 0.700168
O O9 0.896914 0.018603 0.718737
O O10 0.499059 0.124192 0.976483
O O11 0.763918 0.750000 0.859261
#
# Coordination Sequence:
#
# PCOD9159887 Si02
#       5
#     4   4   4   4   4
#     4   9  20  35  54  78 104 136 174 212 255 306
#     4   9  19  35  53  75 105 140 174 210 254 305
#     4  10  20  35  54  78 105 134 171 215 258 302
#     4  10  19  34  56  78 103 136 174 212 253 306
#     4  10  21  35  52  76 105 136 171 212 258 306
#
# _framework density 21.249334000000001
#
# number of rings (size 3 to 8) (size 9 to 14) (size 15 to 20)
#    0.000    2.400    0.000    1.800    0.000   10.400 
#    0.000    0.000    0.000    0.000    0.000    0.000 
#    0.000    0.000    0.000    0.000    0.000    0.000 
#
# Total GULP energy -111624.426596 kJ/mol
# GULP energy per Si atom -5581.221330 kJ/mol
# Density = 2.120097 g / cm^3
# Si number density = 21.249334 Si / 1000 Ang^3
#
#
#
# Elastic Constant Matrix: (Units=GPa)
#
#
# Indices 1 2 3 4 5 6 
#
# 1 52.1198 36.7773 16.2228 0.0000 -15.1296 0.0000
# 2 36.7773 125.0989 44.0826 0.0000 -33.8663 0.0000
# 3 16.2228 44.0826 80.9163 0.0000 -14.6566 0.0000
# 4 0.0000 0.0000 0.0000 19.0110 0.0000 0.7927
# 5 -15.1296 -33.8663 -14.6566 0.0000 31.3999 0.0000
# 6 0.0000 0.0000 0.0000 0.7927 0.0000 24.1759
#
#
#
# Elastic Compliance Matrix: (Units=1/GPa)
#
#
# Indices 1 2 3 4 5 6 
#
# 1 0.025001 -0.005452 -0.001011 0.000000 0.005694 0.000000
# 2 -0.005452 0.014046 -0.004687 0.000000 0.010334 0.000000
# 3 -0.001011 -0.004687 0.015414 0.000000 0.001653 0.000000
# 4 0.000000 0.000000 0.000000 0.052673 0.000000 -0.001727
# 5 0.005694 0.010334 0.001653 0.000000 0.046508 0.000000
# 6 0.000000 0.000000 0.000000 -0.001727 0.000000 0.041420
#
#
# Mechanical properties :
#
#
# Convention : Reuss Voigt Hill
#
# Bulk Modulus (GPa) = 31.09366 50.25561 40.67463
# Shear Modulus (GPa) = 21.92184 25.65420 23.78802
#
# Velocity S-wave (km/s) = 3.21541 3.47838 3.34948
# Velocity P-wave (km/s) = 5.33383 6.31142 5.84310
#
# Compressibility (1/GPa) = 0.03216089
#
# Stress axis : x y z
#
# Youngs Moduli (GPa) = 39.99765 71.19531 64.87650
#
# Poissons Ratio (x) = 0.38819 0.06557
# Poissons Ratio (y) = 0.21808 0.30408
# Poissons Ratio (z) = 0.04042 0.33370
#
# Static dielectric constant tensor:
#      x y z
#    x 1.748350 0.000000 -0.002260 
#    y 0.000000 1.779130 0.000000 
#    z -0.002260 0.000000 1.797430 
# 
# From -- ./inp_files/1888.got.cif
#   From: 2010.05.17/outbox.cif.g08.bks.cpg/sg11_1_cif.got.tgz:1888.got - 2010.06.03 12:22:45.
