data_PCOD9159525
_publ_section_title
;
Structure prediction by ZEFSAII (Michael W. Deem and Ramdas Pophale) SiO2 
 PCOD9159525
Probable space group: P 21/M
;
_chemical_formula_sum "Si O2"
_cell_formula_units_Z 32
_cell_length_a 20.858588
_cell_length_b 7.988070
_cell_length_c 12.641913
_cell_angle_alpha 90.000000
_cell_angle_beta 126.272148
_cell_angle_gamma 90.000000
_cell_volume 1698.208311
_symmetry_space_group_name_H-M "P 21/M"
_symmetry_group_IT_number 11
_symmetry_cell_setting 'monoclinic'
loop_
_space_group_symop_operation_xyz
x,y,z
-x,1/2+y,-z
-x,-y,-z
x,1/2-y,z
loop_
_atom_site_type_symbol
_atom_site_label
_atom_site_fract_x
_atom_site_fract_y
_atom_site_fract_z
Si Si1 0.627208 0.452711 0.611563
Si Si2 0.018537 0.047500 0.682261
Si Si3 0.870716 0.051763 0.391286
Si Si4 0.542147 0.548111 0.149251
Si Si5 0.782495 0.051579 0.652705
Si Si6 0.038411 0.547812 0.148270
Si Si7 0.720876 0.553404 0.365120
Si Si8 0.515107 0.451781 0.683217
O O1 0.629985 0.250000 0.617062
O O2 0.713686 0.516924 0.662338
O O3 0.589404 0.512463 0.685329
O O4 0.564038 0.501825 0.459446
O O5 0.019886 0.250000 0.680296
O O6 0.939322 0.992496 0.540464
O O7 0.009873 0.991180 0.794725
O O8 0.093928 0.984946 0.689712
O O9 0.862443 0.250000 0.397376
O O10 0.786933 0.972160 0.339519
O O11 0.543904 0.750000 0.155219
O O12 0.633672 0.489193 0.247996
O O13 0.494833 0.486960 0.207032
O O14 0.500000 0.500000 0.000000
O O15 0.787545 0.250000 0.677886
O O16 0.871013 0.983022 0.754475
O O17 0.753439 0.028938 0.504118
O O18 0.040808 0.750000 0.156907
O O19 0.000000 0.500000 0.000000
O O20 0.713430 0.750000 0.380881
O O21 0.519706 0.250000 0.690544
#
# Coordination Sequence:
#
# PCOD9159525 Si02
#       8
#     4   4   4   4   4   4   4   4
#     4   9  17  29  53  80 103 134 171 217 264 308
#     4   9  18  34  53  77 110 143 176 222 272 317
#     4  10  19  33  55  82 108 137 177 225 272 321
#     4  10  22  37  53  75 109 147 181 220 265 319
#     4  10  19  34  54  80 108 137 178 225 267 317
#     4  10  21  37  54  76 111 147 180 221 268 321
#     4  11  21  34  54  81 109 140 179 226 271 317
#     4   9  17  32  50  76 109 137 169 213 264 313
#
# _framework density 18.843389999999999
#
# number of rings (size 3 to 8) (size 9 to 14) (size 15 to 20)
#    0.000    2.250    2.500    0.750    0.000    3.000 
#    0.000    1.250    0.000    1.500    0.000    0.000 
#    0.000    0.000    0.000    0.000    0.000    0.000 
#
# Total GULP energy -178512.948575 kJ/mol
# GULP energy per Si atom -5578.529643 kJ/mol
# Density = 1.880050 g / cm^3
# Si number density = 18.843390 Si / 1000 Ang^3
#
#
#
# Elastic Constant Matrix: (Units=GPa)
#
#
# Indices 1 2 3 4 5 6 
#
# 1 158.9442 -0.1680 76.6754 0.0000 -17.7331 0.0000
# 2 -0.1680 9.4046 -3.9412 0.0000 -1.0754 0.0000
# 3 76.6754 -3.9412 115.9029 0.0000 -14.0839 0.0000
# 4 0.0000 0.0000 0.0000 21.8613 0.0000 -2.8073
# 5 -17.7331 -1.0754 -14.0839 0.0000 29.3617 0.0000
# 6 0.0000 0.0000 0.0000 -2.8073 0.0000 19.0973
#
#
#
# Elastic Compliance Matrix: (Units=1/GPa)
#
#
# Indices 1 2 3 4 5 6 
#
# 1 0.009502 -0.002035 -0.006018 0.000000 0.002778 0.000000
# 2 -0.002035 0.109330 0.005735 0.000000 0.005526 0.000000
# 3 -0.006018 0.005735 0.013155 0.000000 0.002885 0.000000
# 4 0.000000 0.000000 0.000000 0.046623 0.000000 0.006854
# 5 0.002778 0.005526 0.002885 0.000000 0.037322 0.000000
# 6 0.000000 0.000000 0.000000 0.006854 0.000000 0.053371
#
#
# Mechanical properties :
#
#
# Convention : Reuss Voigt Hill
#
# Bulk Modulus (GPa) = 7.85223 47.70935 27.78079
# Shear Modulus (GPa) = 15.80337 28.17642 21.98989
#
# Velocity S-wave (km/s) = 2.89912 3.87110 3.41982
# Velocity P-wave (km/s) = 3.92208 6.73457 5.51077
#
# Compressibility (1/GPa) = 0.12735228
#
# Stress axis : x y z
#
# Youngs Moduli (GPa) = 105.23727 9.14664 76.01859
#
# Poissons Ratio (x) = 0.01861 0.45747
# Poissons Ratio (y) = 0.21411 -0.43598
# Poissons Ratio (z) = 0.63331 -0.05246
#
# Static dielectric constant tensor:
#      x y z
#    x 1.692760 0.000000 -0.006850 
#    y 0.000000 1.673380 0.000000 
#    z -0.006850 0.000000 1.612260 
# 
# From -- ./inp_files/42931.got.cif
#   From: 2010.05.17/outbox.cif.g08.bks.cpg/sg11_22_cif.got.tgz:42931.got - 2010.06.03 12:22:45.
