data_PCOD9159634
_publ_section_title
;
Structure prediction by ZEFSAII (Michael W. Deem and Ramdas Pophale) SiO2 
 PCOD9159634
Probable space group: P 21/M
;
_chemical_formula_sum "Si O2"
_cell_formula_units_Z 28
_cell_length_a 31.753320
_cell_length_b 8.777836
_cell_length_c 10.485349
_cell_angle_alpha 90.000000
_cell_angle_beta 32.552295
_cell_angle_gamma 90.000000
_cell_volume 1572.525140
_symmetry_space_group_name_H-M "P 21/M"
_symmetry_group_IT_number 11
_symmetry_cell_setting 'monoclinic'
loop_
_space_group_symop_operation_xyz
x,y,z
-x,1/2+y,-z
-x,-y,-z
x,1/2-y,z
loop_
_atom_site_type_symbol
_atom_site_label
_atom_site_fract_x
_atom_site_fract_y
_atom_site_fract_z
Si Si1 0.502545 0.567110 0.350801
Si Si2 0.908735 0.431735 0.873098
Si Si3 0.746077 0.566480 0.365392
Si Si4 0.342780 0.066757 0.666283
Si Si5 0.073802 0.932887 0.469021
Si Si6 0.761659 0.432841 0.838402
Si Si7 0.324144 0.066318 0.184500
O O1 0.500000 0.500000 0.500000
O O2 0.496204 0.750000 0.373695
O O3 0.429428 0.499776 0.460856
O O4 0.585741 0.527241 0.075377
O O5 0.906042 0.250000 0.887063
O O6 0.906931 0.476051 0.727198
O O7 0.991547 0.491425 0.713677
O O8 0.833219 0.501040 0.133099
O O9 0.750597 0.750000 0.352401
O O10 0.697785 0.519955 0.362796
O O11 0.703195 0.520050 0.604912
O O12 0.345585 0.250000 0.665563
O O13 0.291217 0.004705 0.915058
O O14 0.064638 0.750000 0.495717
O O15 0.148130 0.975339 0.364795
O O16 0.755425 0.250000 0.861896
O O17 0.729626 0.491427 0.786081
O O18 0.317436 0.250000 0.191483
#
# Coordination Sequence:
#
# PCOD9159634 Si02
#       7
#     4   4   4   4   4   4   4
#     4  11  22  37  59  86 116 149 193 241 287 336
#     4  10  19  33  56  86 116 148 188 236 286 337
#     4  10  22  40  59  82 117 156 191 232 288 344
#     4  11  22  36  59  86 114 151 192 235 285 340
#     4   9  19  34  54  84 117 147 186 236 286 336
#     4  11  21  36  59  87 115 148 192 239 284 336
#     4  10  23  41  59  82 115 154 192 235 288 345
#
# _framework density 17.805755999999999
#
# number of rings (size 3 to 8) (size 9 to 14) (size 15 to 20)
#    0.000    1.714    2.857    1.714    0.000    4.000 
#    0.000    0.714    0.000    0.000    0.000    0.000 
#    0.000    0.000    0.000    0.000    0.000    0.000 
#
# Total GULP energy -156395.685678 kJ/mol
# GULP energy per Si atom -5585.560203 kJ/mol
# Density = 1.776523 g / cm^3
# Si number density = 17.805756 Si / 1000 Ang^3
#
#
#
# Elastic Constant Matrix: (Units=GPa)
#
#
# Indices 1 2 3 4 5 6 
#
# 1 121.3872 33.3378 75.3015 0.0000 -14.1038 0.0000
# 2 33.3378 27.1775 37.9885 0.0000 -4.3631 0.0000
# 3 75.3015 37.9885 145.3989 0.0000 -10.5094 0.0000
# 4 0.0000 0.0000 0.0000 23.6812 0.0000 -9.5827
# 5 -14.1038 -4.3631 -10.5094 0.0000 35.8320 0.0000
# 6 0.0000 0.0000 0.0000 -9.5827 0.0000 26.9357
#
#
#
# Elastic Compliance Matrix: (Units=1/GPa)
#
#
# Indices 1 2 3 4 5 6 
#
# 1 0.014284 -0.011030 -0.004298 0.000000 0.003019 0.000000
# 2 -0.011030 0.066733 -0.011697 0.000000 0.000353 0.000000
# 3 -0.004298 -0.011697 0.012193 0.000000 0.000460 0.000000
# 4 0.000000 0.000000 0.000000 0.049329 0.000000 0.017550
# 5 0.003019 0.000353 0.000460 0.000000 0.029274 0.000000
# 6 0.000000 0.000000 0.000000 0.017550 0.000000 0.043369
#
#
# Mechanical properties :
#
#
# Convention : Reuss Voigt Hill
#
# Bulk Modulus (GPa) = 25.53662 65.24657 45.39160
# Shear Modulus (GPa) = 17.71259 27.11215 22.41237
#
# Velocity S-wave (km/s) = 3.15742 3.90636 3.55169
# Velocity P-wave (km/s) = 5.25978 7.55442 6.50902
#
# Compressibility (1/GPa) = 0.03915945
#
# Stress axis : x y z
#
# Youngs Moduli (GPa) = 70.00758 14.98520 82.01546
#
# Poissons Ratio (x) = 0.16529 0.35248
# Poissons Ratio (y) = 0.77218 0.95936
# Poissons Ratio (z) = 0.30087 0.17529
#
# Static dielectric constant tensor:
#      x y z
#    x 1.594730 0.000000 -0.004660 
#    y 0.000000 1.598420 0.000000 
#    z -0.004660 0.000000 1.585230 
# 
# From -- ./inp_files/28303.got.cif
#   From: 2010.05.17/outbox.cif.g08.bks.cpg/sg11_15_cif.got.tgz:28303.got - 2010.06.03 12:22:45.
