data_PCOD9159172
_publ_section_title
;
Structure prediction by ZEFSAII (Michael W. Deem and Ramdas Pophale) SiO2 
 PCOD9159172
Probable space group: P 21/M
;
_chemical_formula_sum "Si O2"
_cell_formula_units_Z 32
_cell_length_a 20.546815
_cell_length_b 8.848719
_cell_length_c 26.461962
_cell_angle_alpha 90.000000
_cell_angle_beta 158.625724
_cell_angle_gamma 90.000000
_cell_volume 1753.457794
_symmetry_space_group_name_H-M "P 21/M"
_symmetry_group_IT_number 11
_symmetry_cell_setting 'monoclinic'
loop_
_space_group_symop_operation_xyz
x,y,z
-x,1/2+y,-z
-x,-y,-z
x,1/2-y,z
loop_
_atom_site_type_symbol
_atom_site_label
_atom_site_fract_x
_atom_site_fract_y
_atom_site_fract_z
Si Si1 0.308041 0.431556 0.847702
Si Si2 0.186933 0.569329 0.653623
Si Si3 0.628993 0.569575 0.405313
Si Si4 0.997138 0.570009 0.291495
Si Si5 0.114286 0.569059 0.894840
Si Si6 0.004513 0.068209 0.081564
Si Si7 0.712377 0.569726 0.795475
Si Si8 0.529589 0.931122 0.217945
O O1 0.320968 0.250000 0.852213
O O2 0.237830 0.501937 0.744845
O O3 0.167215 0.467496 0.790170
O O4 0.500000 0.500000 0.000000
O O5 0.174347 0.750000 0.647099
O O6 0.339519 0.519045 0.724647
O O7 0.000000 0.500000 0.500000
O O8 0.630585 0.750000 0.410219
O O9 0.478850 0.503973 0.333940
O O10 0.572727 0.529882 0.307202
O O11 0.822470 0.505113 0.557841
O O12 0.018965 0.750000 0.307446
O O13 0.952939 0.512884 0.203567
O O14 0.096979 0.750000 0.875396
O O15 0.008205 0.526017 0.869068
O O16 0.323266 0.536731 0.056183
O O17 0.977084 0.250000 0.058525
O O18 0.187749 0.031835 0.184905
O O19 0.845533 0.990724 0.935276
O O20 0.697982 0.750000 0.788673
O O21 0.557294 0.750000 0.231880
#
# Coordination Sequence:
#
# PCOD9159172 Si02
#       8
#     4   4   4   4   4   4   4   4
#     4  11  24  43  65  89 118 155 198 245 296 357
#     4  12  25  40  60  87 119 153 194 245 297 354
#     4  11  22  39  61  86 118 158 199 239 293 356
#     4  11  25  41  58  86 120 153 195 244 292 346
#     4  10  20  38  61  86 116 153 194 238 286 345
#     4   9  18  35  57  86 120 155 197 238 285 344
#     4  10  19  32  57  89 121 154 191 242 292 340
#     4  10  21  38  62  88 115 149 194 244 292 350
#
# _framework density 18.249655000000001
#
# number of rings (size 3 to 8) (size 9 to 14) (size 15 to 20)
#    0.000    1.500    1.250    4.125    0.000    8.500 
#    0.000    0.625    0.000    0.000    0.000    0.000 
#    0.000    0.000    0.000    0.000    0.000    0.000 
#
# Total GULP energy -178875.751872 kJ/mol
# GULP energy per Si atom -5589.867246 kJ/mol
# Density = 1.820812 g / cm^3
# Si number density = 18.249655 Si / 1000 Ang^3
#
#
#
# Elastic Constant Matrix: (Units=GPa)
#
#
# Indices 1 2 3 4 5 6 
#
# 1 138.7954 58.5614 55.1407 0.0000 5.4317 0.0000
# 2 58.5614 53.8286 39.6771 0.0000 2.0056 0.0000
# 3 55.1407 39.6771 92.7531 0.0000 -10.3470 0.0000
# 4 0.0000 0.0000 0.0000 34.1711 0.0000 3.0110
# 5 5.4317 2.0056 -10.3470 0.0000 27.7878 0.0000
# 6 0.0000 0.0000 0.0000 3.0110 0.0000 29.7202
#
#
#
# Elastic Compliance Matrix: (Units=1/GPa)
#
#
# Indices 1 2 3 4 5 6 
#
# 1 0.013957 -0.012721 -0.003190 0.000000 -0.002998 0.000000
# 2 -0.012721 0.039921 -0.009973 0.000000 -0.004108 0.000000
# 3 -0.003190 -0.009973 0.017834 0.000000 0.007984 0.000000
# 4 0.000000 0.000000 0.000000 0.029528 0.000000 -0.002992
# 5 -0.002998 -0.004108 0.007984 0.000000 0.039842 0.000000
# 6 0.000000 0.000000 0.000000 -0.002992 0.000000 0.033950
#
#
# Mechanical properties :
#
#
# Convention : Reuss Voigt Hill
#
# Bulk Modulus (GPa) = 50.13848 65.79284 57.96566
# Shear Modulus (GPa) = 21.41798 27.13567 24.27683
#
# Velocity S-wave (km/s) = 3.42952 3.86024 3.65123
# Velocity P-wave (km/s) = 6.57384 7.48321 7.04322
#
# Compressibility (1/GPa) = 0.01994476
#
# Stress axis : x y z
#
# Youngs Moduli (GPa) = 71.64996 25.04947 56.07128
#
# Poissons Ratio (x) = 0.31865 0.17886
# Poissons Ratio (y) = 0.91145 0.55919
# Poissons Ratio (z) = 0.22856 0.24982
#
# Static dielectric constant tensor:
#      x y z
#    x 1.620900 0.000000 0.012050 
#    y 0.000000 1.613770 0.000000 
#    z 0.012050 0.000000 1.588610 
# 
# From -- ./inp_files/72218.got.cif
#   From: 2010.05.17/outbox.cif.g08.bks.cpg/sg11_37_cif.got.tgz:72218.got - 2010.06.03 12:22:45.
