data_PCOD9159377
_publ_section_title
;
Structure prediction by ZEFSAII (Michael W. Deem and Ramdas Pophale) SiO2 
 PCOD9159377
Probable space group: P 21/M
;
_chemical_formula_sum "Si O2"
_cell_formula_units_Z 24
_cell_length_a 5.311302
_cell_length_b 10.378150
_cell_length_c 23.856817
_cell_angle_alpha 90.000000
_cell_angle_beta 61.621405
_cell_angle_gamma 90.000000
_cell_volume 1156.991927
_symmetry_space_group_name_H-M "P 21/M"
_symmetry_group_IT_number 11
_symmetry_cell_setting 'monoclinic'
loop_
_space_group_symop_operation_xyz
x,y,z
-x,1/2+y,-z
-x,-y,-z
x,1/2-y,z
loop_
_atom_site_type_symbol
_atom_site_label
_atom_site_fract_x
_atom_site_fract_y
_atom_site_fract_z
Si Si1 0.761945 0.596481 0.782409
Si Si2 0.177452 0.892999 0.906398
Si Si3 0.909064 0.610486 0.440579
Si Si4 0.758684 0.397882 0.968597
Si Si5 0.459643 0.032610 0.416580
Si Si6 0.388253 0.899249 0.723232
O O1 0.815685 0.750000 0.769443
O O2 0.506537 0.586066 0.854194
O O3 0.628583 0.542981 0.738606
O O4 0.072543 0.541678 0.764135
O O5 0.086945 0.750000 0.893204
O O6 0.995890 0.019361 0.909928
O O7 0.149179 0.883006 0.976281
O O8 0.892150 0.750000 0.415750
O O9 0.721233 0.608475 0.517517
O O10 0.750084 0.511233 0.416407
O O11 0.232546 0.578225 0.423468
O O12 0.698724 0.250000 0.955026
O O13 0.500000 0.500000 0.000000
O O14 0.532429 0.097609 0.350272
O O15 0.374811 0.750000 0.742365
#
# Coordination Sequence:
#
# PCOD9159377 Si02
#       6
#     4   4   4   4   4   4
#     4   9  19  32  53  80 108 140 176 221 277 323
#     4   9  19  35  54  80 109 142 183 229 279 335
#     4  10  20  34  52  76 104 136 173 217 267 322
#     4  10  20  33  55  83 111 144 181 228 281 333
#     4  10  20  33  53  78 103 136 173 216 271 320
#     4  10  19  33  53  81 109 137 175 225 272 315
#
# _framework density 20.743447
#
# number of rings (size 3 to 8) (size 9 to 14) (size 15 to 20)
#    0.000    2.333    0.000    2.500    2.333    0.667 
#    0.000    5.000    0.000    6.000    0.000    0.000 
#    0.000    0.000    0.000    0.000    0.000    0.000 
#
# Total GULP energy -133637.452168 kJ/mol
# GULP energy per Si atom -5568.227174 kJ/mol
# Density = 2.069623 g / cm^3
# Si number density = 20.743447 Si / 1000 Ang^3
#
#
#
# Elastic Constant Matrix: (Units=GPa)
#
#
# Indices 1 2 3 4 5 6 
#
# 1 54.5043 15.5377 11.6160 0.0000 -10.5385 0.0000
# 2 15.5377 93.2487 3.3810 0.0000 -8.0737 0.0000
# 3 11.6160 3.3810 60.4487 0.0000 5.9065 0.0000
# 4 0.0000 0.0000 0.0000 54.9371 0.0000 -37.0304
# 5 -10.5385 -8.0737 5.9065 0.0000 31.1626 0.0000
# 6 0.0000 0.0000 0.0000 -37.0304 0.0000 42.6200
#
#
#
# Elastic Compliance Matrix: (Units=1/GPa)
#
#
# Indices 1 2 3 4 5 6 
#
# 1 0.021592 -0.002779 -0.004724 0.000000 0.007477 0.000000
# 2 -0.002779 0.011377 -0.000304 0.000000 0.002065 0.000000
# 3 -0.004724 -0.000304 0.017964 0.000000 -0.005081 0.000000
# 4 0.000000 0.000000 0.000000 0.043930 0.000000 0.038169
# 5 0.007477 0.002065 -0.005081 0.000000 0.036117 0.000000
# 6 0.000000 0.000000 0.000000 0.038169 0.000000 0.056626
#
#
# Mechanical properties :
#
#
# Convention : Reuss Voigt Hill
#
# Bulk Modulus (GPa) = 28.31407 29.91903 29.11655
# Shear Modulus (GPa) = 23.25640 37.58840 30.42240
#
# Velocity S-wave (km/s) = 3.35198 4.26145 3.83378
# Velocity P-wave (km/s) = 5.35353 6.21836 5.80208
#
# Compressibility (1/GPa) = 0.03531813
#
# Stress axis : x y z
#
# Youngs Moduli (GPa) = 46.31336 87.89717 55.66593
#
# Poissons Ratio (x) = 0.24427 0.26299
# Poissons Ratio (y) = 0.12871 0.01693
# Poissons Ratio (z) = 0.21880 0.02673
#
# Static dielectric constant tensor:
#      x y z
#    x 1.804260 0.000000 -0.010260 
#    y 0.000000 1.747960 0.000000 
#    z -0.010260 0.000000 1.743700 
# 
# From -- ./inp_files/67560.got.cif
#   From: 2010.05.17/outbox.cif.g08.bks.cpg/sg11_34_cif.got.tgz:67560.got - 2010.06.03 12:22:45.
