data_PCOD9159869
_publ_section_title
;
Structure prediction by ZEFSAII (Michael W. Deem and Ramdas Pophale) SiO2 
 PCOD9159869
Probable space group: P 21/M
;
_chemical_formula_sum "Si O2"
_cell_formula_units_Z 28
_cell_length_a 15.273831
_cell_length_b 8.822556
_cell_length_c 22.397953
_cell_angle_alpha 90.000000
_cell_angle_beta 33.347020
_cell_angle_gamma 90.000000
_cell_volume 1659.140707
_symmetry_space_group_name_H-M "P 21/M"
_symmetry_group_IT_number 11
_symmetry_cell_setting 'monoclinic'
loop_
_space_group_symop_operation_xyz
x,y,z
-x,1/2+y,-z
-x,-y,-z
x,1/2-y,z
loop_
_atom_site_type_symbol
_atom_site_label
_atom_site_fract_x
_atom_site_fract_y
_atom_site_fract_z
Si Si1 0.075578 0.929952 0.701035
Si Si2 0.582125 0.930771 0.512282
Si Si3 0.354916 0.069974 0.740208
Si Si4 0.317190 0.567583 0.890729
Si Si5 0.974489 0.930946 0.140189
Si Si6 0.756399 0.430148 0.840331
Si Si7 0.491141 0.931452 0.912548
O O1 0.092478 0.750000 0.688592
O O2 0.238111 0.008696 0.587653
O O3 0.044680 0.982054 0.786825
O O4 0.923520 0.985523 0.750228
O O5 0.581020 0.750000 0.508200
O O6 0.500000 0.000000 0.500000
O O7 0.481082 0.985479 0.626507
O O8 0.382585 0.250000 0.721182
O O9 0.179001 0.040289 0.813349
O O10 0.359623 0.012700 0.805121
O O11 0.322462 0.750000 0.879839
O O12 0.433713 0.527779 0.879158
O O13 0.137883 0.528208 0.013849
O O14 0.981177 0.750000 0.149663
O O15 0.781245 0.250000 0.824432
O O16 0.646486 0.484513 0.848402
O O17 0.652311 0.465218 0.959232
O O18 0.516810 0.750000 0.900545
#
# Coordination Sequence:
#
# PCOD9159869 Si02
#       7
#     4   4   4   4   4   4   4
#     4  12  23  35  57  85 114 148 187 232 281 336
#     4  12  24  40  60  82 110 147 190 235 282 329
#     4  11  23  37  56  82 114 152 194 234 275 331
#     4  10  20  36  56  80 116 156 190 229 280 332
#     4  10  20  36  55  79 115 154 188 231 278 329
#     4  10  19  34  55  81 114 148 183 233 284 333
#     4   9  18  33  54  81 113 149 187 230 278 334
#
# _framework density 16.876204999999999
#
# number of rings (size 3 to 8) (size 9 to 14) (size 15 to 20)
#    0.000    1.429    2.857    3.857    0.000    2.286 
#    0.000    0.000    0.000    0.857    0.000    0.000 
#    0.000    0.000    0.000    0.000    0.000    0.000 
#
# Total GULP energy -156474.283671 kJ/mol
# GULP energy per Si atom -5588.367274 kJ/mol
# Density = 1.683779 g / cm^3
# Si number density = 16.876205 Si / 1000 Ang^3
#
#
#
# Elastic Constant Matrix: (Units=GPa)
#
#
# Indices 1 2 3 4 5 6 
#
# 1 119.6941 73.0034 80.9639 0.0000 -9.3226 0.0000
# 2 73.0034 92.5736 66.7844 0.0000 -3.4204 0.0000
# 3 80.9639 66.7844 114.8533 0.0000 -0.0429 0.0000
# 4 0.0000 0.0000 0.0000 27.9872 0.0000 1.6890
# 5 -9.3226 -3.4204 -0.0429 0.0000 22.9529 0.0000
# 6 0.0000 0.0000 0.0000 1.6890 0.0000 28.0183
#
#
#
# Elastic Compliance Matrix: (Units=1/GPa)
#
#
# Indices 1 2 3 4 5 6 
#
# 1 0.021036 -0.009701 -0.009186 0.000000 0.007081 0.000000
# 2 -0.009701 0.023257 -0.006685 0.000000 -0.000487 0.000000
# 3 -0.009186 -0.006685 0.019068 0.000000 -0.004692 0.000000
# 4 0.000000 0.000000 0.000000 0.035861 0.000000 -0.002162
# 5 0.007081 -0.000487 -0.004692 0.000000 0.046362 0.000000
# 6 0.000000 0.000000 0.000000 -0.002162 0.000000 0.035821
#
#
# Mechanical properties :
#
#
# Convention : Reuss Voigt Hill
#
# Bulk Modulus (GPa) = 81.84967 85.40270 83.62619
# Shear Modulus (GPa) = 21.13077 22.88298 22.00688
#
# Velocity S-wave (km/s) = 3.54235 3.68629 3.61504
# Velocity P-wave (km/s) = 8.08309 8.29660 8.19054
#
# Compressibility (1/GPa) = 0.01221752
#
# Stress axis : x y z
#
# Youngs Moduli (GPa) = 47.53684 42.99768 52.44485
#
# Poissons Ratio (x) = 0.41711 0.48175
# Poissons Ratio (y) = 0.46114 0.35060
# Poissons Ratio (z) = 0.43666 0.28745
#
# Static dielectric constant tensor:
#      x y z
#    x 1.556020 0.000000 -0.010660 
#    y 0.000000 1.565830 0.000000 
#    z -0.010660 0.000000 1.543700 
# 
# From -- ./inp_files/37645.got.cif
#   From: 2010.05.17/outbox.cif.g08.bks.cpg/sg11_19_cif.got.tgz:37645.got - 2010.06.03 12:22:45.
