data_PCOD9159054
_publ_section_title
;
Structure prediction by ZEFSAII (Michael W. Deem and Ramdas Pophale) SiO2 
 PCOD9159054
Probable space group: P 21/M
;
_chemical_formula_sum "Si O2"
_cell_formula_units_Z 32
_cell_length_a 22.743613
_cell_length_b 8.842776
_cell_length_c 28.928259
_cell_angle_alpha 90.000000
_cell_angle_beta 18.555577
_cell_angle_gamma 90.000000
_cell_volume 1851.415223
_symmetry_space_group_name_H-M "P 21/M"
_symmetry_group_IT_number 11
_symmetry_cell_setting 'monoclinic'
loop_
_space_group_symop_operation_xyz
x,y,z
-x,1/2+y,-z
-x,-y,-z
x,1/2-y,z
loop_
_atom_site_type_symbol
_atom_site_label
_atom_site_fract_x
_atom_site_fract_y
_atom_site_fract_z
Si Si1 0.180499 0.931151 0.992528
Si Si2 0.584345 0.930200 0.008409
Si Si3 0.904618 0.932688 0.525612
Si Si4 0.792662 0.429953 0.299057
Si Si5 0.572399 0.569254 0.377906
Si Si6 0.217988 0.568531 0.222976
Si Si7 0.821067 0.930759 0.108062
Si Si8 0.478804 0.567636 0.845947
O O1 0.177920 0.750000 0.990569
O O2 0.348084 0.977564 0.901003
O O3 0.197645 0.001092 0.928801
O O4 0.986962 0.986972 0.158146
O O5 0.593548 0.750000 0.004926
O O6 0.386478 0.970656 0.132355
O O7 0.593580 0.002535 0.051811
O O8 0.737027 0.990581 0.858955
O O9 0.910595 0.750000 0.524550
O O10 0.691780 0.980652 0.680938
O O11 0.028353 0.975863 0.389198
O O12 0.000000 0.000000 0.500000
O O13 0.821470 0.250000 0.276766
O O14 0.697748 0.482307 0.321797
O O15 0.640243 0.466647 0.451880
O O16 0.596487 0.750000 0.367984
O O17 0.647124 0.536137 0.271207
O O18 0.221222 0.750000 0.214410
O O19 0.843047 0.750000 0.088615
O O20 0.000000 0.000000 0.000000
O O21 0.476490 0.750000 0.850278
#
# Coordination Sequence:
#
# PCOD9159054 Si02
#       8
#     4   4   4   4   4   4   4   4
#     4  11  23  38  54  78 112 150 188 225 272 332
#     4  10  19  32  53  81 108 139 179 224 270 322
#     4  10  19  34  56  82 109 141 183 230 277 327
#     4  10  19  33  55  81 107 141 180 223 272 320
#     4   9  19  34  54  81 111 137 173 224 275 323
#     4   9  18  32  52  80 111 139 173 222 275 324
#     4  11  21  35  57  84 111 143 180 228 278 326
#     4  10  22  38  56  77 109 150 185 225 279 332
#
# _framework density 17.284075000000001
#
# number of rings (size 3 to 8) (size 9 to 14) (size 15 to 20)
#    0.000    2.000    2.500    1.500    0.000    3.000 
#    0.000    1.250    0.000    4.500    0.000    0.000 
#    0.000    0.000    0.000    0.000    0.000    0.000 
#
# Total GULP energy -178592.756341 kJ/mol
# GULP energy per Si atom -5581.023636 kJ/mol
# Density = 1.724474 g / cm^3
# Si number density = 17.284075 Si / 1000 Ang^3
#
#
#
# Elastic Constant Matrix: (Units=GPa)
#
#
# Indices 1 2 3 4 5 6 
#
# 1 136.9265 43.2753 91.8965 0.0000 7.0099 0.0000
# 2 43.2753 32.3684 44.4108 0.0000 2.2531 0.0000
# 3 91.8965 44.4108 151.1676 0.0000 10.8824 0.0000
# 4 0.0000 0.0000 0.0000 22.8867 0.0000 2.8907
# 5 7.0099 2.2531 10.8824 0.0000 27.7168 0.0000
# 6 0.0000 0.0000 0.0000 2.8907 0.0000 27.1373
#
#
#
# Elastic Compliance Matrix: (Units=1/GPa)
#
#
# Indices 1 2 3 4 5 6 
#
# 1 0.014860 -0.012551 -0.005299 0.000000 -0.000657 0.000000
# 2 -0.012551 0.062447 -0.010887 0.000000 0.002373 0.000000
# 3 -0.005299 -0.010887 0.013249 0.000000 -0.002977 0.000000
# 4 0.000000 0.000000 0.000000 0.044289 0.000000 -0.004718
# 5 -0.000657 0.002373 -0.002977 0.000000 0.037221 0.000000
# 6 0.000000 0.000000 0.000000 -0.004718 0.000000 0.037352
#
#
# Mechanical properties :
#
#
# Convention : Reuss Voigt Hill
#
# Bulk Modulus (GPa) = 30.22769 75.51418 52.87094
# Shear Modulus (GPa) = 17.99085 24.94015 21.46550
#
# Velocity S-wave (km/s) = 3.22979 3.80275 3.52792
# Velocity P-wave (km/s) = 5.60673 7.94141 6.87392
#
# Compressibility (1/GPa) = 0.03308225
#
# Stress axis : x y z
#
# Youngs Moduli (GPa) = 67.29579 16.01367 75.47708
#
# Poissons Ratio (x) = 0.20099 0.39994
# Poissons Ratio (y) = 0.84463 0.82171
# Poissons Ratio (z) = 0.35659 0.17434
#
# Static dielectric constant tensor:
#      x y z
#    x 1.550800 0.000000 0.007930 
#    y 0.000000 1.575100 0.000000 
#    z 0.007930 0.000000 1.602680 
# 
# From -- ./inp_files/72060.got.cif
#   From: 2010.05.17/outbox.cif.g08.bks.cpg/sg11_37_cif.got.tgz:72060.got - 2010.06.03 12:22:45.
