data_PCOD9159860
_publ_section_title
;
Structure prediction by ZEFSAII (Michael W. Deem and Ramdas Pophale) SiO2 
 PCOD9159860
Probable space group: P 21/M
;
_chemical_formula_sum "Si O2"
_cell_formula_units_Z 32
_cell_length_a 12.721044
_cell_length_b 7.524350
_cell_length_c 32.009676
_cell_angle_alpha 90.000000
_cell_angle_beta 28.719132
_cell_angle_gamma 90.000000
_cell_volume 1472.248784
_symmetry_space_group_name_H-M "P 21/M"
_symmetry_group_IT_number 11
_symmetry_cell_setting 'monoclinic'
loop_
_space_group_symop_operation_xyz
x,y,z
-x,1/2+y,-z
-x,-y,-z
x,1/2-y,z
loop_
_atom_site_type_symbol
_atom_site_label
_atom_site_fract_x
_atom_site_fract_y
_atom_site_fract_z
Si Si1 0.157303 0.038698 0.514436
Si Si2 0.124452 0.537204 0.999746
Si Si3 0.702061 0.036844 0.698537
Si Si4 0.003089 0.448534 0.253954
Si Si5 0.620961 0.535536 0.823083
Si Si6 0.259902 0.034130 0.808618
Si Si7 0.750355 0.956441 0.420258
Si Si8 0.627008 0.458353 0.325091
O O1 0.146343 0.250000 0.508221
O O2 0.202017 0.014337 0.548064
O O3 0.378839 0.967356 0.415735
O O4 0.907868 0.968258 0.599144
O O5 0.140416 0.750000 0.998450
O O6 0.371896 0.468536 0.912154
O O7 0.000000 0.500000 0.000000
O O8 0.965292 0.472156 0.091945
O O9 0.706560 0.250000 0.692643
O O10 0.468927 0.972685 0.762845
O O11 0.713473 0.003293 0.744345
O O12 0.048313 0.250000 0.221169
O O13 0.885838 0.435525 0.339671
O O14 0.819467 0.533389 0.287856
O O15 0.231351 0.532471 0.189710
O O16 0.620521 0.750000 0.826761
O O17 0.259974 0.250000 0.809208
O O18 0.294760 0.974386 0.749347
O O19 0.794847 0.750000 0.395977
O O20 0.500000 0.000000 0.500000
O O21 0.607571 0.250000 0.344467
#
# Coordination Sequence:
#
# PCOD9159860 Si02
#       8
#     4   4   4   4   4   4   4   4
#     4   9  18  32  51  77 108 143 180 218 267 318
#     4  10  20  36  59  85 111 138 172 223 280 330
#     4  10  19  34  55  80 112 143 174 222 278 324
#     4  10  20  35  53  79 112 144 182 227 275 320
#     4  10  20  33  55  87 114 135 172 227 280 327
#     4  10  22  38  55  78 109 143 181 227 272 323
#     4  11  19  30  51  78 109 144 184 229 273 320
#     4  10  21  38  55  72 106 153 190 220 260 320
#
# _framework density 21.735458000000001
#
# number of rings (size 3 to 8) (size 9 to 14) (size 15 to 20)
#    0.000    2.000    3.750    0.375    0.000    2.000 
#    0.000    1.250    0.000    0.000    0.000    0.000 
#    0.000    0.000    0.000    0.000    0.000    0.000 
#
# Total GULP energy -178502.734754 kJ/mol
# GULP energy per Si atom -5578.210461 kJ/mol
# Density = 2.168599 g / cm^3
# Si number density = 21.735458 Si / 1000 Ang^3
#
#
#
# Elastic Constant Matrix: (Units=GPa)
#
#
# Indices 1 2 3 4 5 6 
#
# 1 60.1962 -0.1905 56.3973 0.0000 -12.5776 0.0000
# 2 -0.1905 35.1194 1.7385 0.0000 7.2845 0.0000
# 3 56.3973 1.7385 179.9459 0.0000 -21.7655 0.0000
# 4 0.0000 0.0000 0.0000 11.4528 0.0000 10.6636
# 5 -12.5776 7.2845 -21.7655 0.0000 39.0200 0.0000
# 6 0.0000 0.0000 0.0000 10.6636 0.0000 1.7241
#
#
#
# Elastic Compliance Matrix: (Units=1/GPa)
#
#
# Indices 1 2 3 4 5 6 
#
# 1 0.024036 -0.000322 -0.007062 0.000000 0.003869 0.000000
# 2 -0.000322 0.029803 -0.000936 0.000000 -0.006190 0.000000
# 3 -0.007062 -0.000936 0.008070 0.000000 0.002400 0.000000
# 4 0.000000 0.000000 0.000000 -0.018348 0.000000 0.113483
# 5 0.003869 -0.006190 0.002400 0.000000 0.029369 0.000000
# 6 0.000000 0.000000 0.000000 0.113483 0.000000 -0.121883
#
#
# Mechanical properties :
#
#
# Convention : Reuss Voigt Hill
#
# Bulk Modulus (GPa) = 22.09047 43.46134 32.77590
# Shear Modulus (GPa) = -290.31293 24.92713 -132.69290
#
# Velocity S-wave (km/s) = -11.56964 3.39018 -7.82187
# Velocity P-wave (km/s) = 12.97266 5.94671 8.15250
#
# Compressibility (1/GPa) = 0.04526840
#
# Stress axis : x y z
#
# Youngs Moduli (GPa) = 41.60394 33.55399 123.91726
#
# Poissons Ratio (x) = 0.01082 0.87513
# Poissons Ratio (y) = 0.01342 0.11593
# Poissons Ratio (z) = 0.29382 0.03139
#
# Static dielectric constant tensor:
#      x y z
#    x 1.785410 0.000000 -0.075100 
#    y 0.000000 1.846570 0.000000 
#    z -0.075100 0.000000 1.817160 
# 
# From -- ./inp_files/45259.got.cif
#   From: 2010.05.17/outbox.cif.g08.bks.cpg/sg11_23_cif.got.tgz:45259.got - 2010.06.03 12:22:45.
