data_PCOD9159562
_publ_section_title
;
Structure prediction by ZEFSAII (Michael W. Deem and Ramdas Pophale) SiO2 
 PCOD9159562
Probable space group: P 21/M
;
_chemical_formula_sum "Si O2"
_cell_formula_units_Z 32
_cell_length_a 9.055489
_cell_length_b 19.483831
_cell_length_c 10.378247
_cell_angle_alpha 90.000000
_cell_angle_beta 93.096246
_cell_angle_gamma 90.000000
_cell_volume 1828.419408
_symmetry_space_group_name_H-M "P 21/M"
_symmetry_group_IT_number 11
_symmetry_cell_setting 'monoclinic'
loop_
_space_group_symop_operation_xyz
x,y,z
-x,1/2+y,-z
-x,-y,-z
x,1/2-y,z
loop_
_atom_site_type_symbol
_atom_site_label
_atom_site_fract_x
_atom_site_fract_y
_atom_site_fract_z
Si Si1 0.431684 0.171156 0.289502
Si Si2 0.958561 0.038948 0.864128
Si Si3 0.921365 0.037529 0.376171
Si Si4 0.417898 0.386734 0.006722
Si Si5 0.570168 0.462940 0.381842
Si Si6 0.382145 0.527753 0.142267
Si Si7 0.920012 0.670281 0.724174
Si Si8 0.899459 0.829242 0.031451
O O1 0.469971 0.250000 0.313795
O O2 0.518976 0.115903 0.375288
O O3 0.256244 0.161868 0.306717
O O4 0.460294 0.151577 0.140915
O O5 0.785619 0.035222 0.820870
O O6 0.003737 0.117378 0.886136
O O7 0.046246 0.004309 0.752600
O O8 0.000000 0.000000 0.000000
O O9 0.746257 0.036391 0.389350
O O10 0.988148 0.113495 0.349529
O O11 0.000000 0.000000 0.500000
O O12 0.553071 0.403014 0.918150
O O13 0.272725 0.347778 0.951274
O O14 0.369745 0.464504 0.040878
O O15 0.500000 0.500000 0.500000
O O16 0.496016 0.500451 0.254828
O O17 0.959321 0.750000 0.698372
O O18 0.931905 0.659903 0.879886
O O19 0.926157 0.750000 0.061607
#
# Coordination Sequence:
#
# PCOD9159562 Si02
#       8
#     4   4   4   4   4   4   4   4
#     4   9  18  33  56  83 116 150 187 233 287 346
#     4  12  21  36  60  87 117 151 195 242 290 338
#     4  12  24  39  61  87 115 157 199 245 293 349
#     4   9  16  30  52  81 113 147 182 230 282 339
#     4  11  23  38  58  82 117 152 197 241 285 343
#     4  10  20  32  55  83 113 144 192 236 284 331
#     4   9  18  35  58  87 118 152 190 238 293 350
#     4  10  19  33  55  85 122 157 191 236 298 354
#
# _framework density 17.501455
#
# number of rings (size 3 to 8) (size 9 to 14) (size 15 to 20)
#    0.000    1.750    2.500    4.875    3.500    0.500 
#    0.000    3.125    0.000    7.500    0.000    0.000 
#    0.000    0.000    0.000    0.000    0.000    0.000 
#
# Total GULP energy -178480.236284 kJ/mol
# GULP energy per Si atom -5577.507384 kJ/mol
# Density = 1.746162 g / cm^3
# Si number density = 17.501455 Si / 1000 Ang^3
#
#
#
# Elastic Constant Matrix: (Units=GPa)
#
#
# Indices 1 2 3 4 5 6 
#
# 1 121.5190 76.6350 46.4581 0.0000 -5.9709 0.0000
# 2 76.6350 144.6511 50.6727 0.0000 -4.0987 0.0000
# 3 46.4581 50.6727 62.7543 0.0000 -5.5375 0.0000
# 4 0.0000 0.0000 0.0000 24.4427 0.0000 -2.1382
# 5 -5.9709 -4.0987 -5.5375 0.0000 25.9440 0.0000
# 6 0.0000 0.0000 0.0000 -2.1382 0.0000 33.8996
#
#
#
# Elastic Compliance Matrix: (Units=1/GPa)
#
#
# Indices 1 2 3 4 5 6 
#
# 1 0.013848 -0.005226 -0.005935 0.000000 0.001095 0.000000
# 2 -0.005226 0.011613 -0.005557 0.000000 -0.000554 0.000000
# 3 -0.005935 -0.005557 0.025091 0.000000 0.003112 0.000000
# 4 0.000000 0.000000 0.000000 0.041139 0.000000 0.002595
# 5 0.001095 -0.000554 0.003112 0.000000 0.039373 0.000000
# 6 0.000000 0.000000 0.000000 0.002595 0.000000 0.029663
#
#
# Mechanical properties :
#
#
# Convention : Reuss Voigt Hill
#
# Bulk Modulus (GPa) = 58.42911 75.16177 66.79544
# Shear Modulus (GPa) = 25.01648 27.20118 26.10883
#
# Velocity S-wave (km/s) = 3.78483 3.94664 3.86658
# Velocity P-wave (km/s) = 7.24967 7.98794 7.62774
#
# Compressibility (1/GPa) = 0.01711476
#
# Stress axis : x y z
#
# Youngs Moduli (GPa) = 72.21251 86.11004 39.85535
#
# Poissons Ratio (x) = 0.45005 0.23655
# Poissons Ratio (y) = 0.37741 0.22147
# Poissons Ratio (z) = 0.42859 0.47851
#
# Static dielectric constant tensor:
#      x y z
#    x 1.619210 0.000000 -0.010400 
#    y 0.000000 1.614560 0.000000 
#    z -0.010400 0.000000 1.607710 
# 
# From -- ./inp_files/14343.got.cif
#   From: 2010.05.17/outbox.cif.g08.bks.cpg/sg11_8_cif.got.tgz:14343.got - 2010.06.03 12:22:45.
