data_PCOD9159357
_publ_section_title
;
Structure prediction by ZEFSAII (Michael W. Deem and Ramdas Pophale) SiO2 
 PCOD9159357
Probable space group: P 21/M
;
_chemical_formula_sum "Si O2"
_cell_formula_units_Z 28
_cell_length_a 9.870915
_cell_length_b 13.509543
_cell_length_c 14.824243
_cell_angle_alpha 90.000000
_cell_angle_beta 43.782299
_cell_angle_gamma 90.000000
_cell_volume 1367.812536
_symmetry_space_group_name_H-M "P 21/M"
_symmetry_group_IT_number 11
_symmetry_cell_setting 'monoclinic'
loop_
_space_group_symop_operation_xyz
x,y,z
-x,1/2+y,-z
-x,-y,-z
x,1/2-y,z
loop_
_atom_site_type_symbol
_atom_site_label
_atom_site_fract_x
_atom_site_fract_y
_atom_site_fract_z
Si Si1 0.153023 0.504623 0.738326
Si Si2 0.107885 0.135028 0.022927
Si Si3 0.386263 0.369212 0.055170
Si Si4 0.604399 0.633900 0.278793
Si Si5 0.801532 0.130539 0.620776
Si Si6 0.994440 0.869288 0.656383
Si Si7 0.823822 0.369164 0.818153
O O1 0.349719 0.445107 0.665567
O O2 0.075192 0.568175 0.861136
O O3 0.137093 0.577694 0.659953
O O4 0.991860 0.420902 0.793752
O O5 0.056273 0.250000 0.063462
O O6 0.278604 0.108506 0.012674
O O7 0.207134 0.128416 0.878000
O O8 0.404561 0.250000 0.047392
O O9 0.227448 0.393857 0.207605
O O10 0.608619 0.404348 0.953217
O O11 0.582307 0.750000 0.317247
O O12 0.413568 0.604359 0.313075
O O13 0.800988 0.250000 0.623642
O O14 0.843456 0.102693 0.703210
O O15 0.953854 0.101393 0.470012
O O16 0.017305 0.750000 0.653827
O O17 0.836977 0.250000 0.819631
#
# Coordination Sequence:
#
# PCOD9159357 Si02
#       7
#     4   4   4   4   4   4   4
#     4  11  21  30  51  81 109 130 166 214 269 296
#     4   9  17  32  52  73 100 137 173 206 248 306
#     4   8  14  29  51  74  98 127 166 212 246 287
#     4  10  19  34  53  75 104 136 172 211 253 305
#     4   9  18  35  56  73  98 142 179 205 246 306
#     4   9  19  34  52  76 102 136 177 211 249 305
#     4  10  19  33  53  79 106 133 170 212 255 303
#
# _framework density 20.470642000000002
#
# number of rings (size 3 to 8) (size 9 to 14) (size 15 to 20)
#    0.000    2.571    1.429    2.143    0.000    3.429 
#    0.000    0.000    0.000    0.000    0.000    2.000 
#    0.000    0.000    0.000    0.000    0.000    0.000 
#
# Total GULP energy -156242.430128 kJ/mol
# GULP energy per Si atom -5580.086790 kJ/mol
# Density = 2.042405 g / cm^3
# Si number density = 20.470642 Si / 1000 Ang^3
#
#
#
# Elastic Constant Matrix: (Units=GPa)
#
#
# Indices 1 2 3 4 5 6 
#
# 1 41.0739 18.7643 16.7399 0.0000 0.0325 0.0000
# 2 18.7643 90.6853 15.2233 0.0000 6.7952 0.0000
# 3 16.7399 15.2233 79.2315 0.0000 12.4440 0.0000
# 4 0.0000 0.0000 0.0000 19.2646 0.0000 5.8548
# 5 0.0325 6.7952 12.4440 0.0000 14.0246 0.0000
# 6 0.0000 0.0000 0.0000 5.8548 0.0000 34.7417
#
#
#
# Elastic Compliance Matrix: (Units=1/GPa)
#
#
# Indices 1 2 3 4 5 6 
#
# 1 0.029568 -0.005661 -0.006483 0.000000 0.008427 0.000000
# 2 -0.005661 0.012691 -0.000324 0.000000 -0.005849 0.000000
# 3 -0.006483 -0.000324 0.016297 0.000000 -0.014289 0.000000
# 4 0.000000 0.000000 0.000000 0.054711 0.000000 -0.009220
# 5 0.008427 -0.005849 -0.014289 0.000000 0.086796 0.000000
# 6 0.000000 0.000000 0.000000 -0.009220 0.000000 0.030338
#
#
# Mechanical properties :
#
#
# Convention : Reuss Voigt Hill
#
# Bulk Modulus (GPa) = 29.74344 34.71619 32.22982
# Shear Modulus (GPa) = 18.75866 24.29038 21.52452
#
# Velocity S-wave (km/s) = 3.03044 3.44844 3.24617
# Velocity P-wave (km/s) = 5.17746 5.73162 5.46157
#
# Compressibility (1/GPa) = 0.03362086
#
# Stress axis : x y z
#
# Youngs Moduli (GPa) = 33.82024 78.79500 61.35994
#
# Poissons Ratio (x) = 0.44608 0.39779
# Poissons Ratio (y) = 0.19147 0.01986
# Poissons Ratio (z) = 0.21925 0.02551
#
# Static dielectric constant tensor:
#      x y z
#    x 1.692720 0.000000 0.008650 
#    y 0.000000 1.785860 0.000000 
#    z 0.008650 0.000000 1.756470 
# 
# From -- ./inp_files/39481.got.cif
#   From: 2010.05.17/outbox.cif.g08.bks.cpg/sg11_20_cif.got.tgz:39481.got - 2010.06.03 12:22:45.
