data_PCOD9159601
_publ_section_title
;
Structure prediction by ZEFSAII (Michael W. Deem and Ramdas Pophale) SiO2 
 PCOD9159601
Probable space group: P 21/M
;
_chemical_formula_sum "Si O2"
_cell_formula_units_Z 28
_cell_length_a 9.643327
_cell_length_b 13.922632
_cell_length_c 15.510240
_cell_angle_alpha 90.000000
_cell_angle_beta 134.491535
_cell_angle_gamma 90.000000
_cell_volume 1485.497255
_symmetry_space_group_name_H-M "P 21/M"
_symmetry_group_IT_number 11
_symmetry_cell_setting 'monoclinic'
loop_
_space_group_symop_operation_xyz
x,y,z
-x,1/2+y,-z
-x,-y,-z
x,1/2-y,z
loop_
_atom_site_type_symbol
_atom_site_label
_atom_site_fract_x
_atom_site_fract_y
_atom_site_fract_z
Si Si1 0.997933 0.145358 0.746626
Si Si2 0.266830 0.035918 0.095534
Si Si3 0.891400 0.356726 0.901600
Si Si4 0.271351 0.516788 0.902016
Si Si5 0.024075 0.637503 0.667742
Si Si6 0.315325 0.521052 0.480315
Si Si7 0.359572 0.635389 0.676101
O O1 0.047599 0.250000 0.735730
O O2 0.951515 0.149180 0.827934
O O3 0.810553 0.103673 0.619760
O O4 0.174240 0.073148 0.811331
O O5 0.462789 0.096848 0.187454
O O6 0.261974 0.942518 0.154157
O O7 0.226264 0.991990 0.983478
O O8 0.085433 0.106396 0.035124
O O9 0.830778 0.250000 0.903270
O O10 0.165157 0.605393 0.808877
O O11 0.500000 0.500000 0.000000
O O12 0.974667 0.750000 0.653658
O O13 0.158992 0.623790 0.641718
O O14 0.832367 0.570390 0.580185
O O15 0.500000 0.500000 0.500000
O O16 0.365075 0.567038 0.594709
O O17 0.383275 0.750000 0.667867
#
# Coordination Sequence:
#
# PCOD9159601 Si02
#       7
#     4   4   4   4   4   4   4
#     4   9  19  35  55  78 108 146 187 231 285 345
#     4  10  19  33  56  83 116 152 191 240 294 351
#     4   9  18  33  52  79 114 149 187 236 295 354
#     4  10  19  35  57  84 115 148 187 238 287 347
#     4  10  23  41  62  88 120 158 201 251 303 358
#     4  11  23  40  61  87 117 155 201 251 300 347
#     4  11  22  38  62  87 117 158 202 245 300 362
#
# _framework density 18.848908000000002
#
# number of rings (size 3 to 8) (size 9 to 14) (size 15 to 20)
#    0.000    2.000    1.429    2.143    0.000    4.000 
#    0.000    0.714    0.000    0.000    0.000    0.000 
#    0.000    0.000    0.000    0.000    0.000    0.000 
#
# Total GULP energy -155994.328690 kJ/mol
# GULP energy per Si atom -5571.226025 kJ/mol
# Density = 1.880601 g / cm^3
# Si number density = 18.848908 Si / 1000 Ang^3
#
#
#
# Elastic Constant Matrix: (Units=GPa)
#
#
# Indices 1 2 3 4 5 6 
#
# 1 73.1961 28.2646 24.0057 0.0000 7.4165 0.0000
# 2 28.2646 108.7745 23.2225 0.0000 -3.7260 0.0000
# 3 24.0057 23.2225 68.6684 0.0000 -4.0280 0.0000
# 4 0.0000 0.0000 0.0000 17.0973 0.0000 -3.4002
# 5 7.4165 -3.7260 -4.0280 0.0000 22.4252 0.0000
# 6 0.0000 0.0000 0.0000 -3.4002 0.0000 18.3005
#
#
#
# Elastic Compliance Matrix: (Units=1/GPa)
#
#
# Indices 1 2 3 4 5 6 
#
# 1 0.017582 -0.003683 -0.005334 0.000000 -0.007385 0.000000
# 2 -0.003683 0.010705 -0.002180 0.000000 0.002605 0.000000
# 3 -0.005334 -0.002180 0.017431 0.000000 0.004533 0.000000
# 4 0.000000 0.000000 0.000000 0.060733 0.000000 0.011284
# 5 -0.007385 0.002605 0.004533 0.000000 0.048282 0.000000
# 6 0.000000 0.000000 0.000000 0.011284 0.000000 0.056740
#
#
# Mechanical properties :
#
#
# Convention : Reuss Voigt Hill
#
# Bulk Modulus (GPa) = 42.87501 44.62495 43.74998
# Shear Modulus (GPa) = 20.69194 23.24102 21.96648
#
# Velocity S-wave (km/s) = 3.31687 3.51524 3.41750
# Velocity P-wave (km/s) = 6.12086 6.34054 6.23166
#
# Compressibility (1/GPa) = 0.02332361
#
# Stress axis : x y z
#
# Youngs Moduli (GPa) = 56.87751 93.41515 57.37033
#
# Poissons Ratio (x) = 0.34402 0.30602
# Poissons Ratio (y) = 0.20946 0.12507
# Poissons Ratio (z) = 0.30339 0.20364
#
# Static dielectric constant tensor:
#      x y z
#    x 1.672740 0.000000 -0.021380 
#    y 0.000000 1.677640 0.000000 
#    z -0.021380 0.000000 1.685740 
# 
# From -- ./inp_files/47678.got.cif
#   From: 2010.05.17/outbox.cif.g08.bks.cpg/sg11_24_cif.got.tgz:47678.got - 2010.06.03 12:22:45.
