data_PCOD9159850
_publ_section_title
;
Structure prediction by ZEFSAII (Michael W. Deem and Ramdas Pophale) SiO2 
 PCOD9159850
Probable space group: P 21/M
;
_chemical_formula_sum "Si O2"
_cell_formula_units_Z 32
_cell_length_a 22.986333
_cell_length_b 8.724101
_cell_length_c 9.591451
_cell_angle_alpha 90.000000
_cell_angle_beta 89.182359
_cell_angle_gamma 90.000000
_cell_volume 1923.226649
_symmetry_space_group_name_H-M "P 21/M"
_symmetry_group_IT_number 11
_symmetry_cell_setting 'monoclinic'
loop_
_space_group_symop_operation_xyz
x,y,z
-x,1/2+y,-z
-x,-y,-z
x,1/2-y,z
loop_
_atom_site_type_symbol
_atom_site_label
_atom_site_fract_x
_atom_site_fract_y
_atom_site_fract_z
Si Si1 0.449428 0.067743 0.904210
Si Si2 0.642782 0.568018 0.601554
Si Si3 0.943368 0.933807 0.423623
Si Si4 0.448349 0.567117 0.596109
Si Si5 0.749119 0.067463 0.727536
Si Si6 0.992823 0.065413 0.846564
Si Si7 0.879774 0.065205 0.672685
Si Si8 0.640709 0.431498 0.893266
O O1 0.454673 0.250000 0.896730
O O2 0.453274 0.996090 0.751511
O O3 0.500000 0.000000 0.000000
O O4 0.389221 0.018875 0.980291
O O5 0.635300 0.750000 0.600636
O O6 0.610941 0.491201 0.473569
O O7 0.710583 0.521632 0.614420
O O8 0.616618 0.496809 0.746382
O O9 0.943218 0.750000 0.432435
O O10 0.954756 0.976803 0.262017
O O11 0.891122 0.000175 0.517385
O O12 0.000000 0.000000 0.500000
O O13 0.500000 0.500000 0.500000
O O14 0.450988 0.750000 0.595808
O O15 0.746294 0.250000 0.698071
O O16 0.815969 0.021051 0.729088
O O17 0.710129 0.044427 0.868390
O O18 0.991416 0.250000 0.854619
O O19 0.932354 0.015660 0.773396
O O20 0.000000 0.000000 0.000000
O O21 0.882734 0.250000 0.665133
O O22 0.629265 0.250000 0.903510
#
# Coordination Sequence:
#
# PCOD9159850 Si02
#       8
#     4   4   4   4   4   4   4   4
#     4  12  24  38  56  81 109 139 175 216 262 316
#     4  10  19  34  55  80 107 135 170 215 263 310
#     4   9  17  29  46  72 100 130 167 211 257 304
#     4  12  24  39  57  80 108 139 174 215 265 319
#     4   8  17  33  56  78 103 136 177 217 258 310
#     4   9  18  30  47  72 106 138 170 211 258 305
#     4   9  17  32  53  77 102 135 178 218 253 306
#     4   9  18  35  56  78 104 138 174 214 261 311
#
# _framework density 16.638703
#
# number of rings (size 3 to 8) (size 9 to 14) (size 15 to 20)
#    0.750    1.500    0.000    5.250    0.000    3.000 
#    0.000    0.000    2.750    0.000    0.000    0.000 
#    0.000    0.000    0.000    0.000    0.000    0.000 
#
# Total GULP energy -178195.203699 kJ/mol
# GULP energy per Si atom -5568.600116 kJ/mol
# Density = 1.660083 g / cm^3
# Si number density = 16.638703 Si / 1000 Ang^3
#
#
#
# Elastic Constant Matrix: (Units=GPa)
#
#
# Indices 1 2 3 4 5 6 
#
# 1 94.0807 35.8856 51.8162 0.0000 -11.0714 0.0000
# 2 35.8856 87.2274 40.8321 0.0000 -2.4416 0.0000
# 3 51.8162 40.8321 132.7252 0.0000 -7.3857 0.0000
# 4 0.0000 0.0000 0.0000 31.9075 0.0000 -2.7972
# 5 -11.0714 -2.4416 -7.3857 0.0000 20.6243 0.0000
# 6 0.0000 0.0000 0.0000 -2.7972 0.0000 23.3011
#
#
#
# Elastic Compliance Matrix: (Units=1/GPa)
#
#
# Indices 1 2 3 4 5 6 
#
# 1 0.015327 -0.004080 -0.004385 0.000000 0.006174 0.000000
# 2 -0.004080 0.014479 -0.002947 0.000000 -0.001531 0.000000
# 3 -0.004385 -0.002947 0.010206 0.000000 0.000952 0.000000
# 4 0.000000 0.000000 0.000000 0.031674 0.000000 0.003802
# 5 0.006174 -0.001531 0.000952 0.000000 0.051961 0.000000
# 6 0.000000 0.000000 0.000000 0.003802 0.000000 0.043373
#
#
# Mechanical properties :
#
#
# Convention : Reuss Voigt Hill
#
# Bulk Modulus (GPa) = 58.17820 63.45566 60.81693
# Shear Modulus (GPa) = 25.56588 27.53322 26.54955
#
# Velocity S-wave (km/s) = 3.92411 4.07230 3.99889
# Velocity P-wave (km/s) = 7.45473 7.76735 7.61264
#
# Compressibility (1/GPa) = 0.01718857
#
# Stress axis : x y z
#
# Youngs Moduli (GPa) = 65.24373 69.06338 97.98351
#
# Poissons Ratio (x) = 0.28179 0.42965
# Poissons Ratio (y) = 0.26621 0.28874
# Poissons Ratio (z) = 0.28609 0.20352
#
# Static dielectric constant tensor:
#      x y z
#    x 2.005970 0.000000 -0.032920 
#    y 0.000000 1.554530 0.000000 
#    z -0.032920 0.000000 1.555920 
# 
# From -- ./inp_files/27300.got.cif
#   From: 2010.05.17/outbox.cif.g08.bks.cpg/sg11_14_cif.got.tgz:27300.got - 2010.06.03 12:22:45.
