data_PCOD9159600
_publ_section_title
;
Structure prediction by ZEFSAII (Michael W. Deem and Ramdas Pophale) SiO2 
 PCOD9159600
Probable space group: P 21/M
;
_chemical_formula_sum "Si O2"
_cell_formula_units_Z 32
_cell_length_a 9.698440
_cell_length_b 11.627534
_cell_length_c 20.017215
_cell_angle_alpha 90.000000
_cell_angle_beta 133.702972
_cell_angle_gamma 90.000000
_cell_volume 1631.887397
_symmetry_space_group_name_H-M "P 21/M"
_symmetry_group_IT_number 11
_symmetry_cell_setting 'monoclinic'
loop_
_space_group_symop_operation_xyz
x,y,z
-x,1/2+y,-z
-x,-y,-z
x,1/2-y,z
loop_
_atom_site_type_symbol
_atom_site_label
_atom_site_fract_x
_atom_site_fract_y
_atom_site_fract_z
Si Si1 0.592831 0.955243 0.440447
Si Si2 0.716708 0.475113 0.868470
Si Si3 0.107819 0.121467 0.956633
Si Si4 0.722812 0.614500 0.734517
Si Si5 0.303087 0.383059 0.764735
Si Si6 0.052102 0.465013 0.790640
Si Si7 0.896640 0.619717 0.442982
Si Si8 0.254981 0.627287 0.410713
O O1 0.448422 0.048564 0.360375
O O2 0.742965 0.023377 0.536732
O O3 0.701223 0.886224 0.420227
O O4 0.460537 0.880018 0.444033
O O5 0.717460 0.568176 0.808700
O O6 0.512146 0.417737 0.809424
O O7 0.885616 0.388956 0.903648
O O8 0.779634 0.533985 0.958572
O O9 0.177270 0.250000 0.991054
O O10 0.117150 0.089221 0.882063
O O11 0.699659 0.750000 0.723347
O O12 0.923417 0.575094 0.767912
O O13 0.304398 0.250000 0.788955
O O14 0.161413 0.388871 0.653986
O O15 0.226775 0.467399 0.797327
O O16 0.899963 0.387444 0.699065
O O17 0.979768 0.750000 0.483002
O O18 0.000000 0.500000 0.500000
O O19 0.231885 0.750000 0.436700
#
# Coordination Sequence:
#
# PCOD9159600 Si02
#       8
#     4   4   4   4   4   4   4   4
#     4  10  20  35  56  84 113 154 204 251 303 360
#     4  10  21  37  60  90 118 153 206 250 311 374
#     4  10  20  37  60  86 117 154 200 257 309 366
#     4  10  20  38  60  84 119 157 202 258 312 368
#     4  11  22  40  62  88 125 162 203 256 307 367
#     4  10  22  37  57  85 116 156 202 243 303 368
#     4  11  24  41  60  87 125 167 211 256 306 367
#     4  10  19  33  56  83 114 151 199 251 300 356
#
# _framework density 19.609196000000001
#
# number of rings (size 3 to 8) (size 9 to 14) (size 15 to 20)
#    0.000    1.750    1.250    3.375    0.000    2.500 
#    0.000    6.875    0.000    0.000    0.000    0.000 
#    0.000    0.000    0.000    0.000    0.000    0.000 
#
# Total GULP energy -178550.640544 kJ/mol
# GULP energy per Si atom -5579.707517 kJ/mol
# Density = 1.956456 g / cm^3
# Si number density = 19.609196 Si / 1000 Ang^3
#
#
#
# Elastic Constant Matrix: (Units=GPa)
#
#
# Indices 1 2 3 4 5 6 
#
# 1 102.8125 20.4134 21.9370 0.0000 -9.9500 0.0000
# 2 20.4134 103.2158 23.5164 0.0000 -2.3226 0.0000
# 3 21.9370 23.5164 73.0289 0.0000 -12.9569 0.0000
# 4 0.0000 0.0000 0.0000 1.1669 0.0000 4.0287
# 5 -9.9500 -2.3226 -12.9569 0.0000 36.7580 0.0000
# 6 0.0000 0.0000 0.0000 4.0287 0.0000 8.4260
#
#
#
# Elastic Compliance Matrix: (Units=1/GPa)
#
#
# Indices 1 2 3 4 5 6 
#
# 1 0.010730 -0.001536 -0.002379 0.000000 0.001969 0.000000
# 2 -0.001536 0.010686 -0.003130 0.000000 -0.000844 0.000000
# 3 -0.002379 -0.003130 0.016285 0.000000 0.004898 0.000000
# 4 0.000000 0.000000 0.000000 -1.316991 0.000000 0.629687
# 5 0.001969 -0.000844 0.004898 0.000000 0.029411 0.000000
# 6 0.000000 0.000000 0.000000 0.629687 0.000000 -0.182389
#
#
# Mechanical properties :
#
#
# Convention : Reuss Voigt Hill
#
# Bulk Modulus (GPa) = 42.35189 45.64345 43.99767
# Shear Modulus (GPa) = -3.54532 23.48285 9.96877
#
# Velocity S-wave (km/s) = -1.34607 3.46431 2.25716
# Velocity P-wave (km/s) = 4.38509 6.27128 5.41101
#
# Compressibility (1/GPa) = 0.02361170
#
# Stress axis : x y z
#
# Youngs Moduli (GPa) = 93.20077 93.57872 61.40712
#
# Poissons Ratio (x) = 0.14370 0.14610
# Poissons Ratio (y) = 0.14312 0.19217
# Poissons Ratio (z) = 0.22175 0.29285
#
# Static dielectric constant tensor:
#      x y z
#    x 1.724400 0.000000 0.011360 
#    y 0.000000 1.696250 0.000000 
#    z 0.011360 0.000000 1.676260 
# 
# From -- ./inp_files/63678.got.cif
#   From: 2010.05.17/outbox.cif.g08.bks.cpg/sg11_32_cif.got.tgz:63678.got - 2010.06.03 12:22:45.
