data_PCOD9159422
_publ_section_title
;
Structure prediction by ZEFSAII (Michael W. Deem and Ramdas Pophale) SiO2 
 PCOD9159422
Probable space group: P 21/M
;
_chemical_formula_sum "Si O2"
_cell_formula_units_Z 28
_cell_length_a 9.076989
_cell_length_b 14.918423
_cell_length_c 16.604794
_cell_angle_alpha 90.000000
_cell_angle_beta 31.883114
_cell_angle_gamma 90.000000
_cell_volume 1187.645522
_symmetry_space_group_name_H-M "P 21/M"
_symmetry_group_IT_number 11
_symmetry_cell_setting 'monoclinic'
loop_
_space_group_symop_operation_xyz
x,y,z
-x,1/2+y,-z
-x,-y,-z
x,1/2-y,z
loop_
_atom_site_type_symbol
_atom_site_label
_atom_site_fract_x
_atom_site_fract_y
_atom_site_fract_z
Si Si1 0.875357 0.544308 0.864998
Si Si2 0.436293 0.038180 0.330164
Si Si3 0.271155 0.398936 0.239104
Si Si4 0.350254 0.656301 0.442350
Si Si5 0.983793 0.644217 0.956970
Si Si6 0.892031 0.152705 0.922458
Si Si7 0.481502 0.901230 0.545385
O O1 0.728317 0.550000 0.846879
O O2 0.933984 0.440280 0.856065
O O3 0.767918 0.594120 0.996399
O O4 0.157148 0.603006 0.721146
O O5 0.418050 0.936199 0.366975
O O6 0.278702 0.047560 0.319470
O O7 0.745387 0.077925 0.170894
O O8 0.345206 0.097210 0.451877
O O9 0.977738 0.348466 0.381795
O O10 0.563876 0.347167 0.099959
O O11 0.395422 0.750000 0.377233
O O12 0.517903 0.657065 0.449407
O O13 0.029914 0.750000 0.913208
O O14 0.931543 0.647026 0.076856
O O15 0.940847 0.250000 0.861120
O O16 0.500000 0.000000 0.500000
#
# Coordination Sequence:
#
# PCOD9159422 Si02
#       7
#     4   4   4   4   4   4   4
#     4  10  19  33  55  79 102 134 174 218 257 303
#     4   9  18  34  53  77 106 135 172 217 259 305
#     4  10  20  33  52  75 106 145 178 212 254 306
#     4  10  19  33  54  79 105 138 177 216 257 306
#     4   9  19  35  57  79 101 135 178 217 258 310
#     4  10  20  35  53  77 107 139 175 216 261 308
#     4   8  17  33  52  72  98 130 166 208 256 304
#
# _framework density 23.576058
#
# number of rings (size 3 to 8) (size 9 to 14) (size 15 to 20)
#    0.000    2.571    0.000    1.714    0.000    6.286 
#    0.000    7.143    0.000   10.286    0.000    0.000 
#    0.000    0.000    0.000    0.000    0.000    0.000 
#
# Total GULP energy -155868.550701 kJ/mol
# GULP energy per Si atom -5566.733954 kJ/mol
# Density = 2.352240 g / cm^3
# Si number density = 23.576058 Si / 1000 Ang^3
#
#
#
# Elastic Constant Matrix: (Units=GPa)
#
#
# Indices 1 2 3 4 5 6 
#
# 1 194.8266 76.0998 15.7359 0.0000 34.4652 0.0000
# 2 76.0998 186.0376 29.7349 0.0000 15.1838 0.0000
# 3 15.7359 29.7349 61.1343 0.0000 -21.7276 0.0000
# 4 0.0000 0.0000 0.0000 27.9538 0.0000 5.5981
# 5 34.4652 15.1838 -21.7276 0.0000 24.0952 0.0000
# 6 0.0000 0.0000 0.0000 5.5981 0.0000 4.5252
#
#
#
# Elastic Compliance Matrix: (Units=1/GPa)
#
#
# Indices 1 2 3 4 5 6 
#
# 1 0.010805 -0.000449 -0.011708 0.000000 -0.025731 0.000000
# 2 -0.000449 0.007648 -0.007489 0.000000 -0.010931 0.000000
# 3 -0.011708 -0.007489 0.045095 0.000000 0.062131 0.000000
# 4 0.000000 0.000000 0.000000 0.047555 0.000000 -0.058829
# 5 -0.025731 -0.010931 0.062131 0.000000 0.141220 0.000000
# 6 0.000000 0.000000 0.000000 -0.058829 0.000000 0.293760
#
#
# Mechanical properties :
#
#
# Convention : Reuss Voigt Hill
#
# Bulk Modulus (GPa) = 41.22547 76.12664 58.67606
# Shear Modulus (GPa) = 8.42515 32.67671 20.55093
#
# Velocity S-wave (km/s) = 1.89245 3.72696 2.95564
# Velocity P-wave (km/s) = 4.72221 7.13304 6.04894
#
# Compressibility (1/GPa) = 0.02425685
#
# Stress axis : x y z
#
# Youngs Moduli (GPa) = 92.54592 130.75266 22.17517
#
# Poissons Ratio (x) = 0.05866 0.25963
# Poissons Ratio (y) = 0.04152 0.16608
# Poissons Ratio (z) = 1.08352 0.97927
#
# Static dielectric constant tensor:
#      x y z
#    x 2.026020 0.000000 0.103950 
#    y 0.000000 1.843830 0.000000 
#    z 0.103950 0.000000 2.344150 
# 
# From -- ./inp_files/58111.got.cif
#   From: 2010.05.17/outbox.cif.g08.bks.cpg/sg11_30_cif.got.tgz:58111.got - 2010.06.03 12:22:45.
