data_PCOD9159784
_publ_section_title
;
Structure prediction by ZEFSAII (Michael W. Deem and Ramdas Pophale) SiO2 
 PCOD9159784
Probable space group: P 21/M
;
_chemical_formula_sum "Si O2"
_cell_formula_units_Z 28
_cell_length_a 6.559166
_cell_length_b 16.699433
_cell_length_c 17.613529
_cell_angle_alpha 90.000000
_cell_angle_beta 124.681599
_cell_angle_gamma 90.000000
_cell_volume 1586.504051
_symmetry_space_group_name_H-M "P 21/M"
_symmetry_group_IT_number 11
_symmetry_cell_setting 'monoclinic'
loop_
_space_group_symop_operation_xyz
x,y,z
-x,1/2+y,-z
-x,-y,-z
x,1/2-y,z
loop_
_atom_site_type_symbol
_atom_site_label
_atom_site_fract_x
_atom_site_fract_y
_atom_site_fract_z
Si Si1 0.378335 0.001167 0.871484
Si Si2 0.313266 0.572229 0.441701
Si Si3 0.187056 0.526009 0.669272
Si Si4 0.565876 0.618439 0.348287
Si Si5 0.649196 0.158415 0.860072
Si Si6 0.876991 0.945214 0.039206
Si Si7 0.906350 0.339781 0.470149
O O1 0.292326 0.961774 0.774989
O O2 0.500336 0.088539 0.875186
O O3 0.155707 0.016137 0.883925
O O4 0.588720 0.944021 0.952765
O O5 0.500000 0.500000 0.500000
O O6 0.388147 0.620085 0.382694
O O7 0.288380 0.629080 0.508956
O O8 0.048012 0.531872 0.372608
O O9 0.382510 0.474731 0.661415
O O10 0.103785 0.601746 0.603568
O O11 0.460580 0.655233 0.248774
O O12 0.826160 0.653976 0.432192
O O13 0.624860 0.250000 0.883394
O O14 0.937500 0.130068 0.917886
O O15 0.000000 0.000000 0.000000
O O16 0.856359 0.250000 0.436527
#
# Coordination Sequence:
#
# PCOD9159784 Si02
#       7
#     4   4   4   4   4   4   4
#     4   9  19  35  57  77 103 141 177 216 261 323
#     4  11  18  34  55  74 101 146 190 214 259 316
#     4  10  19  34  54  77 100 142 183 217 256 322
#     4  10  19  35  53  75 107 144 178 216 258 320
#     4  10  20  32  52  83 111 135 169 218 275 320
#     4   9  18  36  56  80 103 131 174 215 261 319
#     4  11  22  33  48  76 110 140 179 227 268 305
#
# _framework density 17.648866999999999
#
# number of rings (size 3 to 8) (size 9 to 14) (size 15 to 20)
#    0.000    2.000    2.857    2.143    0.000    1.714 
#    0.000    0.714    0.000    3.429    0.000    0.000 
#    0.000    0.000    0.000    0.000    0.000    0.000 
#
# Total GULP energy -155983.181461 kJ/mol
# GULP energy per Si atom -5570.827909 kJ/mol
# Density = 1.760870 g / cm^3
# Si number density = 17.648867 Si / 1000 Ang^3
#
#
#
# Elastic Constant Matrix: (Units=GPa)
#
#
# Indices 1 2 3 4 5 6 
#
# 1 83.2990 16.4387 10.2441 0.0000 -18.0974 0.0000
# 2 16.4387 72.6829 25.3756 0.0000 2.9258 0.0000
# 3 10.2441 25.3756 77.8394 0.0000 -6.7319 0.0000
# 4 0.0000 0.0000 0.0000 7.5121 0.0000 3.3855
# 5 -18.0974 2.9258 -6.7319 0.0000 24.2736 0.0000
# 6 0.0000 0.0000 0.0000 3.3855 0.0000 13.6607
#
#
#
# Elastic Compliance Matrix: (Units=1/GPa)
#
#
# Indices 1 2 3 4 5 6 
#
# 1 0.015390 -0.004089 0.000351 0.000000 0.012064 0.000000
# 2 -0.004089 0.016883 -0.005538 0.000000 -0.006619 0.000000
# 3 0.000351 -0.005538 0.015048 0.000000 0.005102 0.000000
# 4 0.000000 0.000000 0.000000 0.149855 0.000000 -0.037139
# 5 0.012064 -0.006619 0.005102 0.000000 0.052404 0.000000
# 6 0.000000 0.000000 0.000000 -0.037139 0.000000 0.082407
#
#
# Mechanical properties :
#
#
# Convention : Reuss Voigt Hill
#
# Bulk Modulus (GPa) = 34.76074 37.54869 36.15471
# Shear Modulus (GPa) = 13.88392 21.20681 17.54537
#
# Velocity S-wave (km/s) = 2.80782 3.47017 3.15641
# Velocity P-wave (km/s) = 5.50002 6.11373 5.81498
#
# Compressibility (1/GPa) = 0.02876809
#
# Stress axis : x y z
#
# Youngs Moduli (GPa) = 64.97844 59.23044 66.45600
#
# Poissons Ratio (x) = 0.24219 -0.02332
# Poissons Ratio (y) = 0.26569 0.36805
# Poissons Ratio (z) = -0.02281 0.32804
#
# Static dielectric constant tensor:
#      x y z
#    x 1.639010 0.000000 0.009140 
#    y 0.000000 1.588920 0.000000 
#    z 0.009140 0.000000 1.622080 
# 
# From -- ./inp_files/57109.got.cif
#   From: 2010.05.17/outbox.cif.g08.bks.cpg/sg11_29_cif.got.tgz:57109.got - 2010.06.03 12:22:45.
