data_PCOD9159223
_publ_section_title
;
Structure prediction by ZEFSAII (Michael W. Deem and Ramdas Pophale) SiO2 
 PCOD9159223
Probable space group: P 21/M
;
_chemical_formula_sum "Si O2"
_cell_formula_units_Z 24
_cell_length_a 9.682273
_cell_length_b 13.461787
_cell_length_c 11.161931
_cell_angle_alpha 90.000000
_cell_angle_beta 137.515268
_cell_angle_gamma 90.000000
_cell_volume 982.599158
_symmetry_space_group_name_H-M "P 21/M"
_symmetry_group_IT_number 11
_symmetry_cell_setting 'monoclinic'
loop_
_space_group_symop_operation_xyz
x,y,z
-x,1/2+y,-z
-x,-y,-z
x,1/2-y,z
loop_
_atom_site_type_symbol
_atom_site_label
_atom_site_fract_x
_atom_site_fract_y
_atom_site_fract_z
Si Si1 0.331079 0.983365 0.046681
Si Si2 0.425090 0.638821 0.462639
Si Si3 0.315737 0.365229 0.594866
Si Si4 0.978051 0.863906 0.132610
Si Si5 0.836759 0.431988 0.511630
Si Si6 0.663847 0.137879 0.166046
O O1 0.486392 0.906381 0.207554
O O2 0.468092 0.070366 0.073454
O O3 0.230839 0.916486 0.878453
O O4 0.164165 0.049517 0.009231
O O5 0.417582 0.750000 0.507504
O O6 0.621333 0.631818 0.505597
O O7 0.376790 0.571505 0.545340
O O8 0.217505 0.628658 0.250001
O O9 0.268989 0.250000 0.594025
O O10 0.152928 0.452215 0.515759
O O11 0.910330 0.750000 0.069341
O O12 0.000709 0.887800 0.290794
O O13 0.794460 0.365824 0.370390
O O14 0.608730 0.250000 0.100720
#
# Coordination Sequence:
#
# PCOD9159223 Si02
#       6
#     4   4   4   4   4   4
#     4  10  21  32  50  76 101 135 165 202 255 298
#     4   8  16  31  54  76  99 130 165 207 251 291
#     4  10  19  33  51  74 105 137 168 201 243 297
#     4   9  18  34  53  77 102 127 166 210 252 295
#     4   9  18  33  54  75  96 130 171 207 248 287
#     4  10  19  34  52  71  98 131 172 209 244 298
#
# _framework density 24.425015999999999
#
# number of rings (size 3 to 8) (size 9 to 14) (size 15 to 20)
#    1.000    1.667    0.000    2.500    0.000    1.333 
#    0.000    2.500    0.000    1.000    0.000    0.000 
#    0.000    0.000    0.000    0.000    0.000    0.000 
#
# Total GULP energy -133747.094849 kJ/mol
# GULP energy per Si atom -5572.795619 kJ/mol
# Density = 2.436942 g / cm^3
# Si number density = 24.425016 Si / 1000 Ang^3
#
#
#
# Elastic Constant Matrix: (Units=GPa)
#
#
# Indices 1 2 3 4 5 6 
#
# 1 31.4811 25.6748 0.3076 0.0000 3.7250 0.0000
# 2 25.6748 186.8638 8.4833 0.0000 -11.6103 0.0000
# 3 0.3076 8.4833 50.2998 0.0000 -3.2254 0.0000
# 4 0.0000 0.0000 0.0000 25.3618 0.0000 -2.8242
# 5 3.7250 -11.6103 -3.2254 0.0000 10.2957 0.0000
# 6 0.0000 0.0000 0.0000 -2.8242 0.0000 26.7831
#
#
#
# Elastic Compliance Matrix: (Units=1/GPa)
#
#
# Indices 1 2 3 4 5 6 
#
# 1 0.040018 -0.006865 -0.000522 0.000000 -0.022384 0.000000
# 2 -0.006865 0.006948 -0.000478 0.000000 0.010170 0.000000
# 3 -0.000522 -0.000478 0.020351 0.000000 0.006026 0.000000
# 4 0.000000 0.000000 0.000000 0.039898 0.000000 0.004207
# 5 -0.022384 0.010170 0.006026 0.000000 0.118582 0.000000
# 6 0.000000 0.000000 0.000000 0.004207 0.000000 0.037781
#
#
# Mechanical properties :
#
#
# Convention : Reuss Voigt Hill
#
# Bulk Modulus (GPa) = 19.38493 37.50846 28.44670
# Shear Modulus (GPa) = 16.86314 28.10005 22.48160
#
# Velocity S-wave (km/s) = 2.63041 3.39553 3.03716
# Velocity P-wave (km/s) = 4.14477 5.54641 4.89601
#
# Compressibility (1/GPa) = 0.05158646
#
# Stress axis : x y z
#
# Youngs Moduli (GPa) = 24.98875 143.91872 49.13774
#
# Poissons Ratio (x) = 0.98807 0.02566
# Poissons Ratio (y) = 0.17156 0.02348
# Poissons Ratio (z) = 0.01305 0.06876
#
# Static dielectric constant tensor:
#      x y z
#    x 2.016000 0.000000 0.033110 
#    y 0.000000 1.932450 0.000000 
#    z 0.033110 0.000000 1.986730 
# 
# From -- ./inp_files/34913.got.cif
#   From: 2010.05.17/outbox.cif.g08.bks.cpg/sg11_18_cif.got.tgz:34913.got - 2010.06.03 12:22:45.
