data_PCOD9159905
_publ_section_title
;
Structure prediction by ZEFSAII (Michael W. Deem and Ramdas Pophale) SiO2 
 PCOD9159905
Probable space group: P 21/M
;
_chemical_formula_sum "Si O2"
_cell_formula_units_Z 32
_cell_length_a 15.013223
_cell_length_b 7.852025
_cell_length_c 13.299791
_cell_angle_alpha 90.000000
_cell_angle_beta 78.450994
_cell_angle_gamma 90.000000
_cell_volume 1536.092584
_symmetry_space_group_name_H-M "P 21/M"
_symmetry_group_IT_number 11
_symmetry_cell_setting 'monoclinic'
loop_
_space_group_symop_operation_xyz
x,y,z
-x,1/2+y,-z
-x,-y,-z
x,1/2-y,z
loop_
_atom_site_type_symbol
_atom_site_label
_atom_site_fract_x
_atom_site_fract_y
_atom_site_fract_z
Si Si1 0.927950 0.544443 0.300592
Si Si2 0.600846 0.953033 0.445519
Si Si3 0.133807 0.054877 0.891939
Si Si4 0.872866 0.545033 0.685724
Si Si5 0.796837 0.547156 0.914004
Si Si6 0.403232 0.951850 0.976688
Si Si7 0.216155 0.041795 0.501191
Si Si8 0.671814 0.050850 0.214290
O O1 0.921946 0.750000 0.295189
O O2 0.924694 0.476965 0.186117
O O3 0.844697 0.485879 0.389694
O O4 0.021044 0.497089 0.333628
O O5 0.607050 0.750000 0.437230
O O6 0.679961 0.010455 0.504095
O O7 0.500000 0.000000 0.500000
O O8 0.626473 0.025145 0.331218
O O9 0.103119 0.250000 0.913218
O O10 0.235331 0.052365 0.821424
O O11 0.149580 0.977152 0.999410
O O12 0.862610 0.750000 0.687990
O O13 0.829738 0.478423 0.799600
O O14 0.825802 0.481537 0.594475
O O15 0.813053 0.750000 0.911168
O O16 0.688739 0.523019 0.952445
O O17 0.395549 0.750000 0.985817
O O18 0.394952 0.000105 0.861182
O O19 0.500000 0.000000 0.000000
O O20 0.212779 0.250000 0.501118
O O21 0.695696 0.250000 0.196100
#
# Coordination Sequence:
#
# PCOD9159905 Si02
#       8
#     4   4   4   4   4   4   4   4
#     4  10  19  34  56  80 105 145 191 228 275 333
#     4  11  22  38  58  83 113 148 187 231 283 339
#     4   9  17  33  56  78 105 144 183 221 272 333
#     4  10  21  36  54  80 112 147 184 228 278 330
#     4   9  19  35  54  78 111 147 183 225 279 334
#     4  10  21  36  57  83 110 143 186 230 278 336
#     4   9  19  37  57  76 108 149 185 223 277 332
#     4  10  20  35  55  81 109 139 180 232 280 326
#
# _framework density 20.832077000000002
#
# number of rings (size 3 to 8) (size 9 to 14) (size 15 to 20)
#    0.000    2.250    1.250    1.500    0.000    4.000 
#    0.000    3.750    0.000    0.000    0.000    0.000 
#    0.000    0.000    0.000    0.000    0.000    0.000 
#
# Total GULP energy -178597.850584 kJ/mol
# GULP energy per Si atom -5581.182831 kJ/mol
# Density = 2.078466 g / cm^3
# Si number density = 20.832077 Si / 1000 Ang^3
#
#
#
# Elastic Constant Matrix: (Units=GPa)
#
#
# Indices 1 2 3 4 5 6 
#
# 1 110.7280 -3.4201 54.5959 0.0000 26.3368 0.0000
# 2 -3.4201 30.1981 6.0418 0.0000 3.2153 0.0000
# 3 54.5959 6.0418 115.2240 0.0000 20.8719 0.0000
# 4 0.0000 0.0000 0.0000 10.1993 0.0000 0.8380
# 5 26.3368 3.2153 20.8719 0.0000 35.5100 0.0000
# 6 0.0000 0.0000 0.0000 0.8380 0.0000 24.7621
#
#
#
# Elastic Compliance Matrix: (Units=1/GPa)
#
#
# Indices 1 2 3 4 5 6 
#
# 1 0.013423 0.003332 -0.005234 0.000000 -0.007180 0.000000
# 2 0.003332 0.034452 -0.002655 0.000000 -0.004030 0.000000
# 3 -0.005234 -0.002655 0.011808 0.000000 -0.002818 0.000000
# 4 0.000000 0.000000 0.000000 0.098320 0.000000 -0.003327
# 5 -0.007180 -0.004030 -0.002818 0.000000 0.035508 0.000000
# 6 0.000000 0.000000 0.000000 -0.003327 0.000000 0.040497
#
#
# Mechanical properties :
#
#
# Convention : Reuss Voigt Hill
#
# Bulk Modulus (GPa) = 19.77500 41.17614 30.47557
# Shear Modulus (GPa) = 19.23231 27.35644 23.29437
#
# Velocity S-wave (km/s) = 3.04173 3.62773 3.34757
# Velocity P-wave (km/s) = 4.67433 6.11194 5.44083
#
# Compressibility (1/GPa) = 0.05056891
#
# Stress axis : x y z
#
# Youngs Moduli (GPa) = 74.50110 29.02554 84.68485
#
# Poissons Ratio (x) = -0.09671 0.44324
# Poissons Ratio (y) = -0.24823 0.22486
# Poissons Ratio (z) = 0.38994 0.07707
#
# Static dielectric constant tensor:
#      x y z
#    x 1.786790 0.000000 0.009450 
#    y 0.000000 1.760380 0.000000 
#    z 0.009450 0.000000 1.775370 
# 
# From -- ./inp_files/38110.got.cif
#   From: 2010.05.17/outbox.cif.g08.bks.cpg/sg11_20_cif.got.tgz:38110.got - 2010.06.03 12:22:45.
