data_PCOD9159402
_publ_section_title
;
Structure prediction by ZEFSAII (Michael W. Deem and Ramdas Pophale) SiO2 
 PCOD9159402
Probable space group: P 21/M
;
_chemical_formula_sum "Si O2"
_cell_formula_units_Z 28
_cell_length_a 16.006781
_cell_length_b 9.052622
_cell_length_c 19.843639
_cell_angle_alpha 90.000000
_cell_angle_beta 147.635878
_cell_angle_gamma 90.000000
_cell_volume 1539.200913
_symmetry_space_group_name_H-M "P 21/M"
_symmetry_group_IT_number 11
_symmetry_cell_setting 'monoclinic'
loop_
_space_group_symop_operation_xyz
x,y,z
-x,1/2+y,-z
-x,-y,-z
x,1/2-y,z
loop_
_atom_site_type_symbol
_atom_site_label
_atom_site_fract_x
_atom_site_fract_y
_atom_site_fract_z
Si Si1 0.527265 0.571098 0.592022
Si Si2 0.440526 0.084261 0.060601
Si Si3 0.052288 0.575899 0.465510
Si Si4 0.656598 0.083185 0.881440
Si Si5 0.831601 0.924569 0.885620
Si Si6 0.712120 0.914857 0.190624
Si Si7 0.663371 0.921316 0.418295
O O1 0.500000 0.500000 0.500000
O O2 0.516568 0.750000 0.582034
O O3 0.699816 0.531627 0.739967
O O4 0.400657 0.506923 0.559210
O O5 0.434863 0.250000 0.084463
O O6 0.354768 0.970760 0.050412
O O7 0.618231 0.032326 0.170740
O O8 0.359792 0.082106 0.932749
O O9 0.085797 0.750000 0.498989
O O10 0.193828 0.498082 0.523141
O O11 0.000000 0.500000 0.500000
O O12 0.895753 0.563018 0.314183
O O13 0.716908 0.250000 0.915960
O O14 0.482655 0.079351 0.732401
O O15 0.755697 0.971526 0.904515
O O16 0.851082 0.750000 0.893460
O O17 0.000000 0.000000 0.000000
O O18 0.682905 0.750000 0.199469
O O19 0.699690 0.750000 0.459637
#
# Coordination Sequence:
#
# PCOD9159402 Si02
#       7
#     4   4   4   4   4   4   4
#     4  10  21  39  63  89 117 153 194 236 289 348
#     4  10  19  33  54  77 102 138 182 223 269 324
#     4  11  22  36  54  78 110 146 185 229 279 331
#     4  10  20  35  56  80 108 142 179 222 274 326
#     4  10  21  38  60  87 116 146 187 234 281 339
#     4   9  20  36  51  72 106 142 177 221 272 324
#     4  10  21  37  57  82 112 146 187 231 276 332
#
# _framework density 18.191258000000001
#
# number of rings (size 3 to 8) (size 9 to 14) (size 15 to 20)
#    0.000    2.000    0.000    3.429    0.000    8.571 
#    2.571    0.000    0.000    0.000    0.000    0.000 
#    0.000    0.000    0.000    0.000    0.000    0.000 
#
# Total GULP energy -156204.311580 kJ/mol
# GULP energy per Si atom -5578.725414 kJ/mol
# Density = 1.814985 g / cm^3
# Si number density = 18.191258 Si / 1000 Ang^3
#
#
#
# Elastic Constant Matrix: (Units=GPa)
#
#
# Indices 1 2 3 4 5 6 
#
# 1 99.0889 51.1635 47.7396 0.0000 14.6174 0.0000
# 2 51.1635 95.0837 50.1832 0.0000 8.4271 0.0000
# 3 47.7396 50.1832 71.6597 0.0000 26.9533 0.0000
# 4 0.0000 0.0000 0.0000 29.4259 0.0000 4.7825
# 5 14.6174 8.4271 26.9533 0.0000 21.9105 0.0000
# 6 0.0000 0.0000 0.0000 4.7825 0.0000 38.0833
#
#
#
# Elastic Compliance Matrix: (Units=1/GPa)
#
#
# Indices 1 2 3 4 5 6 
#
# 1 0.016120 -0.004699 -0.007600 0.000000 0.000402 0.000000
# 2 -0.004699 0.021106 -0.018195 0.000000 0.017399 0.000000
# 3 -0.007600 -0.018195 0.050661 0.000000 -0.050253 0.000000
# 4 0.000000 0.000000 0.000000 0.034692 0.000000 -0.004357
# 5 0.000402 0.017399 -0.050253 0.000000 0.100499 0.000000
# 6 0.000000 0.000000 0.000000 -0.004357 0.000000 0.026805
#
#
# Mechanical properties :
#
#
# Convention : Reuss Voigt Hill
#
# Bulk Modulus (GPa) = 37.17341 62.66722 49.92032
# Shear Modulus (GPa) = 15.63297 25.66702 20.65000
#
# Velocity S-wave (km/s) = 2.93468 3.76034 3.37287
# Velocity P-wave (km/s) = 5.65351 7.30599 6.53221
#
# Compressibility (1/GPa) = 0.02690095
#
# Stress axis : x y z
#
# Youngs Moduli (GPa) = 62.03338 47.37976 19.73897
#
# Poissons Ratio (x) = 0.22262 0.15002
# Poissons Ratio (y) = 0.29147 0.35914
# Poissons Ratio (z) = 0.47145 0.86206
#
# Static dielectric constant tensor:
#      x y z
#    x 1.610290 0.000000 -0.002310 
#    y 0.000000 1.637030 0.000000 
#    z -0.002310 0.000000 1.632560 
# 
# From -- ./inp_files/65423.got.cif
#   From: 2010.05.17/outbox.cif.g08.bks.cpg/sg11_33_cif.got.tgz:65423.got - 2010.06.03 12:22:45.
