data_PCOD9159570
_publ_section_title
;
Structure prediction by ZEFSAII (Michael W. Deem and Ramdas Pophale) SiO2 
 PCOD9159570
Probable space group: P 21/M
;
_chemical_formula_sum "Si O2"
_cell_formula_units_Z 28
_cell_length_a 13.189413
_cell_length_b 18.704114
_cell_length_c 11.811058
_cell_angle_alpha 90.000000
_cell_angle_beta 148.204747
_cell_angle_gamma 90.000000
_cell_volume 1535.209178
_symmetry_space_group_name_H-M "P 21/M"
_symmetry_group_IT_number 11
_symmetry_cell_setting 'monoclinic'
loop_
_space_group_symop_operation_xyz
x,y,z
-x,1/2+y,-z
-x,-y,-z
x,1/2-y,z
loop_
_atom_site_type_symbol
_atom_site_label
_atom_site_fract_x
_atom_site_fract_y
_atom_site_fract_z
Si Si1 0.875801 0.083709 0.029966
Si Si2 0.485071 0.169108 0.644808
Si Si3 0.172483 0.334986 0.158000
Si Si4 0.787706 0.572260 0.015929
Si Si5 0.024100 0.579941 0.468421
Si Si6 0.413934 0.530039 0.800723
Si Si7 0.181616 0.389722 0.515383
O O1 0.996235 0.119740 0.043191
O O2 0.999840 0.101692 0.259851
O O3 0.850580 0.998465 0.006065
O O4 0.665005 0.117948 0.833663
O O5 0.555678 0.250000 0.699935
O O6 0.357789 0.150129 0.413667
O O7 0.333632 0.163525 0.604108
O O8 0.134251 0.250000 0.128128
O O9 0.212281 0.362036 0.069773
O O10 0.932942 0.582282 0.258397
O O11 0.582574 0.556950 0.880089
O O12 0.252814 0.589162 0.677365
O O13 0.000000 0.500000 0.500000
O O14 0.903638 0.627286 0.442199
O O15 0.298914 0.464601 0.633345
O O16 0.500000 0.500000 0.000000
#
# Coordination Sequence:
#
# PCOD9159570 Si02
#       7
#     4   4   4   4   4   4   4
#     4  11  20  37  62  88 114 148 198 249 295 339
#     4  10  22  39  59  80 114 160 199 242 299 350
#     4  10  25  43  56  80 119 158 196 240 295 353
#     4  12  21  35  63  90 116 151 197 246 291 351
#     4  10  19  33  55  90 124 147 179 237 303 344
#     4  11  18  32  57  89 118 151 181 234 293 340
#     4  10  19  34  57  89 122 145 188 240 293 351
#
# _framework density 18.238557
#
# number of rings (size 3 to 8) (size 9 to 14) (size 15 to 20)
#    0.000    1.429    7.143    0.857    0.000    2.286 
#    0.000    0.714    0.000    0.857    0.000    0.000 
#    0.000    0.000    0.000    0.000    0.000    0.000 
#
# Total GULP energy -156176.563230 kJ/mol
# GULP energy per Si atom -5577.734401 kJ/mol
# Density = 1.819704 g / cm^3
# Si number density = 18.238557 Si / 1000 Ang^3
#
#
#
# Elastic Constant Matrix: (Units=GPa)
#
#
# Indices 1 2 3 4 5 6 
#
# 1 121.5674 31.6682 58.1763 0.0000 -0.7481 0.0000
# 2 31.6682 29.9364 28.0028 0.0000 -2.6939 0.0000
# 3 58.1763 28.0028 107.5499 0.0000 8.6917 0.0000
# 4 0.0000 0.0000 0.0000 16.4016 0.0000 -0.6332
# 5 -0.7481 -2.6939 8.6917 0.0000 25.2642 0.0000
# 6 0.0000 0.0000 0.0000 -0.6332 0.0000 14.4855
#
#
#
# Elastic Compliance Matrix: (Units=1/GPa)
#
#
# Indices 1 2 3 4 5 6 
#
# 1 0.012837 -0.009145 -0.004643 0.000000 0.001002 0.000000
# 2 -0.009145 0.052716 -0.009475 0.000000 0.008610 0.000000
# 3 -0.004643 -0.009475 0.014780 0.000000 -0.006233 0.000000
# 4 0.000000 0.000000 0.000000 0.061073 0.000000 0.002670
# 5 0.001002 0.008610 -0.006233 0.000000 0.042674 0.000000
# 6 0.000000 0.000000 0.000000 0.002670 0.000000 0.069151
#
#
# Mechanical properties :
#
#
# Convention : Reuss Voigt Hill
#
# Bulk Modulus (GPa) = 29.58045 54.97203 42.27624
# Shear Modulus (GPa) = 16.07586 20.64404 18.35995
#
# Velocity S-wave (km/s) = 2.97210 3.36801 3.17623
# Velocity P-wave (km/s) = 5.29449 6.73280 6.05649
#
# Compressibility (1/GPa) = 0.03380611
#
# Stress axis : x y z
#
# Youngs Moduli (GPa) = 77.90273 18.96962 67.65760
#
# Poissons Ratio (x) = 0.17348 0.31416
# Poissons Ratio (y) = 0.71245 0.64102
# Poissons Ratio (z) = 0.36173 0.17973
#
# Static dielectric constant tensor:
#      x y z
#    x 1.656100 0.000000 0.016560 
#    y 0.000000 1.630630 0.000000 
#    z 0.016560 0.000000 1.624070 
# 
# From -- ./inp_files/36422.got.cif
#   From: 2010.05.17/outbox.cif.g08.bks.cpg/sg11_19_cif.got.tgz:36422.got - 2010.06.03 12:22:45.
