data_PCOD9159580
_publ_section_title
;
Structure prediction by ZEFSAII (Michael W. Deem and Ramdas Pophale) SiO2 
 PCOD9159580
Probable space group: P 21/M
;
_chemical_formula_sum "Si O2"
_cell_formula_units_Z 20
_cell_length_a 11.836042
_cell_length_b 8.935410
_cell_length_c 13.677845
_cell_angle_alpha 90.000000
_cell_angle_beta 127.300836
_cell_angle_gamma 90.000000
_cell_volume 1150.693179
_symmetry_space_group_name_H-M "P 21/M"
_symmetry_group_IT_number 11
_symmetry_cell_setting 'monoclinic'
loop_
_space_group_symop_operation_xyz
x,y,z
-x,1/2+y,-z
-x,-y,-z
x,1/2-y,z
loop_
_atom_site_type_symbol
_atom_site_label
_atom_site_fract_x
_atom_site_fract_y
_atom_site_fract_z
Si Si1 0.000232 0.929588 0.607720
Si Si2 0.554333 0.927738 0.878612
Si Si3 0.412313 0.571751 0.308321
Si Si4 0.710972 0.929093 0.567728
Si Si5 0.715910 0.927919 0.164563
O O1 0.006744 0.750000 0.603925
O O2 0.855182 0.969890 0.588058
O O3 0.000000 0.000000 0.500000
O O4 0.136834 0.991688 0.735981
O O5 0.531194 0.750000 0.859057
O O6 0.611381 0.992685 0.807315
O O7 0.406615 0.008078 0.828912
O O8 0.659863 0.954892 0.025086
O O9 0.399804 0.750000 0.291945
O O10 0.311354 0.511808 0.341321
O O11 0.573076 0.536331 0.428967
O O12 0.710503 0.750000 0.584167
O O13 0.729358 0.750000 0.186855
#
# Coordination Sequence:
#
# PCOD9159580 Si02
#       5
#     4   4   4   4   4
#     4  11  22  36  56  80 109 143 176 216 266 317
#     4  10  20  35  56  79 106 141 177 218 267 316
#     4  10  19  33  56  81 105 136 175 220 265 312
#     4   9  20  36  52  76 108 139 174 215 260 314
#     4  10  21  36  54  79 109 139 178 222 262 313
#
# _framework density 17.380827
#
# number of rings (size 3 to 8) (size 9 to 14) (size 15 to 20)
#    0.000    2.000    0.000    3.600    0.000    6.400 
#    0.000    1.000    0.000    0.000    0.000    0.000 
#    0.000    0.000    0.000    0.000    0.000    0.000 
#
# Total GULP energy -111711.317951 kJ/mol
# GULP energy per Si atom -5585.565898 kJ/mol
# Density = 1.734127 g / cm^3
# Si number density = 17.380827 Si / 1000 Ang^3
#
#
#
# Elastic Constant Matrix: (Units=GPa)
#
#
# Indices 1 2 3 4 5 6 
#
# 1 152.7491 69.7267 76.4107 0.0000 -5.8611 0.0000
# 2 69.7267 66.4382 52.2392 0.0000 -8.1206 0.0000
# 3 76.4107 52.2392 70.4194 0.0000 -12.4833 0.0000
# 4 0.0000 0.0000 0.0000 33.0176 0.0000 -2.3620
# 5 -5.8611 -8.1206 -12.4833 0.0000 33.0577 0.0000
# 6 0.0000 0.0000 0.0000 -2.3620 0.0000 33.2819
#
#
#
# Elastic Compliance Matrix: (Units=1/GPa)
#
#
# Indices 1 2 3 4 5 6 
#
# 1 0.016120 -0.007440 -0.012635 0.000000 -0.003741 0.000000
# 2 -0.007440 0.039609 -0.021241 0.000000 0.000390 0.000000
# 3 -0.012635 -0.021241 0.045384 0.000000 0.009680 0.000000
# 4 0.000000 0.000000 0.000000 0.030441 0.000000 0.002160
# 5 -0.003741 0.000390 0.009680 0.000000 0.033338 0.000000
# 6 0.000000 0.000000 0.000000 0.002160 0.000000 0.030200
#
#
# Mechanical properties :
#
#
# Convention : Reuss Voigt Hill
#
# Bulk Modulus (GPa) = 54.11151 76.26219 65.18685
# Shear Modulus (GPa) = 17.61275 25.95344 21.78309
#
# Velocity S-wave (km/s) = 3.18676 3.86842 3.54401
# Velocity P-wave (km/s) = 6.68887 7.99533 7.37110
#
# Compressibility (1/GPa) = 0.01848036
#
# Stress axis : x y z
#
# Youngs Moduli (GPa) = 62.03408 25.24672 22.03422
#
# Poissons Ratio (x) = 0.18784 0.27841
# Poissons Ratio (y) = 0.46156 0.46802
# Poissons Ratio (z) = 0.78382 0.53626
#
# Static dielectric constant tensor:
#      x y z
#    x 1.561910 0.000000 0.000240 
#    y 0.000000 1.574960 0.000000 
#    z 0.000240 0.000000 1.576240 
# 
# From -- ./inp_files/30657.got.cif
#   From: 2010.05.17/outbox.cif.g08.bks.cpg/sg11_16_cif.got.tgz:30657.got - 2010.06.03 12:22:45.
