data_PCOD9159271
_publ_section_title
;
Structure prediction by ZEFSAII (Michael W. Deem and Ramdas Pophale) SiO2 
 PCOD9159271
Probable space group: P 21/M
;
_chemical_formula_sum "Si O2"
_cell_formula_units_Z 28
_cell_length_a 21.319436
_cell_length_b 12.129541
_cell_length_c 10.701991
_cell_angle_alpha 90.000000
_cell_angle_beta 32.064212
_cell_angle_gamma 90.000000
_cell_volume 1469.170873
_symmetry_space_group_name_H-M "P 21/M"
_symmetry_group_IT_number 11
_symmetry_cell_setting 'monoclinic'
loop_
_space_group_symop_operation_xyz
x,y,z
-x,1/2+y,-z
-x,-y,-z
x,1/2-y,z
loop_
_atom_site_type_symbol
_atom_site_label
_atom_site_fract_x
_atom_site_fract_y
_atom_site_fract_z
Si Si1 0.177649 0.121698 0.082947
Si Si2 0.102341 0.121400 0.939329
Si Si3 0.392783 0.871095 0.125691
Si Si4 0.149205 0.528791 0.634400
Si Si5 0.537977 0.876168 0.389622
Si Si6 0.437715 0.089379 0.929937
Si Si7 0.159034 0.124368 0.388578
O O1 0.140496 0.250000 0.149256
O O2 0.137879 0.076342 0.285027
O O3 0.131192 0.078273 0.029834
O O4 0.319620 0.120155 0.840175
O O5 0.136538 0.250000 0.872639
O O6 0.165594 0.048505 0.727371
O O7 0.962042 0.107706 0.154178
O O8 0.380198 0.750000 0.094479
O O9 0.489182 0.872600 0.073505
O O10 0.269208 0.910398 0.394081
O O11 0.430856 0.957563 0.956560
O O12 0.115623 0.450850 0.574088
O O13 0.503164 0.750000 0.496212
O O14 0.507787 0.876221 0.293026
O O15 0.500000 0.000000 0.500000
O O16 0.301975 0.128314 0.162156
O O17 0.114983 0.250000 0.471871
#
# Coordination Sequence:
#
# PCOD9159271 Si02
#       7
#     4   4   4   4   4   4   4
#     4   8  17  33  53  72  98 134 172 213 261 317
#     4  10  20  36  50  70 103 135 172 219 263 315
#     4  10  19  33  52  76 104 135 171 215 263 318
#     4  10  21  31  51  76  98 132 173 215 266 309
#     4  10  20  34  54  78 107 142 179 221 267 320
#     4   9  19  33  51  76 106 137 170 209 266 321
#     4   9  16  32  53  74  97 129 168 209 257 316
#
# _framework density 19.058368000000002
#
# number of rings (size 3 to 8) (size 9 to 14) (size 15 to 20)
#    0.000    2.571    0.000    3.000    2.000    1.143 
#    0.000    0.714    0.000    0.857    0.000    0.000 
#    0.000    0.000    0.000    0.000    0.000    0.000 
#
# Total GULP energy -155871.938614 kJ/mol
# GULP energy per Si atom -5566.854951 kJ/mol
# Density = 1.901499 g / cm^3
# Si number density = 19.058368 Si / 1000 Ang^3
#
#
#
# Elastic Constant Matrix: (Units=GPa)
#
#
# Indices 1 2 3 4 5 6 
#
# 1 88.2872 22.3842 0.0248 0.0000 10.3232 0.0000
# 2 22.3842 121.6616 17.6239 0.0000 11.6717 0.0000
# 3 0.0248 17.6239 16.5630 0.0000 2.4649 0.0000
# 4 0.0000 0.0000 0.0000 14.1168 0.0000 0.0601
# 5 10.3232 11.6717 2.4649 0.0000 22.0160 0.0000
# 6 0.0000 0.0000 0.0000 0.0601 0.0000 3.4453
#
#
#
# Elastic Compliance Matrix: (Units=1/GPa)
#
#
# Indices 1 2 3 4 5 6 
#
# 1 0.012487 -0.002273 0.003144 0.000000 -0.005002 0.000000
# 2 -0.002273 0.010502 -0.010679 0.000000 -0.003306 0.000000
# 3 0.003144 -0.010679 0.072316 0.000000 -0.003909 0.000000
# 4 0.000000 0.000000 0.000000 0.070843 0.000000 -0.001237
# 5 -0.005002 -0.003306 -0.003909 0.000000 0.049957 0.000000
# 6 0.000000 0.000000 0.000000 -0.001237 0.000000 0.290268
#
#
# Mechanical properties :
#
#
# Convention : Reuss Voigt Hill
#
# Bulk Modulus (GPa) = 13.21200 34.06416 23.63808
# Shear Modulus (GPa) = 9.07083 20.34758 14.70921
#
# Velocity S-wave (km/s) = 2.18399 3.27103 2.78114
# Velocity P-wave (km/s) = 3.64791 5.67262 4.76895
#
# Compressibility (1/GPa) = 0.07568877
#
# Stress axis : x y z
#
# Youngs Moduli (GPa) = 80.08349 95.22110 13.82829
#
# Poissons Ratio (x) = 0.21644 -0.04348
# Poissons Ratio (y) = 0.18203 0.14767
# Poissons Ratio (z) = -0.25181 1.01687
#
# Static dielectric constant tensor:
#      x y z
#    x 1.677260 0.000000 0.008690 
#    y 0.000000 1.704110 0.000000 
#    z 0.008690 0.000000 1.639730 
# 
# From -- ./inp_files/43196.got.cif
#   From: 2010.05.17/outbox.cif.g08.bks.cpg/sg11_22_cif.got.tgz:43196.got - 2010.06.03 12:22:45.
