data_PCOD9159881
_publ_section_title
;
Structure prediction by ZEFSAII (Michael W. Deem and Ramdas Pophale) SiO2 
 PCOD9159881
Probable space group: P 21/M
;
_chemical_formula_sum "Si O2"
_cell_formula_units_Z 32
_cell_length_a 14.997996
_cell_length_b 15.241918
_cell_length_c 21.425847
_cell_angle_alpha 90.000000
_cell_angle_beta 160.252837
_cell_angle_gamma 90.000000
_cell_volume 1654.857618
_symmetry_space_group_name_H-M "P 21/M"
_symmetry_group_IT_number 11
_symmetry_cell_setting 'monoclinic'
loop_
_space_group_symop_operation_xyz
x,y,z
-x,1/2+y,-z
-x,-y,-z
x,1/2-y,z
loop_
_atom_site_type_symbol
_atom_site_label
_atom_site_fract_x
_atom_site_fract_y
_atom_site_fract_z
Si Si1 0.272849 0.646643 0.803460
Si Si2 0.032742 0.522169 0.404253
Si Si3 0.817646 0.458541 0.640579
Si Si4 0.619893 0.576172 0.824002
Si Si5 0.732063 0.654303 0.020519
Si Si6 0.897333 0.418429 0.080640
Si Si7 0.451928 0.352600 0.880444
Si Si8 0.321085 0.351070 0.273681
O O1 0.217139 0.750000 0.753793
O O2 0.509349 0.609637 0.915782
O O3 0.035877 0.580381 0.634009
O O4 0.378618 0.639561 0.943797
O O5 0.058266 0.537254 0.346700
O O6 0.317407 0.545981 0.618902
O O7 0.801713 0.584051 0.279499
O O8 0.525611 0.420804 0.439273
O O9 0.894060 0.545226 0.729772
O O10 0.983882 0.386755 0.787182
O O11 0.638196 0.650957 0.888162
O O12 0.715861 0.612389 0.820802
O O13 0.790444 0.497149 0.966056
O O14 0.749228 0.750000 0.059452
O O15 0.056783 0.354670 0.140338
O O16 0.647893 0.380018 0.953689
O O17 0.373486 0.250000 0.822843
O O18 0.420886 0.250000 0.337312
#
# Coordination Sequence:
#
# PCOD9159881 Si02
#       8
#     4   4   4   4   4   4   4   4
#     4  10  20  34  57  87 121 156 194 244 299 356
#     4  11  20  38  59  87 122 157 192 245 295 348
#     4  10  20  35  62  87 111 149 198 247 296 348
#     4  10  24  38  60  84 117 157 199 241 295 355
#     4  10  19  34  55  86 118 150 190 241 296 349
#     4  11  22  41  60  84 118 162 197 238 294 363
#     4  11  22  35  61  94 124 156 196 244 297 358
#     4  11  23  40  61  86 115 150 199 256 301 349
#
# _framework density 19.337011
#
# number of rings (size 3 to 8) (size 9 to 14) (size 15 to 20)
#    0.000    1.500    2.500    3.750    0.000    4.500 
#    0.000    2.500    0.000    0.000    0.000    0.000 
#    0.000    0.000    0.000    0.000    0.000    0.000 
#
# Total GULP energy -178409.984977 kJ/mol
# GULP energy per Si atom -5575.312031 kJ/mol
# Density = 1.929300 g / cm^3
# Si number density = 19.337011 Si / 1000 Ang^3
#
#
#
# Elastic Constant Matrix: (Units=GPa)
#
#
# Indices 1 2 3 4 5 6 
#
# 1 111.2441 17.8000 40.6370 0.0000 14.5316 0.0000
# 2 17.8000 77.9500 14.3496 0.0000 7.4383 0.0000
# 3 40.6370 14.3496 44.1145 0.0000 -3.3452 0.0000
# 4 0.0000 0.0000 0.0000 13.3918 0.0000 5.3936
# 5 14.5316 7.4383 -3.3452 0.0000 26.8964 0.0000
# 6 0.0000 0.0000 0.0000 5.3936 0.0000 17.0927
#
#
#
# Elastic Compliance Matrix: (Units=1/GPa)
#
#
# Indices 1 2 3 4 5 6 
#
# 1 0.016090 0.000241 -0.015712 0.000000 -0.010714 0.000000
# 2 0.000241 0.014177 -0.005189 0.000000 -0.004696 0.000000
# 3 -0.015712 -0.005189 0.039959 0.000000 0.014894 0.000000
# 4 0.000000 0.000000 0.000000 0.085544 0.000000 -0.026994
# 5 -0.010714 -0.004696 0.014894 0.000000 0.046119 0.000000
# 6 0.000000 0.000000 0.000000 -0.026994 0.000000 0.067022
#
#
# Mechanical properties :
#
#
# Convention : Reuss Voigt Hill
#
# Bulk Modulus (GPa) = 34.59664 42.09798 38.34731
# Shear Modulus (GPa) = 15.63141 22.17765 18.90453
#
# Velocity S-wave (km/s) = 2.84626 3.39027 3.13011
# Velocity P-wave (km/s) = 5.36021 6.09452 5.73912
#
# Compressibility (1/GPa) = 0.02890454
#
# Stress axis : x y z
#
# Youngs Moduli (GPa) = 62.15106 70.53568 25.02549
#
# Poissons Ratio (x) = -0.01697 0.39320
# Poissons Ratio (y) = -0.01495 0.12987
# Poissons Ratio (z) = 0.97653 0.36603
#
# Static dielectric constant tensor:
#      x y z
#    x 1.694400 0.000000 0.001810 
#    y 0.000000 1.723590 0.000000 
#    z 0.001810 0.000000 1.657560 
# 
# From -- ./inp_files/18041.got.cif
#   From: 2010.05.17/outbox.cif.g08.bks.cpg/sg11_10_cif.got.tgz:18041.got - 2010.06.03 12:22:45.
