data_PCOD9159545
_publ_section_title
;
Structure prediction by ZEFSAII (Michael W. Deem and Ramdas Pophale) SiO2 
 PCOD9159545
Probable space group: P 21/M
;
_chemical_formula_sum "Si O2"
_cell_formula_units_Z 32
_cell_length_a 10.502561
_cell_length_b 8.735726
_cell_length_c 25.039119
_cell_angle_alpha 90.000000
_cell_angle_beta 52.613082
_cell_angle_gamma 90.000000
_cell_volume 1825.308535
_symmetry_space_group_name_H-M "P 21/M"
_symmetry_group_IT_number 11
_symmetry_cell_setting 'monoclinic'
loop_
_space_group_symop_operation_xyz
x,y,z
-x,1/2+y,-z
-x,-y,-z
x,1/2-y,z
loop_
_atom_site_type_symbol
_atom_site_label
_atom_site_fract_x
_atom_site_fract_y
_atom_site_fract_z
Si Si1 0.749990 0.933874 0.183053
Si Si2 0.943156 0.434927 0.957911
Si Si3 0.587047 0.934458 0.529602
Si Si4 0.939300 0.065672 0.458948
Si Si5 0.575749 0.433626 0.034289
Si Si6 0.249928 0.433898 0.315015
Si Si7 0.467511 0.933632 0.675064
Si Si8 0.532078 0.066995 0.827639
O O1 0.746474 0.750000 0.187107
O O2 0.622353 0.979289 0.169295
O O3 0.926045 0.982846 0.119567
O O4 0.683996 0.999964 0.255047
O O5 0.946808 0.250000 0.959912
O O6 0.762084 0.482495 0.991649
O O7 0.000000 0.500000 0.000000
O O8 0.590561 0.750000 0.526971
O O9 0.494059 0.981963 0.607487
O O10 0.500000 0.000000 0.500000
O O11 0.767253 0.997032 0.488721
O O12 0.930735 0.250000 0.464678
O O13 0.073386 0.026145 0.380426
O O14 0.000000 0.000000 0.500000
O O15 0.570434 0.250000 0.034370
O O16 0.485933 0.493131 0.109929
O O17 0.500000 0.500000 0.000000
O O18 0.258762 0.250000 0.306458
O O19 0.375611 0.477507 0.330010
O O20 0.314326 0.511959 0.245055
O O21 0.457908 0.750000 0.678570
O O22 0.531767 0.250000 0.832374
#
# Coordination Sequence:
#
# PCOD9159545 Si02
#       8
#     4   4   4   4   4   4   4   4
#     4   9  18  32  53  83 112 137 177 230 278 326
#     4  10  20  35  56  83 111 141 181 228 275 325
#     4  11  23  40  58  83 116 154 194 236 287 345
#     4  11  21  36  59  87 116 149 190 239 285 337
#     4  11  23  38  57  80 112 153 188 227 279 337
#     4   9  18  34  55  82 114 145 182 231 280 332
#     4   9  18  34  54  79 112 146 183 225 276 334
#     4  10  19  33  55  83 113 144 182 230 279 331
#
# _framework density 17.531282999999998
#
# number of rings (size 3 to 8) (size 9 to 14) (size 15 to 20)
#    0.000    2.000    2.500    1.500    0.000    3.500 
#    0.000    1.250    0.000    3.000    0.000    0.000 
#    0.000    0.000    0.000    0.000    0.000    0.000 
#
# Total GULP energy -178614.912959 kJ/mol
# GULP energy per Si atom -5581.716030 kJ/mol
# Density = 1.749138 g / cm^3
# Si number density = 17.531283 Si / 1000 Ang^3
#
#
#
# Elastic Constant Matrix: (Units=GPa)
#
#
# Indices 1 2 3 4 5 6 
#
# 1 117.7021 38.3126 89.0881 0.0000 4.7474 0.0000
# 2 38.3126 38.1820 52.3858 0.0000 2.1437 0.0000
# 3 89.0881 52.3858 198.9505 0.0000 2.6594 0.0000
# 4 0.0000 0.0000 0.0000 33.7865 0.0000 3.0074
# 5 4.7474 2.1437 2.6594 0.0000 26.0649 0.0000
# 6 0.0000 0.0000 0.0000 3.0074 0.0000 24.8842
#
#
#
# Elastic Compliance Matrix: (Units=1/GPa)
#
#
# Indices 1 2 3 4 5 6 
#
# 1 0.014602 -0.008805 -0.004200 0.000000 -0.001507 0.000000
# 2 -0.008805 0.046447 -0.008269 0.000000 -0.001373 0.000000
# 3 -0.004200 -0.008269 0.009078 0.000000 0.000519 0.000000
# 4 0.000000 0.000000 0.000000 0.029920 0.000000 -0.003616
# 5 -0.001507 -0.001373 0.000519 0.000000 0.038700 0.000000
# 6 0.000000 0.000000 0.000000 -0.003616 0.000000 0.040623
#
#
# Mechanical properties :
#
#
# Convention : Reuss Voigt Hill
#
# Bulk Modulus (GPa) = 36.25935 79.37863 57.81899
# Shear Modulus (GPa) = 21.63473 28.61699 25.12586
#
# Velocity S-wave (km/s) = 3.51674 4.04460 3.78987
# Velocity P-wave (km/s) = 6.10061 8.19685 7.22516
#
# Compressibility (1/GPa) = 0.02757909
#
# Stress axis : x y z
#
# Youngs Moduli (GPa) = 68.48515 21.52976 110.16231
#
# Poissons Ratio (x) = 0.18956 0.46268
# Poissons Ratio (y) = 0.60298 0.91095
# Poissons Ratio (z) = 0.28764 0.17803
#
# Static dielectric constant tensor:
#      x y z
#    x 1.570860 0.000000 -0.014860 
#    y 0.000000 1.587690 0.000000 
#    z -0.014860 0.000000 1.596050 
# 
# From -- ./inp_files/68313.got.cif
#   From: 2010.05.17/outbox.cif.g08.bks.cpg/sg11_35_cif.got.tgz:68313.got - 2010.06.03 12:22:45.
