data_PCOD9159820
_publ_section_title
;
Structure prediction by ZEFSAII (Michael W. Deem and Ramdas Pophale) SiO2 
 PCOD9159820
Probable space group: P 21/M
;
_chemical_formula_sum "Si O2"
_cell_formula_units_Z 32
_cell_length_a 14.595977
_cell_length_b 7.485751
_cell_length_c 12.456795
_cell_angle_alpha 90.000000
_cell_angle_beta 103.785560
_cell_angle_gamma 90.000000
_cell_volume 1321.846480
_symmetry_space_group_name_H-M "P 21/M"
_symmetry_group_IT_number 11
_symmetry_cell_setting 'monoclinic'
loop_
_space_group_symop_operation_xyz
x,y,z
-x,1/2+y,-z
-x,-y,-z
x,1/2-y,z
loop_
_atom_site_type_symbol
_atom_site_label
_atom_site_fract_x
_atom_site_fract_y
_atom_site_fract_z
Si Si1 0.298963 0.453670 0.344644
Si Si2 0.653266 0.454379 0.234378
Si Si3 0.151861 0.963556 0.116888
Si Si4 0.984534 0.953473 0.198453
Si Si5 0.130239 0.030303 0.428165
Si Si6 0.696975 0.962955 0.004315
Si Si7 0.857460 0.544334 0.336241
Si Si8 0.444822 0.469468 0.224909
O O1 0.320499 0.250000 0.380462
O O2 0.225647 0.454883 0.223186
O O3 0.235394 0.529511 0.422009
O O4 0.393394 0.532397 0.319438
O O5 0.655707 0.250000 0.271288
O O6 0.668573 0.459696 0.110497
O O7 0.745126 0.545328 0.307552
O O8 0.551467 0.528970 0.237407
O O9 0.150806 0.750000 0.133558
O O10 0.047862 0.033005 0.120083
O O11 0.199066 0.997121 0.014975
O O12 0.960672 0.750000 0.159847
O O13 0.895689 0.037667 0.235811
O O14 0.059277 0.959260 0.318769
O O15 0.127525 0.250000 0.424058
O O16 0.108094 0.966707 0.541738
O O17 0.691132 0.750000 0.013573
O O18 0.621154 0.023353 0.893653
O O19 0.888750 0.750000 0.342278
O O20 0.443519 0.250000 0.224989
#
# Coordination Sequence:
#
# PCOD9159820 Si02
#       8
#     4   4   4   4   4   4   4   4
#     4   8  14  28  49  74 100 127 158 198 245 290
#     4  11  22  35  50  71  98 131 168 207 243 285
#     4   9  16  28  48  76 102 124 155 200 244 288
#     4   9  18  32  52  75 102 131 162 202 247 289
#     4   9  17  30  53  78 100 128 166 205 242 288
#     4  10  19  34  55  76  98 127 158 198 249 300
#     4  10  21  36  49  69 102 138 169 201 243 291
#     4   8  16  31  52  75  99 126 160 199 244 291
#
# _framework density 24.208561
#
# number of rings (size 3 to 8) (size 9 to 14) (size 15 to 20)
#    0.000    2.750    0.000    2.625    0.000    1.500 
#    0.000    6.875    0.000    0.000    0.000    0.000 
#    0.000    0.000    0.000    0.000    0.000    0.000 
#
# Total GULP energy -178597.614511 kJ/mol
# GULP energy per Si atom -5581.175453 kJ/mol
# Density = 2.415346 g / cm^3
# Si number density = 24.208561 Si / 1000 Ang^3
#
#
#
# Elastic Constant Matrix: (Units=GPa)
#
#
# Indices 1 2 3 4 5 6 
#
# 1 -83.1831 7.7760 253.4065 0.0000 -19.3688 0.0000
# 2 7.7760 86.8173 -12.1407 0.0000 -2.7315 0.0000
# 3 253.4065 -12.1407 -104.7587 0.0000 -27.9708 0.0000
# 4 0.0000 0.0000 0.0000 8.5280 0.0000 2.5184
# 5 -19.3688 -2.7315 -27.9708 0.0000 27.0322 0.0000
# 6 0.0000 0.0000 0.0000 2.5184 0.0000 17.9060
#
#
#
# Elastic Compliance Matrix: (Units=1/GPa)
#
#
# Indices 1 2 3 4 5 6 
#
# 1 0.003272 0.000753 0.005627 0.000000 0.008244 0.000000
# 2 0.000753 0.011509 0.000026 0.000000 0.001730 0.000000
# 3 0.005627 0.000026 0.002340 0.000000 0.006456 0.000000
# 4 0.000000 0.000000 0.000000 0.122342 0.000000 -0.017207
# 5 0.008244 0.001730 0.006456 0.000000 0.049754 0.000000
# 6 0.000000 0.000000 0.000000 -0.017207 0.000000 0.058267
#
#
# Mechanical properties :
#
#
# Convention : Reuss Voigt Hill
#
# Bulk Modulus (GPa) = 33.40553 44.10656 38.75604
# Shear Modulus (GPa) = 20.43741 -12.65117 3.89312
#
# Velocity S-wave (km/s) = 2.90870 -2.28850 1.26951
# Velocity P-wave (km/s) = 5.01096 3.35797 4.26531
#
# Compressibility (1/GPa) = 0.02993516
#
# Stress axis : x y z
#
# Youngs Moduli (GPa) = 305.58787 86.88792 427.37215
#
# Poissons Ratio (x) = -0.06545 -2.40499
# Poissons Ratio (y) = -0.23017 -0.01124
# Poissons Ratio (z) = -1.71966 -0.00229
#
# Static dielectric constant tensor:
#      x y z
#    x 1.978550 0.000000 -0.048400 
#    y 0.000000 1.891100 0.000000 
#    z -0.048400 0.000000 1.930060 
# 
# From -- ./inp_files/38265.got.cif
#   From: 2010.05.17/outbox.cif.g08.bks.cpg/sg11_20_cif.got.tgz:38265.got - 2010.06.03 12:22:45.
