data_PCOD9159321
_publ_section_title
;
Structure prediction by ZEFSAII (Michael W. Deem and Ramdas Pophale) SiO2 
 PCOD9159321
Probable space group: P 21/M
;
_chemical_formula_sum "Si O2"
_cell_formula_units_Z 24
_cell_length_a 19.295902
_cell_length_b 16.301205
_cell_length_c 10.579535
_cell_angle_alpha 90.000000
_cell_angle_beta 155.775514
_cell_angle_gamma 90.000000
_cell_volume 1365.420567
_symmetry_space_group_name_H-M "P 21/M"
_symmetry_group_IT_number 11
_symmetry_cell_setting 'monoclinic'
loop_
_space_group_symop_operation_xyz
x,y,z
-x,1/2+y,-z
-x,-y,-z
x,1/2-y,z
loop_
_atom_site_type_symbol
_atom_site_label
_atom_site_fract_x
_atom_site_fract_y
_atom_site_fract_z
Si Si1 0.482703 0.572385 0.872040
Si Si2 0.135834 0.576687 0.868909
Si Si3 0.111852 0.750000 0.142720
Si Si4 0.766925 0.923313 0.131089
Si Si5 0.110664 0.572385 0.127961
Si Si6 0.719093 0.250000 0.856407
Si Si7 0.530867 0.250000 0.142719
Si Si8 0.637314 0.750000 0.856406
O O1 0.295916 0.573031 0.500000
O O2 0.514048 0.661802 0.988284
O O3 0.500000 0.500000 0.000000
O O4 0.617638 0.564055 0.983857
O O5 0.225650 0.500000 0.951300
O O6 0.944487 0.579688 0.500000
O O7 0.133780 0.564055 0.016142
O O8 0.221958 0.664729 0.984091
O O9 0.025764 0.661802 0.011717
O O10 0.192495 0.750000 0.135698
O O11 0.268667 0.750000 0.500001
O O12 0.737867 0.835271 0.015908
O O13 0.000000 0.500000 0.000000
O O14 0.519857 0.250000 0.500001
O O15 0.443203 0.250000 0.135698
#
# Coordination Sequence:
#
# PCOD9159321 Si02
#       8
#     4   4   2   4   4   2   2   2
#     4  10  19  33  53  76 102 133 170 211 256 304
#     4  10  20  34  53  77 104 135 172 212 254 302
#     4   7  14  29  48  69  94 127 163 199 243 297
#     4  10  20  34  53  77 104 135 172 212 254 302
#     4  10  19  33  53  76 102 133 170 211 256 304
#     4   9  17  31  52  75 100 133 171 209 251 303
#     4   7  14  29  48  69  94 127 163 199 243 297
#     4   9  17  31  52  75 100 133 171 209 251 303
#
# _framework density 17.577000999999999
#
# number of rings (size 3 to 8) (size 9 to 14) (size 15 to 20)
#    0.000    2.667    0.000    4.500    0.000    2.667 
#    0.000    4.167    0.000    4.000    0.000    0.000 
#    0.000    0.000    0.000    0.000    0.000    0.000 
#
# Total GULP energy -133695.596287 kJ/mol
# GULP energy per Si atom -5570.649845 kJ/mol
# Density = 1.753699 g / cm^3
# Si number density = 17.577001 Si / 1000 Ang^3
#
#
#
# Elastic Constant Matrix: (Units=GPa)
#
#
# Indices 1 2 3 4 5 6 
#
# 1 44.3355 72.2237 26.9086 0.0000 -2.5048 0.0000
# 2 72.2237 230.1180 62.0290 0.0000 0.9036 0.0000
# 3 26.9086 62.0290 65.6329 0.0000 0.6175 0.0000
# 4 0.0000 0.0000 0.0000 31.2808 0.0000 0.1623
# 5 -2.5048 0.9036 0.6175 0.0000 22.5697 0.0000
# 6 0.0000 0.0000 0.0000 0.1623 0.0000 33.1127
#
#
#
# Elastic Compliance Matrix: (Units=1/GPa)
#
#
# Indices 1 2 3 4 5 6 
#
# 1 0.049561 -0.013534 -0.007587 0.000000 0.006250 0.000000
# 2 -0.013534 0.009527 -0.003438 0.000000 -0.001789 0.000000
# 3 -0.007587 -0.003438 0.021609 0.000000 -0.001296 0.000000
# 4 0.000000 0.000000 0.000000 0.031969 0.000000 -0.000157
# 5 0.006250 -0.001789 -0.001296 0.000000 0.045108 0.000000
# 6 0.000000 0.000000 0.000000 -0.000157 0.000000 0.030201
#
#
# Mechanical properties :
#
#
# Convention : Reuss Voigt Hill
#
# Bulk Modulus (GPa) = 31.66812 73.60101 52.63457
# Shear Modulus (GPa) = 20.19220 29.32097 24.75658
#
# Velocity S-wave (km/s) = 3.39305 4.08872 3.75702
# Velocity P-wave (km/s) = 5.77982 8.01590 6.98788
#
# Compressibility (1/GPa) = 0.03157750
#
# Stress axis : x y z
#
# Youngs Moduli (GPa) = 20.17708 104.96133 46.27796
#
# Poissons Ratio (x) = 1.42060 0.35111
# Poissons Ratio (y) = 0.27309 0.15912
# Poissons Ratio (z) = 0.15308 0.36090
#
# Static dielectric constant tensor:
#      x y z
#    x 1.564310 0.000000 -0.002950 
#    y 0.000000 1.641690 0.000000 
#    z -0.002950 0.000000 1.597590 
# 
# From -- ./inp_files/43455.got.cif
#   From: 2010.05.17/outbox.cif.g08.bks.cpg/sg11_22_cif.got.tgz:43455.got - 2010.06.03 12:22:45.
