data_PCOD9159381
_publ_section_title
;
Structure prediction by ZEFSAII (Michael W. Deem and Ramdas Pophale) SiO2 
 PCOD9159381
Probable space group: P 21/M
;
_chemical_formula_sum "Si O2"
_cell_formula_units_Z 32
_cell_length_a 5.289056
_cell_length_b 16.247187
_cell_length_c 16.309269
_cell_angle_alpha 90.000000
_cell_angle_beta 104.590240
_cell_angle_gamma 90.000000
_cell_volume 1356.297498
_symmetry_space_group_name_H-M "P 21/M"
_symmetry_group_IT_number 11
_symmetry_cell_setting 'monoclinic'
loop_
_space_group_symop_operation_xyz
x,y,z
-x,1/2+y,-z
-x,-y,-z
x,1/2-y,z
loop_
_atom_site_type_symbol
_atom_site_label
_atom_site_fract_x
_atom_site_fract_y
_atom_site_fract_z
Si Si1 0.422702 0.158059 0.159523
Si Si2 0.869511 0.650071 0.554626
Si Si3 0.652377 0.499649 0.927439
Si Si4 0.195612 0.063178 0.783606
Si Si5 0.100630 0.658338 0.116535
Si Si6 0.011247 0.393775 0.252709
Si Si7 0.712423 0.349835 0.543118
Si Si8 0.494399 0.657509 0.302411
O O1 0.393528 0.250000 0.125361
O O2 0.279349 0.093372 0.087800
O O3 0.733535 0.141990 0.197630
O O4 0.260120 0.148325 0.230597
O O5 0.878431 0.750000 0.557837
O O6 0.977916 0.618065 0.649389
O O7 0.049917 0.621030 0.493780
O O8 0.567445 0.626321 0.518401
O O9 0.449613 0.482576 0.837799
O O10 0.845427 0.421865 0.935361
O O11 0.500000 0.500000 0.000000
O O12 0.264946 0.100475 0.701792
O O13 0.142911 0.134284 0.845791
O O14 0.982345 0.991370 0.767180
O O15 0.082963 0.750000 0.078391
O O16 0.324071 0.662116 0.205675
O O17 0.730053 0.250000 0.544013
O O18 0.679531 0.372236 0.636153
O O19 0.589075 0.750000 0.329897
#
# Coordination Sequence:
#
# PCOD9159381 Si02
#       8
#     4   4   4   4   4   4   4   4
#     4  11  22  40  65  94 123 167 213 253 310 377
#     4  10  19  33  53  81 114 157 205 258 315 367
#     4  10  23  42  63  91 131 160 197 260 317 379
#     4  10  21  38  61  87 117 162 205 254 314 370
#     4  10  20  38  64  91 119 162 214 254 308 373
#     4  11  22  39  62  88 125 163 211 265 309 371
#     4   9  19  33  52  82 118 155 204 259 315 365
#     4   9  19  35  58  84 115 159 209 260 305 368
#
# _framework density 23.593646
#
# number of rings (size 3 to 8) (size 9 to 14) (size 15 to 20)
#    0.000    2.000    1.250    2.250    1.750    2.500 
#    0.000    1.250    0.000    0.000    0.000    0.000 
#    0.000    0.000    0.000    0.000    0.000    0.000 
#
# Total GULP energy -178709.190349 kJ/mol
# GULP energy per Si atom -5584.662198 kJ/mol
# Density = 2.353995 g / cm^3
# Si number density = 23.593646 Si / 1000 Ang^3
#
#
#
# Elastic Constant Matrix: (Units=GPa)
#
#
# Indices 1 2 3 4 5 6 
#
# 1 82.4616 16.8418 14.9261 0.0000 -12.4567 0.0000
# 2 16.8418 124.5025 30.2552 0.0000 -6.2594 0.0000
# 3 14.9261 30.2552 86.3574 0.0000 -18.9729 0.0000
# 4 0.0000 0.0000 0.0000 31.0523 0.0000 -10.0960
# 5 -12.4567 -6.2594 -18.9729 0.0000 42.3304 0.0000
# 6 0.0000 0.0000 0.0000 -10.0960 0.0000 20.5846
#
#
#
# Elastic Compliance Matrix: (Units=1/GPa)
#
#
# Indices 1 2 3 4 5 6 
#
# 1 0.013077 -0.001344 -0.001095 0.000000 0.003158 0.000000
# 2 -0.001344 0.008918 -0.002983 0.000000 -0.000414 0.000000
# 3 -0.001095 -0.002983 0.014028 0.000000 0.005524 0.000000
# 4 0.000000 0.000000 0.000000 0.038313 0.000000 0.018791
# 5 0.003158 -0.000414 0.005524 0.000000 0.026968 0.000000
# 6 0.000000 0.000000 0.000000 0.018791 0.000000 0.057796
#
#
# Mechanical properties :
#
#
# Convention : Reuss Voigt Hill
#
# Bulk Modulus (GPa) = 39.71769 46.37418 43.04594
# Shear Modulus (GPa) = 28.03677 34.21335 31.12506
#
# Velocity S-wave (km/s) = 3.45094 3.81216 3.63604
# Velocity P-wave (km/s) = 5.72270 6.25098 5.99266
#
# Compressibility (1/GPa) = 0.02517770
#
# Stress axis : x y z
#
# Youngs Moduli (GPa) = 76.47174 112.13458 71.28687
#
# Poissons Ratio (x) = 0.15070 0.07809
# Poissons Ratio (y) = 0.10277 0.21265
# Poissons Ratio (z) = 0.08377 0.33450
#
# Static dielectric constant tensor:
#      x y z
#    x 1.937990 0.000000 0.012180 
#    y 0.000000 1.937200 0.000000 
#    z 0.012180 0.000000 1.892270 
# 
# From -- ./inp_files/46048.got.cif
#   From: 2010.05.17/outbox.cif.g08.bks.cpg/sg11_24_cif.got.tgz:46048.got - 2010.06.03 12:22:45.
