data_PCOD9159801
_publ_section_title
;
Structure prediction by ZEFSAII (Michael W. Deem and Ramdas Pophale) SiO2 
 PCOD9159801
Probable space group: P 21/M
;
_chemical_formula_sum "Si O2"
_cell_formula_units_Z 28
_cell_length_a 21.148714
_cell_length_b 8.163355
_cell_length_c 14.875022
_cell_angle_alpha 90.000000
_cell_angle_beta 151.737551
_cell_angle_gamma 90.000000
_cell_volume 1216.019067
_symmetry_space_group_name_H-M "P 21/M"
_symmetry_group_IT_number 11
_symmetry_cell_setting 'monoclinic'
loop_
_space_group_symop_operation_xyz
x,y,z
-x,1/2+y,-z
-x,-y,-z
x,1/2-y,z
loop_
_atom_site_type_symbol
_atom_site_label
_atom_site_fract_x
_atom_site_fract_y
_atom_site_fract_z
Si Si1 0.161709 0.050147 0.823241
Si Si2 0.413723 0.065939 0.253821
Si Si3 0.357082 0.558854 0.707239
Si Si4 0.350959 0.050071 0.904362
Si Si5 0.068494 0.568058 0.998069
Si Si6 0.333624 0.073428 0.362187
Si Si7 0.933400 0.442332 0.658857
O O1 0.155999 0.250000 0.819079
O O2 0.222002 0.005038 0.802071
O O3 0.019455 0.988733 0.682449
O O4 0.281293 0.999532 0.040798
O O5 0.436693 0.250000 0.246668
O O6 0.386339 0.081215 0.325972
O O7 0.548768 0.963133 0.421093
O O8 0.357745 0.750000 0.682624
O O9 0.349327 0.534429 0.805625
O O10 0.212592 0.486947 0.498324
O O11 0.507224 0.499598 0.871827
O O12 0.353430 0.250000 0.896851
O O13 0.024918 0.750000 0.920490
O O14 0.223096 0.563716 0.217757
O O15 0.000000 0.500000 0.000000
O O16 0.031536 0.458508 0.866483
O O17 0.271168 0.250000 0.304531
O O18 0.910838 0.250000 0.611877
#
# Coordination Sequence:
#
# PCOD9159801 Si02
#       7
#     4   4   4   4   4   4   4
#     4   9  17  32  55  81 111 147 188 233 284 336
#     4   9  17  31  53  78 107 143 183 228 281 333
#     4   9  19  35  56  81 112 147 184 225 279 338
#     4   9  18  34  56  81 109 145 186 227 274 336
#     4  12  25  40  58  81 111 148 190 233 284 342
#     4  10  19  34  54  78 108 143 185 231 279 329
#     4  10  20  38  59  81 110 147 186 233 286 340
#
# _framework density 23.025956000000001
#
# number of rings (size 3 to 8) (size 9 to 14) (size 15 to 20)
#    0.000    2.286    1.429    1.714    0.000    2.857 
#    0.000    4.286    0.000    0.000    0.000    0.000 
#    0.000    0.000    0.000    0.000    0.000    0.000 
#
# Total GULP energy -156087.045909 kJ/mol
# GULP energy per Si atom -5574.537354 kJ/mol
# Density = 2.297355 g / cm^3
# Si number density = 23.025956 Si / 1000 Ang^3
#
#
#
# Elastic Constant Matrix: (Units=GPa)
#
#
# Indices 1 2 3 4 5 6 
#
# 1 64.2152 -3.7544 -9.3137 0.0000 18.9669 0.0000
# 2 -3.7544 28.4769 5.7809 0.0000 8.4710 0.0000
# 3 -9.3137 5.7809 60.5190 0.0000 12.9872 0.0000
# 4 0.0000 0.0000 0.0000 18.5700 0.0000 -2.1243
# 5 18.9669 8.4710 12.9872 0.0000 27.5443 0.0000
# 6 0.0000 0.0000 0.0000 -2.1243 0.0000 11.3279
#
#
#
# Elastic Compliance Matrix: (Units=1/GPa)
#
#
# Indices 1 2 3 4 5 6 
#
# 1 0.023868 0.008310 0.007738 0.000000 -0.022639 0.000000
# 2 0.008310 0.041634 0.001422 0.000000 -0.019197 0.000000
# 3 0.007738 0.001422 0.020934 0.000000 -0.015636 0.000000
# 4 0.000000 0.000000 0.000000 0.055031 0.000000 0.010320
# 5 -0.022639 -0.019197 -0.015636 0.000000 0.065170 0.000000
# 6 0.000000 0.000000 0.000000 0.010320 0.000000 0.090213
#
#
# Mechanical properties :
#
#
# Convention : Reuss Voigt Hill
#
# Bulk Modulus (GPa) = 8.23898 15.40409 11.82154
# Shear Modulus (GPa) = 16.53614 22.18833 19.36223
#
# Velocity S-wave (km/s) = 2.68274 3.10759 2.90295
# Velocity P-wave (km/s) = 3.63071 4.42500 4.04738
#
# Compressibility (1/GPa) = 0.12137422
#
# Stress axis : x y z
#
# Youngs Moduli (GPa) = 41.89791 24.01904 47.76892
#
# Poissons Ratio (x) = -0.19961 -0.36962
# Poissons Ratio (y) = -0.34818 -0.06791
# Poissons Ratio (z) = -0.32419 -0.03414
#
# Static dielectric constant tensor:
#      x y z
#    x 1.376950 0.000000 -1.325370 
#    y 0.000000 1.835190 0.000000 
#    z -1.325370 0.000000 -1.835970 
# 
# From -- ./inp_files/54587.got.cif
#   From: 2010.05.17/outbox.cif.g08.bks.cpg/sg11_28_cif.got.tgz:54587.got - 2010.06.03 12:22:45.
