data_PCOD9159810
_publ_section_title
;
Structure prediction by ZEFSAII (Michael W. Deem and Ramdas Pophale) SiO2 
 PCOD9159810
Probable space group: P 21/M
;
_chemical_formula_sum "Si O2"
_cell_formula_units_Z 28
_cell_length_a 7.717912
_cell_length_b 17.980574
_cell_length_c 9.918361
_cell_angle_alpha 90.000000
_cell_angle_beta 94.367583
_cell_angle_gamma 90.000000
_cell_volume 1372.398577
_symmetry_space_group_name_H-M "P 21/M"
_symmetry_group_IT_number 11
_symmetry_cell_setting 'monoclinic'
loop_
_space_group_symop_operation_xyz
x,y,z
-x,1/2+y,-z
-x,-y,-z
x,1/2-y,z
loop_
_atom_site_type_symbol
_atom_site_label
_atom_site_fract_x
_atom_site_fract_y
_atom_site_fract_z
Si Si1 0.926694 0.882552 0.441398
Si Si2 0.865118 0.164448 0.077020
Si Si3 0.266957 0.959090 0.532006
Si Si4 0.311633 0.007229 0.247662
Si Si5 0.178983 0.169926 0.293358
Si Si6 0.958306 0.918817 0.155278
Si Si7 0.646596 0.465777 0.153732
O O1 0.838629 0.831391 0.546347
O O2 0.126427 0.895230 0.493885
O O3 0.917723 0.867708 0.282723
O O4 0.835682 0.962963 0.456207
O O5 0.820290 0.250000 0.046320
O O6 0.700729 0.110530 0.085316
O O7 0.987295 0.162196 0.216778
O O8 0.987383 0.129597 0.968515
O O9 0.344831 0.946544 0.683861
O O10 0.366327 0.970759 0.395524
O O11 0.279627 0.095443 0.259823
O O12 0.455215 0.998354 0.140280
O O13 0.126505 0.969569 0.202457
O O14 0.250462 0.250000 0.252232
O O15 0.796630 0.974549 0.127378
#
# Coordination Sequence:
#
# PCOD9159810 Si02
#       7
#     4   4   4   4   4   4   4
#     4   8  14  30  55  75 101 139 172 211 264 316
#     4  11  23  38  55  77 112 149 180 223 277 326
#     4   8  14  29  50  84 109 127 165 222 267 313
#     4  10  20  33  58  86 109 140 183 228 273 318
#     4  10  19  34  54  80 111 144 182 222 272 329
#     4  10  21  38  56  81 111 138 186 230 267 318
#     4  11  19  34  61  81 110 142 182 223 279 321
#
# _framework density 20.402237
#
# number of rings (size 3 to 8) (size 9 to 14) (size 15 to 20)
#    0.000    2.286    2.857    2.571    0.000    1.714 
#    0.000    0.000    0.000    0.000    0.000    0.000 
#    0.000    0.000    0.000    0.000    0.000    0.000 
#
# Total GULP energy -156101.437972 kJ/mol
# GULP energy per Si atom -5575.051356 kJ/mol
# Density = 2.035580 g / cm^3
# Si number density = 20.402237 Si / 1000 Ang^3
#
#
#
# Elastic Constant Matrix: (Units=GPa)
#
#
# Indices 1 2 3 4 5 6 
#
# 1 82.0399 26.0331 17.2996 0.0000 -20.5184 0.0000
# 2 26.0331 88.6524 25.4943 0.0000 -5.7252 0.0000
# 3 17.2996 25.4943 84.6238 0.0000 -22.8585 0.0000
# 4 0.0000 0.0000 0.0000 16.7488 0.0000 -0.5504
# 5 -20.5184 -5.7252 -22.8585 0.0000 34.5986 0.0000
# 6 0.0000 0.0000 0.0000 -0.5504 0.0000 12.2299
#
#
#
# Elastic Compliance Matrix: (Units=1/GPa)
#
#
# Indices 1 2 3 4 5 6 
#
# 1 0.015631 -0.004147 0.000453 0.000000 0.008883 0.000000
# 2 -0.004147 0.013457 -0.003979 0.000000 -0.002862 0.000000
# 3 0.000453 -0.003979 0.015602 0.000000 0.009919 0.000000
# 4 0.000000 0.000000 0.000000 0.059794 0.000000 0.002691
# 5 0.008883 -0.002862 0.009919 0.000000 0.040251 0.000000
# 6 0.000000 0.000000 0.000000 0.002691 0.000000 0.081888
#
#
# Mechanical properties :
#
#
# Convention : Reuss Voigt Hill
#
# Bulk Modulus (GPa) = 34.07726 43.66334 38.87030
# Shear Modulus (GPa) = 19.86090 25.14808 22.50449
#
# Velocity S-wave (km/s) = 3.12343 3.51467 3.32481
# Velocity P-wave (km/s) = 5.45405 6.15778 5.81657
#
# Compressibility (1/GPa) = 0.02934508
#
# Stress axis : x y z
#
# Youngs Moduli (GPa) = 63.97452 74.30885 64.09281
#
# Poissons Ratio (x) = 0.30815 -0.02906
# Poissons Ratio (y) = 0.26529 0.25506
# Poissons Ratio (z) = -0.02901 0.29571
#
# Static dielectric constant tensor:
#      x y z
#    x 1.788810 0.000000 0.039720 
#    y 0.000000 1.691960 0.000000 
#    z 0.039720 0.000000 1.823360 
# 
# From -- ./inp_files/32071.got.cif
#   From: 2010.05.17/outbox.cif.g08.bks.cpg/sg11_17_cif.got.tgz:32071.got - 2010.06.03 12:22:45.
