data_PCOD9159805
_publ_section_title
;
Structure prediction by ZEFSAII (Michael W. Deem and Ramdas Pophale) SiO2 
 PCOD9159805
Probable space group: P 21/M
;
_chemical_formula_sum "Si O2"
_cell_formula_units_Z 24
_cell_length_a 19.450800
_cell_length_b 9.935494
_cell_length_c 6.987003
_cell_angle_alpha 90.000000
_cell_angle_beta 131.040909
_cell_angle_gamma 90.000000
_cell_volume 1018.422485
_symmetry_space_group_name_H-M "P 21/M"
_symmetry_group_IT_number 11
_symmetry_cell_setting 'monoclinic'
loop_
_space_group_symop_operation_xyz
x,y,z
-x,1/2+y,-z
-x,-y,-z
x,1/2-y,z
loop_
_atom_site_type_symbol
_atom_site_label
_atom_site_fract_x
_atom_site_fract_y
_atom_site_fract_z
Si Si1 0.940964 0.250000 0.876850
Si Si2 0.143592 0.250000 0.149317
Si Si3 0.103731 0.250000 0.625081
Si Si4 0.400106 0.597081 0.667585
Si Si5 0.792697 0.045330 0.668799
Si Si6 0.780275 0.487202 0.212445
Si Si7 0.898718 0.250000 0.339664
Si Si8 0.594792 0.908918 0.950479
O O1 0.888049 0.377764 0.868460
O O2 0.925897 0.250000 0.616989
O O3 0.049205 0.250000 0.094715
O O4 0.196202 0.387013 0.285272
O O5 0.121281 0.250000 0.884828
O O6 0.155238 0.117391 0.647725
O O7 0.994683 0.250000 0.405563
O O8 0.411718 0.750000 0.767640
O O9 0.299245 0.591154 0.394709
O O10 0.488970 0.575294 0.697996
O O11 0.402139 0.484426 0.837984
O O12 0.772111 0.076498 0.408268
O O13 0.836555 0.380868 0.191574
O O14 0.677544 0.531642 0.976698
O O15 0.613749 0.750000 0.006439
#
# Coordination Sequence:
#
# PCOD9159805 Si02
#       8
#     2   2   2   4   4   4   2   4
#     4   9  18  35  52  75 101 135 171 217 262 301
#     4  11  23  33  50  73 107 137 177 213 252 303
#     4  11  21  37  50  73 105 143 173 215 252 301
#     4   9  17  29  49  78 110 131 159 211 263 308
#     4  10  19  34  54  79 102 135 171 214 258 308
#     4  10  19  34  56  78 102 134 171 213 258 309
#     4   9  20  33  54  77 103 131 177 215 260 301
#     4   9  17  28  48  82 107 130 159 209 264 312
#
# _framework density 23.565860000000001
#
# number of rings (size 3 to 8) (size 9 to 14) (size 15 to 20)
#    0.000    2.333    1.667    1.500    7.000    0.000 
#    0.000    2.500    0.000    1.000    0.000    0.000 
#    0.000    0.000    0.000    0.000    0.000    0.000 
#
# Total GULP energy -133969.827893 kJ/mol
# GULP energy per Si atom -5582.076162 kJ/mol
# Density = 2.351222 g / cm^3
# Si number density = 23.565860 Si / 1000 Ang^3
#
#
#
# Elastic Constant Matrix: (Units=GPa)
#
#
# Indices 1 2 3 4 5 6 
#
# 1 154.0505 45.4453 49.2393 0.0000 50.9818 0.0000
# 2 45.4453 123.1100 7.2697 0.0000 30.1430 0.0000
# 3 49.2393 7.2697 55.7632 0.0000 27.4022 0.0000
# 4 0.0000 0.0000 0.0000 10.3894 0.0000 19.7971
# 5 50.9818 30.1430 27.4022 0.0000 67.8882 0.0000
# 6 0.0000 0.0000 0.0000 19.7971 0.0000 29.0205
#
#
#
# Elastic Compliance Matrix: (Units=1/GPa)
#
#
# Indices 1 2 3 4 5 6 
#
# 1 0.010962 -0.002605 -0.007314 0.000000 -0.004123 0.000000
# 2 -0.002605 0.009777 0.002741 0.000000 -0.003491 0.000000
# 3 -0.007314 0.002741 0.027360 0.000000 -0.006768 0.000000
# 4 0.000000 0.000000 0.000000 -0.320951 0.000000 0.218945
# 5 -0.004123 -0.003491 -0.006768 0.000000 0.022109 0.000000
# 6 0.000000 0.000000 0.000000 0.218945 0.000000 -0.114901
#
#
# Mechanical properties :
#
#
# Convention : Reuss Voigt Hill
#
# Bulk Modulus (GPa) = 29.63476 59.64802 44.64139
# Shear Modulus (GPa) = -14.70413 36.85759 11.07673
#
# Velocity S-wave (km/s) = -2.50063 3.95907 2.17038
# Velocity P-wave (km/s) = 2.06521 6.80184 5.02644
#
# Compressibility (1/GPa) = 0.03374415
#
# Stress axis : x y z
#
# Youngs Moduli (GPa) = 91.22208 102.27587 36.55021
#
# Poissons Ratio (x) = 0.26645 0.26732
# Poissons Ratio (y) = 0.23765 -0.10020
# Poissons Ratio (z) = 0.66718 -0.28038
#
# Static dielectric constant tensor:
#      x y z
#    x 1.928700 0.000000 0.005510 
#    y 0.000000 1.853610 0.000000 
#    z 0.005510 0.000000 1.944640 
# 
# From -- ./inp_files/25795.got.cif
#   From: 2010.05.17/outbox.cif.g08.bks.cpg/sg11_13_cif.got.tgz:25795.got - 2010.06.03 12:22:45.
