data_PCOD9159804
_publ_section_title
;
Structure prediction by ZEFSAII (Michael W. Deem and Ramdas Pophale) SiO2 
 PCOD9159804
Probable space group: P 21/M
;
_chemical_formula_sum "Si O2"
_cell_formula_units_Z 32
_cell_length_a 19.119431
_cell_length_b 14.571132
_cell_length_c 17.005797
_cell_angle_alpha 90.000000
_cell_angle_beta 159.458677
_cell_angle_gamma 90.000000
_cell_volume 1662.368783
_symmetry_space_group_name_H-M "P 21/M"
_symmetry_group_IT_number 11
_symmetry_cell_setting 'monoclinic'
loop_
_space_group_symop_operation_xyz
x,y,z
-x,1/2+y,-z
-x,-y,-z
x,1/2-y,z
loop_
_atom_site_type_symbol
_atom_site_label
_atom_site_fract_x
_atom_site_fract_y
_atom_site_fract_z
Si Si1 0.011079 0.360594 0.436627
Si Si2 0.302651 0.443052 0.269210
Si Si3 0.214678 0.454568 0.504547
Si Si4 0.411727 0.646443 0.547042
Si Si5 0.382947 0.091211 0.904263
Si Si6 0.624939 0.354343 0.309719
Si Si7 0.563266 0.148331 0.939487
Si Si8 0.891079 0.523711 0.782533
O O1 0.021420 0.250000 0.455320
O O2 0.092911 0.396069 0.439205
O O3 0.145094 0.407815 0.644944
O O4 0.779988 0.385898 0.191862
O O5 0.500000 0.500000 0.500000
O O6 0.394752 0.373290 0.302831
O O7 0.201523 0.413604 0.245494
O O8 0.122774 0.501945 0.041821
O O9 0.215388 0.562842 0.526210
O O10 0.441897 0.419804 0.755869
O O11 0.143703 0.440087 0.341451
O O12 0.340259 0.750000 0.456785
O O13 0.459595 0.639090 0.690487
O O14 0.237690 0.571553 0.348361
O O15 0.445201 0.155501 0.897005
O O16 0.465306 0.125239 0.073590
O O17 0.500000 0.000000 0.000000
O O18 0.701109 0.250000 0.379414
O O19 0.578341 0.250000 0.919640
#
# Coordination Sequence:
#
# PCOD9159804 Si02
#       8
#     4   4   4   4   4   4   4   4
#     4  10  21  36  55  79 108 145 188 233 282 332
#     4   9  18  36  57  81 108 141 180 218 268 332
#     4  10  19  36  56  82 108 145 184 228 279 329
#     4   9  19  34  54  80 111 146 182 225 276 328
#     4  11  19  36  55  78 109 149 187 231 280 332
#     4  10  19  34  54  78 112 148 186 231 275 325
#     4  10  21  37  57  78 107 147 187 233 286 331
#     4   9  19  34  58  82 110 144 181 223 274 335
#
# _framework density 19.249639999999999
#
# number of rings (size 3 to 8) (size 9 to 14) (size 15 to 20)
#    0.000    2.250    2.500    2.250    0.000    4.000 
#    0.000    2.500    0.000   12.750    0.000    0.000 
#    0.000    0.000    0.000    0.000    0.000    0.000 
#
# Total GULP energy -178185.609367 kJ/mol
# GULP energy per Si atom -5568.300293 kJ/mol
# Density = 1.920583 g / cm^3
# Si number density = 19.249640 Si / 1000 Ang^3
#
#
#
# Elastic Constant Matrix: (Units=GPa)
#
#
# Indices 1 2 3 4 5 6 
#
# 1 57.5814 11.0123 36.6172 0.0000 -16.9149 0.0000
# 2 11.0123 74.0112 15.5898 0.0000 -1.9099 0.0000
# 3 36.6172 15.5898 119.6319 0.0000 -6.2799 0.0000
# 4 0.0000 0.0000 0.0000 14.9033 0.0000 0.5345
# 5 -16.9149 -1.9099 -6.2799 0.0000 34.9039 0.0000
# 6 0.0000 0.0000 0.0000 0.5345 0.0000 24.8201
#
#
#
# Elastic Compliance Matrix: (Units=1/GPa)
#
#
# Indices 1 2 3 4 5 6 
#
# 1 0.025374 -0.002034 -0.006927 0.000000 0.010939 0.000000
# 2 -0.002034 0.014063 -0.001233 0.000000 -0.000438 0.000000
# 3 -0.006927 -0.001233 0.010560 0.000000 -0.001525 0.000000
# 4 0.000000 0.000000 0.000000 0.067151 0.000000 -0.001446
# 5 0.010939 -0.000438 -0.001525 0.000000 0.033653 0.000000
# 6 0.000000 0.000000 0.000000 -0.001446 0.000000 0.040321
#
#
# Mechanical properties :
#
#
# Convention : Reuss Voigt Hill
#
# Bulk Modulus (GPa) = 33.77445 41.96256 37.86850
# Shear Modulus (GPa) = 22.58558 27.45914 25.02236
#
# Velocity S-wave (km/s) = 3.42906 3.78097 3.60931
# Velocity P-wave (km/s) = 5.76728 6.39589 6.08970
#
# Compressibility (1/GPa) = 0.02960818
#
# Stress axis : x y z
#
# Youngs Moduli (GPa) = 39.40974 71.11094 94.69735
#
# Poissons Ratio (x) = 0.14464 0.65600
# Poissons Ratio (y) = 0.08016 0.11676
# Poissons Ratio (z) = 0.27301 0.08768
#
# Static dielectric constant tensor:
#      x y z
#    x 1.683420 0.000000 0.012450 
#    y 0.000000 1.720170 0.000000 
#    z 0.012450 0.000000 1.696510 
# 
# From -- ./inp_files/61627.got.cif
#   From: 2010.05.17/outbox.cif.g08.bks.cpg/sg11_31_cif.got.tgz:61627.got - 2010.06.03 12:22:45.
