data_PCOD9159127
_publ_section_title
;
Structure prediction by ZEFSAII (Michael W. Deem and Ramdas Pophale) SiO2 
 PCOD9159127
Probable space group: P 21/M
;
_chemical_formula_sum "Si O2"
_cell_formula_units_Z 32
_cell_length_a 10.889750
_cell_length_b 9.003241
_cell_length_c 15.359282
_cell_angle_alpha 90.000000
_cell_angle_beta 110.994734
_cell_angle_gamma 90.000000
_cell_volume 1405.901056
_symmetry_space_group_name_H-M "P 21/M"
_symmetry_group_IT_number 11
_symmetry_cell_setting 'monoclinic'
loop_
_space_group_symop_operation_xyz
x,y,z
-x,1/2+y,-z
-x,-y,-z
x,1/2-y,z
loop_
_atom_site_type_symbol
_atom_site_label
_atom_site_fract_x
_atom_site_fract_y
_atom_site_fract_z
Si Si1 0.499097 0.916831 0.373363
Si Si2 0.185345 0.424676 0.524397
Si Si3 0.111132 0.426399 0.858382
Si Si4 0.753137 0.927532 0.643433
Si Si5 0.341762 0.425601 0.038820
Si Si6 0.436203 0.422239 0.805663
Si Si7 0.160200 0.574442 0.696335
Si Si8 0.867627 0.926388 0.859347
O O1 0.463140 0.750000 0.391435
O O2 0.654993 0.934493 0.426219
O O3 0.483601 0.928868 0.264907
O O4 0.399941 0.026686 0.395276
O O5 0.150037 0.250000 0.522378
O O6 0.168037 0.482339 0.421550
O O7 0.128296 0.511495 0.592375
O O8 0.103821 0.250000 0.848529
O O9 0.086705 0.503655 0.759844
O O10 0.002334 0.483116 0.898324
O O11 0.256057 0.464104 0.932223
O O12 0.760819 0.750000 0.640473
O O13 0.806437 0.973555 0.750841
O O14 0.375482 0.250000 0.044649
O O15 0.468898 0.521634 0.094156
O O16 0.237953 0.447231 0.091602
O O17 0.394582 0.250000 0.807228
O O18 0.310443 0.524736 0.755383
O O19 0.144393 0.750000 0.692569
O O20 0.897281 0.750000 0.863534
#
# Coordination Sequence:
#
# PCOD9159127 Si02
#       8
#     4   4   4   4   4   4   4   4
#     4   9  17  29  48  79 118 151 184 225 274 336
#     4   9  19  35  54  82 116 151 189 231 282 339
#     4  11  24  41  61  83 111 153 197 241 290 341
#     4  10  19  32  55  83 116 152 185 230 285 337
#     4  10  21  38  61  89 119 149 188 236 289 344
#     4  10  20  35  58  88 121 154 187 233 286 341
#     4  11  23  40  61  83 113 153 195 241 287 337
#     4  10  21  38  59  87 120 150 189 237 283 340
#
# _framework density 22.761203999999999
#
# number of rings (size 3 to 8) (size 9 to 14) (size 15 to 20)
#    0.000    2.000    1.250    3.375    0.000    5.000 
#    0.000    0.625    0.000    0.000    0.000    0.000 
#    0.000    0.000    0.000    0.000    0.000    0.000 
#
# Total GULP energy -178926.600162 kJ/mol
# GULP energy per Si atom -5591.456255 kJ/mol
# Density = 2.270940 g / cm^3
# Si number density = 22.761204 Si / 1000 Ang^3
#
#
#
# Elastic Constant Matrix: (Units=GPa)
#
#
# Indices 1 2 3 4 5 6 
#
# 1 61.4435 18.5430 6.8639 0.0000 -4.1026 0.0000
# 2 18.5430 45.6221 35.4982 0.0000 -3.8855 0.0000
# 3 6.8639 35.4982 131.5938 0.0000 -7.7203 0.0000
# 4 0.0000 0.0000 0.0000 26.2021 0.0000 -3.5466
# 5 -4.1026 -3.8855 -7.7203 0.0000 39.5682 0.0000
# 6 0.0000 0.0000 0.0000 -3.5466 0.0000 22.9950
#
#
#
# Elastic Compliance Matrix: (Units=1/GPa)
#
#
# Indices 1 2 3 4 5 6 
#
# 1 0.018816 -0.008644 0.001431 0.000000 0.001381 0.000000
# 2 -0.008644 0.031777 -0.008083 0.000000 0.000647 0.000000
# 3 0.001431 -0.008083 0.009779 0.000000 0.001263 0.000000
# 4 0.000000 0.000000 0.000000 0.038979 0.000000 0.006012
# 5 0.001381 0.000647 0.001263 0.000000 0.025726 0.000000
# 6 0.000000 0.000000 0.000000 0.006012 0.000000 0.044415
#
#
# Mechanical properties :
#
#
# Convention : Reuss Voigt Hill
#
# Bulk Modulus (GPa) = 33.57873 40.05218 36.81545
# Shear Modulus (GPa) = 23.80836 29.60334 26.70585
#
# Velocity S-wave (km/s) = 3.23771 3.61030 3.42907
# Velocity P-wave (km/s) = 5.36299 5.91726 5.64693
#
# Compressibility (1/GPa) = 0.02978076
#
# Stress axis : x y z
#
# Youngs Moduli (GPa) = 53.14604 31.46920 102.25925
#
# Poissons Ratio (x) = 0.27201 -0.14637
# Poissons Ratio (y) = 0.45939 0.82659
# Poissons Ratio (z) = -0.07607 0.25437
#
# Static dielectric constant tensor:
#      x y z
#    x 1.873110 0.000000 0.010180 
#    y 0.000000 1.764590 0.000000 
#    z 0.010180 0.000000 1.907070 
# 
# From -- ./inp_files/45262.got.cif
#   From: 2010.05.17/outbox.cif.g08.bks.cpg/sg11_23_cif.got.tgz:45262.got - 2010.06.03 12:22:45.
