data_PCOD9159238
_publ_section_title
;
Structure prediction by ZEFSAII (Michael W. Deem and Ramdas Pophale) SiO2 
 PCOD9159238
Probable space group: P 21/M
;
_chemical_formula_sum "Si O2"
_cell_formula_units_Z 32
_cell_length_a 12.235523
_cell_length_b 11.173055
_cell_length_c 14.186954
_cell_angle_alpha 90.000000
_cell_angle_beta 62.443872
_cell_angle_gamma 90.000000
_cell_volume 1719.455032
_symmetry_space_group_name_H-M "P 21/M"
_symmetry_group_IT_number 11
_symmetry_cell_setting 'monoclinic'
loop_
_space_group_symop_operation_xyz
x,y,z
-x,1/2+y,-z
-x,-y,-z
x,1/2-y,z
loop_
_atom_site_type_symbol
_atom_site_label
_atom_site_fract_x
_atom_site_fract_y
_atom_site_fract_z
Si Si1 0.606755 0.111096 0.238168
Si Si2 0.905634 0.879497 0.501379
Si Si3 0.630999 0.382054 0.818558
Si Si4 0.349768 0.114627 0.911262
Si Si5 0.307304 0.614681 0.584211
Si Si6 0.352811 0.498380 0.375077
Si Si7 0.769950 0.614862 0.844669
Si Si8 0.974177 0.427417 0.353116
O O1 0.635573 0.250000 0.200371
O O2 0.657245 0.087067 0.323115
O O3 0.458703 0.094047 0.303140
O O4 0.655421 0.002642 0.152828
O O5 0.857270 0.750000 0.499562
O O6 0.786650 0.953889 0.579899
O O7 0.997899 0.877273 0.552915
O O8 0.967132 0.933157 0.383809
O O9 0.678267 0.250000 0.828260
O O10 0.486768 0.389402 0.902712
O O11 0.632457 0.393198 0.704154
O O12 0.700389 0.500174 0.828013
O O13 0.339866 0.250000 0.871863
O O14 0.252719 0.107577 0.034730
O O15 0.348251 0.750000 0.549091
O O16 0.364706 0.533118 0.479642
O O17 0.158970 0.608915 0.631087
O O18 0.727519 0.750000 0.831381
O O19 0.912419 0.605229 0.757625
#
# Coordination Sequence:
#
# PCOD9159238 Si02
#       8
#     4   4   4   4   4   4   4   4
#     4  10  21  37  58  82 108 143 186 234 275 315
#     4  10  19  33  51  77 110 145 181 222 268 321
#     4  10  20  33  52  84 116 143 174 219 276 328
#     4   9  21  39  57  78 107 142 183 229 278 327
#     4  10  20  35  54  78 111 148 187 223 265 321
#     4  10  19  33  54  83 112 147 178 218 271 331
#     4  11  21  36  57  80 107 146 187 222 268 327
#     4  10  21  34  51  79 107 148 182 221 264 324
#
# _framework density 18.610548999999999
#
# number of rings (size 3 to 8) (size 9 to 14) (size 15 to 20)
#    0.000    2.000    1.250    2.625    0.000    3.500 
#    0.000    3.750    0.000    0.000    0.000    0.000 
#    0.000    0.000    0.000    0.000    0.000    0.000 
#
# Total GULP energy -178202.080814 kJ/mol
# GULP energy per Si atom -5568.815025 kJ/mol
# Density = 1.856819 g / cm^3
# Si number density = 18.610549 Si / 1000 Ang^3
#
#
#
# Elastic Constant Matrix: (Units=GPa)
#
#
# Indices 1 2 3 4 5 6 
#
# 1 47.8371 20.2551 17.1123 0.0000 4.6128 0.0000
# 2 20.2551 109.3601 56.3884 0.0000 -0.9387 0.0000
# 3 17.1123 56.3884 81.2661 0.0000 -11.6479 0.0000
# 4 0.0000 0.0000 0.0000 -5.9272 0.0000 -20.8501
# 5 4.6128 -0.9387 -11.6479 0.0000 21.7434 0.0000
# 6 0.0000 0.0000 0.0000 -20.8501 0.0000 -12.2476
#
#
#
# Elastic Compliance Matrix: (Units=1/GPa)
#
#
# Indices 1 2 3 4 5 6 
#
# 1 0.024249 -0.002102 -0.004764 0.000000 -0.007787 0.000000
# 2 -0.002102 0.014955 -0.010591 0.000000 -0.004582 0.000000
# 3 -0.004764 -0.010591 0.022461 0.000000 0.012586 0.000000
# 4 0.000000 0.000000 0.000000 0.033821 0.000000 -0.057576
# 5 -0.007787 -0.004582 0.012586 0.000000 0.054187 0.000000
# 6 0.000000 0.000000 0.000000 -0.057576 0.000000 0.016367
#
#
# Mechanical properties :
#
#
# Convention : Reuss Voigt Hill
#
# Bulk Modulus (GPa) = 37.38055 47.33053 42.35554
# Shear Modulus (GPa) = 23.82404 10.36090 17.09247
#
# Velocity S-wave (km/s) = 3.58178 2.36206 3.03385
# Velocity P-wave (km/s) = 6.10203 5.73815 5.92289
#
# Compressibility (1/GPa) = 0.02675188
#
# Stress axis : x y z
#
# Youngs Moduli (GPa) = 41.23837 66.86711 44.52117
#
# Poissons Ratio (x) = 0.14054 0.21210
# Poissons Ratio (y) = 0.08667 0.47153
# Poissons Ratio (z) = 0.19646 0.70820
#
# Static dielectric constant tensor:
#      x y z
#    x 1.632770 0.000000 0.004670 
#    y 0.000000 1.740230 0.000000 
#    z 0.004670 0.000000 1.651850 
# 
# From -- ./inp_files/35032.got.cif
#   From: 2010.05.17/outbox.cif.g08.bks.cpg/sg11_18_cif.got.tgz:35032.got - 2010.06.03 12:22:45.
