data_PCOD9159991
_publ_section_title
;
Structure prediction by ZEFSAII (Michael W. Deem and Ramdas Pophale) SiO2 
 PCOD9159991
Probable space group: P 21/M
;
_chemical_formula_sum "Si O2"
_cell_formula_units_Z 28
_cell_length_a 7.788186
_cell_length_b 9.328104
_cell_length_c 19.085757
_cell_angle_alpha 90.000000
_cell_angle_beta 103.249450
_cell_angle_gamma 90.000000
_cell_volume 1349.653091
_symmetry_space_group_name_H-M "P 21/M"
_symmetry_group_IT_number 11
_symmetry_cell_setting 'monoclinic'
loop_
_space_group_symop_operation_xyz
x,y,z
-x,1/2+y,-z
-x,-y,-z
x,1/2-y,z
loop_
_atom_site_type_symbol
_atom_site_label
_atom_site_fract_x
_atom_site_fract_y
_atom_site_fract_z
Si Si1 0.424790 0.415751 0.785769
Si Si2 0.916781 0.587890 0.928839
Si Si3 0.152055 0.586692 0.210598
Si Si4 0.815888 0.921901 0.494588
Si Si5 0.502825 0.585957 0.927767
Si Si6 0.219536 0.409795 0.346066
Si Si7 0.368615 0.587295 0.646254
O O1 0.368915 0.250000 0.784499
O O2 0.636419 0.413779 0.787385
O O3 0.405412 0.498794 0.857186
O O4 0.331183 0.502135 0.714291
O O5 0.985098 0.750000 0.933582
O O6 0.939850 0.508593 0.857213
O O7 0.707144 0.593447 0.923324
O O8 0.000000 0.500000 0.000000
O O9 0.091962 0.750000 0.201513
O O10 0.127995 0.520120 0.285235
O O11 0.821794 0.750000 0.484982
O O12 0.771024 0.949477 0.571609
O O13 0.689858 0.995551 0.426145
O O14 0.000000 0.000000 0.500000
O O15 0.439097 0.750000 0.929402
O O16 0.500000 0.500000 0.000000
O O17 0.140338 0.250000 0.333131
O O18 0.420536 0.400390 0.338845
O O19 0.295387 0.750000 0.638025
#
# Coordination Sequence:
#
# PCOD9159991 Si02
#       7
#     4   4   4   4   4   4   4
#     4   9  17  31  52  78 106 136 171 214 260 307
#     4  10  20  34  53  77 107 140 175 214 259 309
#     4   9  17  30  52  79 105 134 171 214 260 306
#     4  11  23  38  54  76 108 143 175 211 259 313
#     4  10  20  34  53  78 107 140 176 216 261 310
#     4   9  19  35  56  80 105 134 172 216 260 307
#     4  10  19  34  57  82 105 133 172 217 261 308
#
# _framework density 20.746071000000001
#
# number of rings (size 3 to 8) (size 9 to 14) (size 15 to 20)
#    0.000    2.286    0.000    3.000    0.000    6.857 
#    0.000    1.429    0.000    6.857    0.000    0.000 
#    0.000    0.000    0.000    0.000    0.000    0.000 
#
# Total GULP energy -156362.332020 kJ/mol
# GULP energy per Si atom -5584.369001 kJ/mol
# Density = 2.069885 g / cm^3
# Si number density = 20.746071 Si / 1000 Ang^3
#
#
#
# Elastic Constant Matrix: (Units=GPa)
#
#
# Indices 1 2 3 4 5 6 
#
# 1 20.9425 9.9709 -3.2662 0.0000 -3.5080 0.0000
# 2 9.9709 219.8992 141.7370 0.0000 0.4124 0.0000
# 3 -3.2662 141.7370 200.5773 0.0000 -7.9472 0.0000
# 4 0.0000 0.0000 0.0000 45.3181 0.0000 4.8159
# 5 -3.5080 0.4124 -7.9472 0.0000 18.2968 0.0000
# 6 0.0000 0.0000 0.0000 4.8159 0.0000 14.9891
#
#
#
# Elastic Compliance Matrix: (Units=1/GPa)
#
#
# Indices 1 2 3 4 5 6 
#
# 1 0.053747 -0.006163 0.005743 0.000000 0.012938 0.000000
# 2 -0.006163 0.009201 -0.006774 0.000000 -0.004331 0.000000
# 3 0.005743 -0.006774 0.010089 0.000000 0.005636 0.000000
# 4 0.000000 0.000000 0.000000 0.022846 0.000000 -0.007340
# 5 0.012938 -0.004331 0.005636 0.000000 0.059681 0.000000
# 6 0.000000 0.000000 0.000000 -0.007340 0.000000 0.069074
#
#
# Mechanical properties :
#
#
# Convention : Reuss Voigt Hill
#
# Bulk Modulus (GPa) = 17.05055 82.03361 49.54208
# Shear Modulus (GPa) = 19.33667 35.25261 27.29464
#
# Velocity S-wave (km/s) = 3.05628 4.12666 3.63113
# Velocity P-wave (km/s) = 4.54874 7.89515 6.44300
#
# Compressibility (1/GPa) = 0.05864914
#
# Stress axis : x y z
#
# Youngs Moduli (GPa) = 18.60578 108.67957 99.11488
#
# Poissons Ratio (x) = 0.66978 -0.56920
# Poissons Ratio (y) = 0.11466 0.67141
# Poissons Ratio (z) = -0.10685 0.73620
#
# Static dielectric constant tensor:
#      x y z
#    x 1.789360 0.000000 -0.006140 
#    y 0.000000 1.722730 0.000000 
#    z -0.006140 0.000000 1.778460 
# 
# From -- ./inp_files/57548.got.cif
#   From: 2010.05.17/outbox.cif.g08.bks.cpg/sg11_29_cif.got.tgz:57548.got - 2010.06.03 12:22:45.
