data_PCOD9159693
_publ_section_title
;
Structure prediction by ZEFSAII (Michael W. Deem and Ramdas Pophale) SiO2 
 PCOD9159693
Probable space group: P 21/M
;
_chemical_formula_sum "Si O2"
_cell_formula_units_Z 32
_cell_length_a 12.565190
_cell_length_b 8.677151
_cell_length_c 29.863890
_cell_angle_alpha 90.000000
_cell_angle_beta 146.172519
_cell_angle_gamma 90.000000
_cell_volume 1812.630262
_symmetry_space_group_name_H-M "P 21/M"
_symmetry_group_IT_number 11
_symmetry_cell_setting 'monoclinic'
loop_
_space_group_symop_operation_xyz
x,y,z
-x,1/2+y,-z
-x,-y,-z
x,1/2-y,z
loop_
_atom_site_type_symbol
_atom_site_label
_atom_site_fract_x
_atom_site_fract_y
_atom_site_fract_z
Si Si1 0.664946 0.565286 0.525368
Si Si2 0.444407 0.434132 0.793590
Si Si3 0.928112 0.063628 0.288878
Si Si4 0.049247 0.063232 0.234511
Si Si5 0.492784 0.435089 0.377375
Si Si6 0.431637 0.565325 0.261398
Si Si7 0.170891 0.433585 0.029139
Si Si8 0.995800 0.935368 0.880789
O O1 0.500000 0.500000 0.500000
O O2 0.651135 0.750000 0.520323
O O3 0.628530 0.500331 0.463171
O O4 0.872323 0.523075 0.617290
O O5 0.457767 0.250000 0.802247
O O6 0.251775 0.493364 0.748873
O O7 0.457144 0.472867 0.745252
O O8 0.628509 0.507588 0.881770
O O9 0.911974 0.250000 0.283574
O O10 0.945454 0.010809 0.243195
O O11 0.047250 0.250000 0.234482
O O12 0.965319 0.016435 0.157072
O O13 0.273585 0.019372 0.313333
O O14 0.501260 0.250000 0.379387
O O15 0.526753 0.501375 0.339803
O O16 0.411020 0.750000 0.257236
O O17 0.220598 0.490604 0.184816
O O18 0.162917 0.250000 0.027901
O O19 0.132691 0.492007 0.965522
O O20 0.000000 0.500000 0.000000
O O21 0.002202 0.750000 0.885921
#
# Coordination Sequence:
#
# PCOD9159693 Si02
#       8
#     4   4   4   4   4   4   4   4
#     4  11  21  35  58  87 118 151 193 241 288 342
#     4  11  24  40  58  84 117 151 192 239 287 344
#     4  10  21  39  59  82 116 155 192 231 285 348
#     4   8  16  33  55  82 114 148 185 231 283 336
#     4  10  19  34  57  85 116 147 189 240 289 341
#     4  10  20  35  55  82 116 149 188 237 288 342
#     4  12  23  37  59  86 116 150 192 239 285 339
#     4  10  19  33  58  87 116 148 187 237 288 338
#
# _framework density 17.653903
#
# number of rings (size 3 to 8) (size 9 to 14) (size 15 to 20)
#    0.000    1.750    2.500    3.750    0.000    2.500 
#    0.000    2.500    0.000    0.000    0.000    0.000 
#    0.000    0.000    0.000    0.000    0.000    0.000 
#
# Total GULP energy -178680.555120 kJ/mol
# GULP energy per Si atom -5583.767347 kJ/mol
# Density = 1.761372 g / cm^3
# Si number density = 17.653903 Si / 1000 Ang^3
#
#
#
# Elastic Constant Matrix: (Units=GPa)
#
#
# Indices 1 2 3 4 5 6 
#
# 1 173.9537 61.1821 95.5555 0.0000 -18.9654 0.0000
# 2 61.1821 70.7230 54.7502 0.0000 -5.0790 0.0000
# 3 95.5555 54.7502 120.4404 0.0000 -15.8990 0.0000
# 4 0.0000 0.0000 0.0000 29.5189 0.0000 -2.7839
# 5 -18.9654 -5.0790 -15.8990 0.0000 31.9103 0.0000
# 6 0.0000 0.0000 0.0000 -2.7839 0.0000 28.7661
#
#
#
# Elastic Compliance Matrix: (Units=1/GPa)
#
#
# Indices 1 2 3 4 5 6 
#
# 1 0.011169 -0.004450 -0.006482 0.000000 0.002700 0.000000
# 2 -0.004450 0.023665 -0.007577 0.000000 -0.002654 0.000000
# 3 -0.006482 -0.007577 0.017364 0.000000 0.003593 0.000000
# 4 0.000000 0.000000 0.000000 0.034189 0.000000 0.003309
# 5 0.002700 -0.002654 0.003593 0.000000 0.034311 0.000000
# 6 0.000000 0.000000 0.000000 0.003309 0.000000 0.035083
#
#
# Mechanical properties :
#
#
# Convention : Reuss Voigt Hill
#
# Bulk Modulus (GPa) = 65.87825 87.56588 76.72207
# Shear Modulus (GPa) = 25.27059 28.28100 26.77580
#
# Velocity S-wave (km/s) = 3.78755 4.00680 3.89872
# Velocity P-wave (km/s) = 7.51831 8.43297 7.98874
#
# Compressibility (1/GPa) = 0.01517952
#
# Stress axis : x y z
#
# Youngs Moduli (GPa) = 89.53541 42.25657 57.59038
#
# Poissons Ratio (x) = 0.18806 0.37328
# Poissons Ratio (y) = 0.39847 0.43637
# Poissons Ratio (z) = 0.58033 0.32018
#
# Static dielectric constant tensor:
#      x y z
#    x 1.603770 0.000000 -0.027380 
#    y 0.000000 1.594110 0.000000 
#    z -0.027380 0.000000 1.579710 
# 
# From -- ./inp_files/73148.got.cif
#   From: 2010.05.17/outbox.cif.g08.bks.cpg/sg11_37_cif.got.tgz:73148.got - 2010.06.03 12:22:45.
