data_PCOD9159637
_publ_section_title
;
Structure prediction by ZEFSAII (Michael W. Deem and Ramdas Pophale) SiO2 
 PCOD9159637
Probable space group: P 21/M
;
_chemical_formula_sum "Si O2"
_cell_formula_units_Z 28
_cell_length_a 11.842104
_cell_length_b 8.620982
_cell_length_c 15.457029
_cell_angle_alpha 90.000000
_cell_angle_beta 65.248767
_cell_angle_gamma 90.000000
_cell_volume 1433.050995
_symmetry_space_group_name_H-M "P 21/M"
_symmetry_group_IT_number 11
_symmetry_cell_setting 'monoclinic'
loop_
_space_group_symop_operation_xyz
x,y,z
-x,1/2+y,-z
-x,-y,-z
x,1/2-y,z
loop_
_atom_site_type_symbol
_atom_site_label
_atom_site_fract_x
_atom_site_fract_y
_atom_site_fract_z
Si Si1 0.374892 0.062040 0.293089
Si Si2 0.801666 0.937329 0.046771
Si Si3 0.974170 0.437058 0.142812
Si Si4 0.476421 0.063940 0.912011
Si Si5 0.551335 0.064005 0.393294
Si Si6 0.174410 0.563357 0.650529
Si Si7 0.136015 0.064951 0.473585
O O1 0.377683 0.250000 0.287345
O O2 0.471802 0.010334 0.336824
O O3 0.238999 0.013697 0.370572
O O4 0.420186 0.994834 0.188153
O O5 0.802677 0.750000 0.051847
O O6 0.660205 0.988465 0.077933
O O7 0.870048 0.003154 0.109312
O O8 0.891856 0.983794 0.937843
O O9 0.969414 0.250000 0.143462
O O10 0.937955 0.487028 0.251040
O O11 0.476235 0.250000 0.914465
O O12 0.500000 0.000000 0.000000
O O13 0.540259 0.250000 0.399573
O O14 0.696744 0.025136 0.342418
O O15 0.500000 0.000000 0.500000
O O16 0.168578 0.750000 0.641151
O O17 0.175848 0.487677 0.556374
O O18 0.132482 0.250000 0.471780
O O19 0.000000 0.000000 0.500000
#
# Coordination Sequence:
#
# PCOD9159637 Si02
#       7
#     4   4   4   4   4   4   4
#     4  10  22  41  62  86 117 154 194 242 296 347
#     4   9  19  36  56  83 115 147 187 235 288 339
#     4   9  18  34  58  84 114 150 185 229 285 343
#     4  11  24  40  60  86 117 155 198 245 293 348
#     4  10  19  33  56  86 118 150 189 237 291 346
#     4  10  20  34  56  86 117 151 190 231 282 347
#     4  11  24  41  60  82 114 153 194 239 287 346
#
# _framework density 19.538730999999999
#
# number of rings (size 3 to 8) (size 9 to 14) (size 15 to 20)
#    0.000    2.000    1.429    1.714    0.000    5.714 
#    0.000    2.857    0.000    0.000    0.000    0.000 
#    0.000    0.000    0.000    0.000    0.000    0.000 
#
# Total GULP energy -156357.668381 kJ/mol
# GULP energy per Si atom -5584.202442 kJ/mol
# Density = 1.949426 g / cm^3
# Si number density = 19.538731 Si / 1000 Ang^3
#
#
#
# Elastic Constant Matrix: (Units=GPa)
#
#
# Indices 1 2 3 4 5 6 
#
# 1 98.2765 25.7495 55.2824 0.0000 -18.7825 0.0000
# 2 25.7495 13.9631 31.0814 0.0000 -8.9538 0.0000
# 3 55.2824 31.0814 174.0069 0.0000 -23.0796 0.0000
# 4 0.0000 0.0000 0.0000 31.0792 0.0000 3.3103
# 5 -18.7825 -8.9538 -23.0796 0.0000 27.4232 0.0000
# 6 0.0000 0.0000 0.0000 3.3103 0.0000 27.4169
#
#
#
# Elastic Compliance Matrix: (Units=1/GPa)
#
#
# Indices 1 2 3 4 5 6 
#
# 1 0.019802 -0.036144 0.000449 0.000000 0.002139 0.000000
# 2 -0.036144 0.200143 -0.021256 0.000000 0.022703 0.000000
# 3 0.000449 -0.021256 0.009592 0.000000 0.001440 0.000000
# 4 0.000000 0.000000 0.000000 0.032595 0.000000 -0.003936
# 5 0.002139 0.022703 0.001440 0.000000 0.046555 0.000000
# 6 0.000000 0.000000 0.000000 -0.003936 0.000000 0.036949
#
#
# Mechanical properties :
#
#
# Convention : Reuss Voigt Hill
#
# Bulk Modulus (GPa) = 8.64790 56.71925 32.68357
# Shear Modulus (GPa) = 10.03850 28.79275 19.41563
#
# Velocity S-wave (km/s) = 2.26912 3.84295 3.15572
# Velocity P-wave (km/s) = 3.36167 6.98449 5.48106
#
# Compressibility (1/GPa) = 0.11563506
#
# Stress axis : x y z
#
# Youngs Moduli (GPa) = 50.50027 4.99644 104.25303
#
# Poissons Ratio (x) = 0.18059 -0.04678
# Poissons Ratio (y) = 1.82528 2.21595
# Poissons Ratio (z) = -0.02266 0.10620
#
# Static dielectric constant tensor:
#      x y z
#    x 1.688470 0.000000 -0.023100 
#    y 0.000000 1.660020 0.000000 
#    z -0.023100 0.000000 1.679570 
# 
# From -- ./inp_files/48897.got.cif
#   From: 2010.05.17/outbox.cif.g08.bks.cpg/sg11_25_cif.got.tgz:48897.got - 2010.06.03 12:22:45.
