data_PCOD9159091
_publ_section_title
;
Structure prediction by ZEFSAII (Michael W. Deem and Ramdas Pophale) SiO2 
 PCOD9159091
Probable space group: P 21/M
;
_chemical_formula_sum "Si O2"
_cell_formula_units_Z 32
_cell_length_a 12.281734
_cell_length_b 8.949175
_cell_length_c 30.687153
_cell_angle_alpha 90.000000
_cell_angle_beta 29.421115
_cell_angle_gamma 90.000000
_cell_volume 1656.836136
_symmetry_space_group_name_H-M "P 21/M"
_symmetry_group_IT_number 11
_symmetry_cell_setting 'monoclinic'
loop_
_space_group_symop_operation_xyz
x,y,z
-x,1/2+y,-z
-x,-y,-z
x,1/2-y,z
loop_
_atom_site_type_symbol
_atom_site_label
_atom_site_fract_x
_atom_site_fract_y
_atom_site_fract_z
Si Si1 0.751157 0.411044 0.797463
Si Si2 0.719438 0.919614 0.393867
Si Si3 0.339699 0.076108 0.251413
Si Si4 0.846007 0.431440 0.092047
Si Si5 0.469307 0.570101 0.626560
Si Si6 0.866580 0.569344 0.434291
Si Si7 0.724640 0.078277 0.909232
Si Si8 0.131054 0.569855 0.816065
O O1 0.660062 0.250000 0.813373
O O2 0.660497 0.544122 0.800194
O O3 0.717504 0.423750 0.859808
O O4 0.013913 0.407232 0.700462
O O5 0.627402 0.750000 0.424673
O O6 0.711279 0.982508 0.446741
O O7 0.660905 0.006741 0.370150
O O8 0.316378 0.250000 0.269865
O O9 0.584616 0.026579 0.180313
O O10 0.115572 0.994305 0.346183
O O11 0.859852 0.250000 0.083620
O O12 0.905746 0.476602 0.120917
O O13 0.000000 0.500000 0.000000
O O14 0.456195 0.750000 0.629523
O O15 0.724352 0.529258 0.526783
O O16 0.354890 0.522037 0.711780
O O17 0.877640 0.750000 0.427110
O O18 0.736170 0.250000 0.919913
O O19 0.931693 0.990677 0.856452
O O20 0.500000 0.000000 0.000000
O O21 0.131585 0.750000 0.816275
#
# Coordination Sequence:
#
# PCOD9159091 Si02
#       8
#     4   4   4   4   4   4   4   4
#     4   9  19  35  54  79 114 152 182 227 287 339
#     4   9  16  29  48  74 113 151 184 225 272 326
#     4  10  21  37  58  84 112 146 195 245 283 333
#     4  10  24  44  64  86 112 146 192 245 296 342
#     4  10  19  32  54  81 112 151 192 230 279 345
#     4   9  19  34  52  80 116 154 190 228 283 342
#     4  11  23  38  57  84 119 153 189 233 287 350
#     4  10  22  41  61  85 118 153 191 241 296 345
#
# _framework density 19.313918999999999
#
# number of rings (size 3 to 8) (size 9 to 14) (size 15 to 20)
#    0.000    2.250    1.250    1.875    1.750    5.000 
#    0.000    0.625    0.000    0.000    0.000    0.000 
#    0.000    0.000    0.000    0.000    0.000    0.000 
#
# Total GULP energy -178147.213299 kJ/mol
# GULP energy per Si atom -5567.100416 kJ/mol
# Density = 1.926996 g / cm^3
# Si number density = 19.313919 Si / 1000 Ang^3
#
#
#
# Elastic Constant Matrix: (Units=GPa)
#
#
# Indices 1 2 3 4 5 6 
#
# 1 -39.1269 2.8269 37.8077 0.0000 2.9428 0.0000
# 2 2.8269 11.3573 25.0471 0.0000 5.6537 0.0000
# 3 37.8077 25.0471 119.9834 0.0000 23.2758 0.0000
# 4 0.0000 0.0000 0.0000 22.4581 0.0000 4.4214
# 5 2.9428 5.6537 23.2758 0.0000 32.1247 0.0000
# 6 0.0000 0.0000 0.0000 4.4214 0.0000 13.2304
#
#
#
# Elastic Compliance Matrix: (Units=1/GPa)
#
#
# Indices 1 2 3 4 5 6 
#
# 1 -0.017942 -0.014514 0.009156 0.000000 -0.002436 0.000000
# 2 -0.014514 0.152039 -0.025869 0.000000 -0.006685 0.000000
# 3 0.009156 -0.025869 0.011786 0.000000 -0.004825 0.000000
# 4 0.000000 0.000000 0.000000 0.047663 0.000000 -0.015928
# 5 -0.002436 -0.006685 -0.004825 0.000000 0.036024 0.000000
# 6 0.000000 0.000000 0.000000 -0.015928 0.000000 0.080907
#
#
# Mechanical properties :
#
#
# Convention : Reuss Voigt Hill
#
# Bulk Modulus (GPa) = 11.98620 24.84192 18.41406
# Shear Modulus (GPa) = 12.47691 15.33145 13.90418
#
# Velocity S-wave (km/s) = 2.54442 2.82051 2.68601
# Velocity P-wave (km/s) = 3.85377 4.84738 4.37885
#
# Compressibility (1/GPa) = 0.08342930
#
# Stress axis : x y z
#
# Youngs Moduli (GPa) = -55.73447 6.57724 84.84977
#
# Poissons Ratio (x) = 0.09546 -0.77691
# Poissons Ratio (y) = -0.80895 2.19494
# Poissons Ratio (z) = 0.51032 0.17014
#
# Static dielectric constant tensor:
#      x y z
#    x 1.511580 0.000000 -0.130430 
#    y 0.000000 1.712410 0.000000 
#    z -0.130430 0.000000 1.605380 
# 
# From -- ./inp_files/73072.got.cif
#   From: 2010.05.17/outbox.cif.g08.bks.cpg/sg11_37_cif.got.tgz:73072.got - 2010.06.03 12:22:45.
