data_PCOD9159963
_publ_section_title
;
Structure prediction by ZEFSAII (Michael W. Deem and Ramdas Pophale) SiO2 
 PCOD9159963
Probable space group: P 21/M
;
_chemical_formula_sum "Si O2"
_cell_formula_units_Z 24
_cell_length_a 23.722354
_cell_length_b 9.391502
_cell_length_c 5.216429
_cell_angle_alpha 90.000000
_cell_angle_beta 97.685053
_cell_angle_gamma 90.000000
_cell_volume 1151.722188
_symmetry_space_group_name_H-M "P 21/M"
_symmetry_group_IT_number 11
_symmetry_cell_setting 'monoclinic'
loop_
_space_group_symop_operation_xyz
x,y,z
-x,1/2+y,-z
-x,-y,-z
x,1/2-y,z
loop_
_atom_site_type_symbol
_atom_site_label
_atom_site_fract_x
_atom_site_fract_y
_atom_site_fract_z
Si Si1 0.029659 0.598500 0.314195
Si Si2 0.372479 0.578549 0.476519
Si Si3 0.759045 0.076245 0.712206
Si Si4 0.088512 0.400817 0.028929
Si Si5 0.806796 0.919406 0.245827
Si Si6 0.559297 0.076790 0.981235
O O1 0.043597 0.750000 0.440910
O O2 0.084787 0.532507 0.215614
O O3 0.000000 0.500000 0.500000
O O4 0.977412 0.616169 0.084568
O O5 0.374099 0.750000 0.473389
O O6 0.307282 0.541975 0.382888
O O7 0.396600 0.535936 0.766883
O O8 0.414052 0.531251 0.273761
O O9 0.766151 0.250000 0.723173
O O10 0.792705 0.000855 0.499334
O O11 0.776299 0.002662 0.991384
O O12 0.107888 0.250000 0.160623
O O13 0.127237 0.424248 0.805338
O O14 0.791675 0.750000 0.249896
O O15 0.552603 0.250000 0.978864
O O16 0.500000 0.000000 0.000000
#
# Coordination Sequence:
#
# PCOD9159963 Si02
#       6
#     4   4   4   4   4   4
#     4  10  20  35  57  83 110 145 189 236 291 358
#     4   9  19  36  58  80 114 157 195 239 297 353
#     4  11  23  42  66  92 119 161 216 259 296 360
#     4   9  21  39  56  77 111 153 189 232 298 366
#     4  11  24  42  63  90 126 163 200 253 320 372
#     4  10  19  34  56  84 115 152 192 237 294 352
#
# _framework density 20.838356000000001
#
# number of rings (size 3 to 8) (size 9 to 14) (size 15 to 20)
#    0.000    2.000    0.000    3.000    2.333    4.667 
#    0.000    5.000    0.000    0.000    0.000    0.000 
#    0.000    0.000    0.000    0.000    0.000    0.000 
#
# Total GULP energy -133864.729786 kJ/mol
# GULP energy per Si atom -5577.697074 kJ/mol
# Density = 2.079093 g / cm^3
# Si number density = 20.838356 Si / 1000 Ang^3
#
#
#
# Elastic Constant Matrix: (Units=GPa)
#
#
# Indices 1 2 3 4 5 6 
#
# 1 70.7530 18.5431 -10.1433 0.0000 -3.6792 0.0000
# 2 18.5431 113.9179 26.9994 0.0000 -13.6760 0.0000
# 3 -10.1433 26.9994 56.4820 0.0000 1.6564 0.0000
# 4 0.0000 0.0000 0.0000 28.7967 0.0000 -7.6338
# 5 -3.6792 -13.6760 1.6564 0.0000 37.6477 0.0000
# 6 0.0000 0.0000 0.0000 -7.6338 0.0000 27.6602
#
#
#
# Elastic Compliance Matrix: (Units=1/GPa)
#
#
# Indices 1 2 3 4 5 6 
#
# 1 0.015744 -0.003644 0.004569 0.000000 0.000014 0.000000
# 2 -0.003644 0.011321 -0.006184 0.000000 0.004028 0.000000
# 3 0.004569 -0.006184 0.021562 0.000000 -0.002749 0.000000
# 4 0.000000 0.000000 0.000000 0.037467 0.000000 0.010340
# 5 0.000014 0.004028 -0.002749 0.000000 0.028148 0.000000
# 6 0.000000 0.000000 0.000000 0.010340 0.000000 0.039007
#
#
# Mechanical properties :
#
#
# Convention : Reuss Voigt Hill
#
# Bulk Modulus (GPa) = 26.24062 34.66126 30.45094
# Shear Modulus (GPa) = 28.33343 32.53785 30.43564
#
# Velocity S-wave (km/s) = 3.69138 3.95579 3.82587
# Velocity P-wave (km/s) = 5.54871 6.12649 5.84474
#
# Compressibility (1/GPa) = 0.03810886
#
# Stress axis : x y z
#
# Youngs Moduli (GPa) = 63.51450 88.33393 46.37803
#
# Poissons Ratio (x) = 0.32189 -0.21190
# Poissons Ratio (y) = 0.23145 0.28680
# Poissons Ratio (z) = -0.29019 0.54626
#
# Static dielectric constant tensor:
#      x y z
#    x 1.740650 0.000000 0.043340 
#    y 0.000000 1.479990 0.000000 
#    z 0.043340 0.000000 1.774110 
# 
# From -- ./inp_files/9244.got.cif
#   From: 2010.05.17/outbox.cif.g08.bks.cpg/sg11_5_cif.got.tgz:9244.got - 2010.06.03 12:22:45.
