data_PCOD9159348
_publ_section_title
;
Structure prediction by ZEFSAII (Michael W. Deem and Ramdas Pophale) SiO2 
 PCOD9159348
Probable space group: P 21/M
;
_chemical_formula_sum "Si O2"
_cell_formula_units_Z 28
_cell_length_a 9.920649
_cell_length_b 8.611022
_cell_length_c 30.951718
_cell_angle_alpha 90.000000
_cell_angle_beta 37.126292
_cell_angle_gamma 90.000000
_cell_volume 1595.915930
_symmetry_space_group_name_H-M "P 21/M"
_symmetry_group_IT_number 11
_symmetry_cell_setting 'monoclinic'
loop_
_space_group_symop_operation_xyz
x,y,z
-x,1/2+y,-z
-x,-y,-z
x,1/2-y,z
loop_
_atom_site_type_symbol
_atom_site_label
_atom_site_fract_x
_atom_site_fract_y
_atom_site_fract_z
Si Si1 0.250782 0.063523 0.063038
Si Si2 0.860852 0.935151 0.219029
Si Si3 0.265107 0.936369 0.655503
Si Si4 0.943241 0.063640 0.061273
Si Si5 0.449516 0.938529 0.777375
Si Si6 0.040490 0.061378 0.347863
Si Si7 0.360123 0.936569 0.494907
O O1 0.251006 0.250000 0.065475
O O2 0.126505 0.017188 0.050271
O O3 0.096747 0.997969 0.140738
O O4 0.500000 0.000000 0.000000
O O5 0.861682 0.750000 0.218249
O O6 0.809547 0.996566 0.279814
O O7 0.674633 0.998003 0.233200
O O8 0.264084 0.750000 0.657082
O O9 0.094274 0.987060 0.660834
O O10 0.512158 0.993465 0.578617
O O11 0.943400 0.250000 0.059019
O O12 0.704090 0.015557 0.142436
O O13 0.000000 0.000000 0.000000
O O14 0.446690 0.750000 0.775746
O O15 0.704684 0.992088 0.715891
O O16 0.044358 0.250000 0.345774
O O17 0.892794 0.018437 0.427668
O O18 0.373817 0.750000 0.489874
O O19 0.500000 0.000000 0.500000
#
# Coordination Sequence:
#
# PCOD9159348 Si02
#       7
#     4   4   4   4   4   4   4
#     4  10  21  38  57  79 105 137 173 212 256 305
#     4  11  22  36  53  77 106 138 173 212 256 308
#     4  10  19  33  53  78 105 138 175 215 260 309
#     4   9  19  33  52  76 103 133 169 209 255 306
#     4   9  18  36  55  73 100 136 171 210 258 309
#     4   8  16  31  54  78 100 129 172 217 260 307
#     4   9  16  29  49  75 104 135 170 215 264 312
#
# _framework density 17.544782999999999
#
# number of rings (size 3 to 8) (size 9 to 14) (size 15 to 20)
#    0.000    2.571    0.000    4.286    0.000    4.000 
#    0.000    6.429    0.000    0.000    0.000    0.000 
#    0.000    0.000    0.000    0.000    0.000    0.000 
#
# Total GULP energy -156094.938431 kJ/mol
# GULP energy per Si atom -5574.819230 kJ/mol
# Density = 1.750485 g / cm^3
# Si number density = 17.544783 Si / 1000 Ang^3
#
#
#
# Elastic Constant Matrix: (Units=GPa)
#
#
# Indices 1 2 3 4 5 6 
#
# 1 71.5109 27.3392 103.3735 0.0000 -7.2774 0.0000
# 2 27.3392 53.4927 49.4812 0.0000 0.3167 0.0000
# 3 103.3735 49.4812 213.3170 0.0000 -3.8899 0.0000
# 4 0.0000 0.0000 0.0000 33.4295 0.0000 3.7010
# 5 -7.2774 0.3167 -3.8899 0.0000 36.4299 0.0000
# 6 0.0000 0.0000 0.0000 3.7010 0.0000 23.7161
#
#
#
# Elastic Compliance Matrix: (Units=1/GPa)
#
#
# Indices 1 2 3 4 5 6 
#
# 1 0.049218 -0.004153 -0.022752 0.000000 0.007439 0.000000
# 2 -0.004153 0.024175 -0.003621 0.000000 -0.001426 0.000000
# 3 -0.022752 -0.003621 0.016503 0.000000 -0.002751 0.000000
# 4 0.000000 0.000000 0.000000 0.030440 0.000000 -0.004750
# 5 0.007439 -0.001426 -0.002751 0.000000 0.028655 0.000000
# 6 0.000000 0.000000 0.000000 -0.004750 0.000000 0.042907
#
#
# Mechanical properties :
#
#
# Convention : Reuss Voigt Hill
#
# Bulk Modulus (GPa) = 34.66915 77.63427 56.15171
# Shear Modulus (GPa) = 19.04296 29.25688 24.14992
#
# Velocity S-wave (km/s) = 3.29810 4.08800 3.71411
# Velocity P-wave (km/s) = 5.85718 8.16257 7.10402
#
# Compressibility (1/GPa) = 0.02884408
#
# Stress axis : x y z
#
# Youngs Moduli (GPa) = 20.31764 41.36576 60.59341
#
# Poissons Ratio (x) = 0.17177 1.37864
# Poissons Ratio (y) = 0.08437 0.21942
# Poissons Ratio (z) = 0.46227 0.14979
#
# Static dielectric constant tensor:
#      x y z
#    x 1.566420 0.000000 -0.022180 
#    y 0.000000 1.594200 0.000000 
#    z -0.022180 0.000000 1.602150 
# 
# From -- ./inp_files/54583.got.cif
#   From: 2010.05.17/outbox.cif.g08.bks.cpg/sg11_28_cif.got.tgz:54583.got - 2010.06.03 12:22:45.
