data_PCOD9159958
_publ_section_title
;
Structure prediction by ZEFSAII (Michael W. Deem and Ramdas Pophale) SiO2 
 PCOD9159958
Probable space group: P 21/M
;
_chemical_formula_sum "Si O2"
_cell_formula_units_Z 28
_cell_length_a 11.662181
_cell_length_b 20.162260
_cell_length_c 17.873015
_cell_angle_alpha 90.000000
_cell_angle_beta 19.474926
_cell_angle_gamma 90.000000
_cell_volume 1401.118879
_symmetry_space_group_name_H-M "P 21/M"
_symmetry_group_IT_number 11
_symmetry_cell_setting 'monoclinic'
loop_
_space_group_symop_operation_xyz
x,y,z
-x,1/2+y,-z
-x,-y,-z
x,1/2-y,z
loop_
_atom_site_type_symbol
_atom_site_label
_atom_site_fract_x
_atom_site_fract_y
_atom_site_fract_z
Si Si1 0.053716 0.040460 0.391555
Si Si2 0.423045 0.824335 0.734005
Si Si3 0.887565 0.134121 0.767641
Si Si4 0.625209 0.559059 0.020760
Si Si5 0.599499 0.674839 0.798470
Si Si6 0.263419 0.502867 0.558698
Si Si7 0.952335 0.047209 0.100110
O O1 0.118375 0.117752 0.362401
O O2 0.759385 0.020078 0.515541
O O3 0.000000 0.000000 0.500000
O O4 0.410355 0.008850 0.140515
O O5 0.282504 0.750000 0.808812
O O6 0.452025 0.836334 0.805494
O O7 0.207439 0.883434 0.829334
O O8 0.803512 0.827317 0.463156
O O9 0.612517 0.113441 0.872619
O O10 0.687436 0.166876 0.959991
O O11 0.075831 0.067861 0.682245
O O12 0.001047 0.556990 0.752364
O O13 0.717445 0.561843 0.051676
O O14 0.733844 0.750000 0.718248
O O15 0.664772 0.492030 0.327621
O O16 0.000000 0.000000 0.000000
#
# Coordination Sequence:
#
# PCOD9159958 Si02
#       7
#     4   4   4   4   4   4   4
#     4  11  19  34  59  86 116 151 198 249 301 349
#     4  10  23  41  59  85 119 158 201 245 299 368
#     4  10  19  37  63  88 114 150 195 249 304 352
#     4  11  19  35  56  89 119 146 192 251 302 344
#     4  11  20  34  59  87 115 149 198 250 298 354
#     4  10  19  34  56  83 118 149 190 246 286 353
#     4  11  23  36  58  88 118 160 201 242 301 353
#
# _framework density 19.984027999999999
#
# number of rings (size 3 to 8) (size 9 to 14) (size 15 to 20)
#    0.000    1.429    2.857    6.000    0.000    0.000 
#    0.000    1.429    0.000    3.429    0.000    0.000 
#    0.000    0.000    0.000    0.000    0.000    0.000 
#
# Total GULP energy -156187.032826 kJ/mol
# GULP energy per Si atom -5578.108315 kJ/mol
# Density = 1.993854 g / cm^3
# Si number density = 19.984028 Si / 1000 Ang^3
#
#
#
# Elastic Constant Matrix: (Units=GPa)
#
#
# Indices 1 2 3 4 5 6 
#
# 1 60.9896 12.3859 23.8078 0.0000 -5.6637 0.0000
# 2 12.3859 100.3658 12.7493 0.0000 -7.4853 0.0000
# 3 23.8078 12.7493 72.3264 0.0000 2.8309 0.0000
# 4 0.0000 0.0000 0.0000 22.2465 0.0000 5.0508
# 5 -5.6637 -7.4853 2.8309 0.0000 38.6132 0.0000
# 6 0.0000 0.0000 0.0000 5.0508 0.0000 19.7780
#
#
#
# Elastic Compliance Matrix: (Units=1/GPa)
#
#
# Indices 1 2 3 4 5 6 
#
# 1 0.019402 -0.001372 -0.006264 0.000000 0.003039 0.000000
# 2 -0.001372 0.010464 -0.001469 0.000000 0.001935 0.000000
# 3 -0.006264 -0.001469 0.016241 0.000000 -0.002394 0.000000
# 4 0.000000 0.000000 0.000000 0.047718 0.000000 -0.012186
# 5 0.003039 0.001935 -0.002394 0.000000 0.026894 0.000000
# 6 0.000000 0.000000 0.000000 -0.012186 0.000000 0.053673
#
#
# Mechanical properties :
#
#
# Convention : Reuss Voigt Hill
#
# Bulk Modulus (GPa) = 35.84509 36.84086 36.34297
# Shear Modulus (GPa) = 24.76479 28.44347 26.60413
#
# Velocity S-wave (km/s) = 3.52409 3.77677 3.65262
# Velocity P-wave (km/s) = 5.87663 6.12322 6.00119
#
# Compressibility (1/GPa) = 0.02789783
#
# Stress axis : x y z
#
# Youngs Moduli (GPa) = 51.54057 95.56823 61.57399
#
# Poissons Ratio (x) = 0.13112 0.38568
# Poissons Ratio (y) = 0.07072 0.09043
# Poissons Ratio (z) = 0.32284 0.14035
#
# Static dielectric constant tensor:
#      x y z
#    x 1.776990 0.000000 0.065520 
#    y 0.000000 1.658870 0.000000 
#    z 0.065520 0.000000 1.788380 
# 
# From -- ./inp_files/59709.got.cif
#   From: 2010.05.17/outbox.cif.g08.bks.cpg/sg11_30_cif.got.tgz:59709.got - 2010.06.03 12:22:45.
