data_PCOD9159584
_publ_section_title
;
Structure prediction by ZEFSAII (Michael W. Deem and Ramdas Pophale) SiO2 
 PCOD9159584
Probable space group: P 21/M
;
_chemical_formula_sum "Si O2"
_cell_formula_units_Z 28
_cell_length_a 25.220337
_cell_length_b 7.879128
_cell_length_c 22.761393
_cell_angle_alpha 90.000000
_cell_angle_beta 162.529539
_cell_angle_gamma 90.000000
_cell_volume 1357.872266
_symmetry_space_group_name_H-M "P 21/M"
_symmetry_group_IT_number 11
_symmetry_cell_setting 'monoclinic'
loop_
_space_group_symop_operation_xyz
x,y,z
-x,1/2+y,-z
-x,-y,-z
x,1/2-y,z
loop_
_atom_site_type_symbol
_atom_site_label
_atom_site_fract_x
_atom_site_fract_y
_atom_site_fract_z
Si Si1 0.977564 0.545431 0.044504
Si Si2 0.821653 0.548920 0.437708
Si Si3 0.414053 0.551917 0.702204
Si Si4 0.224214 0.552149 0.865341
Si Si5 0.208035 0.047215 0.720006
Si Si6 0.589143 0.954626 0.656084
Si Si7 0.673454 0.458501 0.520190
O O1 0.976834 0.750000 0.047048
O O2 0.140048 0.485779 0.255718
O O3 0.000000 0.500000 0.000000
O O4 0.788903 0.480930 0.866901
O O5 0.845373 0.750000 0.453061
O O6 0.699006 0.523985 0.363984
O O7 0.734776 0.486124 0.284492
O O8 0.023325 0.481759 0.659042
O O9 0.370669 0.750000 0.656492
O O10 0.362434 0.482361 0.583747
O O11 0.622145 0.531538 0.934400
O O12 0.220844 0.750000 0.877337
O O13 0.278693 0.534491 0.854269
O O14 0.231356 0.250000 0.750366
O O15 0.000000 0.000000 0.500000
O O16 0.593456 0.750000 0.663733
O O17 0.474896 0.014942 0.590324
O O18 0.500000 0.000000 0.500000
O O19 0.671255 0.250000 0.517241
#
# Coordination Sequence:
#
# PCOD9159584 Si02
#       7
#     4   4   4   4   4   4   4
#     4  10  19  33  56  82 107 138 173 216 270 322
#     4   9  20  38  58  81 113 150 186 232 288 337
#     4  11  23  37  57  83 110 150 196 236 280 335
#     4  10  21  38  59  82 114 152 190 238 290 338
#     4   9  17  32  56  85 114 147 189 237 289 340
#     4  10  19  33  56  82 108 139 174 217 271 324
#     4   9  20  37  53  77 113 144 180 227 273 328
#
# _framework density 20.620497
#
# number of rings (size 3 to 8) (size 9 to 14) (size 15 to 20)
#    0.000    2.286    1.429    2.143    0.000    5.143 
#    0.000    5.714    0.000    0.000    0.000    0.000 
#    0.000    0.000    0.000    0.000    0.000    0.000 
#
# Total GULP energy -156261.050880 kJ/mol
# GULP energy per Si atom -5580.751817 kJ/mol
# Density = 2.057356 g / cm^3
# Si number density = 20.620497 Si / 1000 Ang^3
#
#
#
# Elastic Constant Matrix: (Units=GPa)
#
#
# Indices 1 2 3 4 5 6 
#
# 1 89.8916 -6.0480 39.0304 0.0000 -5.4542 0.0000
# 2 -6.0480 16.9336 -5.3542 0.0000 3.1166 0.0000
# 3 39.0304 -5.3542 115.8386 0.0000 -6.3396 0.0000
# 4 0.0000 0.0000 0.0000 22.2039 0.0000 -1.1220
# 5 -5.4542 3.1166 -6.3396 0.0000 38.1225 0.0000
# 6 0.0000 0.0000 0.0000 -1.1220 0.0000 19.5075
#
#
#
# Elastic Compliance Matrix: (Units=1/GPa)
#
#
# Indices 1 2 3 4 5 6 
#
# 1 0.013249 0.003213 -0.004265 0.000000 0.000924 0.000000
# 2 0.003213 0.061477 0.001523 0.000000 -0.004313 0.000000
# 3 -0.004265 0.001523 0.010193 0.000000 0.000960 0.000000
# 4 0.000000 0.000000 0.000000 0.045168 0.000000 0.002598
# 5 0.000924 -0.004313 0.000960 0.000000 0.026876 0.000000
# 6 0.000000 0.000000 0.000000 0.002598 0.000000 0.051412
#
#
# Mechanical properties :
#
#
# Convention : Reuss Voigt Hill
#
# Bulk Modulus (GPa) = 11.64674 30.88000 21.26337
# Shear Modulus (GPa) = 21.18180 28.96916 25.07548
#
# Velocity S-wave (km/s) = 3.20851 3.75223 3.49097
# Velocity P-wave (km/s) = 4.40300 5.81207 5.15590
#
# Compressibility (1/GPa) = 0.08586094
#
# Stress axis : x y z
#
# Youngs Moduli (GPa) = 75.48007 16.26622 98.11005
#
# Poissons Ratio (x) = -0.05227 0.41843
# Poissons Ratio (y) = -0.24255 -0.14940
# Poissons Ratio (z) = 0.32191 -0.02477
#
# Static dielectric constant tensor:
#      x y z
#    x 1.729850 0.000000 0.005520 
#    y 0.000000 1.745020 0.000000 
#    z 0.005520 0.000000 1.738440 
# 
# From -- ./inp_files/66735.got.cif
#   From: 2010.05.17/outbox.cif.g08.bks.cpg/sg11_34_cif.got.tgz:66735.got - 2010.06.03 12:22:45.
