data_PCOD9159122
_publ_section_title
;
Structure prediction by ZEFSAII (Michael W. Deem and Ramdas Pophale) SiO2 
 PCOD9159122
Probable space group: P 21/M
;
_chemical_formula_sum "Si O2"
_cell_formula_units_Z 32
_cell_length_a 18.391404
_cell_length_b 13.761078
_cell_length_c 13.894233
_cell_angle_alpha 90.000000
_cell_angle_beta 20.547752
_cell_angle_gamma 90.000000
_cell_volume 1234.224251
_symmetry_space_group_name_H-M "P 21/M"
_symmetry_group_IT_number 11
_symmetry_cell_setting 'monoclinic'
loop_
_space_group_symop_operation_xyz
x,y,z
-x,1/2+y,-z
-x,-y,-z
x,1/2-y,z
loop_
_atom_site_type_symbol
_atom_site_label
_atom_site_fract_x
_atom_site_fract_y
_atom_site_fract_z
Si Si1 0.784301 0.063060 0.181518
Si Si2 0.793738 0.638474 0.239904
Si Si3 0.560427 0.641598 0.723109
Si Si4 0.527263 0.359748 0.674666
Si Si5 0.996053 0.084702 0.735919
Si Si6 0.448812 0.458564 0.957464
Si Si7 0.983171 0.886478 0.499529
Si Si8 0.971003 0.855891 0.724986
O O1 0.615579 0.091932 0.469015
O O2 0.768564 0.946078 0.193551
O O3 0.812626 0.102986 0.039424
O O4 0.995034 0.103610 0.969823
O O5 0.805358 0.750000 0.192671
O O6 0.617743 0.632155 0.539829
O O7 0.489655 0.750000 0.832119
O O8 0.408529 0.559226 0.950048
O O9 0.783907 0.623709 0.497862
O O10 0.602689 0.250000 0.580852
O O11 0.589666 0.408129 0.699513
O O12 0.278784 0.360677 0.975483
O O13 0.948050 0.133583 0.693562
O O14 0.023949 0.966872 0.690802
O O15 0.500000 0.500000 0.000000
O O16 0.268643 0.379528 0.194917
O O17 0.057535 0.845982 0.508552
O O18 0.000000 0.000000 0.500000
O O19 0.019407 0.750000 0.713007
#
# Coordination Sequence:
#
# PCOD9159122 Si02
#       8
#     4   4   4   4   4   4   4   4
#     4  10  19  32  55  81 114 150 193 238 297 345
#     4   9  18  32  50  75 113 156 188 227 290 357
#     4  10  20  35  56  84 119 152 189 238 293 347
#     4  10  21  38  58  84 117 155 197 241 297 355
#     4  10  20  36  57  86 115 151 195 244 288 350
#     4  11  20  35  60  87 118 147 195 241 290 343
#     4   9  19  37  58  79 116 152 187 236 288 348
#     4   9  20  38  60  82 111 154 196 243 296 352
#
# _framework density 25.927216000000001
#
# number of rings (size 3 to 8) (size 9 to 14) (size 15 to 20)
#    0.000    2.250    2.500    0.375    0.000    2.500 
#    0.000    3.125    0.000    5.250    0.000    0.000 
#    0.000    0.000    0.000    0.000    0.000    0.000 
#
# Total GULP energy -178567.331477 kJ/mol
# GULP energy per Si atom -5580.229109 kJ/mol
# Density = 2.586820 g / cm^3
# Si number density = 25.927216 Si / 1000 Ang^3
#
#
#
# Elastic Constant Matrix: (Units=GPa)
#
#
# Indices 1 2 3 4 5 6 
#
# 1 85.0520 5.4192 53.8466 0.0000 28.1347 0.0000
# 2 5.4192 157.9544 26.6770 0.0000 14.3753 0.0000
# 3 53.8466 26.6770 99.4608 0.0000 43.4650 0.0000
# 4 0.0000 0.0000 0.0000 8.5035 0.0000 0.0504
# 5 28.1347 14.3753 43.4650 0.0000 58.1363 0.0000
# 6 0.0000 0.0000 0.0000 0.0504 0.0000 8.1178
#
#
#
# Elastic Compliance Matrix: (Units=1/GPa)
#
#
# Indices 1 2 3 4 5 6 
#
# 1 0.018255 0.001132 -0.009214 0.000000 -0.002226 0.000000
# 2 0.001132 0.006710 -0.002151 0.000000 -0.000599 0.000000
# 3 -0.009214 -0.002151 0.019960 0.000000 -0.009932 0.000000
# 4 0.000000 0.000000 0.000000 0.117603 0.000000 -0.000730
# 5 -0.002226 -0.000599 -0.009932 0.000000 0.025851 0.000000
# 6 0.000000 0.000000 0.000000 -0.000730 0.000000 0.123191
#
#
# Mechanical properties :
#
#
# Convention : Reuss Voigt Hill
#
# Bulk Modulus (GPa) = 40.88439 57.15032 49.01736
# Shear Modulus (GPa) = 14.69771 32.05312 23.37542
#
# Velocity S-wave (km/s) = 2.38351 3.51988 3.00589
# Velocity P-wave (km/s) = 4.83508 6.21368 5.56722
#
# Compressibility (1/GPa) = 0.02445921
#
# Stress axis : x y z
#
# Youngs Moduli (GPa) = 54.77928 149.03371 50.10071
#
# Poissons Ratio (x) = -0.16877 0.46164
# Poissons Ratio (y) = -0.06203 0.10777
# Poissons Ratio (z) = 0.50475 0.32057
#
# Static dielectric constant tensor:
#      x y z
#    x 2.075980 0.000000 -0.075140 
#    y 0.000000 2.082940 0.000000 
#    z -0.075140 0.000000 2.303400 
# 
# From -- ./inp_files/55001.got.cif
#   From: 2010.05.17/outbox.cif.g08.bks.cpg/sg11_28_cif.got.tgz:55001.got - 2010.06.03 12:22:45.
