data_PCOD9159073
_publ_section_title
;
Structure prediction by ZEFSAII (Michael W. Deem and Ramdas Pophale) SiO2 
 PCOD9159073
Probable space group: P 21/M
;
_chemical_formula_sum "Si O2"
_cell_formula_units_Z 28
_cell_length_a 17.094456
_cell_length_b 8.641496
_cell_length_c 15.391080
_cell_angle_alpha 90.000000
_cell_angle_beta 134.764143
_cell_angle_gamma 90.000000
_cell_volume 1614.279537
_symmetry_space_group_name_H-M "P 21/M"
_symmetry_group_IT_number 11
_symmetry_cell_setting 'monoclinic'
loop_
_space_group_symop_operation_xyz
x,y,z
-x,1/2+y,-z
-x,-y,-z
x,1/2-y,z
loop_
_atom_site_type_symbol
_atom_site_label
_atom_site_fract_x
_atom_site_fract_y
_atom_site_fract_z
Si Si1 0.468285 0.564518 0.880572
Si Si2 0.142771 0.064411 0.042396
Si Si3 0.907175 0.566196 0.804682
Si Si4 0.124984 0.567148 0.738230
Si Si5 0.890062 0.432192 0.606763
Si Si6 0.298350 0.064912 0.008954
Si Si7 0.230402 0.067055 0.650337
O O1 0.454175 0.750000 0.874287
O O2 0.573214 0.529328 0.901690
O O3 0.355428 0.488591 0.761074
O O4 0.500000 0.500000 0.000000
O O5 0.122472 0.250000 0.021744
O O6 0.153583 0.025204 0.152500
O O7 0.245463 0.028516 0.060950
O O8 0.034601 0.979988 0.921070
O O9 0.899975 0.750000 0.785312
O O10 0.866644 0.479895 0.687483
O O11 0.105244 0.750000 0.726922
O O12 0.156898 0.516953 0.666102
O O13 0.016291 0.479427 0.685500
O O14 0.226483 0.520902 0.879805
O O15 0.876289 0.250000 0.584030
O O16 0.814838 0.521552 0.479124
O O17 0.285400 0.250000 0.983961
O O18 0.222789 0.250000 0.658398
#
# Coordination Sequence:
#
# PCOD9159073 Si02
#       7
#     4   4   4   4   4   4   4
#     4  11  22  37  58  83 113 148 191 234 278 325
#     4   9  18  33  54  81 114 148 184 227 278 329
#     4  10  19  32  53  83 114 146 184 228 277 333
#     4  12  23  36  56  84 115 148 186 227 277 335
#     4  12  24  39  57  80 114 151 187 229 282 339
#     4  10  20  35  57  83 114 151 186 228 277 327
#     4  12  25  41  58  79 111 150 192 233 279 334
#
# _framework density 17.345199000000001
#
# number of rings (size 3 to 8) (size 9 to 14) (size 15 to 20)
#    0.000    1.143    2.857    5.143    0.000    1.143 
#    0.000    0.000    0.000    0.857    0.000    0.000 
#    0.000    0.000    0.000    0.000    0.000    0.000 
#
# Total GULP energy -156501.556625 kJ/mol
# GULP energy per Si atom -5589.341308 kJ/mol
# Density = 1.730572 g / cm^3
# Si number density = 17.345199 Si / 1000 Ang^3
#
#
#
# Elastic Constant Matrix: (Units=GPa)
#
#
# Indices 1 2 3 4 5 6 
#
# 1 79.6779 6.5843 7.7557 0.0000 -18.8224 0.0000
# 2 6.5843 27.3659 -7.3221 0.0000 1.5286 0.0000
# 3 7.7557 -7.3221 53.6360 0.0000 -10.5514 0.0000
# 4 0.0000 0.0000 0.0000 30.6227 0.0000 -1.5708
# 5 -18.8224 1.5286 -10.5514 0.0000 22.2102 0.0000
# 6 0.0000 0.0000 0.0000 -1.5708 0.0000 19.8421
#
#
#
# Elastic Compliance Matrix: (Units=1/GPa)
#
#
# Indices 1 2 3 4 5 6 
#
# 1 0.016277 -0.004765 -0.000249 0.000000 0.014003 0.000000
# 2 -0.004765 0.039323 0.005218 0.000000 -0.004266 0.000000
# 3 -0.000249 0.005218 0.021268 0.000000 0.009533 0.000000
# 4 0.000000 0.000000 0.000000 0.032789 0.000000 0.002596
# 5 0.014003 -0.004266 0.009533 0.000000 0.061714 0.000000
# 6 0.000000 0.000000 0.000000 0.002596 0.000000 0.050604
#
#
# Mechanical properties :
#
#
# Convention : Reuss Voigt Hill
#
# Bulk Modulus (GPa) = 12.94088 19.41286 16.17687
# Shear Modulus (GPa) = 20.21634 24.77913 22.49773
#
# Velocity S-wave (km/s) = 3.41769 3.78377 3.60538
# Velocity P-wave (km/s) = 4.80116 5.50505 5.16511
#
# Compressibility (1/GPa) = 0.07727450
#
# Stress axis : x y z
#
# Youngs Moduli (GPa) = 61.43789 25.43059 47.01895
#
# Poissons Ratio (x) = 0.12118 0.01172
# Poissons Ratio (y) = 0.29276 -0.24534
# Poissons Ratio (z) = 0.01532 -0.13270
#
# Static dielectric constant tensor:
#      x y z
#    x 1.597310 0.000000 -0.014930 
#    y 0.000000 1.580160 0.000000 
#    z -0.014930 0.000000 1.557160 
# 
# From -- ./inp_files/48903.got.cif
#   From: 2010.05.17/outbox.cif.g08.bks.cpg/sg11_25_cif.got.tgz:48903.got - 2010.06.03 12:22:45.
