data_PCOD9159596
_publ_section_title
;
Structure prediction by ZEFSAII (Michael W. Deem and Ramdas Pophale) SiO2 
 PCOD9159596
Probable space group: P 21/M
;
_chemical_formula_sum "Si O2"
_cell_formula_units_Z 32
_cell_length_a 13.059362
_cell_length_b 8.692567
_cell_length_c 32.301913
_cell_angle_alpha 90.000000
_cell_angle_beta 152.724895
_cell_angle_gamma 90.000000
_cell_volume 1680.402930
_symmetry_space_group_name_H-M "P 21/M"
_symmetry_group_IT_number 11
_symmetry_cell_setting 'monoclinic'
loop_
_space_group_symop_operation_xyz
x,y,z
-x,1/2+y,-z
-x,-y,-z
x,1/2-y,z
loop_
_atom_site_type_symbol
_atom_site_label
_atom_site_fract_x
_atom_site_fract_y
_atom_site_fract_z
Si Si1 0.246330 0.065504 0.093897
Si Si2 0.616522 0.928746 0.168186
Si Si3 0.055773 0.566294 0.426272
Si Si4 0.837600 0.935770 0.713716
Si Si5 0.320275 0.427934 0.904863
Si Si6 0.902428 0.568030 0.644832
Si Si7 0.571920 0.062398 0.375980
Si Si8 0.586941 0.435402 0.286327
O O1 0.243022 0.250000 0.089212
O O2 0.367316 0.025252 0.180842
O O3 0.406121 0.993295 0.116680
O O4 0.000000 0.000000 0.000000
O O5 0.660687 0.750000 0.195377
O O6 0.584728 0.935748 0.107599
O O7 0.834071 0.029611 0.256422
O O8 0.046056 0.750000 0.422490
O O9 0.208972 0.514893 0.519780
O O10 0.164068 0.512178 0.421864
O O11 0.807422 0.501366 0.343564
O O12 0.837779 0.750000 0.712765
O O13 0.643209 0.987439 0.674801
O O14 0.804103 0.987160 0.653716
O O15 0.079421 0.990428 0.816316
O O16 0.284522 0.250000 0.902732
O O17 0.500000 0.500000 0.000000
O O18 0.866951 0.750000 0.628419
O O19 0.568611 0.250000 0.374161
O O20 0.573224 0.010677 0.328918
O O21 0.606772 0.250000 0.293373
#
# Coordination Sequence:
#
# PCOD9159596 Si02
#       8
#     4   4   4   4   4   4   4   4
#     4  11  23  37  57  85 116 150 189 236 291 346
#     4  10  20  36  57  80 110 146 186 234 284 336
#     4  11  21  34  58  86 113 149 193 238 286 342
#     4   9  19  37  58  80 113 153 191 234 287 343
#     4  10  21  36  57  85 113 147 190 234 286 345
#     4  10  19  33  56  83 111 147 189 233 282 338
#     4   9  20  38  58  83 115 152 191 235 290 347
#     4  10  21  39  60  81 112 151 193 238 286 341
#
# _framework density 19.043053
#
# number of rings (size 3 to 8) (size 9 to 14) (size 15 to 20)
#    0.000    2.000    1.250    2.250    0.000    4.000 
#    0.000    5.000    0.000    0.000    0.000    0.000 
#    0.000    0.000    0.000    0.000    0.000    0.000 
#
# Total GULP energy -178647.858482 kJ/mol
# GULP energy per Si atom -5582.745578 kJ/mol
# Density = 1.899971 g / cm^3
# Si number density = 19.043053 Si / 1000 Ang^3
#
#
#
# Elastic Constant Matrix: (Units=GPa)
#
#
# Indices 1 2 3 4 5 6 
#
# 1 95.3026 20.4953 38.0814 0.0000 -10.7427 0.0000
# 2 20.4953 27.9495 20.1410 0.0000 -9.7575 0.0000
# 3 38.0814 20.1410 95.7519 0.0000 -20.7790 0.0000
# 4 0.0000 0.0000 0.0000 22.6785 0.0000 -5.1357
# 5 -10.7427 -9.7575 -20.7790 0.0000 24.2038 0.0000
# 6 0.0000 0.0000 0.0000 -5.1357 0.0000 22.8124
#
#
#
# Elastic Compliance Matrix: (Units=1/GPa)
#
#
# Indices 1 2 3 4 5 6 
#
# 1 0.013591 -0.007216 -0.003945 0.000000 -0.000263 0.000000
# 2 -0.007216 0.048796 -0.004695 0.000000 0.012438 0.000000
# 3 -0.003945 -0.004695 0.015005 0.000000 0.009238 0.000000
# 4 0.000000 0.000000 0.000000 0.046463 0.000000 0.010460
# 5 -0.000263 0.012438 0.009238 0.000000 0.054144 0.000000
# 6 0.000000 0.000000 0.000000 0.010460 0.000000 0.046191
#
#
# Mechanical properties :
#
#
# Convention : Reuss Voigt Hill
#
# Bulk Modulus (GPa) = 21.89092 41.82658 31.85875
# Shear Modulus (GPa) = 18.44149 23.29137 20.86643
#
# Velocity S-wave (km/s) = 3.11531 3.50106 3.31380
# Velocity P-wave (km/s) = 4.94577 6.19316 5.60427
#
# Compressibility (1/GPa) = 0.04568104
#
# Stress axis : x y z
#
# Youngs Moduli (GPa) = 73.57691 20.49361 66.64532
#
# Poissons Ratio (x) = 0.14787 0.26289
# Poissons Ratio (y) = 0.53090 0.31290
# Poissons Ratio (z) = 0.29024 0.09622
#
# Static dielectric constant tensor:
#      x y z
#    x 1.668740 0.000000 -0.025690 
#    y 0.000000 1.643670 0.000000 
#    z -0.025690 0.000000 1.646180 
# 
# From -- ./inp_files/38113.got.cif
#   From: 2010.05.17/outbox.cif.g08.bks.cpg/sg11_20_cif.got.tgz:38113.got - 2010.06.03 12:22:45.
