data_PCOD9159630
_publ_section_title
;
Structure prediction by ZEFSAII (Michael W. Deem and Ramdas Pophale) SiO2 
 PCOD9159630
Probable space group: P 21/M
;
_chemical_formula_sum "Si O2"
_cell_formula_units_Z 28
_cell_length_a 11.271115
_cell_length_b 19.798437
_cell_length_c 8.610594
_cell_angle_alpha 90.000000
_cell_angle_beta 129.487409
_cell_angle_gamma 90.000000
_cell_volume 1482.912787
_symmetry_space_group_name_H-M "P 21/M"
_symmetry_group_IT_number 11
_symmetry_cell_setting 'monoclinic'
loop_
_space_group_symop_operation_xyz
x,y,z
-x,1/2+y,-z
-x,-y,-z
x,1/2-y,z
loop_
_atom_site_type_symbol
_atom_site_label
_atom_site_fract_x
_atom_site_fract_y
_atom_site_fract_z
Si Si1 0.619920 0.088078 0.306846
Si Si2 0.503905 0.827636 0.532131
Si Si3 0.363400 0.064270 0.572320
Si Si4 0.130669 0.959603 0.704971
Si Si5 0.307291 0.407664 0.871299
Si Si6 0.955837 0.565825 0.866106
Si Si7 0.837359 0.673624 0.985107
O O1 0.612975 0.142034 0.438751
O O2 0.777081 0.085656 0.340936
O O3 0.586786 0.012332 0.346439
O O4 0.479540 0.103088 0.074154
O O5 0.471878 0.750000 0.459271
O O6 0.519356 0.883664 0.409674
O O7 0.671712 0.827037 0.757506
O O8 0.305591 0.097337 0.684963
O O9 0.217604 0.056277 0.339163
O O10 0.058965 0.926566 0.797972
O O11 0.252513 0.016188 0.861676
O O12 0.000000 0.000000 0.500000
O O13 0.196288 0.359425 0.876105
O O14 0.952009 0.628804 0.978812
O O15 0.000000 0.500000 0.000000
O O16 0.888923 0.750000 0.042115
#
# Coordination Sequence:
#
# PCOD9159630 Si02
#       7
#     4   4   4   4   4   4   4
#     4  10  20  35  55  83 108 140 181 228 270 317
#     4   9  19  35  53  76 109 145 180 222 271 320
#     4  10  19  33  56  86 107 136 184 226 270 319
#     4  11  19  34  54  82 111 139 179 224 270 322
#     4  10  19  34  56  83 107 139 179 229 274 312
#     4  11  20  33  56  81 109 145 178 222 273 321
#     4   9  19  34  53  78 108 144 185 221 268 327
#
# _framework density 18.881755999999999
#
# number of rings (size 3 to 8) (size 9 to 14) (size 15 to 20)
#    0.000    2.000    4.286    2.143    0.000    0.571 
#    2.571    0.714    0.000    3.429    0.000    0.000 
#    0.000    0.000    0.000    0.000    0.000    0.000 
#
# Total GULP energy -156162.377439 kJ/mol
# GULP energy per Si atom -5577.227766 kJ/mol
# Density = 1.883878 g / cm^3
# Si number density = 18.881756 Si / 1000 Ang^3
#
#
#
# Elastic Constant Matrix: (Units=GPa)
#
#
# Indices 1 2 3 4 5 6 
#
# 1 133.3461 60.9504 17.2157 0.0000 -19.1740 0.0000
# 2 60.9504 98.5419 11.0622 0.0000 -27.3208 0.0000
# 3 17.2157 11.0622 46.4881 0.0000 -14.4686 0.0000
# 4 0.0000 0.0000 0.0000 12.7757 0.0000 -0.6828
# 5 -19.1740 -27.3208 -14.4686 0.0000 24.1825 0.0000
# 6 0.0000 0.0000 0.0000 -0.6828 0.0000 25.9609
#
#
#
# Elastic Compliance Matrix: (Units=1/GPa)
#
#
# Indices 1 2 3 4 5 6 
#
# 1 0.010723 -0.006422 -0.002525 0.000000 -0.000264 0.000000
# 2 -0.006422 0.018786 0.003599 0.000000 0.018285 0.000000
# 3 -0.002525 0.003599 0.027319 0.000000 0.018409 0.000000
# 4 0.000000 0.000000 0.000000 0.078384 0.000000 0.002062
# 5 -0.000264 0.018285 0.018409 0.000000 0.072815 0.000000
# 6 0.000000 0.000000 0.000000 0.002062 0.000000 0.038574
#
#
# Mechanical properties :
#
#
# Convention : Reuss Voigt Hill
#
# Bulk Modulus (GPa) = 21.67733 50.75917 36.21825
# Shear Modulus (GPa) = 18.33699 25.19368 21.76534
#
# Velocity S-wave (km/s) = 3.11971 3.65675 3.39885
# Velocity P-wave (km/s) = 4.94795 6.69105 5.88440
#
# Compressibility (1/GPa) = 0.04613113
#
# Stress axis : x y z
#
# Youngs Moduli (GPa) = 93.26030 53.23230 36.60442
#
# Poissons Ratio (x) = 0.34186 0.09242
# Poissons Ratio (y) = 0.59892 -0.13174
# Poissons Ratio (z) = 0.23548 -0.19158
#
# Static dielectric constant tensor:
#      x y z
#    x 1.686630 0.000000 -0.000140 
#    y 0.000000 1.645560 0.000000 
#    z -0.000140 0.000000 1.675940 
# 
# From -- ./inp_files/19238.got.cif
#   From: 2010.05.17/outbox.cif.g08.bks.cpg/sg11_10_cif.got.tgz:19238.got - 2010.06.03 12:22:45.
