data_PCOD9159552
_publ_section_title
;
Structure prediction by ZEFSAII (Michael W. Deem and Ramdas Pophale) SiO2 
 PCOD9159552
Probable space group: P 21/M
;
_chemical_formula_sum "Si O2"
_cell_formula_units_Z 22
_cell_length_a 9.247065
_cell_length_b 14.470327
_cell_length_c 9.745595
_cell_angle_alpha 90.000000
_cell_angle_beta 80.369672
_cell_angle_gamma 90.000000
_cell_volume 1285.662096
_symmetry_space_group_name_H-M "P 21/M"
_symmetry_group_IT_number 11
_symmetry_cell_setting 'monoclinic'
loop_
_space_group_symop_operation_xyz
x,y,z
-x,1/2+y,-z
-x,-y,-z
x,1/2-y,z
loop_
_atom_site_type_symbol
_atom_site_label
_atom_site_fract_x
_atom_site_fract_y
_atom_site_fract_z
Si Si1 0.719479 0.750000 0.659702
Si Si2 0.964251 0.610757 0.667526
Si Si3 0.998861 0.250000 0.816412
Si Si4 0.398131 0.750000 0.685006
Si Si5 0.873208 0.096477 0.640384
Si Si6 0.671124 0.750000 0.343581
Si Si7 0.558369 0.402730 0.553626
Si Si8 0.097695 0.750000 0.856611
O O1 0.807513 0.660296 0.689754
O O2 0.554185 0.750000 0.733364
O O3 0.716768 0.750000 0.495761
O O4 0.941017 0.502091 0.670160
O O5 0.048963 0.631796 0.512030
O O6 0.045994 0.659811 0.779548
O O7 0.919922 0.164425 0.753641
O O8 0.175505 0.250000 0.762172
O O9 0.965438 0.250000 0.982177
O O10 0.394329 0.838016 0.582888
O O11 0.271557 0.750000 0.815348
O O12 0.701406 0.086927 0.627797
O O13 0.567985 0.841772 0.349470
O O14 0.500000 0.500000 0.500000
#
# Coordination Sequence:
#
# PCOD9159552 Si02
#       8
#     2   4   2   2   4   2   4   2
#     4   9  16  33  56  83 111 137 182 250 282 323
#     4  10  20  35  60  82 113 142 200 239 281 326
#     4  12  24  37  58  81 126 155 188 225 283 350
#     4  10  19  33  55  84 113 142 189 229 283 347
#     4  11  20  36  59  87 109 151 191 245 281 333
#     4  10  20  33  53  87 115 143 187 230 287 341
#     4  10  20  34  60  88 114 138 185 250 293 318
#     4  11  23  40  54  83 119 161 184 228 281 355
#
# _framework density 17.111805
#
# number of rings (size 3 to 8) (size 9 to 14) (size 15 to 20)
#    0.000    1.818    3.636    3.818    2.545    0.727 
#    0.000    3.636    0.000    3.273    0.000    0.000 
#    0.000    0.000    0.000    0.000    0.000    0.000 
#
# Total GULP energy -122610.326050 kJ/mol
# GULP energy per Si atom -5573.196639 kJ/mol
# Density = 1.707286 g / cm^3
# Si number density = 17.111805 Si / 1000 Ang^3
#
#
#
# Elastic Constant Matrix: (Units=GPa)
#
#
# Indices 1 2 3 4 5 6 
#
# 1 144.9716 36.7561 55.8939 0.0000 -13.1638 0.0000
# 2 36.7561 117.2043 46.4202 0.0000 0.7079 0.0000
# 3 55.8939 46.4202 98.6293 0.0000 -11.5252 0.0000
# 4 0.0000 0.0000 0.0000 1.0054 0.0000 -2.6961
# 5 -13.1638 0.7079 -11.5252 0.0000 20.6468 0.0000
# 6 0.0000 0.0000 0.0000 -2.6961 0.0000 -27.1833
#
#
#
# Elastic Compliance Matrix: (Units=1/GPa)
#
#
# Indices 1 2 3 4 5 6 
#
# 1 0.009147 -0.001230 -0.004192 0.000000 0.003534 0.000000
# 2 -0.001230 0.010871 -0.004873 0.000000 -0.003877 0.000000
# 3 -0.004192 -0.004873 0.015528 0.000000 0.006162 0.000000
# 4 0.000000 0.000000 0.000000 0.785665 0.000000 -0.077925
# 5 0.003534 -0.003877 0.006162 0.000000 0.054259 0.000000
# 6 0.000000 0.000000 0.000000 -0.077925 0.000000 -0.029058
#
#
# Mechanical properties :
#
#
# Convention : Reuss Voigt Hill
#
# Bulk Modulus (GPa) = 66.85621 70.99397 68.92509
# Shear Modulus (GPa) = 5.73404 13.67611 9.70507
#
# Velocity S-wave (km/s) = 1.83254 2.83012 2.38409
# Velocity P-wave (km/s) = 6.60550 7.22895 6.92425
#
# Compressibility (1/GPa) = 0.01495747
#
# Stress axis : x y z
#
# Youngs Moduli (GPa) = 109.32893 91.98772 64.40005
#
# Poissons Ratio (x) = 0.11311 0.26995
# Poissons Ratio (y) = 0.13443 0.31380
# Poissons Ratio (z) = 0.45829 0.44823
#
# Static dielectric constant tensor:
#      x y z
#    x 1.625990 0.000000 -0.000440 
#    y 0.000000 1.673750 0.000000 
#    z -0.000440 0.000000 1.536460 
# 
# From -- ./inp_files/12307.got.cif
#   From: 2010.05.17/outbox.cif.g08.bks.cpg/sg11_7_cif.got.tgz:12307.got - 2010.06.03 12:22:45.
