data_PCOD9159949
_publ_section_title
;
Structure prediction by ZEFSAII (Michael W. Deem and Ramdas Pophale) SiO2 
 PCOD9159949
Probable space group: P 21/M
;
_chemical_formula_sum "Si O2"
_cell_formula_units_Z 20
_cell_length_a 14.394363
_cell_length_b 13.917307
_cell_length_c 6.969421
_cell_angle_alpha 90.000000
_cell_angle_beta 142.621684
_cell_angle_gamma 90.000000
_cell_volume 847.591923
_symmetry_space_group_name_H-M "P 21/M"
_symmetry_group_IT_number 11
_symmetry_cell_setting 'monoclinic'
loop_
_space_group_symop_operation_xyz
x,y,z
-x,1/2+y,-z
-x,-y,-z
x,1/2-y,z
loop_
_atom_site_type_symbol
_atom_site_label
_atom_site_fract_x
_atom_site_fract_y
_atom_site_fract_z
Si Si1 0.832585 0.853253 0.008645
Si Si2 0.037119 0.896643 0.646654
Si Si3 0.388326 0.638454 0.164122
Si Si4 0.619770 0.485987 0.481659
Si Si5 0.871029 0.360748 0.767701
O O1 0.767765 0.750000 0.841889
O O2 0.725475 0.940821 0.778857
O O3 0.887262 0.846116 0.316918
O O4 0.991313 0.867715 0.154689
O O5 0.204120 0.865651 0.841897
O O6 0.055978 0.884209 0.904075
O O7 0.000000 0.000000 0.500000
O O8 0.430659 0.750000 0.202958
O O9 0.480472 0.556236 0.197271
O O10 0.420822 0.600438 0.436647
O O11 0.732388 0.435403 0.515131
O O12 0.816183 0.250000 0.678887
#
# Coordination Sequence:
#
# PCOD9159949 Si02
#       5
#     4   4   4   4   4
#     4  11  21  35  60  87 112 149 194 231 275 336
#     4  11  20  36  60  82 112 149 189 232 282 336
#     4  10  20  35  55  81 117 151 182 232 289 330
#     4  10  19  34  56  83 112 148 190 228 277 339
#     4  10  21  37  59  84 118 150 185 237 283 327
#
# _framework density 23.596260000000001
#
# number of rings (size 3 to 8) (size 9 to 14) (size 15 to 20)
#    0.000    1.600    4.000    4.800    0.000    0.000 
#    0.000    1.000    0.000    0.000    0.000    0.000 
#    0.000    0.000    0.000    0.000    0.000    0.000 
#
# Total GULP energy -111570.831626 kJ/mol
# GULP energy per Si atom -5578.541581 kJ/mol
# Density = 2.354255 g / cm^3
# Si number density = 23.596260 Si / 1000 Ang^3
#
#
#
# Elastic Constant Matrix: (Units=GPa)
#
#
# Indices 1 2 3 4 5 6 
#
# 1 25.0089 -4.1701 12.6898 0.0000 -5.0889 0.0000
# 2 -4.1701 148.9198 12.9608 0.0000 1.3683 0.0000
# 3 12.6898 12.9608 103.8001 0.0000 -4.3121 0.0000
# 4 0.0000 0.0000 0.0000 8.2205 0.0000 -1.2532
# 5 -5.0889 1.3683 -4.3121 0.0000 21.2415 0.0000
# 6 0.0000 0.0000 0.0000 -1.2532 0.0000 11.8428
#
#
#
# Elastic Compliance Matrix: (Units=1/GPa)
#
#
# Indices 1 2 3 4 5 6 
#
# 1 0.044892 0.001630 -0.005294 0.000000 0.009575 0.000000
# 2 0.001630 0.006856 -0.001066 0.000000 -0.000268 0.000000
# 3 -0.005294 -0.001066 0.010453 0.000000 0.000922 0.000000
# 4 0.000000 0.000000 0.000000 0.123642 0.000000 0.013084
# 5 0.009575 -0.000268 0.000922 0.000000 0.049576 0.000000
# 6 0.000000 0.000000 0.000000 0.013084 0.000000 0.085824
#
#
# Mechanical properties :
#
#
# Convention : Reuss Voigt Hill
#
# Bulk Modulus (GPa) = 18.96104 35.63218 27.29661
# Shear Modulus (GPa) = 14.35613 25.34419 19.85016
#
# Velocity S-wave (km/s) = 2.46927 3.28087 2.90356
# Velocity P-wave (km/s) = 4.02278 5.43007 4.77852
#
# Compressibility (1/GPa) = 0.05273973
#
# Stress axis : x y z
#
# Youngs Moduli (GPa) = 22.27560 145.85905 95.67028
#
# Poissons Ratio (x) = -0.23773 0.50647
# Poissons Ratio (y) = -0.03631 0.10202
# Poissons Ratio (z) = 0.11792 0.15555
#
# Static dielectric constant tensor:
#      x y z
#    x 1.948860 0.000000 -0.018450 
#    y 0.000000 1.889230 0.000000 
#    z -0.018450 0.000000 1.942270 
# 
# From -- ./inp_files/12249.got.cif
#   From: 2010.05.17/outbox.cif.g08.bks.cpg/sg11_7_cif.got.tgz:12249.got - 2010.06.03 12:22:45.
