data_PCOD9159735
_publ_section_title
;
Structure prediction by ZEFSAII (Michael W. Deem and Ramdas Pophale) SiO2 
 PCOD9159735
Probable space group: P 21/M
;
_chemical_formula_sum "Si O2"
_cell_formula_units_Z 32
_cell_length_a 11.791509
_cell_length_b 9.295037
_cell_length_c 18.521469
_cell_angle_alpha 90.000000
_cell_angle_beta 92.454668
_cell_angle_gamma 90.000000
_cell_volume 2028.136850
_symmetry_space_group_name_H-M "P 21/M"
_symmetry_group_IT_number 11
_symmetry_cell_setting 'monoclinic'
loop_
_space_group_symop_operation_xyz
x,y,z
-x,1/2+y,-z
-x,-y,-z
x,1/2-y,z
loop_
_atom_site_type_symbol
_atom_site_label
_atom_site_fract_x
_atom_site_fract_y
_atom_site_fract_z
Si Si1 0.226102 0.921941 0.347784
Si Si2 0.381819 0.578767 0.486150
Si Si3 0.370723 0.915364 0.919734
Si Si4 0.010413 0.422426 0.577940
Si Si5 0.338685 0.424379 0.220529
Si Si6 0.601674 0.075020 0.237874
Si Si7 0.353824 0.084848 0.059646
Si Si8 0.235487 0.922519 0.625625
O O1 0.235481 0.750000 0.336513
O O2 0.317915 0.964702 0.411297
O O3 0.102787 0.950055 0.378526
O O4 0.255508 0.005795 0.275949
O O5 0.500000 0.500000 0.500000
O O6 0.400935 0.750000 0.483931
O O7 0.300233 0.551318 0.552010
O O8 0.333282 0.750000 0.921468
O O9 0.350872 0.974967 0.838617
O O10 0.508334 0.916114 0.930764
O O11 0.322838 0.998453 0.987194
O O12 0.020374 0.250000 0.568105
O O13 0.119707 0.488867 0.620228
O O14 0.000000 0.500000 0.500000
O O15 0.334159 0.250000 0.223199
O O16 0.469570 0.468130 0.241697
O O17 0.313763 0.468524 0.136983
O O18 0.599819 0.250000 0.234444
O O19 0.680925 0.035081 0.306774
O O20 0.318464 0.250000 0.050509
O O21 0.213461 0.750000 0.629945
#
# Coordination Sequence:
#
# PCOD9159735 Si02
#       8
#     4   4   4   4   4   4   4   4
#     4  10  21  35  48  67  95 121 152 198 242 275
#     4  10  20  33  48  69  96 125 155 188 230 281
#     4   8  13  23  40  63  91 127 161 183 219 274
#     4  11  22  38  55  70  90 119 159 204 244 284
#     4   9  17  30  48  70  96 129 162 188 228 286
#     4   8  15  28  47  70  99 129 157 192 230 278
#     4   8  14  24  39  63  94 124 156 191 222 264
#     4  10  19  34  52  70  95 125 158 198 241 277
#
# _framework density 15.778029
#
# number of rings (size 3 to 8) (size 9 to 14) (size 15 to 20)
#    0.000    2.750    1.250    2.625    0.000    3.500 
#    0.000    3.125    0.000    0.000    0.000    0.875 
#    0.000    0.000    0.000    0.000    0.000    0.000 
#
# Total GULP energy -178262.795324 kJ/mol
# GULP energy per Si atom -5570.712354 kJ/mol
# Density = 1.574212 g / cm^3
# Si number density = 15.778029 Si / 1000 Ang^3
#
#
#
# Elastic Constant Matrix: (Units=GPa)
#
#
# Indices 1 2 3 4 5 6 
#
# 1 59.2263 28.0921 23.4710 0.0000 -18.4074 0.0000
# 2 28.0921 31.6579 39.1160 0.0000 -14.3983 0.0000
# 3 23.4710 39.1160 116.0284 0.0000 -27.5801 0.0000
# 4 0.0000 0.0000 0.0000 25.9187 0.0000 -2.7344
# 5 -18.4074 -14.3983 -27.5801 0.0000 14.8629 0.0000
# 6 0.0000 0.0000 0.0000 -2.7344 0.0000 24.8757
#
#
#
# Elastic Compliance Matrix: (Units=1/GPa)
#
#
# Indices 1 2 3 4 5 6 
#
# 1 0.040322 -0.032341 0.012827 0.000000 0.042411 0.000000
# 2 -0.032341 0.091131 -0.022752 0.000000 0.006011 0.000000
# 3 0.012827 -0.022752 0.021884 0.000000 0.034454 0.000000
# 4 0.000000 0.000000 0.000000 0.039035 0.000000 0.004291
# 5 0.042411 0.006011 0.034454 0.000000 0.189565 0.000000
# 6 0.000000 0.000000 0.000000 0.004291 0.000000 0.040671
#
#
# Mechanical properties :
#
#
# Convention : Reuss Voigt Hill
#
# Bulk Modulus (GPa) = 14.53340 43.14122 28.83731
# Shear Modulus (GPa) = 9.43264 20.88034 15.15649
#
# Velocity S-wave (km/s) = 2.44772 3.64178 3.10273
# Velocity P-wave (km/s) = 4.14965 6.71456 5.58144
#
# Compressibility (1/GPa) = 0.06880701
#
# Stress axis : x y z
#
# Youngs Moduli (GPa) = 24.80026 10.97320 45.69602
#
# Poissons Ratio (x) = 0.35488 -0.58616
# Poissons Ratio (y) = 0.80206 1.03966
# Poissons Ratio (z) = -0.31812 0.24966
#
# Static dielectric constant tensor:
#      x y z
#    x 1.503370 0.000000 0.000690 
#    y 0.000000 1.520270 0.000000 
#    z 0.000690 0.000000 1.541300 
# 
# From -- ./inp_files/58719.got.cif
#   From: 2010.05.17/outbox.cif.g08.bks.cpg/sg11_30_cif.got.tgz:58719.got - 2010.06.03 12:22:45.
