data_PCOD9159202
_publ_section_title
;
Structure prediction by ZEFSAII (Michael W. Deem and Ramdas Pophale) SiO2 
 PCOD9159202
Probable space group: P 21/M
;
_chemical_formula_sum "Si O2"
_cell_formula_units_Z 32
_cell_length_a 21.410586
_cell_length_b 20.506279
_cell_length_c 8.710481
_cell_angle_alpha 90.000000
_cell_angle_beta 27.927412
_cell_angle_gamma 90.000000
_cell_volume 1791.143869
_symmetry_space_group_name_H-M "P 21/M"
_symmetry_group_IT_number 11
_symmetry_cell_setting 'monoclinic'
loop_
_space_group_symop_operation_xyz
x,y,z
-x,1/2+y,-z
-x,-y,-z
x,1/2-y,z
loop_
_atom_site_type_symbol
_atom_site_label
_atom_site_fract_x
_atom_site_fract_y
_atom_site_fract_z
Si Si1 0.753411 0.960047 0.686315
Si Si2 0.884470 0.677868 0.412080
Si Si3 0.898934 0.126418 0.862442
Si Si4 0.464952 0.537123 0.233002
Si Si5 0.077857 0.933941 0.521255
Si Si6 0.133443 0.677571 0.638271
Si Si7 0.346127 0.822795 0.449665
Si Si8 0.179682 0.000709 0.809552
O O1 0.787402 0.883527 0.613514
O O2 0.795170 0.985926 0.425002
O O3 0.839627 0.000524 0.620922
O O4 0.595769 0.970940 0.051569
O O5 0.823285 0.750000 0.539788
O O6 0.972835 0.668660 0.373897
O O7 0.996569 0.674321 0.034237
O O8 0.908358 0.090360 0.681213
O O9 0.764837 0.168039 0.175757
O O10 0.887777 0.069561 0.016156
O O11 0.439991 0.614121 0.256792
O O12 0.321714 0.506456 0.587444
O O13 0.500000 0.500000 0.000000
O O14 0.133199 0.878906 0.514999
O O15 0.923879 0.947926 0.897809
O O16 0.138631 0.750000 0.556623
O O17 0.257440 0.672583 0.486741
O O18 0.405187 0.750000 0.328480
#
# Coordination Sequence:
#
# PCOD9159202 Si02
#       8
#     4   4   4   4   4   4   4   4
#     4  11  20  33  55  81 104 137 178 229 263 309
#     4  10  19  33  50  73 106 136 170 220 272 312
#     4  10  20  32  51  79 108 138 175 216 266 321
#     4   9  19  33  53  80 109 135 180 224 270 307
#     4  12  20  31  57  81 110 137 179 218 269 319
#     4   9  18  31  51  79 103 132 175 222 268 311
#     4   9  18  36  56  75 108 149 180 216 269 326
#     4  10  19  34  52  76 109 141 169 216 268 323
#
# _framework density 17.865677000000002
#
# number of rings (size 3 to 8) (size 9 to 14) (size 15 to 20)
#    0.000    2.000    2.500    4.875    0.000    1.500 
#    0.000    2.500    0.000    0.000    0.000    0.000 
#    0.000    0.000    0.000    0.000    0.000    0.000 
#
# Total GULP energy -178353.948907 kJ/mol
# GULP energy per Si atom -5573.560903 kJ/mol
# Density = 1.782501 g / cm^3
# Si number density = 17.865677 Si / 1000 Ang^3
#
#
#
# Elastic Constant Matrix: (Units=GPa)
#
#
# Indices 1 2 3 4 5 6 
#
# 1 46.7342 33.3760 21.6501 0.0000 -1.3870 0.0000
# 2 33.3760 102.6124 23.4788 0.0000 5.1982 0.0000
# 3 21.6501 23.4788 48.1638 0.0000 -14.9887 0.0000
# 4 0.0000 0.0000 0.0000 21.1443 0.0000 0.5457
# 5 -1.3870 5.1982 -14.9887 0.0000 23.3489 0.0000
# 6 0.0000 0.0000 0.0000 0.5457 0.0000 21.5449
#
#
#
# Elastic Compliance Matrix: (Units=1/GPa)
#
#
# Indices 1 2 3 4 5 6 
#
# 1 0.032259 -0.007497 -0.012160 0.000000 -0.004221 0.000000
# 2 -0.007497 0.013820 -0.005577 0.000000 -0.007102 0.000000
# 3 -0.012160 -0.005577 0.036376 0.000000 0.023871 0.000000
# 4 0.000000 0.000000 0.000000 0.047325 0.000000 -0.001199
# 5 -0.004221 -0.007102 0.023871 0.000000 0.059483 0.000000
# 6 0.000000 0.000000 0.000000 -0.001199 0.000000 0.046445
#
#
# Mechanical properties :
#
#
# Convention : Reuss Voigt Hill
#
# Bulk Modulus (GPa) = 31.26243 39.39114 35.32678
# Shear Modulus (GPa) = 16.84421 21.14133 18.99277
#
# Velocity S-wave (km/s) = 3.07388 3.44372 3.26404
# Velocity P-wave (km/s) = 5.48952 6.15700 5.83282
#
# Compressibility (1/GPa) = 0.03198728
#
# Stress axis : x y z
#
# Youngs Moduli (GPa) = 30.99865 72.36044 27.49074
#
# Poissons Ratio (x) = 0.54246 0.33429
# Poissons Ratio (y) = 0.23239 0.15332
# Poissons Ratio (z) = 0.37694 0.40357
#
# Static dielectric constant tensor:
#      x y z
#    x 1.617090 0.000000 -0.027350 
#    y 0.000000 1.642210 0.000000 
#    z -0.027350 0.000000 1.624930 
# 
# From -- ./inp_files/19198.got.cif
#   From: 2010.05.17/outbox.cif.g08.bks.cpg/sg11_10_cif.got.tgz:19198.got - 2010.06.03 12:22:45.
