data_PCOD9159653
_publ_section_title
;
Structure prediction by ZEFSAII (Michael W. Deem and Ramdas Pophale) SiO2 
 PCOD9159653
Probable space group: P 21/M
;
_chemical_formula_sum "Si O2"
_cell_formula_units_Z 32
_cell_length_a 19.326761
_cell_length_b 19.788995
_cell_length_c 8.148307
_cell_angle_alpha 90.000000
_cell_angle_beta 32.746757
_cell_angle_gamma 90.000000
_cell_volume 1685.732853
_symmetry_space_group_name_H-M "P 21/M"
_symmetry_group_IT_number 11
_symmetry_cell_setting 'monoclinic'
loop_
_space_group_symop_operation_xyz
x,y,z
-x,1/2+y,-z
-x,-y,-z
x,1/2-y,z
loop_
_atom_site_type_symbol
_atom_site_label
_atom_site_fract_x
_atom_site_fract_y
_atom_site_fract_z
Si Si1 0.309094 0.895363 0.737424
Si Si2 0.952008 0.454945 0.348897
Si Si3 0.222223 0.174601 0.106090
Si Si4 0.280762 0.026119 0.006550
Si Si5 0.394077 0.048433 0.138820
Si Si6 0.542590 0.676024 0.125316
Si Si7 0.177074 0.525116 0.737244
Si Si8 0.061989 0.828242 0.396079
O O1 0.437639 0.852337 0.462505
O O2 0.264270 0.918594 0.646631
O O3 0.190698 0.854229 0.051287
O O4 0.330482 0.965188 0.794433
O O5 0.855474 0.499638 0.651043
O O6 0.896646 0.448000 0.275134
O O7 0.963431 0.381851 0.408050
O O8 0.081779 0.496520 0.064626
O O9 0.237482 0.250000 0.992576
O O10 0.263007 0.099873 0.957457
O O11 0.070381 0.169051 0.444351
O O12 0.317587 0.178583 0.070046
O O13 0.366396 0.033606 0.001019
O O14 0.264649 0.034979 0.494460
O O15 0.444280 0.124006 0.047893
O O16 0.500000 0.000000 0.000000
O O17 0.502966 0.750000 0.152890
O O18 0.078363 0.750000 0.413700
#
# Coordination Sequence:
#
# PCOD9159653 Si02
#       8
#     4   4   4   4   4   4   4   4
#     4  11  20  34  59  87 110 141 190 234 277 336
#     4   9  19  35  54  81 112 140 183 231 280 326
#     4   9  18  32  51  77 109 144 180 220 271 324
#     4   9  19  33  56  82 110 144 182 233 282 324
#     4  10  19  36  54  78 111 148 188 227 271 335
#     4  10  21  37  56  81 114 147 182 232 282 334
#     4  10  19  33  57  83 107 141 187 236 275 323
#     4  10  20  36  56  81 114 148 183 229 280 335
#
# _framework density 18.982842000000002
#
# number of rings (size 3 to 8) (size 9 to 14) (size 15 to 20)
#    0.000    2.250    1.250    1.875    0.000    5.000 
#    2.250    1.875    0.000    6.000    0.000    0.000 
#    0.000    0.000    0.000    0.000    0.000    0.000 
#
# Total GULP energy -178226.348952 kJ/mol
# GULP energy per Si atom -5569.573405 kJ/mol
# Density = 1.893964 g / cm^3
# Si number density = 18.982842 Si / 1000 Ang^3
#
#
#
# Elastic Constant Matrix: (Units=GPa)
#
#
# Indices 1 2 3 4 5 6 
#
# 1 51.6062 34.5513 25.5224 0.0000 -6.3697 0.0000
# 2 34.5513 162.2936 32.3239 0.0000 -8.6792 0.0000
# 3 25.5224 32.3239 74.8901 0.0000 -13.6604 0.0000
# 4 0.0000 0.0000 0.0000 25.3582 0.0000 -1.6351
# 5 -6.3697 -8.6792 -13.6604 0.0000 16.3321 0.0000
# 6 0.0000 0.0000 0.0000 -1.6351 0.0000 25.6171
#
#
#
# Elastic Compliance Matrix: (Units=1/GPa)
#
#
# Indices 1 2 3 4 5 6 
#
# 1 0.025604 -0.004018 -0.006560 0.000000 0.002363 0.000000
# 2 -0.004018 0.007397 -0.001643 0.000000 0.000990 0.000000
# 3 -0.006560 -0.001643 0.018493 0.000000 0.012036 0.000000
# 4 0.000000 0.000000 0.000000 0.039598 0.000000 0.002527
# 5 0.002363 0.000990 0.012036 0.000000 0.072744 0.000000
# 6 0.000000 0.000000 0.000000 0.002527 0.000000 0.039198
#
#
# Mechanical properties :
#
#
# Convention : Reuss Voigt Hill
#
# Bulk Modulus (GPa) = 36.96605 52.62055 44.79330
# Shear Modulus (GPa) = 21.14220 26.55432 23.84826
#
# Velocity S-wave (km/s) = 3.34091 3.74419 3.54829
# Velocity P-wave (km/s) = 5.86498 6.81705 6.35886
#
# Compressibility (1/GPa) = 0.02705185
#
# Stress axis : x y z
#
# Youngs Moduli (GPa) = 39.05674 135.18623 54.07365
#
# Poissons Ratio (x) = 0.54316 0.35475
# Poissons Ratio (y) = 0.15692 0.08884
# Poissons Ratio (z) = 0.25623 0.22210
#
# Static dielectric constant tensor:
#      x y z
#    x 1.677710 0.000000 -0.034840 
#    y 0.000000 1.705770 0.000000 
#    z -0.034840 0.000000 1.680640 
# 
# From -- ./inp_files/27102.got.cif
#   From: 2010.05.17/outbox.cif.g08.bks.cpg/sg11_14_cif.got.tgz:27102.got - 2010.06.03 12:22:45.
