data_PCOD9159397
_publ_section_title
;
Structure prediction by ZEFSAII (Michael W. Deem and Ramdas Pophale) SiO2 
 PCOD9159397
Probable space group: P 21/M
;
_chemical_formula_sum "Si O2"
_cell_formula_units_Z 28
_cell_length_a 13.603773
_cell_length_b 12.816696
_cell_length_c 7.912479
_cell_angle_alpha 90.000000
_cell_angle_beta 84.417297
_cell_angle_gamma 90.000000
_cell_volume 1373.040001
_symmetry_space_group_name_H-M "P 21/M"
_symmetry_group_IT_number 11
_symmetry_cell_setting 'monoclinic'
loop_
_space_group_symop_operation_xyz
x,y,z
-x,1/2+y,-z
-x,-y,-z
x,1/2-y,z
loop_
_atom_site_type_symbol
_atom_site_label
_atom_site_fract_x
_atom_site_fract_y
_atom_site_fract_z
Si Si1 0.847813 0.064768 0.121775
Si Si2 0.952019 0.861900 0.020815
Si Si3 0.330034 0.464597 0.044593
Si Si4 0.617668 0.630045 0.318219
Si Si5 0.761932 0.464832 0.474762
Si Si6 0.597258 0.130585 0.727585
Si Si7 0.169842 0.131977 0.299988
O O1 0.930450 0.131418 0.014105
O O2 0.754348 0.040206 0.020540
O O3 0.811915 0.096872 0.312451
O O4 0.904000 0.953778 0.134751
O O5 0.918569 0.750000 0.090079
O O6 0.910233 0.874775 0.837000
O O7 0.369152 0.397081 0.882518
O O8 0.403549 0.541632 0.128876
O O9 0.274287 0.390395 0.187834
O O10 0.646100 0.750000 0.345899
O O11 0.685387 0.548936 0.406658
O O12 0.500737 0.618541 0.370197
O O13 0.696774 0.392166 0.606326
O O14 0.837339 0.537235 0.567617
O O15 0.596256 0.250000 0.791702
O O16 0.166943 0.250000 0.369110
#
# Coordination Sequence:
#
# PCOD9159397 Si02
#       7
#     4   4   4   4   4   4   4
#     4   9  19  33  51  74  96 126 164 202 246 296
#     4   9  18  33  51  71  97 126 161 205 247 292
#     4   9  18  33  52  73  99 131 169 211 248 291
#     4  10  19  33  54  77 100 130 170 213 255 294
#     4  10  20  33  51  74 104 133 164 205 250 300
#     4  10  21  35  50  72 104 139 171 204 246 297
#     4   9  17  30  49  73  99 127 161 204 254 300
#
# _framework density 20.392704999999999
#
# number of rings (size 3 to 8) (size 9 to 14) (size 15 to 20)
#    0.000    2.571    0.000    1.714    0.000    5.714 
#    0.000    2.143    0.000   12.000    0.000    0.000 
#    0.000    0.000    0.000    0.000    0.000    0.000 
#
# Total GULP energy -156125.238835 kJ/mol
# GULP energy per Si atom -5575.901387 kJ/mol
# Density = 2.034629 g / cm^3
# Si number density = 20.392705 Si / 1000 Ang^3
#
#
#
# Elastic Constant Matrix: (Units=GPa)
#
#
# Indices 1 2 3 4 5 6 
#
# 1 43.7529 -1.1666 -15.0165 0.0000 -5.7485 0.0000
# 2 -1.1666 51.1034 -16.0756 0.0000 5.2691 0.0000
# 3 -15.0165 -16.0756 34.9464 0.0000 -4.6030 0.0000
# 4 0.0000 0.0000 0.0000 3.3792 0.0000 9.4077
# 5 -5.7485 5.2691 -4.6030 0.0000 7.7438 0.0000
# 6 0.0000 0.0000 0.0000 9.4077 0.0000 1.6324
#
#
#
# Elastic Compliance Matrix: (Units=1/GPa)
#
#
# Indices 1 2 3 4 5 6 
#
# 1 0.035183 0.003877 0.021693 0.000000 0.036374 0.000000
# 2 0.003877 0.024058 0.011886 0.000000 -0.006427 0.000000
# 3 0.021693 0.011886 0.048237 0.000000 0.036688 0.000000
# 4 0.000000 0.000000 0.000000 -0.019671 0.000000 0.113362
# 5 0.036374 -0.006427 0.036688 0.000000 0.182316 0.000000
# 6 0.000000 0.000000 0.000000 0.113362 0.000000 -0.040720
#
#
# Mechanical properties :
#
#
# Convention : Reuss Voigt Hill
#
# Bulk Modulus (GPa) = 5.48278 7.25391 6.36834
# Shear Modulus (GPa) = 23.22454 13.35521 18.28987
#
# Velocity S-wave (km/s) = 3.37837 2.56188 2.99805
# Velocity P-wave (km/s) = 4.23229 3.50939 3.88768
#
# Compressibility (1/GPa) = 0.18238930
#
# Stress axis : x y z
#
# Youngs Moduli (GPa) = 28.42278 41.56548 20.73109
#
# Poissons Ratio (x) = -0.16113 -0.44971
# Poissons Ratio (y) = -0.11019 -0.24642
# Poissons Ratio (z) = -0.61656 -0.49406
#
# Static dielectric constant tensor:
#      x y z
#    x 1.741850 0.000000 -0.002680 
#    y 0.000000 1.708370 0.000000 
#    z -0.002680 0.000000 1.720770 
# 
# From -- ./inp_files/21143.got.cif
#   From: 2010.05.17/outbox.cif.g08.bks.cpg/sg11_11_cif.got.tgz:21143.got - 2010.06.03 12:22:45.
