data_PCOD9159992
_publ_section_title
;
Structure prediction by ZEFSAII (Michael W. Deem and Ramdas Pophale) SiO2 
 PCOD9159992
Probable space group: P 21/M
;
_chemical_formula_sum "Si O2"
_cell_formula_units_Z 32
_cell_length_a 21.555600
_cell_length_b 9.440605
_cell_length_c 11.870829
_cell_angle_alpha 90.000000
_cell_angle_beta 131.108983
_cell_angle_gamma 90.000000
_cell_volume 1820.125676
_symmetry_space_group_name_H-M "P 21/M"
_symmetry_group_IT_number 11
_symmetry_cell_setting 'monoclinic'
loop_
_space_group_symop_operation_xyz
x,y,z
-x,1/2+y,-z
-x,-y,-z
x,1/2-y,z
loop_
_atom_site_type_symbol
_atom_site_label
_atom_site_fract_x
_atom_site_fract_y
_atom_site_fract_z
Si Si1 0.623135 0.418189 0.603508
Si Si2 0.034207 0.088523 0.705116
Si Si3 0.872546 0.088169 0.353517
Si Si4 0.437533 0.416108 0.004259
Si Si5 0.760743 0.079676 0.586950
Si Si6 0.046482 0.580555 0.153617
Si Si7 0.736619 0.583615 0.328348
Si Si8 0.552001 0.580866 0.723613
O O1 0.625144 0.250000 0.629225
O O2 0.702957 0.454550 0.624505
O O3 0.610668 0.502573 0.704436
O O4 0.541550 0.445845 0.430324
O O5 0.066271 0.250000 0.748046
O O6 0.954685 0.090555 0.528466
O O7 0.999390 0.046289 0.784469
O O8 0.100463 0.983550 0.730984
O O9 0.844163 0.250000 0.306691
O O10 0.806873 0.993157 0.339904
O O11 0.461094 0.250000 0.034082
O O12 0.437807 0.465095 0.134723
O O13 0.500000 0.500000 0.000000
O O14 0.347935 0.427970 0.841626
O O15 0.754709 0.250000 0.559522
O O16 0.856646 0.045266 0.722405
O O17 0.731374 0.995709 0.441700
O O18 0.041457 0.750000 0.131689
O O19 0.000000 0.500000 0.000000
O O20 0.755352 0.750000 0.366986
O O21 0.566320 0.750000 0.735023
#
# Coordination Sequence:
#
# PCOD9159992 Si02
#       8
#     4   4   4   4   4   4   4   4
#     4   9  18  33  58  83 104 140 183 225 264 309
#     4   9  18  35  56  79 108 140 178 224 276 328
#     4  10  19  34  57  82 107 141 182 224 275 329
#     4  10  22  38  56  82 115 150 183 224 275 327
#     4  10  20  38  59  80 109 142 185 231 274 330
#     4  10  21  38  57  79 110 144 180 229 280 331
#     4  11  22  35  55  84 115 144 183 231 277 330
#     4   9  18  35  55  78 111 145 178 216 266 320
#
# _framework density 17.581202999999999
#
# number of rings (size 3 to 8) (size 9 to 14) (size 15 to 20)
#    0.000    2.250    1.250    1.500    0.000    4.500 
#    2.250    2.500    0.000    0.000    0.000    0.000 
#    0.000    0.000    0.000    0.000    0.000    0.000 
#
# Total GULP energy -178544.374882 kJ/mol
# GULP energy per Si atom -5579.511715 kJ/mol
# Density = 1.754119 g / cm^3
# Si number density = 17.581203 Si / 1000 Ang^3
#
#
#
# Elastic Constant Matrix: (Units=GPa)
#
#
# Indices 1 2 3 4 5 6 
#
# 1 143.1697 69.5578 53.1575 0.0000 -36.6454 0.0000
# 2 69.5578 66.0990 43.1569 0.0000 -15.8276 0.0000
# 3 53.1575 43.1569 78.0182 0.0000 -34.0321 0.0000
# 4 0.0000 0.0000 0.0000 26.7652 0.0000 -5.3724
# 5 -36.6454 -15.8276 -34.0321 0.0000 23.4894 0.0000
# 6 0.0000 0.0000 0.0000 -5.3724 0.0000 34.5490
#
#
#
# Elastic Compliance Matrix: (Units=1/GPa)
#
#
# Indices 1 2 3 4 5 6 
#
# 1 0.026863 -0.029233 0.020532 0.000000 0.051959 0.000000
# 2 -0.029233 0.056092 -0.039447 0.000000 -0.064963 0.000000
# 3 0.020532 -0.039447 0.062571 0.000000 0.096107 0.000000
# 4 0.000000 0.000000 0.000000 0.038566 0.000000 0.005997
# 5 0.051959 -0.064963 0.096107 0.000000 0.219101 0.000000
# 6 0.000000 0.000000 0.000000 0.005997 0.000000 0.029877
#
#
# Mechanical properties :
#
#
# Convention : Reuss Voigt Hill
#
# Bulk Modulus (GPa) = 20.31277 68.78124 44.54701
# Shear Modulus (GPa) = 9.16127 25.05503 17.10815
#
# Velocity S-wave (km/s) = 2.28520 3.77915 3.12283
# Velocity P-wave (km/s) = 4.30600 7.63214 6.19642
#
# Compressibility (1/GPa) = 0.04923011
#
# Stress axis : x y z
#
# Youngs Moduli (GPa) = 37.22578 17.82795 15.98179
#
# Poissons Ratio (x) = 0.52116 -0.32814
# Poissons Ratio (y) = 1.08822 0.63044
# Poissons Ratio (z) = -0.76433 0.70326
#
# Static dielectric constant tensor:
#      x y z
#    x 1.615400 0.000000 -0.027170 
#    y 0.000000 1.593930 0.000000 
#    z -0.027170 0.000000 1.603160 
# 
# From -- ./inp_files/42933.got.cif
#   From: 2010.05.17/outbox.cif.g08.bks.cpg/sg11_22_cif.got.tgz:42933.got - 2010.06.03 12:22:45.
