data_PCOD9159059
_publ_section_title
;
Structure prediction by ZEFSAII (Michael W. Deem and Ramdas Pophale) SiO2 
 PCOD9159059
Probable space group: P 21/M
;
_chemical_formula_sum "Si O2"
_cell_formula_units_Z 32
_cell_length_a 14.759654
_cell_length_b 18.603259
_cell_length_c 12.371771
_cell_angle_alpha 90.000000
_cell_angle_beta 149.446639
_cell_angle_gamma 90.000000
_cell_volume 1726.839121
_symmetry_space_group_name_H-M "P 21/M"
_symmetry_group_IT_number 11
_symmetry_cell_setting 'monoclinic'
loop_
_space_group_symop_operation_xyz
x,y,z
-x,1/2+y,-z
-x,-y,-z
x,1/2-y,z
loop_
_atom_site_type_symbol
_atom_site_label
_atom_site_fract_x
_atom_site_fract_y
_atom_site_fract_z
Si Si1 0.667061 0.054340 0.283058
Si Si2 0.939990 0.897668 0.043249
Si Si3 0.273617 0.833208 0.480466
Si Si4 0.343337 0.552466 0.976260
Si Si5 0.977835 0.528950 0.726951
Si Si6 0.981244 0.166664 0.110848
Si Si7 0.566774 0.167742 0.757231
Si Si8 0.568362 0.662976 0.612852
O O1 0.659753 0.124487 0.348253
O O2 0.698946 0.072753 0.190808
O O3 0.824196 0.005764 0.496176
O O4 0.483360 0.011888 0.109691
O O5 0.066464 0.850016 0.249433
O O6 0.987098 0.978196 0.131452
O O7 0.732016 0.878540 0.835415
O O8 0.991952 0.870645 0.977228
O O9 0.301898 0.750000 0.522791
O O10 0.388381 0.855535 0.492968
O O11 0.162548 0.530310 0.851008
O O12 0.432692 0.614968 0.140571
O O13 0.934288 0.610498 0.717800
O O14 0.044438 0.250000 0.175282
O O15 0.771285 0.168708 0.923921
O O16 0.519144 0.250000 0.736034
O O17 0.452009 0.144213 0.534847
O O18 0.593961 0.750000 0.644325
#
# Coordination Sequence:
#
# PCOD9159059 Si02
#       8
#     4   4   4   4   4   4   4   4
#     4  10  22  38  59  79 105 145 186 227 277 318
#     4  11  20  33  54  82 113 145 181 215 267 330
#     4  10  20  36  55  81 113 143 180 225 271 326
#     4  10  21  40  57  78 109 142 185 233 270 316
#     4  10  22  37  56  82 107 143 182 228 271 322
#     4  10  19  35  54  78 115 148 175 217 269 326
#     4   9  19  35  56  81 112 147 181 222 271 320
#     4  10  19  32  53  81 114 148 175 217 276 324
#
# _framework density 18.530968000000001
#
# number of rings (size 3 to 8) (size 9 to 14) (size 15 to 20)
#    0.000    2.000    1.250    2.625    1.750    0.500 
#    0.000    1.875    0.000    0.750    0.000    0.000 
#    0.000    0.000    0.000    0.000    0.000    0.000 
#
# Total GULP energy -178505.565710 kJ/mol
# GULP energy per Si atom -5578.298928 kJ/mol
# Density = 1.848879 g / cm^3
# Si number density = 18.530968 Si / 1000 Ang^3
#
#
#
# Elastic Constant Matrix: (Units=GPa)
#
#
# Indices 1 2 3 4 5 6 
#
# 1 76.0462 49.7311 17.0025 0.0000 -17.8743 0.0000
# 2 49.7311 79.6628 27.8026 0.0000 -19.1686 0.0000
# 3 17.0025 27.8026 68.3048 0.0000 -12.5311 0.0000
# 4 0.0000 0.0000 0.0000 11.7547 0.0000 20.9985
# 5 -17.8743 -19.1686 -12.5311 0.0000 29.5971 0.0000
# 6 0.0000 0.0000 0.0000 20.9985 0.0000 -158.5033
#
#
#
# Elastic Compliance Matrix: (Units=1/GPa)
#
#
# Indices 1 2 3 4 5 6 
#
# 1 0.022962 -0.013232 0.000696 0.000000 0.005592 0.000000
# 2 -0.013232 0.023992 -0.005516 0.000000 0.005212 0.000000
# 3 0.000696 -0.005516 0.017493 0.000000 0.004254 0.000000
# 4 0.000000 0.000000 0.000000 0.068792 0.000000 0.009114
# 5 0.005592 0.005212 0.004254 0.000000 0.042341 0.000000
# 6 0.000000 0.000000 0.000000 0.009114 0.000000 -0.005102
#
#
# Mechanical properties :
#
#
# Convention : Reuss Voigt Hill
#
# Bulk Modulus (GPa) = 35.28110 45.89846 40.58978
# Shear Modulus (GPa) = 23.14503 -14.79848 4.17328
#
# Velocity S-wave (km/s) = 3.53794 -2.82898 1.50231
# Velocity P-wave (km/s) = 5.98078 3.76184 4.99606
#
# Compressibility (1/GPa) = 0.02834379
#
# Stress axis : x y z
#
# Youngs Moduli (GPa) = 43.55090 41.68005 57.16690
#
# Poissons Ratio (x) = 0.55149 -0.03979
# Poissons Ratio (y) = 0.57625 0.31532
# Poissons Ratio (z) = -0.03031 0.22990
#
# Static dielectric constant tensor:
#      x y z
#    x 1.637840 0.000000 0.015220 
#    y 0.000000 1.637530 0.000000 
#    z 0.015220 0.000000 1.644190 
# 
# From -- ./inp_files/40003.got.cif
#   From: 2010.05.17/outbox.cif.g08.bks.cpg/sg11_21_cif.got.tgz:40003.got - 2010.06.03 12:22:45.
