data_PCOD9159240
_publ_section_title
;
Structure prediction by ZEFSAII (Michael W. Deem and Ramdas Pophale) SiO2 
 PCOD9159240
Probable space group: P 21/M
;
_chemical_formula_sum "Si O2"
_cell_formula_units_Z 32
_cell_length_a 11.746006
_cell_length_b 22.385962
_cell_length_c 7.571866
_cell_angle_alpha 90.000000
_cell_angle_beta 121.098315
_cell_angle_gamma 90.000000
_cell_volume 1704.848745
_symmetry_space_group_name_H-M "P 21/M"
_symmetry_group_IT_number 11
_symmetry_cell_setting 'monoclinic'
loop_
_space_group_symop_operation_xyz
x,y,z
-x,1/2+y,-z
-x,-y,-z
x,1/2-y,z
loop_
_atom_site_type_symbol
_atom_site_label
_atom_site_fract_x
_atom_site_fract_y
_atom_site_fract_z
Si Si1 0.452391 0.132649 0.109549
Si Si2 0.829013 0.920687 0.167525
Si Si3 0.992231 0.928105 0.984017
Si Si4 0.367416 0.815292 0.469151
Si Si5 0.771961 0.935812 0.524624
Si Si6 0.490992 0.624100 0.242886
Si Si7 0.232514 0.559788 0.942963
Si Si8 0.706547 0.428153 0.401189
O O1 0.510877 0.179847 0.293069
O O2 0.546701 0.074794 0.230867
O O3 0.298114 0.117769 0.993647
O O4 0.485044 0.149033 0.933996
O O5 0.837272 0.919806 0.386463
O O6 0.792587 0.989260 0.091886
O O7 0.957405 0.905764 0.152482
O O8 0.866361 0.915652 0.757516
O O9 0.124036 0.910463 0.983581
O O10 0.000000 0.000000 0.000000
O O11 0.305390 0.750000 0.426958
O O12 0.430939 0.829095 0.331028
O O13 0.277322 0.871428 0.458126
O O14 0.628481 0.904727 0.417405
O O15 0.750436 0.007838 0.509612
O O16 0.378454 0.573437 0.132293
O O17 0.225932 0.582108 0.735005
#
# Coordination Sequence:
#
# PCOD9159240 Si02
#       8
#     4   4   4   4   4   4   4   4
#     4   8  17  32  49  73  99 130 164 206 257 298
#     4   9  17  30  49  72 106 138 164 197 247 307
#     4  10  21  29  45  73 115 141 165 194 246 303
#     4  10  21  33  48  76 103 129 173 221 261 300
#     4  10  19  33  51  78 108 137 170 205 250 322
#     4  10  19  33  55  76 101 134 171 209 259 304
#     4   9  18  33  46  77 111 135 166 201 247 314
#     4   8  18  31  50  72 104 138 165 205 260 299
#
# _framework density 18.769995000000002
#
# number of rings (size 3 to 8) (size 9 to 14) (size 15 to 20)
#    0.750    2.000    0.000    1.500    3.500    8.500 
#    0.000    0.000    0.000    0.000    0.000    7.000 
#    0.000    0.000    0.000    0.000    0.000    0.000 
#
# Total GULP energy -178205.206572 kJ/mol
# GULP energy per Si atom -5568.912705 kJ/mol
# Density = 1.872727 g / cm^3
# Si number density = 18.769995 Si / 1000 Ang^3
#
#
#
# Elastic Constant Matrix: (Units=GPa)
#
#
# Indices 1 2 3 4 5 6 
#
# 1 83.9413 -1.4315 5.8157 0.0000 -6.9009 0.0000
# 2 -1.4315 24.8724 3.5207 0.0000 -5.0350 0.0000
# 3 5.8157 3.5207 54.6512 0.0000 0.7272 0.0000
# 4 0.0000 0.0000 0.0000 0.2200 0.0000 1.1301
# 5 -6.9009 -5.0350 0.7272 0.0000 12.6100 0.0000
# 6 0.0000 0.0000 0.0000 1.1301 0.0000 1.4169
#
#
#
# Elastic Compliance Matrix: (Units=1/GPa)
#
#
# Indices 1 2 3 4 5 6 
#
# 1 0.012737 0.002604 -0.001631 0.000000 0.008104 0.000000
# 2 0.002604 0.044788 -0.003422 0.000000 0.019506 0.000000
# 3 -0.001631 -0.003422 0.018736 0.000000 -0.003340 0.000000
# 4 0.000000 0.000000 0.000000 -1.467600 0.000000 1.170523
# 5 0.008104 0.019506 -0.003340 0.000000 0.091719 0.000000
# 6 0.000000 0.000000 0.000000 1.170523 0.000000 -0.227837
#
#
# Mechanical properties :
#
#
# Convention : Reuss Voigt Hill
#
# Bulk Modulus (GPa) = 14.01263 19.91942 16.96603
# Shear Modulus (GPa) = -3.33607 13.22004 4.94199
#
# Velocity S-wave (km/s) = -1.33462 2.65678 1.62439
# Velocity P-wave (km/s) = 2.25981 4.47735 3.54637
#
# Compressibility (1/GPa) = 0.07136417
#
# Stress axis : x y z
#
# Youngs Moduli (GPa) = 78.51284 22.32732 53.37232
#
# Poissons Ratio (x) = -0.05815 0.08705
# Poissons Ratio (y) = -0.20449 0.18264
# Poissons Ratio (z) = 0.12806 0.07640
#
# Static dielectric constant tensor:
#      x y z
#    x 1.692470 0.000000 -0.014670 
#    y 0.000000 1.627280 0.000000 
#    z -0.014670 0.000000 1.694220 
# 
# From -- ./inp_files/19591.got.cif
#   From: 2010.05.17/outbox.cif.g08.bks.cpg/sg11_10_cif.got.tgz:19591.got - 2010.06.03 12:22:45.
