data_PCOD9159373
_publ_section_title
;
Structure prediction by ZEFSAII (Michael W. Deem and Ramdas Pophale) SiO2 
 PCOD9159373
Probable space group: P 21/M
;
_chemical_formula_sum "Si O2"
_cell_formula_units_Z 28
_cell_length_a 14.864886
_cell_length_b 8.182951
_cell_length_c 22.282920
_cell_angle_alpha 90.000000
_cell_angle_beta 149.706596
_cell_angle_gamma 90.000000
_cell_volume 1367.234516
_symmetry_space_group_name_H-M "P 21/M"
_symmetry_group_IT_number 11
_symmetry_cell_setting 'monoclinic'
loop_
_space_group_symop_operation_xyz
x,y,z
-x,1/2+y,-z
-x,-y,-z
x,1/2-y,z
loop_
_atom_site_type_symbol
_atom_site_label
_atom_site_fract_x
_atom_site_fract_y
_atom_site_fract_z
Si Si1 0.315312 0.059241 0.122570
Si Si2 0.068989 0.941558 0.881762
Si Si3 0.419907 0.552915 0.517546
Si Si4 0.936159 0.442510 0.376186
Si Si5 0.290956 0.440847 0.646829
Si Si6 0.986503 0.057174 0.705299
Si Si7 0.750375 0.949672 0.785078
O O1 0.271601 0.250000 0.090450
O O2 0.227954 0.994867 0.134044
O O3 0.526510 0.038553 0.252086
O O4 0.241858 0.967945 0.022224
O O5 0.040199 0.750000 0.854238
O O6 0.903909 0.003395 0.827708
O O7 0.071987 0.027112 0.819370
O O8 0.500000 0.500000 0.500000
O O9 0.415142 0.750000 0.515751
O O10 0.217996 0.493493 0.408945
O O11 0.558829 0.498477 0.648507
O O12 0.921888 0.250000 0.381609
O O13 0.797152 0.534656 0.338471
O O14 0.135660 0.495683 0.511463
O O15 0.916503 0.473618 0.294626
O O16 0.328698 0.250000 0.658112
O O17 0.981463 0.250000 0.690198
O O18 0.752963 0.750000 0.787728
#
# Coordination Sequence:
#
# PCOD9159373 Si02
#       7
#     4   4   4   4   4   4   4
#     4  11  22  38  59  83 114 152 196 241 289 341
#     4  11  22  38  57  79 115 157 199 242 284 338
#     4  10  19  33  53  80 113 148 186 230 281 333
#     4  10  21  38  63  91 118 150 186 231 287 344
#     4  10  21  39  62  90 119 147 187 235 286 342
#     4  11  22  36  57  86 119 155 193 236 289 344
#     4   9  19  35  56  81 113 152 192 237 287 337
#
# _framework density 20.479295
#
# number of rings (size 3 to 8) (size 9 to 14) (size 15 to 20)
#    0.000    1.714    1.429    3.429    0.000    3.429 
#    0.000    4.286    0.000    0.000    0.000    0.000 
#    0.000    0.000    0.000    0.000    0.000    0.000 
#
# Total GULP energy -156499.638347 kJ/mol
# GULP energy per Si atom -5589.272798 kJ/mol
# Density = 2.043268 g / cm^3
# Si number density = 20.479295 Si / 1000 Ang^3
#
#
#
# Elastic Constant Matrix: (Units=GPa)
#
#
# Indices 1 2 3 4 5 6 
#
# 1 77.3607 -6.6792 19.4775 0.0000 -26.4148 0.0000
# 2 -6.6792 25.5074 -3.4512 0.0000 -0.4528 0.0000
# 3 19.4775 -3.4512 55.4289 0.0000 -14.1101 0.0000
# 4 0.0000 0.0000 0.0000 17.1226 0.0000 2.2541
# 5 -26.4148 -0.4528 -14.1101 0.0000 24.8796 0.0000
# 6 0.0000 0.0000 0.0000 2.2541 0.0000 21.9907
#
#
#
# Elastic Compliance Matrix: (Units=1/GPa)
#
#
# Indices 1 2 3 4 5 6 
#
# 1 0.021254 0.005740 -0.001566 0.000000 0.021781 0.000000
# 2 0.005740 0.041218 0.002678 0.000000 0.008364 0.000000
# 3 -0.001566 0.002678 0.021443 0.000000 0.010547 0.000000
# 4 0.000000 0.000000 0.000000 0.059201 0.000000 -0.006068
# 5 0.021781 0.008364 0.010547 0.000000 0.069453 0.000000
# 6 0.000000 0.000000 0.000000 -0.006068 0.000000 0.046096
#
#
# Mechanical properties :
#
#
# Convention : Reuss Voigt Hill
#
# Bulk Modulus (GPa) = 10.24388 19.66568 14.95478
# Shear Modulus (GPa) = 18.01803 22.72859 20.37331
#
# Velocity S-wave (km/s) = 2.96939 3.33503 3.15751
# Velocity P-wave (km/s) = 4.09503 4.94504 4.53997
#
# Compressibility (1/GPa) = 0.09761929
#
# Stress axis : x y z
#
# Youngs Moduli (GPa) = 47.05077 24.26115 46.63489
#
# Poissons Ratio (x) = -0.13926 0.07305
# Poissons Ratio (y) = -0.27008 -0.12491
# Poissons Ratio (z) = 0.07370 -0.06498
#
# Static dielectric constant tensor:
#      x y z
#    x 1.711660 0.000000 0.002590 
#    y 0.000000 1.695610 0.000000 
#    z 0.002590 0.000000 1.723280 
# 
# From -- ./inp_files/48911.got.cif
#   From: 2010.05.17/outbox.cif.g08.bks.cpg/sg11_25_cif.got.tgz:48911.got - 2010.06.03 12:22:45.
