data_PCOD9159942
_publ_section_title
;
Structure prediction by ZEFSAII (Michael W. Deem and Ramdas Pophale) SiO2 
 PCOD9159942
Probable space group: P 21/M
;
_chemical_formula_sum "Si O2"
_cell_formula_units_Z 20
_cell_length_a 6.114690
_cell_length_b 10.986674
_cell_length_c 13.463880
_cell_angle_alpha 90.000000
_cell_angle_beta 77.204330
_cell_angle_gamma 90.000000
_cell_volume 882.042492
_symmetry_space_group_name_H-M "P 21/M"
_symmetry_group_IT_number 11
_symmetry_cell_setting 'monoclinic'
loop_
_space_group_symop_operation_xyz
x,y,z
-x,1/2+y,-z
-x,-y,-z
x,1/2-y,z
loop_
_atom_site_type_symbol
_atom_site_label
_atom_site_fract_x
_atom_site_fract_y
_atom_site_fract_z
Si Si1 0.807572 0.107519 0.512475
Si Si2 0.417713 0.534399 0.664741
Si Si3 0.252300 0.382917 0.968539
Si Si4 0.382994 0.052044 0.162334
Si Si5 0.013107 0.112394 0.803552
O O1 0.872919 0.250000 0.528393
O O2 0.702638 0.105319 0.411961
O O3 0.602821 0.056516 0.599878
O O4 0.000000 0.000000 0.500000
O O5 0.534319 0.608665 0.743162
O O6 0.221350 0.458562 0.737382
O O7 0.352174 0.250000 0.930030
O O8 0.406364 0.491919 0.914582
O O9 0.030667 0.391504 0.922838
O O10 0.246506 0.382055 0.088175
O O11 0.215796 0.944722 0.208774
O O12 0.029054 0.250000 0.770198
#
# Coordination Sequence:
#
# PCOD9159942 Si02
#       5
#     4   4   4   4   4
#     4  11  25  45  68  93 123 160 203 256 317 377
#     4  10  23  40  61  90 120 154 201 255 308 366
#     4   9  19  33  51  79 116 156 197 241 290 349
#     4  10  19  34  56  82 114 153 198 244 295 353
#     4  10  19  34  57  85 118 157 201 247 296 355
#
# _framework density 22.674645000000002
#
# number of rings (size 3 to 8) (size 9 to 14) (size 15 to 20)
#    0.000    2.000    0.000    3.000    0.000    8.800 
#    0.000    3.000    0.000    0.000    0.000    0.000 
#    0.000    0.000    0.000    0.000    0.000    0.000 
#
# Total GULP energy -111430.991832 kJ/mol
# GULP energy per Si atom -5571.549592 kJ/mol
# Density = 2.262304 g / cm^3
# Si number density = 22.674645 Si / 1000 Ang^3
#
#
#
# Elastic Constant Matrix: (Units=GPa)
#
#
# Indices 1 2 3 4 5 6 
#
# 1 71.9384 12.2773 39.9236 0.0000 25.4345 0.0000
# 2 12.2773 99.3711 21.0508 0.0000 14.5987 0.0000
# 3 39.9236 21.0508 129.8056 0.0000 38.9260 0.0000
# 4 0.0000 0.0000 0.0000 4.0923 0.0000 2.1192
# 5 25.4345 14.5987 38.9260 0.0000 47.4266 0.0000
# 6 0.0000 0.0000 0.0000 2.1192 0.0000 3.9607
#
#
#
# Elastic Compliance Matrix: (Units=1/GPa)
#
#
# Indices 1 2 3 4 5 6 
#
# 1 0.018344 -0.000523 -0.003522 0.000000 -0.006786 0.000000
# 2 -0.000523 0.010649 -0.000885 0.000000 -0.002271 0.000000
# 3 -0.003522 -0.000885 0.010987 0.000000 -0.006856 0.000000
# 4 0.000000 0.000000 0.000000 0.338025 0.000000 -0.180865
# 5 -0.006786 -0.002271 -0.006856 0.000000 0.031051 0.000000
# 6 0.000000 0.000000 0.000000 -0.180865 0.000000 0.349252
#
#
# Mechanical properties :
#
#
# Convention : Reuss Voigt Hill
#
# Bulk Modulus (GPa) = 33.20208 49.73537 41.46873
# Shear Modulus (GPa) = 6.42501 26.28683 16.35592
#
# Velocity S-wave (km/s) = 1.68515 3.40855 2.68867
# Velocity P-wave (km/s) = 4.29662 6.12151 5.28838
#
# Compressibility (1/GPa) = 0.03011859
#
# Stress axis : x y z
#
# Youngs Moduli (GPa) = 54.51381 93.90510 91.01956
#
# Poissons Ratio (x) = 0.04915 0.32059
# Poissons Ratio (y) = 0.02853 0.08055
# Poissons Ratio (z) = 0.19201 0.08311
#
# Static dielectric constant tensor:
#      x y z
#    x 1.832230 0.000000 0.068050 
#    y 0.000000 1.880640 0.000000 
#    z 0.068050 0.000000 1.913410 
# 
# From -- ./inp_files/6133.got.cif
#   From: 2010.05.17/outbox.cif.g08.bks.cpg/sg11_4_cif.got.tgz:6133.got - 2010.06.03 12:22:45.
