data_PCOD9159532
_publ_section_title
;
Structure prediction by ZEFSAII (Michael W. Deem and Ramdas Pophale) SiO2 
 PCOD9159532
Probable space group: P 21/M
;
_chemical_formula_sum "Si O2"
_cell_formula_units_Z 28
_cell_length_a 17.963680
_cell_length_b 8.678411
_cell_length_c 13.977108
_cell_angle_alpha 90.000000
_cell_angle_beta 44.177241
_cell_angle_gamma 90.000000
_cell_volume 1518.486791
_symmetry_space_group_name_H-M "P 21/M"
_symmetry_group_IT_number 11
_symmetry_cell_setting 'monoclinic'
loop_
_space_group_symop_operation_xyz
x,y,z
-x,1/2+y,-z
-x,-y,-z
x,1/2-y,z
loop_
_atom_site_type_symbol
_atom_site_label
_atom_site_fract_x
_atom_site_fract_y
_atom_site_fract_z
Si Si1 0.106157 0.434530 0.852287
Si Si2 0.688467 0.436893 0.866543
Si Si3 0.115888 0.934456 0.630315
Si Si4 0.662919 0.063666 0.673868
Si Si5 0.246047 0.065732 0.900664
Si Si6 0.890643 0.434801 0.798271
Si Si7 0.442335 0.565284 0.826143
O O1 0.096880 0.250000 0.853427
O O2 0.118695 0.504897 0.736131
O O3 0.203709 0.471527 0.833993
O O4 0.000000 0.500000 0.000000
O O5 0.685976 0.250000 0.866981
O O6 0.660260 0.491015 0.786757
O O7 0.807401 0.480796 0.791733
O O8 0.607878 0.485957 0.024871
O O9 0.109297 0.750000 0.637160
O O10 0.224009 0.980169 0.476382
O O11 0.008843 0.999494 0.680515
O O12 0.655684 0.250000 0.679571
O O13 0.562112 0.995581 0.711223
O O14 0.245737 0.250000 0.912109
O O15 0.361605 0.000098 0.821382
O O16 0.162948 0.995421 0.054165
O O17 0.894472 0.250000 0.798896
O O18 0.439819 0.750000 0.825175
#
# Coordination Sequence:
#
# PCOD9159532 Si02
#       7
#     4   4   4   4   4   4   4
#     4  11  22  36  59  85 111 142 180 227 275 330
#     4   8  17  34  56  82 109 142 185 230 278 324
#     4  11  23  36  53  80 114 151 187 223 274 332
#     4  10  21  38  56  76 111 153 189 228 271 326
#     4  10  20  35  57  84 110 139 179 225 277 332
#     4  10  19  33  55  82 112 144 181 230 279 324
#     4  10  20  35  58  85 111 141 183 231 277 326
#
# _framework density 18.439409999999999
#
# number of rings (size 3 to 8) (size 9 to 14) (size 15 to 20)
#    0.000    2.000    1.429    3.429    0.000    3.429 
#    0.000    4.286    0.000    0.000    0.000    0.000 
#    0.000    0.000    0.000    0.000    0.000    0.000 
#
# Total GULP energy -156344.452465 kJ/mol
# GULP energy per Si atom -5583.730445 kJ/mol
# Density = 1.839744 g / cm^3
# Si number density = 18.439410 Si / 1000 Ang^3
#
#
#
# Elastic Constant Matrix: (Units=GPa)
#
#
# Indices 1 2 3 4 5 6 
#
# 1 86.1484 20.9292 23.7426 0.0000 -29.7306 0.0000
# 2 20.9292 37.0890 14.8268 0.0000 -12.1485 0.0000
# 3 23.7426 14.8268 43.3636 0.0000 -29.4316 0.0000
# 4 0.0000 0.0000 0.0000 23.7125 0.0000 -5.9229
# 5 -29.7306 -12.1485 -29.4316 0.0000 34.3804 0.0000
# 6 0.0000 0.0000 0.0000 -5.9229 0.0000 27.4165
#
#
#
# Elastic Compliance Matrix: (Units=1/GPa)
#
#
# Indices 1 2 3 4 5 6 
#
# 1 0.017676 -0.006041 0.003134 0.000000 0.015834 0.000000
# 2 -0.006041 0.033593 -0.008754 0.000000 -0.000847 0.000000
# 3 0.003134 -0.008754 0.057468 0.000000 0.048813 0.000000
# 4 0.000000 0.000000 0.000000 0.044577 0.000000 0.009630
# 5 0.015834 -0.000847 0.048813 0.000000 0.084266 0.000000
# 6 0.000000 0.000000 0.000000 0.009630 0.000000 0.038555
#
#
# Mechanical properties :
#
#
# Convention : Reuss Voigt Hill
#
# Bulk Modulus (GPa) = 11.70740 31.73313 21.72026
# Shear Modulus (GPa) = 15.24724 24.24205 19.74465
#
# Velocity S-wave (km/s) = 2.87868 3.62979 3.27584
# Velocity P-wave (km/s) = 4.17276 5.90034 5.11008
#
# Compressibility (1/GPa) = 0.08541608
#
# Stress axis : x y z
#
# Youngs Moduli (GPa) = 56.57323 29.76811 17.40102
#
# Poissons Ratio (x) = 0.17983 -0.05454
# Poissons Ratio (y) = 0.34177 0.15232
# Poissons Ratio (z) = -0.17731 0.26058
#
# Static dielectric constant tensor:
#      x y z
#    x 1.639470 0.000000 -0.004500 
#    y 0.000000 1.619500 0.000000 
#    z -0.004500 0.000000 1.611080 
# 
# From -- ./inp_files/53193.got.cif
#   From: 2010.05.17/outbox.cif.g08.bks.cpg/sg11_27_cif.got.tgz:53193.got - 2010.06.03 12:22:45.
