data_PCOD9159007
_publ_section_title
;
Structure prediction by ZEFSAII (Michael W. Deem and Ramdas Pophale) SiO2 
 PCOD9159007
Probable space group: P 21/M
;
_chemical_formula_sum "Si O2"
_cell_formula_units_Z 32
_cell_length_a 11.641429
_cell_length_b 9.549429
_cell_length_c 18.922516
_cell_angle_alpha 90.000000
_cell_angle_beta 124.230447
_cell_angle_gamma 90.000000
_cell_volume 1739.215788
_symmetry_space_group_name_H-M "P 21/M"
_symmetry_group_IT_number 11
_symmetry_cell_setting 'monoclinic'
loop_
_space_group_symop_operation_xyz
x,y,z
-x,1/2+y,-z
-x,-y,-z
x,1/2-y,z
loop_
_atom_site_type_symbol
_atom_site_label
_atom_site_fract_x
_atom_site_fract_y
_atom_site_fract_z
Si Si1 0.145469 0.410735 0.846142
Si Si2 0.421631 0.411777 0.310042
Si Si3 0.870427 0.585401 0.722319
Si Si4 0.311689 0.407823 0.593915
Si Si5 0.065141 0.087972 0.416862
Si Si6 0.381725 0.918660 0.003531
Si Si7 0.531702 0.904136 0.839481
Si Si8 0.760553 0.977271 0.276361
O O1 0.140271 0.250000 0.869867
O O2 0.239799 0.513327 0.925869
O O3 0.212220 0.407669 0.790134
O O4 0.995045 0.483426 0.788056
O O5 0.446218 0.250000 0.338409
O O6 0.275031 0.454081 0.292527
O O7 0.552827 0.503845 0.377526
O O8 0.417260 0.417083 0.223219
O O9 0.901312 0.750000 0.750209
O O10 0.862370 0.577836 0.634591
O O11 0.326303 0.250000 0.571366
O O12 0.171370 0.471891 0.511402
O O13 0.295996 0.401153 0.673331
O O14 0.043803 0.250000 0.428301
O O15 0.912202 0.027757 0.353073
O O16 0.387595 0.750000 0.998038
O O17 0.500000 0.000000 0.000000
O O18 0.410220 0.970777 0.092937
O O19 0.572455 0.750000 0.881461
O O20 0.363457 0.912779 0.780836
#
# Coordination Sequence:
#
# PCOD9159007 Si02
#       8
#     4   4   4   4   4   4   4   4
#     4  11  22  36  56  83 113 143 183 226 272 325
#     4   9  20  38  58  79 106 144 187 230 275 328
#     4   9  19  38  59  78 106 145 188 230 277 325
#     4  10  20  33  51  79 112 145 184 229 276 327
#     4   9  18  32  52  79 110 146 184 227 276 328
#     4  12  24  37  57  84 117 147 177 217 266 323
#     4  10  20  35  57  82 109 142 184 227 273 326
#     4  10  19  32  53  76 113 146 184 220 278 326
#
# _framework density 18.399097000000001
#
# number of rings (size 3 to 8) (size 9 to 14) (size 15 to 20)
#    0.000    2.000    1.250    2.625    0.000    4.500 
#    0.000    3.750    0.000    0.000    0.000    0.000 
#    0.000    0.000    0.000    0.000    0.000    0.000 
#
# Total GULP energy -178323.713981 kJ/mol
# GULP energy per Si atom -5572.616062 kJ/mol
# Density = 1.835722 g / cm^3
# Si number density = 18.399097 Si / 1000 Ang^3
#
#
#
# Elastic Constant Matrix: (Units=GPa)
#
#
# Indices 1 2 3 4 5 6 
#
# 1 95.2383 26.6328 17.2674 0.0000 14.6937 0.0000
# 2 26.6328 105.1314 42.8669 0.0000 11.9424 0.0000
# 3 17.2674 42.8669 84.3386 0.0000 15.9690 0.0000
# 4 0.0000 0.0000 0.0000 23.1194 0.0000 -2.9847
# 5 14.6937 11.9424 15.9690 0.0000 14.3860 0.0000
# 6 0.0000 0.0000 0.0000 -2.9847 0.0000 5.0214
#
#
#
# Elastic Compliance Matrix: (Units=1/GPa)
#
#
# Indices 1 2 3 4 5 6 
#
# 1 0.012849 -0.002194 0.000791 0.000000 -0.012181 0.000000
# 2 -0.002194 0.012561 -0.005552 0.000000 -0.002024 0.000000
# 3 0.000791 -0.005552 0.017469 0.000000 -0.015590 0.000000
# 4 0.000000 0.000000 0.000000 0.046849 0.000000 0.027847
# 5 -0.012181 -0.002024 -0.015590 0.000000 0.100938 0.000000
# 6 0.000000 0.000000 0.000000 0.027847 0.000000 0.215701
#
#
# Mechanical properties :
#
#
# Convention : Reuss Voigt Hill
#
# Bulk Modulus (GPa) = 34.51987 50.91583 42.71785
# Shear Modulus (GPa) = 11.62968 21.70144 16.66556
#
# Velocity S-wave (km/s) = 2.51685 3.43809 3.01289
# Velocity P-wave (km/s) = 5.22001 6.59497 5.94736
#
# Compressibility (1/GPa) = 0.02896882
#
# Stress axis : x y z
#
# Youngs Moduli (GPa) = 77.82473 79.60850 57.24440
#
# Poissons Ratio (x) = 0.17465 -0.04526
# Poissons Ratio (y) = 0.17073 0.31784
# Poissons Ratio (z) = -0.06153 0.44201
#
# Static dielectric constant tensor:
#      x y z
#    x 1.620160 0.000000 -0.005600 
#    y 0.000000 1.651790 0.000000 
#    z -0.005600 0.000000 1.658220 
# 
# From -- ./inp_files/64472.got.cif
#   From: 2010.05.17/outbox.cif.g08.bks.cpg/sg11_33_cif.got.tgz:64472.got - 2010.06.03 12:22:45.
