data_PCOD9159769
_publ_section_title
;
Structure prediction by ZEFSAII (Michael W. Deem and Ramdas Pophale) SiO2 
 PCOD9159769
Probable space group: P 21/M
;
_chemical_formula_sum "Si O2"
_cell_formula_units_Z 32
_cell_length_a 14.456884
_cell_length_b 25.734487
_cell_length_c 8.496781
_cell_angle_alpha 90.000000
_cell_angle_beta 24.893790
_cell_angle_gamma 90.000000
_cell_volume 1330.645148
_symmetry_space_group_name_H-M "P 21/M"
_symmetry_group_IT_number 11
_symmetry_cell_setting 'monoclinic'
loop_
_space_group_symop_operation_xyz
x,y,z
-x,1/2+y,-z
-x,-y,-z
x,1/2-y,z
loop_
_atom_site_type_symbol
_atom_site_label
_atom_site_fract_x
_atom_site_fract_y
_atom_site_fract_z
Si Si1 0.802713 0.034804 0.242833
Si Si2 0.669555 0.377462 0.284748
Si Si3 0.987849 0.394430 0.204545
Si Si4 0.403584 0.985407 0.980358
Si Si5 0.213835 0.693641 0.629907
Si Si6 0.215173 0.090380 0.169408
Si Si7 0.293820 0.189860 0.253680
Si Si8 0.560544 0.874192 0.670463
O O1 0.811633 0.069157 0.071505
O O2 0.588443 0.000075 0.565925
O O3 0.804299 0.075675 0.385959
O O4 0.000000 0.000000 0.000000
O O5 0.805924 0.336598 0.175776
O O6 0.448599 0.395234 0.722044
O O7 0.586150 0.355321 0.249728
O O8 0.045272 0.413497 0.287855
O O9 0.210432 0.394683 0.757537
O O10 0.904380 0.335791 0.329562
O O11 0.417920 0.922865 0.954604
O O12 0.229947 0.032326 0.220370
O O13 0.500000 0.000000 0.000000
O O14 0.118254 0.750000 0.792454
O O15 0.471753 0.695140 0.196626
O O16 0.177766 0.140442 0.342138
O O17 0.204011 0.250000 0.394223
O O18 0.365460 0.167357 0.313999
#
# Coordination Sequence:
#
# PCOD9159769 Si02
#       8
#     4   4   4   4   4   4   4   4
#     4  10  19  34  53  80 113 146 177 218 274 318
#     4   8  19  33  55  80 108 142 185 224 261 333
#     4  10  21  35  58  85 111 144 187 229 269 332
#     4  11  21  35  57  80 118 150 181 225 270 338
#     4   9  19  39  60  78 107 148 185 228 279 330
#     4   9  19  36  56  82 110 148 189 217 271 334
#     4  10  21  39  60  80 110 146 185 233 280 328
#     4  11  21  35  57  88 111 143 187 229 278 318
#
# _framework density 24.048484999999999
#
# number of rings (size 3 to 8) (size 9 to 14) (size 15 to 20)
#    0.000    2.250    2.500    0.750    1.750    3.000 
#    0.000    6.875    0.000    0.000    0.000    0.000 
#    0.000    0.000    0.000    0.000    0.000    0.000 
#
# Total GULP energy -178374.950379 kJ/mol
# GULP energy per Si atom -5574.217199 kJ/mol
# Density = 2.399375 g / cm^3
# Si number density = 24.048485 Si / 1000 Ang^3
#
#
#
# Elastic Constant Matrix: (Units=GPa)
#
#
# Indices 1 2 3 4 5 6 
#
# 1 89.6479 -5.5248 -18.9818 0.0000 -1.0606 0.0000
# 2 -5.5248 92.7489 -2.1219 0.0000 1.3326 0.0000
# 3 -18.9818 -2.1219 55.1444 0.0000 -4.1999 0.0000
# 4 0.0000 0.0000 0.0000 21.8295 0.0000 -0.7912
# 5 -1.0606 1.3326 -4.1999 0.0000 24.5337 0.0000
# 6 0.0000 0.0000 0.0000 -0.7912 0.0000 21.9297
#
#
#
# Elastic Compliance Matrix: (Units=1/GPa)
#
#
# Indices 1 2 3 4 5 6 
#
# 1 0.012129 0.000803 0.004299 0.000000 0.001217 0.000000
# 2 0.000803 0.010851 0.000660 0.000000 -0.000442 0.000000
# 3 0.004299 0.000660 0.019910 0.000000 0.003558 0.000000
# 4 0.000000 0.000000 0.000000 0.045870 0.000000 0.001655
# 5 0.001217 -0.000442 0.003558 0.000000 0.041446 0.000000
# 6 0.000000 0.000000 0.000000 0.001655 0.000000 0.045660
#
#
# Mechanical properties :
#
#
# Convention : Reuss Voigt Hill
#
# Bulk Modulus (GPa) = 18.37734 20.47602 19.42668
# Shear Modulus (GPa) = 27.40037 31.26990 29.33513
#
# Velocity S-wave (km/s) = 3.37913 3.60986 3.49640
# Velocity P-wave (km/s) = 4.78363 5.08996 4.93917
#
# Compressibility (1/GPa) = 0.05441483
#
# Stress axis : x y z
#
# Youngs Moduli (GPa) = 82.44835 92.15650 50.22532
#
# Poissons Ratio (x) = -0.07403 -0.21590
# Poissons Ratio (y) = -0.06623 -0.03317
# Poissons Ratio (z) = -0.35441 -0.06086
#
# Static dielectric constant tensor:
#      x y z
#    x 1.886180 0.000000 0.038290 
#    y 0.000000 2.117020 0.000000 
#    z 0.038290 0.000000 2.116090 
# 
# From -- ./inp_files/15081.got.cif
#   From: 2010.05.17/outbox.cif.g08.bks.cpg/sg11_8_cif.got.tgz:15081.got - 2010.06.03 12:22:45.
