data_PCOD9159544
_publ_section_title
;
Structure prediction by ZEFSAII (Michael W. Deem and Ramdas Pophale) SiO2 
 PCOD9159544
Probable space group: P 21/M
;
_chemical_formula_sum "Si O2"
_cell_formula_units_Z 32
_cell_length_a 12.088264
_cell_length_b 8.832451
_cell_length_c 32.752344
_cell_angle_alpha 90.000000
_cell_angle_beta 148.906974
_cell_angle_gamma 90.000000
_cell_volume 1805.918997
_symmetry_space_group_name_H-M "P 21/M"
_symmetry_group_IT_number 11
_symmetry_cell_setting 'monoclinic'
loop_
_space_group_symop_operation_xyz
x,y,z
-x,1/2+y,-z
-x,-y,-z
x,1/2-y,z
loop_
_atom_site_type_symbol
_atom_site_label
_atom_site_fract_x
_atom_site_fract_y
_atom_site_fract_z
Si Si1 0.173229 0.569294 0.719827
Si Si2 0.168255 0.574511 0.501040
Si Si3 0.998288 0.567699 0.808974
Si Si4 0.656328 0.568065 0.145271
Si Si5 0.725774 0.075581 0.561569
Si Si6 0.670220 0.431554 0.022245
Si Si7 0.278436 0.569200 0.659736
Si Si8 0.463460 0.930358 0.327179
O O1 0.174598 0.750000 0.724456
O O2 0.308594 0.494311 0.798523
O O3 0.259186 0.530927 0.701641
O O4 0.928699 0.510362 0.644846
O O5 0.141424 0.750000 0.505056
O O6 0.239253 0.572249 0.476119
O O7 0.351176 0.495066 0.584981
O O8 0.942075 0.488511 0.430588
O O9 0.989294 0.750000 0.802463
O O10 0.764183 0.497782 0.731653
O O11 0.158969 0.502539 0.825430
O O12 0.101744 0.526620 0.886079
O O13 0.676884 0.750000 0.151400
O O14 0.426268 0.525834 0.052261
O O15 0.726867 0.250000 0.575562
O O16 0.500000 0.000000 0.500000
O O17 0.659538 0.250000 0.021039
O O18 0.500000 0.500000 0.000000
O O19 0.294943 0.750000 0.660944
O O20 0.471176 0.489125 0.697103
O O21 0.460196 0.750000 0.327596
#
# Coordination Sequence:
#
# PCOD9159544 Si02
#       8
#     4   4   4   4   4   4   4   4
#     4  10  21  36  55  78 104 138 179 217 261 314
#     4  10  21  37  55  76 102 138 180 220 265 313
#     4  10  20  35  54  79 111 142 175 215 263 315
#     4  10  19  33  55  83 112 140 174 214 260 317
#     4  10  21  35  52  73 104 141 176 217 264 312
#     4   8  16  31  52  77 106 140 172 209 258 312
#     4  10  21  39  58  76 102 138 181 225 266 311
#     4  12  24  36  54  79 107 139 177 223 269 314
#
# _framework density 17.71951
#
# number of rings (size 3 to 8) (size 9 to 14) (size 15 to 20)
#    0.000    2.000    0.000    3.750    1.750    4.000 
#    0.000    0.000    0.000    0.750    0.000    0.000 
#    0.000    0.000    0.000    0.000    0.000    0.000 
#
# Total GULP energy -178584.843371 kJ/mol
# GULP energy per Si atom -5580.776355 kJ/mol
# Density = 1.767918 g / cm^3
# Si number density = 17.719510 Si / 1000 Ang^3
#
#
#
# Elastic Constant Matrix: (Units=GPa)
#
#
# Indices 1 2 3 4 5 6 
#
# 1 29.1845 21.6101 22.7434 0.0000 -4.7749 0.0000
# 2 21.6101 83.6816 35.0805 0.0000 -9.4811 0.0000
# 3 22.7434 35.0805 94.8452 0.0000 -26.0796 0.0000
# 4 0.0000 0.0000 0.0000 23.3015 0.0000 -1.5727
# 5 -4.7749 -9.4811 -26.0796 0.0000 23.3570 0.0000
# 6 0.0000 0.0000 0.0000 -1.5727 0.0000 28.6454
#
#
#
# Elastic Compliance Matrix: (Units=1/GPa)
#
#
# Indices 1 2 3 4 5 6 
#
# 1 0.047309 -0.008821 -0.009246 0.000000 -0.004233 0.000000
# 2 -0.008821 0.015788 -0.003547 0.000000 0.000645 0.000000
# 3 -0.009246 -0.003547 0.018986 0.000000 0.017869 0.000000
# 4 0.000000 0.000000 0.000000 0.043075 0.000000 0.002365
# 5 -0.004233 0.000645 0.017869 0.000000 0.062162 0.000000
# 6 0.000000 0.000000 0.000000 0.002365 0.000000 0.035040
#
#
# Mechanical properties :
#
#
# Convention : Reuss Voigt Hill
#
# Bulk Modulus (GPa) = 25.73610 40.73103 33.23357
# Shear Modulus (GPa) = 17.95082 23.61259 20.78171
#
# Velocity S-wave (km/s) = 3.18630 3.65441 3.42835
# Velocity P-wave (km/s) = 5.30023 6.39083 5.87091
#
# Compressibility (1/GPa) = 0.03885593
#
# Stress axis : x y z
#
# Youngs Moduli (GPa) = 21.13767 63.33940 52.67046
#
# Poissons Ratio (x) = 0.55870 0.48698
# Poissons Ratio (y) = 0.18645 0.18682
# Poissons Ratio (z) = 0.19543 0.22466
#
# Static dielectric constant tensor:
#      x y z
#    x 1.594440 0.000000 -0.032380 
#    y 0.000000 1.592990 0.000000 
#    z -0.032380 0.000000 1.616700 
# 
# From -- ./inp_files/73157.got.cif
#   From: 2010.05.17/outbox.cif.g08.bks.cpg/sg11_37_cif.got.tgz:73157.got - 2010.06.03 12:22:45.
