data_PCOD9159679
_publ_section_title
;
Structure prediction by ZEFSAII (Michael W. Deem and Ramdas Pophale) SiO2 
 PCOD9159679
Probable space group: P 21/M
;
_chemical_formula_sum "Si O2"
_cell_formula_units_Z 32
_cell_length_a 20.742305
_cell_length_b 8.740277
_cell_length_c 26.734627
_cell_angle_alpha 90.000000
_cell_angle_beta 158.898245
_cell_angle_gamma 90.000000
_cell_volume 1744.976028
_symmetry_space_group_name_H-M "P 21/M"
_symmetry_group_IT_number 11
_symmetry_cell_setting 'monoclinic'
loop_
_space_group_symop_operation_xyz
x,y,z
-x,1/2+y,-z
-x,-y,-z
x,1/2-y,z
loop_
_atom_site_type_symbol
_atom_site_label
_atom_site_fract_x
_atom_site_fract_y
_atom_site_fract_z
Si Si1 0.278257 0.066079 0.699564
Si Si2 0.110403 0.934234 0.400758
Si Si3 0.015247 0.566084 0.219206
Si Si4 0.185747 0.434208 0.154528
Si Si5 0.301892 0.065851 0.349913
Si Si6 0.477096 0.064950 0.282709
Si Si7 0.034395 0.567351 0.604282
Si Si8 0.357081 0.566170 0.089521
O O1 0.270070 0.250000 0.697831
O O2 0.476633 0.022601 0.825987
O O3 0.138336 0.020044 0.554449
O O4 0.205380 0.993703 0.697761
O O5 0.104428 0.750000 0.399300
O O6 0.045030 0.979898 0.298449
O O7 0.317630 0.981137 0.558749
O O8 0.992975 0.001618 0.360522
O O9 0.021798 0.750000 0.221095
O O10 0.172096 0.497677 0.298636
O O11 0.826497 0.506293 0.062220
O O12 0.174821 0.250000 0.145849
O O13 0.226424 0.481075 0.240813
O O14 0.348113 0.478837 0.235261
O O15 0.000000 0.500000 0.000000
O O16 0.307018 0.250000 0.355440
O O17 0.500000 0.000000 0.500000
O O18 0.472471 0.250000 0.274761
O O19 0.405469 0.991709 0.179916
O O20 0.038487 0.750000 0.609003
O O21 0.342492 0.750000 0.079494
#
# Coordination Sequence:
#
# PCOD9159679 Si02
#       8
#     4   4   4   4   4   4   4   4
#     4   9  19  35  55  83 119 153 186 233 287 342
#     4  10  21  38  59  83 114 151 191 240 290 338
#     4  11  24  41  60  85 118 156 197 238 287 348
#     4  10  22  38  56  82 114 147 188 235 287 342
#     4  11  23  41  63  87 116 153 196 242 291 347
#     4  10  20  36  59  83 109 146 189 235 286 342
#     4  10  19  33  57  88 117 147 190 240 286 340
#     4  11  22  38  58  86 120 153 191 237 289 343
#
# _framework density 18.338360000000002
#
# number of rings (size 3 to 8) (size 9 to 14) (size 15 to 20)
#    0.000    1.750    1.250    3.000    0.000    8.000 
#    0.000    1.875    0.000    0.000    0.000    0.000 
#    0.000    0.000    0.000    0.000    0.000    0.000 
#
# Total GULP energy -178810.706192 kJ/mol
# GULP energy per Si atom -5587.834568 kJ/mol
# Density = 1.829662 g / cm^3
# Si number density = 18.338360 Si / 1000 Ang^3
#
#
#
# Elastic Constant Matrix: (Units=GPa)
#
#
# Indices 1 2 3 4 5 6 
#
# 1 170.3558 44.4681 52.8385 0.0000 -4.4234 0.0000
# 2 44.4681 32.3100 29.2825 0.0000 -2.6059 0.0000
# 3 52.8385 29.2825 79.6356 0.0000 -13.9215 0.0000
# 4 0.0000 0.0000 0.0000 18.8649 0.0000 7.4718
# 5 -4.4234 -2.6059 -13.9215 0.0000 32.7194 0.0000
# 6 0.0000 0.0000 0.0000 7.4718 0.0000 30.1325
#
#
#
# Elastic Compliance Matrix: (Units=1/GPa)
#
#
# Indices 1 2 3 4 5 6 
#
# 1 0.009427 -0.010888 -0.002355 0.000000 -0.000595 0.000000
# 2 -0.010888 0.059448 -0.015195 0.000000 -0.003203 0.000000
# 3 -0.002355 -0.015195 0.021002 0.000000 0.007407 0.000000
# 4 0.000000 0.000000 0.000000 0.058781 0.000000 -0.014576
# 5 -0.000595 -0.003203 0.007407 0.000000 0.033379 0.000000
# 6 0.000000 0.000000 0.000000 -0.014576 0.000000 0.036801
#
#
# Mechanical properties :
#
#
# Convention : Reuss Voigt Hill
#
# Bulk Modulus (GPa) = 30.30231 59.49775 44.90003
# Shear Modulus (GPa) = 17.43879 26.72419 22.08149
#
# Velocity S-wave (km/s) = 3.08709 3.82158 3.47380
# Velocity P-wave (km/s) = 5.40987 7.21024 6.37394
#
# Compressibility (1/GPa) = 0.03300078
#
# Stress axis : x y z
#
# Youngs Moduli (GPa) = 106.07488 16.82130 47.61371
#
# Poissons Ratio (x) = 0.18315 0.11215
# Poissons Ratio (y) = 1.15494 0.72350
# Poissons Ratio (z) = 0.24985 0.25560
#
# Static dielectric constant tensor:
#      x y z
#    x 1.616290 0.000000 -0.000540 
#    y 0.000000 1.626030 0.000000 
#    z -0.000540 0.000000 1.606460 
# 
# From -- ./inp_files/72200.got.cif
#   From: 2010.05.17/outbox.cif.g08.bks.cpg/sg11_37_cif.got.tgz:72200.got - 2010.06.03 12:22:45.
