data_PCOD9159696
_publ_section_title
;
Structure prediction by ZEFSAII (Michael W. Deem and Ramdas Pophale) SiO2 
 PCOD9159696
Probable space group: P 21/M
;
_chemical_formula_sum "Si O2"
_cell_formula_units_Z 20
_cell_length_a 12.590083
_cell_length_b 8.892762
_cell_length_c 17.145507
_cell_angle_alpha 90.000000
_cell_angle_beta 34.224988
_cell_angle_gamma 90.000000
_cell_volume 1079.679631
_symmetry_space_group_name_H-M "P 21/M"
_symmetry_group_IT_number 11
_symmetry_cell_setting 'monoclinic'
loop_
_space_group_symop_operation_xyz
x,y,z
-x,1/2+y,-z
-x,-y,-z
x,1/2-y,z
loop_
_atom_site_type_symbol
_atom_site_label
_atom_site_fract_x
_atom_site_fract_y
_atom_site_fract_z
Si Si1 0.547432 0.425061 0.708578
Si Si2 0.633566 0.926297 0.024518
Si Si3 0.404485 0.070975 0.482464
Si Si4 0.750698 0.571877 0.720332
Si Si5 0.035239 0.929341 0.274342
O O1 0.592418 0.250000 0.669969
O O2 0.375121 0.434791 0.875405
O O3 0.513879 0.503852 0.647308
O O4 0.715246 0.504992 0.655813
O O5 0.608893 0.750000 0.018776
O O6 0.446375 0.022637 0.117712
O O7 0.819389 0.993161 0.873627
O O8 0.428209 0.250000 0.468844
O O9 0.180458 0.037506 0.616195
O O10 0.500000 0.000000 0.500000
O O11 0.771535 0.750000 0.705619
O O12 0.911570 0.494252 0.673205
O O13 0.063064 0.750000 0.257336
#
# Coordination Sequence:
#
# PCOD9159696 Si02
#       5
#     4   4   4   4   4
#     4   9  20  38  60  85 117 151 188 233 284 338
#     4   9  19  35  57  88 120 152 186 229 282 339
#     4  11  25  43  62  82 110 150 196 241 287 336
#     4  10  19  33  58  88 121 154 185 228 284 340
#     4  11  22  36  57  87 118 152 192 233 280 339
#
# _framework density 18.524014000000001
#
# number of rings (size 3 to 8) (size 9 to 14) (size 15 to 20)
#    1.200    0.800    0.000    4.200    0.000    4.000 
#    0.000    1.000    0.000    0.000    0.000    0.000 
#    0.000    0.000    0.000    0.000    0.000    0.000 
#
# Total GULP energy -111536.920201 kJ/mol
# GULP energy per Si atom -5576.846010 kJ/mol
# Density = 1.848185 g / cm^3
# Si number density = 18.524014 Si / 1000 Ang^3
#
#
#
# Elastic Constant Matrix: (Units=GPa)
#
#
# Indices 1 2 3 4 5 6 
#
# 1 -326.0406 -433.9182 -567.2870 0.0000 187.4388 0.0000
# 2 -433.9182 -421.5363 -595.7890 0.0000 175.4809 0.0000
# 3 -567.2870 -595.7890 -696.6671 0.0000 226.4032 0.0000
# 4 0.0000 0.0000 0.0000 24.4532 0.0000 6.1887
# 5 187.4388 175.4809 226.4032 0.0000 -37.8947 0.0000
# 6 0.0000 0.0000 0.0000 6.1887 0.0000 34.6723
#
#
#
# Elastic Compliance Matrix: (Units=1/GPa)
#
#
# Indices 1 2 3 4 5 6 
#
# 1 0.009976 -0.006687 -0.003789 0.000000 -0.004261 0.000000
# 2 -0.006687 0.017178 -0.006221 0.000000 0.009310 0.000000
# 3 -0.003789 -0.006221 0.009009 0.000000 0.006273 0.000000
# 4 0.000000 0.000000 0.000000 0.042829 0.000000 -0.007645
# 5 -0.004261 0.009310 0.006273 0.000000 0.033126 0.000000
# 6 0.000000 0.000000 0.000000 -0.007645 0.000000 0.030206
#
#
# Mechanical properties :
#
#
# Convention : Reuss Voigt Hill
#
# Bulk Modulus (GPa) = 361.05099 -515.35915 -77.15408
# Shear Modulus (GPa) = 28.30601 14.42948 21.36774
#
# Velocity S-wave (km/s) = 3.91330 2.79401 3.40003
# Velocity P-wave (km/s) = 14.68848 16.38312 5.13105
#
# Compressibility (1/GPa) = 0.00276969
#
# Stress axis : x y z
#
# Youngs Moduli (GPa) = 100.24268 58.21232 111.00371
#
# Poissons Ratio (x) = 0.38924 0.42064
# Poissons Ratio (y) = 0.67028 0.69051
# Poissons Ratio (z) = 0.37987 0.36212
#
# Static dielectric constant tensor:
#      x y z
#    x 1.627820 0.000000 0.025260 
#    y 0.000000 1.613880 0.000000 
#    z 0.025260 0.000000 1.667990 
# 
# From -- ./inp_files/58592.got.cif
#   From: 2010.05.17/outbox.cif.g08.bks.cpg/sg11_30_cif.got.tgz:58592.got - 2010.06.03 12:22:45.
