data_PCOD9159360
_publ_section_title
;
Structure prediction by ZEFSAII (Michael W. Deem and Ramdas Pophale) SiO2 
 PCOD9159360
Probable space group: P 21/M
;
_chemical_formula_sum "Si O2"
_cell_formula_units_Z 32
_cell_length_a 20.052800
_cell_length_b 8.280804
_cell_length_c 22.655283
_cell_angle_alpha 90.000000
_cell_angle_beta 152.193537
_cell_angle_gamma 90.000000
_cell_volume 1754.914747
_symmetry_space_group_name_H-M "P 21/M"
_symmetry_group_IT_number 11
_symmetry_cell_setting 'monoclinic'
loop_
_space_group_symop_operation_xyz
x,y,z
-x,1/2+y,-z
-x,-y,-z
x,1/2-y,z
loop_
_atom_site_type_symbol
_atom_site_label
_atom_site_fract_x
_atom_site_fract_y
_atom_site_fract_z
Si Si1 0.916781 0.554865 0.376616
Si Si2 0.663510 0.054669 0.624655
Si Si3 0.309790 0.553209 0.484972
Si Si4 0.837463 0.442776 0.874838
Si Si5 0.602283 0.557315 0.777171
Si Si6 0.546605 0.556745 0.224112
Si Si7 0.163047 0.945389 0.486539
Si Si8 0.589416 0.945211 0.126225
O O1 0.913309 0.750000 0.373613
O O2 0.753741 0.497570 0.249385
O O3 0.000000 0.500000 0.500000
O O4 0.013933 0.500255 0.397636
O O5 0.666806 0.250000 0.628247
O O6 0.719495 0.999749 0.604399
O O7 0.752751 0.994798 0.750558
O O8 0.500000 0.000000 0.500000
O O9 0.311476 0.750000 0.486103
O O10 0.466910 0.500638 0.631019
O O11 0.197910 0.501003 0.447316
O O12 0.836512 0.250000 0.872104
O O13 0.747515 0.495590 0.861713
O O14 0.000000 0.500000 0.000000
O O15 0.603044 0.750000 0.775771
O O16 0.565421 0.505774 0.814995
O O17 0.542307 0.750000 0.221654
O O18 0.703698 0.502543 0.369338
O O19 0.528767 0.500753 0.142542
O O20 0.165389 0.750000 0.489026
O O21 0.590996 0.750000 0.128323
O O22 0.500000 0.000000 0.000000
#
# Coordination Sequence:
#
# PCOD9159360 Si02
#       8
#     4   4   4   4   4   4   4   4
#     4  10  19  33  53  79 107 138 180 227 274 323
#     4  10  19  33  54  79 107 139 179 225 274 325
#     4   8  15  29  50  78 107 133 167 220 274 322
#     4  11  23  37  55  81 114 151 189 228 277 329
#     4  10  19  34  57  81 107 141 183 227 276 330
#     4  10  19  33  53  79 112 141 176 226 274 326
#     4   9  17  30  52  79 106 137 175 220 275 329
#     4  10  22  37  53  78 112 149 186 226 273 326
#
# _framework density 18.234503
#
# number of rings (size 3 to 8) (size 9 to 14) (size 15 to 20)
#    0.000    2.250    2.500    1.875    0.000    2.000 
#    0.000    1.250    0.000    3.000    0.000    0.000 
#    0.000    0.000    0.000    0.000    0.000    0.000 
#
# Total GULP energy -178479.789574 kJ/mol
# GULP energy per Si atom -5577.493424 kJ/mol
# Density = 1.819300 g / cm^3
# Si number density = 18.234503 Si / 1000 Ang^3
#
#
#
# Elastic Constant Matrix: (Units=GPa)
#
#
# Indices 1 2 3 4 5 6 
#
# 1 193.3483 25.2751 89.3777 0.0000 4.0409 0.0000
# 2 25.2751 19.7050 14.1556 0.0000 3.1518 0.0000
# 3 89.3777 14.1556 115.4116 0.0000 2.1249 0.0000
# 4 0.0000 0.0000 0.0000 20.8380 0.0000 1.3303
# 5 4.0409 3.1518 2.1249 0.0000 30.6707 0.0000
# 6 0.0000 0.0000 0.0000 1.3303 0.0000 23.0020
#
#
#
# Elastic Compliance Matrix: (Units=1/GPa)
#
#
# Indices 1 2 3 4 5 6 
#
# 1 0.008871 -0.007061 -0.006003 0.000000 -0.000027 0.000000
# 2 -0.007061 0.062131 -0.002054 0.000000 -0.005312 0.000000
# 3 -0.006003 -0.002054 0.013564 0.000000 0.000062 0.000000
# 4 0.000000 0.000000 0.000000 0.048167 0.000000 -0.002786
# 5 -0.000027 -0.005312 0.000062 0.000000 0.033150 0.000000
# 6 0.000000 0.000000 0.000000 -0.002786 0.000000 0.043636
#
#
# Mechanical properties :
#
#
# Convention : Reuss Voigt Hill
#
# Bulk Modulus (GPa) = 18.40640 65.12020 41.76330
# Shear Modulus (GPa) = 19.38994 28.21258 23.80126
#
# Velocity S-wave (km/s) = 3.26447 3.93772 3.61679
# Velocity P-wave (km/s) = 4.93206 7.51428 6.35569
#
# Compressibility (1/GPa) = 0.05432892
#
# Stress axis : x y z
#
# Youngs Moduli (GPa) = 112.73114 16.09494 73.72238
#
# Poissons Ratio (x) = 0.11365 0.44256
# Poissons Ratio (y) = 0.79604 0.15145
# Poissons Ratio (z) = 0.67673 0.03306
#
# Static dielectric constant tensor:
#      x y z
#    x 1.678430 0.000000 0.004390 
#    y 0.000000 1.627420 0.000000 
#    z 0.004390 0.000000 1.598250 
# 
# From -- ./inp_files/66122.got.cif
#   From: 2010.05.17/outbox.cif.g08.bks.cpg/sg11_34_cif.got.tgz:66122.got - 2010.06.03 12:22:45.
