data_PCOD9159400
_publ_section_title
;
Structure prediction by ZEFSAII (Michael W. Deem and Ramdas Pophale) SiO2 
 PCOD9159400
Probable space group: P 21/M
;
_chemical_formula_sum "Si O2"
_cell_formula_units_Z 32
_cell_length_a 24.956861
_cell_length_b 10.311447
_cell_length_c 24.418469
_cell_angle_alpha 90.000000
_cell_angle_beta 162.758028
_cell_angle_gamma 90.000000
_cell_volume 1862.591314
_symmetry_space_group_name_H-M "P 21/M"
_symmetry_group_IT_number 11
_symmetry_cell_setting 'monoclinic'
loop_
_space_group_symop_operation_xyz
x,y,z
-x,1/2+y,-z
-x,-y,-z
x,1/2-y,z
loop_
_atom_site_type_symbol
_atom_site_label
_atom_site_fract_x
_atom_site_fract_y
_atom_site_fract_z
Si Si1 0.804861 0.094550 0.450632
Si Si2 0.964755 0.906407 0.104975
Si Si3 0.389494 0.095534 0.038944
Si Si4 0.726494 0.402351 0.676714
Si Si5 0.702242 0.597964 0.751239
Si Si6 0.298921 0.479871 0.827242
Si Si7 0.075050 0.407060 0.810609
Si Si8 0.048258 0.386773 0.489288
O O1 0.817536 0.250000 0.451592
O O2 0.595991 0.052745 0.247291
O O3 0.902198 0.069701 0.603397
O O4 0.903860 0.009832 0.501263
O O5 0.967236 0.750000 0.111864
O O6 0.944025 0.957496 0.146296
O O7 0.148073 0.940974 0.251872
O O8 0.801339 0.938100 0.904316
O O9 0.392809 0.250000 0.049201
O O10 0.323625 0.068953 0.913146
O O11 0.248963 0.043115 0.946622
O O12 0.764470 0.250000 0.727342
O O13 0.760743 0.499501 0.760537
O O14 0.514413 0.411052 0.455529
O O15 0.745888 0.750000 0.781435
O O16 0.183505 0.391929 0.672953
O O17 0.160191 0.600585 0.695645
O O18 0.500000 0.500000 0.000000
O O19 0.092309 0.250000 0.830672
O O20 0.074787 0.250000 0.485691
#
# Coordination Sequence:
#
# PCOD9159400 Si02
#       8
#     4   4   4   4   4   4   4   4
#     4  10  20  36  57  78 103 137 173 212 260 312
#     4   9  17  29  47  73 102 132 169 212 253 295
#     4  10  19  33  54  77 102 134 173 214 259 313
#     4   9  17  29  47  73 103 132 165 207 253 300
#     4   9  17  29  47  72 103 134 166 205 250 299
#     4  11  22  38  54  78 108 142 171 211 264 325
#     4   9  18  32  51  75 102 132 172 219 257 297
#     4  11  24  37  56  84 110 136 171 216 264 318
#
# _framework density 17.180364999999998
#
# number of rings (size 3 to 8) (size 9 to 14) (size 15 to 20)
#    0.000    2.250    2.500    0.750    0.000    4.000 
#    0.000    5.000    0.000    1.500    0.000    1.750 
#    0.000    0.000    0.000    0.000    0.000    0.000 
#
# Total GULP energy -178210.939290 kJ/mol
# GULP energy per Si atom -5569.091853 kJ/mol
# Density = 1.714126 g / cm^3
# Si number density = 17.180365 Si / 1000 Ang^3
#
#
#
# Elastic Constant Matrix: (Units=GPa)
#
#
# Indices 1 2 3 4 5 6 
#
# 1 144.3572 27.6456 68.7017 0.0000 -9.1801 0.0000
# 2 27.6456 37.4290 25.6768 0.0000 -6.0637 0.0000
# 3 68.7017 25.6768 121.4395 0.0000 8.9372 0.0000
# 4 0.0000 0.0000 0.0000 -1.0016 0.0000 3.0665
# 5 -9.1801 -6.0637 8.9372 0.0000 14.4800 0.0000
# 6 0.0000 0.0000 0.0000 3.0665 0.0000 14.2255
#
#
#
# Elastic Compliance Matrix: (Units=1/GPa)
#
#
# Indices 1 2 3 4 5 6 
#
# 1 0.011118 -0.001998 -0.006626 0.000000 0.010302 0.000000
# 2 -0.001998 0.036824 -0.008064 0.000000 0.019131 0.000000
# 3 -0.006626 -0.008064 0.014923 0.000000 -0.016788 0.000000
# 4 0.000000 0.000000 0.000000 -0.601466 0.000000 0.129655
# 5 0.010302 0.019131 -0.016788 0.000000 0.093965 0.000000
# 6 0.000000 0.000000 0.000000 0.129655 0.000000 0.042347
#
#
# Mechanical properties :
#
#
# Convention : Reuss Voigt Hill
#
# Bulk Modulus (GPa) = 33.90830 60.80819 47.35825
# Shear Modulus (GPa) = -13.92434 17.62089 1.84827
#
# Velocity S-wave (km/s) = -2.84998 3.20604 1.03834
# Velocity P-wave (km/s) = 2.99160 7.01254 5.39098
#
# Compressibility (1/GPa) = 0.02949130
#
# Stress axis : x y z
#
# Youngs Moduli (GPa) = 89.94272 27.15620 67.00951
#
# Poissons Ratio (x) = 0.05426 0.44398
# Poissons Ratio (y) = 0.17970 0.54034
# Poissons Ratio (z) = 0.59592 0.21898
#
# Static dielectric constant tensor:
#      x y z
#    x 1.583280 0.000000 0.021040 
#    y 0.000000 1.593460 0.000000 
#    z 0.021040 0.000000 1.605660 
# 
# From -- ./inp_files/66561.got.cif
#   From: 2010.05.17/outbox.cif.g08.bks.cpg/sg11_34_cif.got.tgz:66561.got - 2010.06.03 12:22:45.
