data_PCOD9159105
_publ_section_title
;
Structure prediction by ZEFSAII (Michael W. Deem and Ramdas Pophale) SiO2 
 PCOD9159105
Probable space group: P 21/M
;
_chemical_formula_sum "Si O2"
_cell_formula_units_Z 28
_cell_length_a 13.593722
_cell_length_b 7.957652
_cell_length_c 20.033654
_cell_angle_alpha 90.000000
_cell_angle_beta 36.331203
_cell_angle_gamma 90.000000
_cell_volume 1283.916152
_symmetry_space_group_name_H-M "P 21/M"
_symmetry_group_IT_number 11
_symmetry_cell_setting 'monoclinic'
loop_
_space_group_symop_operation_xyz
x,y,z
-x,1/2+y,-z
-x,-y,-z
x,1/2-y,z
loop_
_atom_site_type_symbol
_atom_site_label
_atom_site_fract_x
_atom_site_fract_y
_atom_site_fract_z
Si Si1 0.140312 0.952380 0.476026
Si Si2 0.496177 0.052835 0.714120
Si Si3 0.928097 0.955700 0.714307
Si Si4 0.721075 0.446611 0.053513
Si Si5 0.439833 0.047519 0.106655
Si Si6 0.028765 0.550674 0.805567
Si Si7 0.596942 0.048159 0.380135
O O1 0.151579 0.750000 0.471608
O O2 0.324966 0.017114 0.359885
O O3 0.074053 0.008372 0.584723
O O4 0.000000 0.000000 0.500000
O O5 0.488543 0.250000 0.733164
O O6 0.343049 0.971046 0.836621
O O7 0.485010 0.026202 0.641307
O O8 0.924759 0.750000 0.716633
O O9 0.749811 0.012731 0.783555
O O10 0.956647 0.014672 0.774390
O O11 0.735888 0.250000 0.031472
O O12 0.573080 0.517514 0.087250
O O13 0.895738 0.522636 0.936406
O O14 0.436388 0.250000 0.114251
O O15 0.500000 0.000000 0.000000
O O16 0.047050 0.750000 0.786472
O O17 0.212742 0.485253 0.719229
O O18 0.596637 0.250000 0.373838
O O19 0.500000 0.000000 0.500000
#
# Coordination Sequence:
#
# PCOD9159105 Si02
#       7
#     4   4   4   4   4   4   4
#     4  10  21  38  60  87 119 157 201 247 301 364
#     4  11  24  42  64  89 123 166 206 250 308 371
#     4   9  17  33  57  82 114 153 192 239 294 354
#     4  11  23  38  59  91 126 160 204 256 307 364
#     4  10  19  32  54  83 119 159 196 240 295 356
#     4  10  21  39  63  88 117 158 203 249 305 365
#     4  11  24  43  68  95 123 157 203 256 309 367
#
# _framework density 21.808277
#
# number of rings (size 3 to 8) (size 9 to 14) (size 15 to 20)
#    0.000    1.714    1.429    3.000    0.000    6.857 
#    0.000    1.429    0.000    0.000    0.000    0.000 
#    0.000    0.000    0.000    0.000    0.000    0.000 
#
# Total GULP energy -156503.903951 kJ/mol
# GULP energy per Si atom -5589.425141 kJ/mol
# Density = 2.175864 g / cm^3
# Si number density = 21.808277 Si / 1000 Ang^3
#
#
#
# Elastic Constant Matrix: (Units=GPa)
#
#
# Indices 1 2 3 4 5 6 
#
# 1 72.2239 -8.2965 30.1119 0.0000 -10.4259 0.0000
# 2 -8.2965 17.7300 -11.1138 0.0000 -9.9151 0.0000
# 3 30.1119 -11.1138 136.0782 0.0000 -12.1634 0.0000
# 4 0.0000 0.0000 0.0000 20.8532 0.0000 7.2645
# 5 -10.4259 -9.9151 -12.1634 0.0000 42.0423 0.0000
# 6 0.0000 0.0000 0.0000 7.2645 0.0000 20.5128
#
#
#
# Elastic Compliance Matrix: (Units=1/GPa)
#
#
# Indices 1 2 3 4 5 6 
#
# 1 0.016773 0.009518 -0.002425 0.000000 0.005703 0.000000
# 2 0.009518 0.077257 0.006204 0.000000 0.022375 0.000000
# 3 -0.002425 0.006204 0.008694 0.000000 0.003377 0.000000
# 4 0.000000 0.000000 0.000000 0.054703 0.000000 -0.019373
# 5 0.005703 0.022375 0.003377 0.000000 0.031454 0.000000
# 6 0.000000 0.000000 0.000000 -0.019373 0.000000 0.055611
#
#
# Mechanical properties :
#
#
# Convention : Reuss Voigt Hill
#
# Bulk Modulus (GPa) = 7.73288 27.49283 17.61285
# Shear Modulus (GPa) = 19.15688 31.03703 25.09695
#
# Velocity S-wave (km/s) = 2.96703 3.77659 3.39602
# Velocity P-wave (km/s) = 3.91041 5.62591 4.84469
#
# Compressibility (1/GPa) = 0.12931791
#
# Stress axis : x y z
#
# Youngs Moduli (GPa) = 59.61867 12.94387 115.02541
#
# Poissons Ratio (x) = -0.12320 0.27888
# Poissons Ratio (y) = -0.56746 -0.71356
# Poissons Ratio (z) = 0.14455 -0.08030
#
# Static dielectric constant tensor:
#      x y z
#    x 1.801920 0.000000 -0.019720 
#    y 0.000000 1.780110 0.000000 
#    z -0.019720 0.000000 1.783930 
# 
# From -- ./inp_files/37475.got.cif
#   From: 2010.05.17/outbox.cif.g08.bks.cpg/sg11_19_cif.got.tgz:37475.got - 2010.06.03 12:22:45.
