data_PCOD9159274
_publ_section_title
;
Structure prediction by ZEFSAII (Michael W. Deem and Ramdas Pophale) SiO2 
 PCOD9159274
Probable space group: P 21/M
;
_chemical_formula_sum "Si O2"
_cell_formula_units_Z 20
_cell_length_a 10.588388
_cell_length_b 7.748556
_cell_length_c 11.796521
_cell_angle_alpha 90.000000
_cell_angle_beta 89.936021
_cell_angle_gamma 90.000000
_cell_volume 967.841628
_symmetry_space_group_name_H-M "P 21/M"
_symmetry_group_IT_number 11
_symmetry_cell_setting 'monoclinic'
loop_
_space_group_symop_operation_xyz
x,y,z
-x,1/2+y,-z
-x,-y,-z
x,1/2-y,z
loop_
_atom_site_type_symbol
_atom_site_label
_atom_site_fract_x
_atom_site_fract_y
_atom_site_fract_z
Si Si1 0.016846 0.542837 0.630106
Si Si2 0.231759 0.043959 0.246274
Si Si3 0.149783 0.544424 0.998833
Si Si4 0.514381 0.958154 0.633090
Si Si5 0.262836 0.961598 0.760583
O O1 0.017982 0.750000 0.643785
O O2 0.897167 0.473422 0.699221
O O3 0.000000 0.500000 0.500000
O O4 0.149420 0.480994 0.678862
O O5 0.232061 0.250000 0.264381
O O6 0.355708 0.976450 0.310347
O O7 0.219733 0.014894 0.112470
O O8 0.154942 0.750000 0.995713
O O9 0.221718 0.480425 0.886149
O O10 0.000000 0.500000 0.000000
O O11 0.515172 0.750000 0.640445
O O12 0.395144 0.019805 0.707613
O O13 0.500000 0.000000 0.500000
O O14 0.265986 0.750000 0.762165
#
# Coordination Sequence:
#
# PCOD9159274 Si02
#       5
#     4   4   4   4   4
#     4  10  19  33  52  76 108 142 183 230 274 325
#     4  10  21  37  56  82 115 148 184 233 284 328
#     4  11  21  37  60  84 113 148 189 234 282 337
#     4  10  21  38  59  82 115 152 186 229 280 334
#     4   9  19  36  56  78 111 150 181 224 284 331
#
# _framework density 20.664539000000001
#
# number of rings (size 3 to 8) (size 9 to 14) (size 15 to 20)
#    0.000    2.000    2.000    1.800    0.000    2.400 
#    0.000    2.000    0.000    0.000    0.000    0.000 
#    0.000    0.000    0.000    0.000    0.000    0.000 
#
# Total GULP energy -111685.417169 kJ/mol
# GULP energy per Si atom -5584.270858 kJ/mol
# Density = 2.061751 g / cm^3
# Si number density = 20.664539 Si / 1000 Ang^3
#
#
#
# Elastic Constant Matrix: (Units=GPa)
#
#
# Indices 1 2 3 4 5 6 
#
# 1 98.3120 12.6045 8.9660 0.0000 10.4773 0.0000
# 2 12.6045 25.4833 -14.1942 0.0000 -1.0238 0.0000
# 3 8.9660 -14.1942 89.9379 0.0000 8.8067 0.0000
# 4 0.0000 0.0000 0.0000 32.3573 0.0000 4.4816
# 5 10.4773 -1.0238 8.8067 0.0000 42.4660 0.0000
# 6 0.0000 0.0000 0.0000 4.4816 0.0000 3.8198
#
#
#
# Elastic Compliance Matrix: (Units=1/GPa)
#
#
# Indices 1 2 3 4 5 6 
#
# 1 0.011514 -0.006904 -0.001983 0.000000 -0.002596 0.000000
# 2 -0.006904 0.047169 0.008017 0.000000 0.001178 0.000000
# 3 -0.001983 0.008017 0.012774 0.000000 -0.001967 0.000000
# 4 0.000000 0.000000 0.000000 0.036901 0.000000 -0.043294
# 5 -0.002596 0.001178 -0.001967 0.000000 0.024625 0.000000
# 6 0.000000 0.000000 0.000000 -0.043294 0.000000 0.312586
#
#
# Mechanical properties :
#
#
# Convention : Reuss Voigt Hill
#
# Bulk Modulus (GPa) = 14.34361 25.38733 19.86547
# Shear Modulus (GPa) = 10.62587 29.48575 20.05581
#
# Velocity S-wave (km/s) = 2.27008 3.78150 3.11873
# Velocity P-wave (km/s) = 3.71850 5.60165 4.75424
#
# Compressibility (1/GPa) = 0.06971743
#
# Stress axis : x y z
#
# Youngs Moduli (GPa) = 86.84754 21.20026 78.28174
#
# Poissons Ratio (x) = 0.14637 0.15526
# Poissons Ratio (y) = 0.59962 -0.62761
# Poissons Ratio (z) = 0.17225 -0.16997
#
# Static dielectric constant tensor:
#      x y z
#    x 1.736240 0.000000 0.003090 
#    y 0.000000 1.766070 0.000000 
#    z 0.003090 0.000000 1.765100 
# 
# From -- ./inp_files/15871.got.cif
#   From: 2010.05.17/outbox.cif.g08.bks.cpg/sg11_8_cif.got.tgz:15871.got - 2010.06.03 12:22:45.
