data_PCOD9159798
_publ_section_title
;
Structure prediction by ZEFSAII (Michael W. Deem and Ramdas Pophale) SiO2 
 PCOD9159798
Probable space group: P 21/M
;
_chemical_formula_sum "Si O2"
_cell_formula_units_Z 28
_cell_length_a 9.525552
_cell_length_b 8.565177
_cell_length_c 30.681210
_cell_angle_alpha 90.000000
_cell_angle_beta 38.266440
_cell_angle_gamma 90.000000
_cell_volume 1550.292198
_symmetry_space_group_name_H-M "P 21/M"
_symmetry_group_IT_number 11
_symmetry_cell_setting 'monoclinic'
loop_
_space_group_symop_operation_xyz
x,y,z
-x,1/2+y,-z
-x,-y,-z
x,1/2-y,z
loop_
_atom_site_type_symbol
_atom_site_label
_atom_site_fract_x
_atom_site_fract_y
_atom_site_fract_z
Si Si1 0.967244 0.430957 0.782674
Si Si2 0.425271 0.937753 0.064758
Si Si3 0.661419 0.560053 0.371067
Si Si4 0.995894 0.440306 0.635597
Si Si5 0.252516 0.565462 0.938146
Si Si6 0.606491 0.430851 0.790398
Si Si7 0.847023 0.562472 0.498172
O O1 0.015112 0.250000 0.781815
O O2 0.821113 0.498124 0.858167
O O3 0.790210 0.431582 0.785213
O O4 0.197160 0.496828 0.705902
O O5 0.415734 0.750000 0.066442
O O6 0.606921 0.989297 0.056595
O O7 0.500000 0.000000 0.000000
O O8 0.657974 0.750000 0.370857
O O9 0.409298 0.496935 0.434579
O O10 0.806976 0.513521 0.378351
O O11 0.989302 0.250000 0.638204
O O12 0.752210 0.491645 0.714025
O O13 0.054405 0.490441 0.572704
O O14 0.249660 0.750000 0.944537
O O15 0.390193 0.522506 0.860616
O O16 0.000000 0.500000 0.000000
O O17 0.542243 0.250000 0.798804
O O18 0.848590 0.750000 0.498140
O O19 0.000000 0.500000 0.500000
#
# Coordination Sequence:
#
# PCOD9159798 Si02
#       7
#     4   4   4   4   4   4   4
#     4   7  13  27  50  74  98 127 162 201 250 303
#     4  10  19  34  54  78 106 139 175 213 254 304
#     4   9  16  32  56  78  96 124 165 209 250 297
#     4   8  16  32  56  78  98 127 167 207 252 306
#     4  11  21  34  52  77 106 138 172 212 259 309
#     4   8  14  30  53  75  97 127 166 211 254 300
#     4  11  22  35  49  72 104 138 168 201 247 301
#
# _framework density 18.061111
#
# number of rings (size 3 to 8) (size 9 to 14) (size 15 to 20)
#    0.000    2.857    0.000    5.143    0.000    0.000 
#    0.000   10.714    0.000    3.429    0.000    0.000 
#    0.000    0.000    0.000    0.000    0.000    0.000 
#
# Total GULP energy -155988.535935 kJ/mol
# GULP energy per Si atom -5571.019141 kJ/mol
# Density = 1.802000 g / cm^3
# Si number density = 18.061111 Si / 1000 Ang^3
#
#
#
# Elastic Constant Matrix: (Units=GPa)
#
#
# Indices 1 2 3 4 5 6 
#
# 1 67.3707 18.9617 81.2515 0.0000 6.2511 0.0000
# 2 18.9617 45.2081 38.6533 0.0000 1.5863 0.0000
# 3 81.2515 38.6533 219.2472 0.0000 12.7592 0.0000
# 4 0.0000 0.0000 0.0000 30.3683 0.0000 -1.3493
# 5 6.2511 1.5863 12.7592 0.0000 25.5015 0.0000
# 6 0.0000 0.0000 0.0000 -1.3493 0.0000 22.0160
#
#
#
# Elastic Compliance Matrix: (Units=1/GPa)
#
#
# Indices 1 2 3 4 5 6 
#
# 1 0.027326 -0.003331 -0.009436 0.000000 -0.001770 0.000000
# 2 -0.003331 0.026464 -0.003484 0.000000 0.000914 0.000000
# 3 -0.009436 -0.003484 0.008781 0.000000 -0.001863 0.000000
# 4 0.000000 0.000000 0.000000 0.033019 0.000000 0.002024
# 5 -0.001770 0.000914 -0.001863 0.000000 0.040523 0.000000
# 6 0.000000 0.000000 0.000000 0.002024 0.000000 0.045545
#
#
# Mechanical properties :
#
#
# Convention : Reuss Voigt Hill
#
# Bulk Modulus (GPa) = 33.25887 67.72879 50.49383
# Shear Modulus (GPa) = 22.30313 28.44113 25.37213
#
# Velocity S-wave (km/s) = 3.51788 3.97258 3.75212
# Velocity P-wave (km/s) = 5.91230 7.65657 6.84026
#
# Compressibility (1/GPa) = 0.03006716
#
# Stress axis : x y z
#
# Youngs Moduli (GPa) = 36.59560 37.78703 113.88340
#
# Poissons Ratio (x) = 0.12586 1.07466
# Poissons Ratio (y) = 0.12190 0.39681
# Poissons Ratio (z) = 0.34533 0.13166
#
# Static dielectric constant tensor:
#      x y z
#    x 1.589630 0.000000 0.017770 
#    y 0.000000 1.620870 0.000000 
#    z 0.017770 0.000000 1.663870 
# 
# From -- ./inp_files/28987.got.cif
#   From: 2010.05.17/outbox.cif.g08.bks.cpg/sg11_15_cif.got.tgz:28987.got - 2010.06.03 12:22:45.
