data_PCOD9159395
_publ_section_title
;
Structure prediction by ZEFSAII (Michael W. Deem and Ramdas Pophale) SiO2 
 PCOD9159395
Probable space group: P 21/M
;
_chemical_formula_sum "Si O2"
_cell_formula_units_Z 32
_cell_length_a 18.591474
_cell_length_b 15.447485
_cell_length_c 17.227982
_cell_angle_alpha 90.000000
_cell_angle_beta 157.920055
_cell_angle_gamma 90.000000
_cell_volume 1859.851466
_symmetry_space_group_name_H-M "P 21/M"
_symmetry_group_IT_number 11
_symmetry_cell_setting 'monoclinic'
loop_
_space_group_symop_operation_xyz
x,y,z
-x,1/2+y,-z
-x,-y,-z
x,1/2-y,z
loop_
_atom_site_type_symbol
_atom_site_label
_atom_site_fract_x
_atom_site_fract_y
_atom_site_fract_z
Si Si1 0.433596 0.347013 0.741160
Si Si2 0.767900 0.414054 0.971735
Si Si3 0.566404 0.347013 0.373967
Si Si4 0.553551 0.014538 0.142224
Si Si5 0.827867 0.151687 0.483525
Si Si6 0.172135 0.151687 0.327795
Si Si7 0.446450 0.014537 0.535123
Si Si8 0.767900 0.914052 0.064065
O O1 0.420937 0.250000 0.760651
O O2 0.406282 0.423189 0.775383
O O3 0.278042 0.356907 0.517025
O O4 0.637434 0.360553 0.901774
O O5 0.833540 0.500000 0.083541
O O6 0.949345 0.365291 0.119228
O O7 0.623769 0.443713 0.759727
O O8 0.579068 0.250000 0.418781
O O9 0.721956 0.356907 0.460936
O O10 0.593722 0.423189 0.462821
O O11 0.362564 0.360553 0.126905
O O12 0.730241 0.080141 0.331299
O O13 0.376234 0.056290 0.012191
O O14 0.500000 0.000000 0.000000
O O15 0.794422 0.250000 0.422508
O O16 0.050656 0.134710 0.720537
O O17 0.205579 0.250000 0.333667
O O18 0.269764 0.080142 0.370824
O O19 0.500000 0.000000 0.500000
#
# Coordination Sequence:
#
# PCOD9159395 Si02
#       8
#     4   4   4   4   4   4   4   4
#     4   9  18  33  53  75  98 130 172 213 251 292
#     4   9  17  32  54  75  98 129 168 211 252 294
#     4   9  18  33  53  75  98 130 172 213 251 292
#     4  10  21  34  50  75 108 138 163 200 251 306
#     4  10  19  33  54  76  98 129 172 214 249 290
#     4  10  19  33  54  76  98 129 172 214 249 290
#     4  10  21  34  50  75 108 138 163 200 251 306
#     4   9  17  32  54  75  98 129 168 211 252 294
#
# _framework density 17.205674999999999
#
# number of rings (size 3 to 8) (size 9 to 14) (size 15 to 20)
#    0.000    2.500    0.000    4.500    0.000    3.000 
#    0.000    0.000    0.000    6.000    0.000    0.000 
#    0.000    0.000    0.000    0.000    0.000    0.000 
#
# Total GULP energy -178469.144909 kJ/mol
# GULP energy per Si atom -5577.160778 kJ/mol
# Density = 1.716651 g / cm^3
# Si number density = 17.205675 Si / 1000 Ang^3
#
#
#
# Elastic Constant Matrix: (Units=GPa)
#
#
# Indices 1 2 3 4 5 6 
#
# 1 35.0668 27.5882 8.0006 0.0000 -9.7873 0.0000
# 2 27.5882 112.0571 23.7205 0.0000 -2.6285 0.0000
# 3 8.0006 23.7205 37.8102 0.0000 11.6487 0.0000
# 4 0.0000 0.0000 0.0000 18.7732 0.0000 4.7781
# 5 -9.7873 -2.6285 11.6487 0.0000 20.8949 0.0000
# 6 0.0000 0.0000 0.0000 4.7781 0.0000 11.7401
#
#
#
# Elastic Compliance Matrix: (Units=1/GPa)
#
#
# Indices 1 2 3 4 5 6 
#
# 1 0.045328 -0.007698 -0.013287 0.000000 0.027671 0.000000
# 2 -0.007698 0.012240 -0.006536 0.000000 0.001578 0.000000
# 3 -0.013287 -0.006536 0.042898 0.000000 -0.030961 0.000000
# 4 0.000000 0.000000 0.000000 0.059423 0.000000 -0.024185
# 5 0.027671 0.001578 -0.030961 0.000000 0.078279 0.000000
# 6 0.000000 0.000000 0.000000 -0.024185 0.000000 0.095021
#
#
# Mechanical properties :
#
#
# Convention : Reuss Voigt Hill
#
# Bulk Modulus (GPa) = 22.01456 33.72810 27.87133
# Shear Modulus (GPa) = 12.39552 18.65662 15.52607
#
# Velocity S-wave (km/s) = 2.68700 3.29649 3.00722
# Velocity P-wave (km/s) = 4.73807 5.84248 5.31902
#
# Compressibility (1/GPa) = 0.04542448
#
# Stress axis : x y z
#
# Youngs Moduli (GPa) = 22.06157 81.70086 23.31087
#
# Poissons Ratio (x) = 0.62893 0.30973
# Poissons Ratio (y) = 0.16983 0.15236
# Poissons Ratio (z) = 0.29313 0.53399
#
# Static dielectric constant tensor:
#      x y z
#    x 1.543710 0.000000 0.016610 
#    y 0.000000 1.614530 0.000000 
#    z 0.016610 0.000000 1.568130 
# 
# From -- ./inp_files/61629.got.cif
#   From: 2010.05.17/outbox.cif.g08.bks.cpg/sg11_31_cif.got.tgz:61629.got - 2010.06.03 12:22:45.
