data_PCOD9159095
_publ_section_title
;
Structure prediction by ZEFSAII (Michael W. Deem and Ramdas Pophale) SiO2 
 PCOD9159095
Probable space group: P 21/M
;
_chemical_formula_sum "Si O2"
_cell_formula_units_Z 30
_cell_length_a 15.396091
_cell_length_b 9.233032
_cell_length_c 9.467969
_cell_angle_alpha 90.000000
_cell_angle_beta 100.511575
_cell_angle_gamma 90.000000
_cell_volume 1323.309682
_symmetry_space_group_name_H-M "P 21/M"
_symmetry_group_IT_number 11
_symmetry_cell_setting 'monoclinic'
loop_
_space_group_symop_operation_xyz
x,y,z
-x,1/2+y,-z
-x,-y,-z
x,1/2-y,z
loop_
_atom_site_type_symbol
_atom_site_label
_atom_site_fract_x
_atom_site_fract_y
_atom_site_fract_z
Si Si1 0.364695 0.077648 0.414740
Si Si2 0.119146 0.915133 0.611266
Si Si3 0.722519 0.087515 0.025358
Si Si4 0.182885 0.421346 0.183904
Si Si5 0.294362 0.077007 0.689167
Si Si6 0.977430 0.415517 0.719097
Si Si7 0.456898 0.976876 0.179931
Si Si8 0.461420 0.250000 0.973461
O O1 0.381229 0.250000 0.414272
O O2 0.268461 0.054969 0.311143
O O3 0.355818 0.035107 0.575115
O O4 0.435743 0.998127 0.337641
O O5 0.149868 0.750000 0.646892
O O6 0.063146 0.907037 0.450890
O O7 0.196232 0.030293 0.608430
O O8 0.060717 0.978656 0.722193
O O9 0.758452 0.250000 0.043411
O O10 0.699808 0.019364 0.169033
O O11 0.630858 0.095579 0.912916
O O12 0.784996 0.979071 0.958158
O O13 0.164650 0.250000 0.177156
O O14 0.098504 0.511992 0.209126
O O15 0.295048 0.250000 0.717261
O O16 0.999154 0.250000 0.769458
O O17 0.462912 0.126074 0.097720
O O18 0.534334 0.874961 0.149846
#
# Coordination Sequence:
#
# PCOD9159095 Si02
#       8
#     4   4   4   4   4   4   4   2
#     4   9  18  34  57  85 116 144 194 235 278 328
#     4  10  20  34  52  80 114 155 195 239 294 339
#     4  11  23  39  56  85 120 153 191 233 289 340
#     4  10  19  34  58  84 111 149 194 249 289 335
#     4  11  22  37  58  82 116 158 193 237 285 347
#     4  10  19  32  54  82 115 149 194 248 291 339
#     4  10  20  38  63  93 113 153 181 239 273 337
#     4  10  20  36  66  92 118 140 192 226 284 330
#
# _framework density 22.67043
#
# number of rings (size 3 to 8) (size 9 to 14) (size 15 to 20)
#    0.000    1.867    2.667    2.000    1.867    1.067 
#    2.400    0.667    0.000    4.800    0.000    0.000 
#    0.000    0.000    0.000    0.000    0.000    0.000 
#
# Total GULP energy -167156.149936 kJ/mol
# GULP energy per Si atom -5571.871665 kJ/mol
# Density = 2.261883 g / cm^3
# Si number density = 22.670430 Si / 1000 Ang^3
#
#
#
# Elastic Constant Matrix: (Units=GPa)
#
#
# Indices 1 2 3 4 5 6 
#
# 1 35.2034 17.4586 13.0127 0.0000 -25.9352 0.0000
# 2 17.4586 134.1574 43.3309 0.0000 -30.5688 0.0000
# 3 13.0127 43.3309 145.3853 0.0000 -31.8919 0.0000
# 4 0.0000 0.0000 0.0000 -60.5878 0.0000 37.8393
# 5 -25.9352 -30.5688 -31.8919 0.0000 36.5917 0.0000
# 6 0.0000 0.0000 0.0000 37.8393 0.0000 -0.9643
#
#
#
# Elastic Compliance Matrix: (Units=1/GPa)
#
#
# Indices 1 2 3 4 5 6 
#
# 1 0.062646 0.001678 0.004872 0.000000 0.050050 0.000000
# 2 0.001678 0.009457 -0.001205 0.000000 0.008039 0.000000
# 3 0.004872 -0.001205 0.009073 0.000000 0.010353 0.000000
# 4 0.000000 0.000000 0.000000 0.000702 0.000000 0.027552
# 5 0.050050 0.008039 0.010353 0.000000 0.078542 0.000000
# 6 0.000000 0.000000 0.000000 0.027552 0.000000 0.044116
#
#
# Mechanical properties :
#
#
# Convention : Reuss Voigt Hill
#
# Bulk Modulus (GPa) = 10.88550 51.37227 31.12889
# Shear Modulus (GPa) = 22.27490 11.07085 16.67288
#
# Velocity S-wave (km/s) = 3.13797 2.21224 2.71485
# Velocity P-wave (km/s) = 4.23571 5.40694 4.85676
#
# Compressibility (1/GPa) = 0.09186530
#
# Stress axis : x y z
#
# Youngs Moduli (GPa) = 15.96259 105.74652 110.22248
#
# Poissons Ratio (x) = -0.17748 -0.53697
# Poissons Ratio (y) = -0.02679 0.13284
# Poissons Ratio (z) = -0.07776 0.12744
#
# Static dielectric constant tensor:
#      x y z
#    x 1.960990 0.000000 0.054110 
#    y 0.000000 1.785580 0.000000 
#    z 0.054110 0.000000 1.830280 
# 
# From -- ./inp_files/25816.got.cif
#   From: 2010.05.17/outbox.cif.g08.bks.cpg/sg11_13_cif.got.tgz:25816.got - 2010.06.03 12:22:45.
