data_PCOD9159968
_publ_section_title
;
Structure prediction by ZEFSAII (Michael W. Deem and Ramdas Pophale) SiO2 
 PCOD9159968
Probable space group: P 21/M
;
_chemical_formula_sum "Si O2"
_cell_formula_units_Z 32
_cell_length_a 8.814955
_cell_length_b 11.647099
_cell_length_c 19.213617
_cell_angle_alpha 90.000000
_cell_angle_beta 129.626571
_cell_angle_gamma 90.000000
_cell_volume 1519.359019
_symmetry_space_group_name_H-M "P 21/M"
_symmetry_group_IT_number 11
_symmetry_cell_setting 'monoclinic'
loop_
_space_group_symop_operation_xyz
x,y,z
-x,1/2+y,-z
-x,-y,-z
x,1/2-y,z
loop_
_atom_site_type_symbol
_atom_site_label
_atom_site_fract_x
_atom_site_fract_y
_atom_site_fract_z
Si Si1 0.176584 0.450626 0.776405
Si Si2 0.385700 0.879625 0.098665
Si Si3 0.442276 0.877228 0.349639
Si Si4 0.115135 0.620407 0.886862
Si Si5 0.797559 0.121259 0.588750
Si Si6 0.153518 0.386013 0.485963
Si Si7 0.258771 0.875955 0.675343
Si Si8 0.309204 0.049133 0.204369
O O1 0.380416 0.383901 0.846528
O O2 0.135682 0.529159 0.831301
O O3 0.220010 0.532689 0.723505
O O4 0.986347 0.380624 0.695668
O O5 0.332673 0.750000 0.105862
O O6 0.332448 0.973069 0.141647
O O7 0.267552 0.904715 0.993489
O O8 0.395813 0.750000 0.311941
O O9 0.393134 0.884713 0.416878
O O10 0.675907 0.896372 0.406252
O O11 0.309886 0.963874 0.269628
O O12 0.152881 0.750000 0.872193
O O13 0.894676 0.615479 0.853697
O O14 0.795106 0.250000 0.553625
O O15 0.809310 0.000719 0.550032
O O16 0.185673 0.250000 0.470133
O O17 0.919314 0.389420 0.432621
O O18 0.227665 0.750000 0.697041
O O19 0.487015 0.883509 0.722655
#
# Coordination Sequence:
#
# PCOD9159968 Si02
#       8
#     4   4   4   4   4   4   4   4
#     4  10  19  36  59  82 111 147 188 237 290 343
#     4  10  22  38  57  81 112 149 191 239 293 351
#     4  10  20  35  55  80 113 149 189 235 284 340
#     4  11  22  37  57  84 113 146 193 244 292 348
#     4  10  19  34  56  85 118 147 186 236 285 341
#     4   9  19  36  57  82 114 153 192 233 286 340
#     4   9  19  35  55  79 111 150 189 233 287 346
#     4  11  21  37  56  80 115 151 190 232 291 345
#
# _framework density 21.061510999999999
#
# number of rings (size 3 to 8) (size 9 to 14) (size 15 to 20)
#    0.000    2.000    1.250    2.625    0.000    1.000 
#    0.000    1.875    0.000    6.000    0.000    0.000 
#    0.000    0.000    0.000    0.000    0.000    0.000 
#
# Total GULP energy -178279.325914 kJ/mol
# GULP energy per Si atom -5571.228935 kJ/mol
# Density = 2.101357 g / cm^3
# Si number density = 21.061511 Si / 1000 Ang^3
#
#
#
# Elastic Constant Matrix: (Units=GPa)
#
#
# Indices 1 2 3 4 5 6 
#
# 1 53.5119 11.0816 12.3301 0.0000 11.3699 0.0000
# 2 11.0816 113.6698 26.7570 0.0000 -7.7760 0.0000
# 3 12.3301 26.7570 76.3584 0.0000 22.6897 0.0000
# 4 0.0000 0.0000 0.0000 36.3618 0.0000 0.6768
# 5 11.3699 -7.7760 22.6897 0.0000 31.7530 0.0000
# 6 0.0000 0.0000 0.0000 0.6768 0.0000 22.6515
#
#
#
# Elastic Compliance Matrix: (Units=1/GPa)
#
#
# Indices 1 2 3 4 5 6 
#
# 1 0.020956 -0.002576 -0.000081 0.000000 -0.008077 0.000000
# 2 -0.002576 0.010909 -0.005681 0.000000 0.007654 0.000000
# 3 -0.000081 -0.005681 0.019684 0.000000 -0.015428 0.000000
# 4 0.000000 0.000000 0.000000 0.027517 0.000000 -0.000822
# 5 -0.008077 0.007654 -0.015428 0.000000 0.047284 0.000000
# 6 0.000000 0.000000 0.000000 -0.000822 0.000000 0.044172
#
#
# Mechanical properties :
#
#
# Convention : Reuss Voigt Hill
#
# Bulk Modulus (GPa) = 28.67593 38.20860 33.44226
# Shear Modulus (GPa) = 25.14801 31.04470 28.09636
#
# Velocity S-wave (km/s) = 3.45922 3.84344 3.65638
# Velocity P-wave (km/s) = 5.44057 6.15442 5.80847
#
# Compressibility (1/GPa) = 0.03487245
#
# Stress axis : x y z
#
# Youngs Moduli (GPa) = 47.71962 91.66376 50.80186
#
# Poissons Ratio (x) = 0.23616 0.00412
# Poissons Ratio (y) = 0.12294 0.28861
# Poissons Ratio (z) = 0.00387 0.52075
#
# Static dielectric constant tensor:
#      x y z
#    x 1.776980 0.000000 0.021560 
#    y 0.000000 1.802290 0.000000 
#    z 0.021560 0.000000 1.745470 
# 
# From -- ./inp_files/21545.got.cif
#   From: 2010.05.17/outbox.cif.g08.bks.cpg/sg11_11_cif.got.tgz:21545.got - 2010.06.03 12:22:45.
