data_PCOD9159907
_publ_section_title
;
Structure prediction by ZEFSAII (Michael W. Deem and Ramdas Pophale) SiO2 
 PCOD9159907
Probable space group: P 21/M
;
_chemical_formula_sum "Si O2"
_cell_formula_units_Z 32
_cell_length_a 5.360323
_cell_length_b 28.508929
_cell_length_c 11.361870
_cell_angle_alpha 90.000000
_cell_angle_beta 98.743759
_cell_angle_gamma 90.000000
_cell_volume 1716.108653
_symmetry_space_group_name_H-M "P 21/M"
_symmetry_group_IT_number 11
_symmetry_cell_setting 'monoclinic'
loop_
_space_group_symop_operation_xyz
x,y,z
-x,1/2+y,-z
-x,-y,-z
x,1/2-y,z
loop_
_atom_site_type_symbol
_atom_site_label
_atom_site_fract_x
_atom_site_fract_y
_atom_site_fract_z
Si Si1 0.088735 0.604132 0.855378
Si Si2 0.247166 0.698088 0.978478
Si Si3 0.797049 0.802834 0.136761
Si Si4 0.737959 0.024425 0.809160
Si Si5 0.711419 0.966802 0.404327
Si Si6 0.127913 0.406146 0.790897
Si Si7 0.380161 0.440976 0.035910
Si Si8 0.039352 0.453461 0.352693
O O1 0.340876 0.574570 0.905675
O O2 0.838939 0.589705 0.912766
O O3 0.029031 0.594447 0.714519
O O4 0.167574 0.656941 0.886979
O O5 0.242170 0.750000 0.924574
O O6 0.528602 0.691020 0.050834
O O7 0.035824 0.697142 0.065886
O O8 0.789094 0.750000 0.190540
O O9 0.835495 0.850643 0.212765
O O10 0.537118 0.031041 0.691147
O O11 0.874946 0.074047 0.835197
O O12 0.668232 0.993804 0.918744
O O13 0.927301 0.988120 0.756593
O O14 0.869569 0.929483 0.337529
O O15 0.727888 0.951366 0.540555
O O16 0.823484 0.019493 0.408716
O O17 0.335001 0.429200 0.894791
#
# Coordination Sequence:
#
# PCOD9159907 Si02
#       8
#     4   4   4   4   4   4   4   4
#     4  11  19  36  56  79 108 143 177 228 269 320
#     4  10  19  34  56  80 106 138 176 222 276 328
#     4  10  21  36  55  80 110 142 175 219 272 335
#     4  10  21  34  51  79 108 152 183 229 267 318
#     4  10  20  35  53  73 107 147 191 222 259 318
#     4  11  22  33  52  81 110 144 178 227 273 332
#     4  11  22  34  53  80 115 145 175 216 278 331
#     4   9  20  36  52  74 104 147 194 222 264 309
#
# _framework density 18.646837000000001
#
# number of rings (size 3 to 8) (size 9 to 14) (size 15 to 20)
#    0.000    1.750    3.750    0.750    3.500    0.500 
#    0.000    0.000    0.000    0.750    0.000    0.000 
#    0.000    0.000    0.000    0.000    0.000    0.000 
#
# Total GULP energy -178283.246128 kJ/mol
# GULP energy per Si atom -5571.351442 kJ/mol
# Density = 1.860440 g / cm^3
# Si number density = 18.646837 Si / 1000 Ang^3
#
#
#
# Elastic Constant Matrix: (Units=GPa)
#
#
# Indices 1 2 3 4 5 6 
#
# 1 87.4630 13.6278 16.6807 0.0000 11.0335 0.0000
# 2 13.6278 138.6615 27.0644 0.0000 -2.9840 0.0000
# 3 16.6807 27.0644 83.8131 0.0000 -0.1088 0.0000
# 4 0.0000 0.0000 0.0000 95.0401 0.0000 -21.6831
# 5 11.0335 -2.9840 -0.1088 0.0000 20.8025 0.0000
# 6 0.0000 0.0000 0.0000 -21.6831 0.0000 33.3085
#
#
#
# Elastic Compliance Matrix: (Units=1/GPa)
#
#
# Indices 1 2 3 4 5 6 
#
# 1 0.012899 -0.000977 -0.002261 0.000000 -0.006994 0.000000
# 2 -0.000977 0.007796 -0.002321 0.000000 0.001624 0.000000
# 3 -0.002261 -0.002321 0.013132 0.000000 0.000935 0.000000
# 4 0.000000 0.000000 0.000000 0.012357 0.000000 0.008044
# 5 -0.006994 0.001624 0.000935 0.000000 0.052018 0.000000
# 6 0.000000 0.000000 0.000000 0.008044 0.000000 0.035259
#
#
# Mechanical properties :
#
#
# Convention : Reuss Voigt Hill
#
# Bulk Modulus (GPa) = 44.03434 47.18704 45.61069
# Shear Modulus (GPa) = 32.86267 46.66787 39.76527
#
# Velocity S-wave (km/s) = 4.20262 5.00815 4.62296
# Velocity P-wave (km/s) = 6.87135 7.66829 7.28073
#
# Compressibility (1/GPa) = 0.02270955
#
# Stress axis : x y z
#
# Youngs Moduli (GPa) = 77.52517 128.27482 76.15045
#
# Poissons Ratio (x) = 0.12532 0.17216
# Poissons Ratio (y) = 0.07574 0.17673
# Poissons Ratio (z) = 0.17527 0.29770
#
# Static dielectric constant tensor:
#      x y z
#    x 1.778110 0.000000 -0.024910 
#    y 0.000000 1.684120 0.000000 
#    z -0.024910 0.000000 1.681090 
# 
# From -- ./inp_files/5708.got.cif
#   From: 2010.05.17/outbox.cif.g08.bks.cpg/sg11_3_cif.got.tgz:5708.got - 2010.06.03 12:22:45.
