data_PCOD9159936
_publ_section_title
;
Structure prediction by ZEFSAII (Michael W. Deem and Ramdas Pophale) SiO2 
 PCOD9159936
Probable space group: P 21/M
;
_chemical_formula_sum "Si O2"
_cell_formula_units_Z 24
_cell_length_a 9.136534
_cell_length_b 16.348217
_cell_length_c 16.415433
_cell_angle_alpha 90.000000
_cell_angle_beta 24.355198
_cell_angle_gamma 90.000000
_cell_volume 1011.147833
_symmetry_space_group_name_H-M "P 21/M"
_symmetry_group_IT_number 11
_symmetry_cell_setting 'monoclinic'
loop_
_space_group_symop_operation_xyz
x,y,z
-x,1/2+y,-z
-x,-y,-z
x,1/2-y,z
loop_
_atom_site_type_symbol
_atom_site_label
_atom_site_fract_x
_atom_site_fract_y
_atom_site_fract_z
Si Si1 0.653120 0.409389 0.419346
Si Si2 0.363028 0.658583 0.401159
Si Si3 0.526787 0.616672 0.830551
Si Si4 0.404618 0.343807 0.035392
Si Si5 0.592516 0.655515 0.628030
Si Si6 0.678439 0.427656 0.738020
O O1 0.500000 0.500000 0.500000
O O2 0.515485 0.365119 0.570437
O O3 0.575376 0.364384 0.373815
O O4 0.078329 0.406413 0.210199
O O5 0.467196 0.750000 0.327528
O O6 0.473957 0.599853 0.271647
O O7 0.929307 0.653849 0.624313
O O8 0.369809 0.646299 0.996082
O O9 0.364549 0.644636 0.826496
O O10 0.562087 0.519133 0.814992
O O11 0.277193 0.250000 0.096468
O O12 0.583643 0.368245 0.860605
O O13 0.721450 0.750000 0.561700
O O14 0.898668 0.586653 0.482592
#
# Coordination Sequence:
#
# PCOD9159936 Si02
#       6
#     4   4   4   4   4   4
#     4  11  22  38  58  81 110 147 189 232 276 331
#     4  10  19  36  58  82 113 155 191 223 273 342
#     4  10  19  34  56  82 111 147 187 228 272 329
#     4  11  22  39  58  82 115 153 185 224 283 344
#     4  11  20  35  58  85 110 143 189 237 274 320
#     4  11  21  36  59  86 113 145 186 234 279 328
#
# _framework density 23.735403999999999
#
# number of rings (size 3 to 8) (size 9 to 14) (size 15 to 20)
#    0.000    1.333    0.000   12.000    0.000    0.000 
#    0.000    5.000    0.000    0.000    0.000    0.000 
#    0.000    0.000    0.000    0.000    0.000    0.000 
#
# Total GULP energy -134138.105242 kJ/mol
# GULP energy per Si atom -5589.087718 kJ/mol
# Density = 2.368138 g / cm^3
# Si number density = 23.735404 Si / 1000 Ang^3
#
#
#
# Elastic Constant Matrix: (Units=GPa)
#
#
# Indices 1 2 3 4 5 6 
#
# 1 144.2048 27.5146 35.3589 0.0000 57.0532 0.0000
# 2 27.5146 120.4584 -0.9826 0.0000 15.5402 0.0000
# 3 35.3589 -0.9826 52.5247 0.0000 27.5658 0.0000
# 4 0.0000 0.0000 0.0000 30.4703 0.0000 10.7271
# 5 57.0532 15.5402 27.5658 0.0000 48.0604 0.0000
# 6 0.0000 0.0000 0.0000 10.7271 0.0000 31.2011
#
#
#
# Elastic Compliance Matrix: (Units=1/GPa)
#
#
# Indices 1 2 3 4 5 6 
#
# 1 0.013256 -0.001149 -0.001261 0.000000 -0.014641 0.000000
# 2 -0.001149 0.008968 0.002500 0.000000 -0.002969 0.000000
# 3 -0.001261 0.002500 0.028002 0.000000 -0.015372 0.000000
# 4 0.000000 0.000000 0.000000 0.037338 0.000000 -0.012837
# 5 -0.014641 -0.002969 -0.015372 0.000000 0.047965 0.000000
# 6 0.000000 0.000000 0.000000 -0.012837 0.000000 0.036464
#
#
# Mechanical properties :
#
#
# Convention : Reuss Voigt Hill
#
# Bulk Modulus (GPa) = 19.83997 48.99667 34.41832
# Shear Modulus (GPa) = 26.50911 38.96615 32.73763
#
# Velocity S-wave (km/s) = 3.34557 4.05617 3.71789
# Velocity P-wave (km/s) = 4.82708 6.52874 5.74130
#
# Compressibility (1/GPa) = 0.05040331
#
# Stress axis : x y z
#
# Youngs Moduli (GPa) = 75.43926 111.51320 35.71192
#
# Poissons Ratio (x) = 0.12816 0.04504
# Poissons Ratio (y) = 0.08670 -0.08927
# Poissons Ratio (z) = 0.09515 -0.27874
#
# Static dielectric constant tensor:
#      x y z
#    x 2.006200 0.000000 0.041810 
#    y 0.000000 1.861770 0.000000 
#    z 0.041810 0.000000 1.983150 
# 
# From -- ./inp_files/22329.got.cif
#   From: 2010.05.17/outbox.cif.g08.bks.cpg/sg11_12_cif.got.tgz:22329.got - 2010.06.03 12:22:45.
