data_PCOD9159928
_publ_section_title
;
Structure prediction by ZEFSAII (Michael W. Deem and Ramdas Pophale) SiO2 
 PCOD9159928
Probable space group: P 21/M
;
_chemical_formula_sum "Si O2"
_cell_formula_units_Z 32
_cell_length_a 14.711736
_cell_length_b 8.564258
_cell_length_c 12.784246
_cell_angle_alpha 90.000000
_cell_angle_beta 90.018942
_cell_angle_gamma 90.000000
_cell_volume 1610.752300
_symmetry_space_group_name_H-M "P 21/M"
_symmetry_group_IT_number 11
_symmetry_cell_setting 'monoclinic'
loop_
_space_group_symop_operation_xyz
x,y,z
-x,1/2+y,-z
-x,-y,-z
x,1/2-y,z
loop_
_atom_site_type_symbol
_atom_site_label
_atom_site_fract_x
_atom_site_fract_y
_atom_site_fract_z
Si Si1 0.766053 0.063178 0.675973
Si Si2 0.967911 0.061026 0.613241
Si Si3 0.279239 0.070005 0.533315
Si Si4 0.491693 0.932808 0.831858
Si Si5 0.476165 0.429814 0.611975
Si Si6 0.850128 0.940321 0.289447
Si Si7 0.320629 0.563411 0.105951
Si Si8 0.292253 0.063201 0.885729
O O1 0.769336 0.250000 0.683174
O O2 0.867900 0.006374 0.648059
O O3 0.724704 0.006933 0.785415
O O4 0.706826 0.018707 0.574766
O O5 0.965759 0.250000 0.607211
O O6 0.044737 0.016223 0.698660
O O7 0.000000 0.000000 0.500000
O O8 0.260261 0.250000 0.505968
O O9 0.366548 0.069484 0.608005
O O10 0.198111 0.004333 0.603465
O O11 0.497066 0.750000 0.853641
O O12 0.508238 0.969361 0.709318
O O13 0.572676 0.019532 0.892022
O O14 0.390669 0.993499 0.856081
O O15 0.500000 0.500000 0.500000
O O16 0.506739 0.250000 0.623333
O O17 0.845640 0.750000 0.290561
O O18 0.788409 0.991157 0.191934
O O19 0.312472 0.750000 0.099480
O O20 0.275395 0.486789 0.004826
O O21 0.298968 0.250000 0.877590
#
# Coordination Sequence:
#
# PCOD9159928 Si02
#       8
#     4   4   4   4   4   4   4   4
#     4  10  22  37  57  86 120 153 190 239 292 342
#     4  10  19  35  59  88 117 151 189 231 286 346
#     4  10  19  34  56  81 113 152 188 229 284 346
#     4  12  24  39  60  87 115 153 199 243 292 350
#     4  11  22  36  53  80 118 157 197 240 290 348
#     4   9  18  35  59  85 114 148 185 232 288 343
#     4  11  24  42  59  82 118 157 196 244 294 343
#     4  11  22  41  64  86 114 153 200 244 289 345
#
# _framework density 19.866493999999999
#
# number of rings (size 3 to 8) (size 9 to 14) (size 15 to 20)
#    0.000    1.500    2.500    3.375    0.000    4.000 
#    0.000    1.875    0.000    0.000    0.000    0.000 
#    0.000    0.000    0.000    0.000    0.000    0.000 
#
# Total GULP energy -178742.186707 kJ/mol
# GULP energy per Si atom -5585.693335 kJ/mol
# Density = 1.982128 g / cm^3
# Si number density = 19.866494 Si / 1000 Ang^3
#
#
#
# Elastic Constant Matrix: (Units=GPa)
#
#
# Indices 1 2 3 4 5 6 
#
# 1 80.7679 5.0505 27.5333 0.0000 11.5659 0.0000
# 2 5.0505 27.6030 -0.9042 0.0000 -2.5983 0.0000
# 3 27.5333 -0.9042 112.8027 0.0000 12.5248 0.0000
# 4 0.0000 0.0000 0.0000 32.0805 0.0000 0.0129
# 5 11.5659 -2.5983 12.5248 0.0000 27.3520 0.0000
# 6 0.0000 0.0000 0.0000 0.0129 0.0000 17.0203
#
#
#
# Elastic Compliance Matrix: (Units=1/GPa)
#
#
# Indices 1 2 3 4 5 6 
#
# 1 0.014306 -0.003185 -0.002963 0.000000 -0.004995 0.000000
# 2 -0.003185 0.037265 0.000562 0.000000 0.004629 0.000000
# 3 -0.002963 0.000562 0.009954 0.000000 -0.003252 0.000000
# 4 0.000000 0.000000 0.000000 0.031172 0.000000 -0.000024
# 5 -0.004995 0.004629 -0.003252 0.000000 0.040601 0.000000
# 6 0.000000 0.000000 0.000000 -0.000024 0.000000 0.058753
#
#
# Mechanical properties :
#
#
# Convention : Reuss Voigt Hill
#
# Bulk Modulus (GPa) = 19.85961 31.61475 25.73718
# Shear Modulus (GPa) = 22.72669 27.92349 25.32509
#
# Velocity S-wave (km/s) = 3.38593 3.75314 3.57426
# Velocity P-wave (km/s) = 5.03034 5.89318 5.47877
#
# Compressibility (1/GPa) = 0.05035345
#
# Stress axis : x y z
#
# Youngs Moduli (GPa) = 69.90303 26.83497 100.46483
#
# Poissons Ratio (x) = 0.08546 0.29764
# Poissons Ratio (y) = 0.22262 -0.05646
# Poissons Ratio (z) = 0.20710 -0.01508
#
# Static dielectric constant tensor:
#      x y z
#    x 1.743200 0.000000 -0.003620 
#    y 0.000000 1.677140 0.000000 
#    z -0.003620 0.000000 1.705290 
# 
# From -- ./inp_files/38147.got.cif
#   From: 2010.05.17/outbox.cif.g08.bks.cpg/sg11_20_cif.got.tgz:38147.got - 2010.06.03 12:22:45.
