data_PCOD9159319
_publ_section_title
;
Structure prediction by ZEFSAII (Michael W. Deem and Ramdas Pophale) SiO2 
 PCOD9159319
Probable space group: P 21/M
;
_chemical_formula_sum "Si O2"
_cell_formula_units_Z 32
_cell_length_a 8.439714
_cell_length_b 29.230889
_cell_length_c 14.647236
_cell_angle_alpha 90.000000
_cell_angle_beta 29.800983
_cell_angle_gamma 90.000000
_cell_volume 1795.858345
_symmetry_space_group_name_H-M "P 21/M"
_symmetry_group_IT_number 11
_symmetry_cell_setting 'monoclinic'
loop_
_space_group_symop_operation_xyz
x,y,z
-x,1/2+y,-z
-x,-y,-z
x,1/2-y,z
loop_
_atom_site_type_symbol
_atom_site_label
_atom_site_fract_x
_atom_site_fract_y
_atom_site_fract_z
Si Si1 0.114366 0.802280 0.940951
Si Si2 0.882412 0.624496 0.913951
Si Si3 0.881859 0.551672 0.557226
Si Si4 0.111609 0.375165 0.297527
Si Si5 0.885634 0.802280 0.555318
Si Si6 0.111608 0.875165 0.090865
Si Si7 0.117588 0.624496 0.296362
Si Si8 0.881859 0.051672 0.060915
O O1 0.002610 0.750000 0.996478
O O2 0.500000 0.802150 0.747349
O O3 0.000584 0.831506 0.911229
O O4 0.013057 0.830798 0.081406
O O5 0.999159 0.624592 0.751189
O O6 0.997027 0.580150 0.912507
O O7 0.500000 0.624717 0.104657
O O8 0.987469 0.580729 0.593548
O O9 0.500000 0.552131 0.746784
O O10 0.000000 0.500000 0.500000
O O11 0.002973 0.580150 0.409534
O O12 0.013058 0.330798 0.405536
O O13 0.500000 0.375183 0.101424
O O14 0.997390 0.750000 0.499088
O O15 0.999417 0.831506 0.411813
O O16 0.000841 0.875408 0.250348
O O17 0.012531 0.919272 0.081017
O O18 0.000000 0.000000 0.000000
#
# Coordination Sequence:
#
# PCOD9159319 Si02
#       8
#     4   4   4   4   4   4   4   4
#     4   9  18  34  53  73 101 136 169 203 248 298
#     4  10  19  33  53  76 100 129 168 209 246 288
#     4  10  20  36  54  74 101 132 166 203 248 298
#     4   8  17  33  52  72  98 134 169 199 239 300
#     4   9  18  34  53  73 101 136 169 203 248 298
#     4   8  17  33  52  72  98 134 169 199 239 300
#     4  10  19  33  53  76 100 129 168 209 246 288
#     4  10  20  36  54  74 101 132 166 203 248 298
#
# _framework density 17.818777999999998
#
# number of rings (size 3 to 8) (size 9 to 14) (size 15 to 20)
#    0.000    2.750    0.000    3.000    0.000    2.500 
#    0.000   20.000    0.000    0.000    0.000    0.000 
#    0.000    0.000    0.000    0.000    0.000    0.000 
#
# Total GULP energy -178444.499192 kJ/mol
# GULP energy per Si atom -5576.390600 kJ/mol
# Density = 1.777822 g / cm^3
# Si number density = 17.818778 Si / 1000 Ang^3
#
#
#
# Elastic Constant Matrix: (Units=GPa)
#
#
# Indices 1 2 3 4 5 6 
#
# 1 138.3914 87.5294 38.7451 0.0000 48.2540 0.0000
# 2 87.5294 203.0021 49.8378 0.0000 38.3535 0.0000
# 3 38.7451 49.8378 59.0901 0.0000 32.4400 0.0000
# 4 0.0000 0.0000 0.0000 23.0007 0.0000 -10.7941
# 5 48.2540 38.3535 32.4400 0.0000 42.2042 0.0000
# 6 0.0000 0.0000 0.0000 -10.7941 0.0000 12.3931
#
#
#
# Elastic Compliance Matrix: (Units=1/GPa)
#
#
# Indices 1 2 3 4 5 6 
#
# 1 0.013994 -0.003829 0.001604 0.000000 -0.013753 0.000000
# 2 -0.003829 0.007458 -0.004259 0.000000 0.000875 0.000000
# 3 0.001604 -0.004259 0.031739 0.000000 -0.022359 0.000000
# 4 0.000000 0.000000 0.000000 0.073533 0.000000 0.064045
# 5 -0.013753 0.000875 -0.022359 0.000000 0.055810 0.000000
# 6 0.000000 0.000000 0.000000 0.064045 0.000000 0.136472
#
#
# Mechanical properties :
#
#
# Convention : Reuss Voigt Hill
#
# Bulk Modulus (GPa) = 24.86207 83.63424 54.24816
# Shear Modulus (GPa) = 14.47671 30.47769 22.47720
#
# Velocity S-wave (km/s) = 2.85343 4.14022 3.55552
# Velocity P-wave (km/s) = 4.98388 8.36021 6.88230
#
# Compressibility (1/GPa) = 0.04022191
#
# Stress axis : x y z
#
# Youngs Moduli (GPa) = 71.45806 134.09237 31.50700
#
# Poissons Ratio (x) = 0.51349 -0.05055
# Poissons Ratio (y) = 0.27364 0.13420
# Poissons Ratio (z) = -0.11464 0.57115
#
# Static dielectric constant tensor:
#      x y z
#    x 1.606160 0.000000 -0.008920 
#    y 0.000000 1.593530 0.000000 
#    z -0.008920 0.000000 1.614920 
# 
# From -- ./inp_files/15082.got.cif
#   From: 2010.05.17/outbox.cif.g08.bks.cpg/sg11_8_cif.got.tgz:15082.got - 2010.06.03 12:22:45.
