data_PCOD9159531
_publ_section_title
;
Structure prediction by ZEFSAII (Michael W. Deem and Ramdas Pophale) SiO2 
 PCOD9159531
Probable space group: P 21/M
;
_chemical_formula_sum "Si O2"
_cell_formula_units_Z 32
_cell_length_a 20.447105
_cell_length_b 8.661267
_cell_length_c 16.573887
_cell_angle_alpha 90.000000
_cell_angle_beta 145.201370
_cell_angle_gamma 90.000000
_cell_volume 1675.100557
_symmetry_space_group_name_H-M "P 21/M"
_symmetry_group_IT_number 11
_symmetry_cell_setting 'monoclinic'
loop_
_space_group_symop_operation_xyz
x,y,z
-x,1/2+y,-z
-x,-y,-z
x,1/2-y,z
loop_
_atom_site_type_symbol
_atom_site_label
_atom_site_fract_x
_atom_site_fract_y
_atom_site_fract_z
Si Si1 0.672419 0.435719 0.715886
Si Si2 0.556632 0.063502 0.437488
Si Si3 0.713959 0.564012 0.046254
Si Si4 0.059150 0.065297 0.638506
Si Si5 0.675998 0.436731 0.395040
Si Si6 0.512668 0.566174 0.102881
Si Si7 0.937869 0.064001 0.682349
Si Si8 0.155920 0.564793 0.978999
O O1 0.670118 0.250000 0.714177
O O2 0.564176 0.495526 0.657404
O O3 0.648601 0.483771 0.599583
O O4 0.786630 0.484340 0.878321
O O5 0.548676 0.250000 0.429968
O O6 0.595743 0.015992 0.388564
O O7 0.705256 0.750000 0.033273
O O8 0.809540 0.520667 0.210440
O O9 0.765965 0.504244 0.014401
O O10 0.593445 0.494445 0.950582
O O11 0.056717 0.250000 0.631445
O O12 0.988126 0.019306 0.645856
O O13 0.000000 0.000000 0.500000
O O14 0.672867 0.250000 0.384555
O O15 0.627345 0.508257 0.263889
O O16 0.805428 0.481327 0.549188
O O17 0.511441 0.750000 0.098235
O O18 0.500000 0.500000 0.000000
O O19 0.944163 0.250000 0.695931
O O20 0.026554 0.992648 0.835462
O O21 0.159049 0.750000 0.975865
#
# Coordination Sequence:
#
# PCOD9159531 Si02
#       8
#     4   4   4   4   4   4   4   4
#     4   9  18  32  52  81 115 143 180 230 277 326
#     4   9  18  33  55  82 110 146 184 225 276 330
#     4  10  21  38  56  79 109 141 181 225 274 327
#     4   9  19  33  52  76 101 131 172 222 271 318
#     4  10  21  39  60  80 109 148 188 228 278 334
#     4  12  26  41  58  82 111 145 183 226 276 330
#     4   9  20  37  54  76 106 144 185 227 276 332
#     4  10  19  33  55  82 111 146 185 229 277 324
#
# _framework density 19.103331000000001
#
# number of rings (size 3 to 8) (size 9 to 14) (size 15 to 20)
#    0.000    2.250    0.000    3.375    1.750    6.500 
#    0.000    0.625    0.000    0.000    0.000    0.000 
#    0.000    0.000    0.000    0.000    0.000    0.000 
#
# Total GULP energy -178601.970272 kJ/mol
# GULP energy per Si atom -5581.311571 kJ/mol
# Density = 1.905985 g / cm^3
# Si number density = 19.103331 Si / 1000 Ang^3
#
#
#
# Elastic Constant Matrix: (Units=GPa)
#
#
# Indices 1 2 3 4 5 6 
#
# 1 38.1772 13.7901 32.2027 0.0000 -3.4530 0.0000
# 2 13.7901 36.6572 31.5380 0.0000 -2.2836 0.0000
# 3 32.2027 31.5380 148.5445 0.0000 -18.9528 0.0000
# 4 0.0000 0.0000 0.0000 32.4677 0.0000 2.3034
# 5 -3.4530 -2.2836 -18.9528 0.0000 26.7464 0.0000
# 6 0.0000 0.0000 0.0000 2.3034 0.0000 17.0803
#
#
#
# Elastic Compliance Matrix: (Units=1/GPa)
#
#
# Indices 1 2 3 4 5 6 
#
# 1 0.033807 -0.007825 -0.005712 0.000000 -0.000351 0.000000
# 2 -0.007825 0.035327 -0.006100 0.000000 -0.002316 0.000000
# 3 -0.005712 -0.006100 0.010010 0.000000 0.005835 0.000000
# 4 0.000000 0.000000 0.000000 0.031097 0.000000 -0.004194
# 5 -0.000351 -0.002316 0.005835 0.000000 0.041280 0.000000
# 6 0.000000 0.000000 0.000000 -0.004194 0.000000 0.059113
#
#
# Mechanical properties :
#
#
# Convention : Reuss Voigt Hill
#
# Bulk Modulus (GPa) = 25.08172 42.04893 33.56532
# Shear Modulus (GPa) = 18.99718 24.98209 21.98963
#
# Velocity S-wave (km/s) = 3.15690 3.62018 3.39645
# Velocity P-wave (km/s) = 5.14257 6.28756 5.74367
#
# Compressibility (1/GPa) = 0.03986968
#
# Stress axis : x y z
#
# Youngs Moduli (GPa) = 29.57985 28.30703 99.90153
#
# Poissons Ratio (x) = 0.22150 0.57068
# Poissons Ratio (y) = 0.23146 0.60935
# Poissons Ratio (z) = 0.16897 0.17266
#
# Static dielectric constant tensor:
#      x y z
#    x 1.638400 0.000000 -0.002000 
#    y 0.000000 1.645980 0.000000 
#    z -0.002000 0.000000 1.697040 
# 
# From -- ./inp_files/61797.got.cif
#   From: 2010.05.17/outbox.cif.g08.bks.cpg/sg11_31_cif.got.tgz:61797.got - 2010.06.03 12:22:45.
