data_PCOD9159136
_publ_section_title
;
Structure prediction by ZEFSAII (Michael W. Deem and Ramdas Pophale) SiO2 
 PCOD9159136
Probable space group: P 21/M
;
_chemical_formula_sum "Si O2"
_cell_formula_units_Z 32
_cell_length_a 11.673644
_cell_length_b 8.797333
_cell_length_c 32.752358
_cell_angle_alpha 90.000000
_cell_angle_beta 148.808596
_cell_angle_gamma 90.000000
_cell_volume 1741.986753
_symmetry_space_group_name_H-M "P 21/M"
_symmetry_group_IT_number 11
_symmetry_cell_setting 'monoclinic'
loop_
_space_group_symop_operation_xyz
x,y,z
-x,1/2+y,-z
-x,-y,-z
x,1/2-y,z
loop_
_atom_site_type_symbol
_atom_site_label
_atom_site_fract_x
_atom_site_fract_y
_atom_site_fract_z
Si Si1 0.875314 0.934758 0.659492
Si Si2 0.408913 0.932044 0.733783
Si Si3 0.616780 0.066672 0.180574
Si Si4 0.651055 0.068526 0.731529
Si Si5 0.889043 0.932336 0.570898
Si Si6 0.519965 0.431983 0.402044
Si Si7 0.155873 0.066919 0.890779
Si Si8 0.553369 0.068313 0.951963
O O1 0.876726 0.750000 0.659886
O O2 0.824367 0.981269 0.597324
O O3 0.690449 0.985790 0.634914
O O4 0.125897 0.982404 0.746290
O O5 0.438829 0.750000 0.739219
O O6 0.450460 0.973954 0.793704
O O7 0.149897 0.964154 0.646110
O O8 0.559324 0.016043 0.747107
O O9 0.611284 0.250000 0.175859
O O10 0.469751 0.995312 0.100445
O O11 0.642545 0.250000 0.725687
O O12 0.906842 0.018680 0.805154
O O13 0.508609 0.996236 0.651869
O O14 0.860314 0.750000 0.559495
O O15 0.738374 0.011488 0.491531
O O16 0.517539 0.250000 0.400051
O O17 0.160460 0.250000 0.895205
O O18 0.330941 0.021848 0.909132
O O19 0.245649 0.997897 0.960329
O O20 0.565371 0.250000 0.955161
#
# Coordination Sequence:
#
# PCOD9159136 Si02
#       8
#     4   4   4   4   4   4   4   4
#     4   8  16  31  52  78 106 137 170 207 255 309
#     4   9  20  38  57  75  99 136 178 218 257 300
#     4   9  17  33  56  78 104 138 172 208 256 308
#     4  11  23  38  55  74 101 137 175 216 259 301
#     4   9  18  35  55  75 103 136 172 214 259 304
#     4  11  21  32  51  79 107 135 171 212 257 313
#     4   9  20  37  54  77 109 140 168 204 254 305
#     4  10  19  32  55  85 111 134 165 205 250 305
#
# _framework density 18.36983
#
# number of rings (size 3 to 8) (size 9 to 14) (size 15 to 20)
#    0.000    2.500    0.000    3.750    0.000    3.000 
#    0.000    3.750    0.000    0.000    0.000    0.000 
#    0.000    0.000    0.000    0.000    0.000    0.000 
#
# Total GULP energy -178602.672963 kJ/mol
# GULP energy per Si atom -5581.333530 kJ/mol
# Density = 1.832802 g / cm^3
# Si number density = 18.369830 Si / 1000 Ang^3
#
#
#
# Elastic Constant Matrix: (Units=GPa)
#
#
# Indices 1 2 3 4 5 6 
#
# 1 40.2258 12.4690 13.6141 0.0000 -12.6144 0.0000
# 2 12.4690 14.3068 14.7558 0.0000 -5.4460 0.0000
# 3 13.6141 14.7558 75.8851 0.0000 -33.0202 0.0000
# 4 0.0000 0.0000 0.0000 22.4945 0.0000 -1.6229
# 5 -12.6144 -5.4460 -33.0202 0.0000 20.4048 0.0000
# 6 0.0000 0.0000 0.0000 -1.6229 0.0000 25.2312
#
#
#
# Elastic Compliance Matrix: (Units=1/GPa)
#
#
# Indices 1 2 3 4 5 6 
#
# 1 0.050425 -0.048735 0.028172 0.000000 0.063755 0.000000
# 2 -0.048735 0.135753 -0.050695 0.000000 -0.075934 0.000000
# 3 0.028172 -0.050695 0.066495 0.000000 0.111491 0.000000
# 4 0.000000 0.000000 0.000000 0.044663 0.000000 0.002873
# 5 0.063755 -0.075934 0.111491 0.000000 0.248577 0.000000
# 6 0.000000 0.000000 0.000000 0.002873 0.000000 0.039818
#
#
# Mechanical properties :
#
#
# Convention : Reuss Voigt Hill
#
# Bulk Modulus (GPa) = 9.07793 23.56618 16.32205
# Shear Modulus (GPa) = 6.53624 19.59802 13.06713
#
# Velocity S-wave (km/s) = 1.88835 3.26982 2.66998
# Velocity P-wave (km/s) = 3.11560 5.20694 4.29064
#
# Compressibility (1/GPa) = 0.11015730
#
# Stress axis : x y z
#
# Youngs Moduli (GPa) = 19.83153 7.36630 15.03875
#
# Poissons Ratio (x) = 0.35900 -0.42367
# Poissons Ratio (y) = 0.96649 0.76239
# Poissons Ratio (z) = -0.55870 0.37344
#
# Static dielectric constant tensor:
#      x y z
#    x 1.628840 0.000000 0.007120 
#    y 0.000000 1.609550 0.000000 
#    z 0.007120 0.000000 1.611110 
# 
# From -- ./inp_files/73149.got.cif
#   From: 2010.05.17/outbox.cif.g08.bks.cpg/sg11_37_cif.got.tgz:73149.got - 2010.06.03 12:22:45.
