data_PCOD9159298
_publ_section_title
;
Structure prediction by ZEFSAII (Michael W. Deem and Ramdas Pophale) SiO2 
 PCOD9159298
Probable space group: P 21/M
;
_chemical_formula_sum "Si O2"
_cell_formula_units_Z 32
_cell_length_a 24.616069
_cell_length_b 7.631599
_cell_length_c 18.261023
_cell_angle_alpha 90.000000
_cell_angle_beta 28.189047
_cell_angle_gamma 90.000000
_cell_volume 1620.514590
_symmetry_space_group_name_H-M "P 21/M"
_symmetry_group_IT_number 11
_symmetry_cell_setting 'monoclinic'
loop_
_space_group_symop_operation_xyz
x,y,z
-x,1/2+y,-z
-x,-y,-z
x,1/2-y,z
loop_
_atom_site_type_symbol
_atom_site_label
_atom_site_fract_x
_atom_site_fract_y
_atom_site_fract_z
Si Si1 0.396765 0.457087 0.452067
Si Si2 0.676776 0.964168 0.615076
Si Si3 0.805150 0.548891 0.731457
Si Si4 0.456951 0.541095 0.969547
Si Si5 0.634825 0.457164 0.350441
Si Si6 0.341137 0.965562 0.837671
Si Si7 0.878709 0.965721 0.483200
Si Si8 0.132413 0.952568 0.182830
O O1 0.409349 0.250000 0.425541
O O2 0.328551 0.524455 0.462594
O O3 0.336686 0.478735 0.602191
O O4 0.528529 0.526181 0.299558
O O5 0.680792 0.750000 0.612153
O O6 0.556915 0.016149 0.795604
O O7 0.783310 0.023039 0.538135
O O8 0.843503 0.750000 0.690288
O O9 0.845088 0.477672 0.605409
O O10 0.851937 0.458497 0.748411
O O11 0.666911 0.541087 0.896745
O O12 0.442999 0.750000 0.978186
O O13 0.500000 0.500000 0.000000
O O14 0.500000 0.500000 0.500000
O O15 0.649272 0.250000 0.334953
O O16 0.689672 0.520415 0.209053
O O17 0.345582 0.750000 0.833725
O O18 0.244907 0.026977 0.009005
O O19 0.877462 0.750000 0.485757
O O20 0.007386 0.027051 0.312723
O O21 0.128522 0.750000 0.164400
#
# Coordination Sequence:
#
# PCOD9159298 Si02
#       8
#     4   4   4   4   4   4   4   4
#     4   9  16  28  48  71  95 123 156 190 235 291
#     4   9  17  31  50  71  98 129 160 199 240 283
#     4  11  21  34  49  71 102 128 162 207 252 291
#     4  11  20  33  52  72  98 129 161 198 243 289
#     4   9  16  28  46  69  98 123 149 188 238 289
#     4   8  15  28  46  70  94 120 155 195 237 290
#     4   9  18  32  50  70  94 128 169 209 240 282
#     4  10  19  33  53  72  91 125 173 209 242 286
#
# _framework density 19.746813
#
# number of rings (size 3 to 8) (size 9 to 14) (size 15 to 20)
#    0.000    2.500    1.250    3.000    0.000    2.000 
#    0.000    7.500    0.000    0.750    0.000    0.000 
#    0.000    0.000    0.000    0.000    0.000    0.500 
#
# Total GULP energy -178473.267227 kJ/mol
# GULP energy per Si atom -5577.289601 kJ/mol
# Density = 1.970187 g / cm^3
# Si number density = 19.746813 Si / 1000 Ang^3
#
#
#
# Elastic Constant Matrix: (Units=GPa)
#
#
# Indices 1 2 3 4 5 6 
#
# 1 111.9876 -3.1648 63.2405 0.0000 25.7008 0.0000
# 2 -3.1648 34.8759 5.3189 0.0000 1.4146 0.0000
# 3 63.2405 5.3189 77.1221 0.0000 0.5047 0.0000
# 4 0.0000 0.0000 0.0000 7.7004 0.0000 3.5735
# 5 25.7008 1.4146 0.5047 0.0000 28.5092 0.0000
# 6 0.0000 0.0000 0.0000 3.5735 0.0000 18.6554
#
#
#
# Elastic Compliance Matrix: (Units=1/GPa)
#
#
# Indices 1 2 3 4 5 6 
#
# 1 0.028189 0.007162 -0.023443 0.000000 -0.025352 0.000000
# 2 0.007162 0.030854 -0.007949 0.000000 -0.007846 0.000000
# 3 -0.023443 -0.007949 0.032601 0.000000 0.020951 0.000000
# 4 0.000000 0.000000 0.000000 0.142533 0.000000 -0.027302
# 5 -0.025352 -0.007846 0.020951 0.000000 0.057950 0.000000
# 6 0.000000 0.000000 0.000000 -0.027302 0.000000 0.058834
#
#
# Mechanical properties :
#
#
# Convention : Reuss Voigt Hill
#
# Bulk Modulus (GPa) = 23.15761 39.41942 31.28852
# Shear Modulus (GPa) = 12.08274 21.54573 16.81424
#
# Velocity S-wave (km/s) = 2.47631 3.30676 2.92120
# Velocity P-wave (km/s) = 4.46418 5.88093 5.22083
#
# Compressibility (1/GPa) = 0.04318234
#
# Stress axis : x y z
#
# Youngs Moduli (GPa) = 35.47542 32.41119 30.67417
#
# Poissons Ratio (x) = -0.23211 0.71909
# Poissons Ratio (y) = -0.25406 0.24383
# Poissons Ratio (z) = 0.83164 0.25764
#
# Static dielectric constant tensor:
#      x y z
#    x 1.695530 0.000000 0.022900 
#    y 0.000000 1.753740 0.000000 
#    z 0.022900 0.000000 1.689460 
# 
# From -- ./inp_files/61756.got.cif
#   From: 2010.05.17/outbox.cif.g08.bks.cpg/sg11_31_cif.got.tgz:61756.got - 2010.06.03 12:22:45.
