data_PCOD9159757
_publ_section_title
;
Structure prediction by ZEFSAII (Michael W. Deem and Ramdas Pophale) SiO2 
 PCOD9159757
Probable space group: P 21/M
;
_chemical_formula_sum "Si O2"
_cell_formula_units_Z 28
_cell_length_a 12.793258
_cell_length_b 8.982223
_cell_length_c 15.313040
_cell_angle_alpha 90.000000
_cell_angle_beta 105.391119
_cell_angle_gamma 90.000000
_cell_volume 1696.543335
_symmetry_space_group_name_H-M "P 21/M"
_symmetry_group_IT_number 11
_symmetry_cell_setting 'monoclinic'
loop_
_space_group_symop_operation_xyz
x,y,z
-x,1/2+y,-z
-x,-y,-z
x,1/2-y,z
loop_
_atom_site_type_symbol
_atom_site_label
_atom_site_fract_x
_atom_site_fract_y
_atom_site_fract_z
Si Si1 0.625875 0.571861 0.384616
Si Si2 0.245337 0.428777 0.410850
Si Si3 0.601929 0.927900 0.716454
Si Si4 0.423142 0.572677 0.108094
Si Si5 0.351547 0.572952 0.900100
Si Si6 0.019269 0.571436 0.409360
Si Si7 0.203672 0.072105 0.732387
O O1 0.606272 0.750000 0.378294
O O2 0.678414 0.533535 0.489455
O O3 0.514311 0.488339 0.341537
O O4 0.713585 0.537681 0.328753
O O5 0.227670 0.250000 0.410248
O O6 0.308318 0.465862 0.336071
O O7 0.131541 0.510703 0.396404
O O8 0.596790 0.750000 0.723288
O O9 0.623735 0.999957 0.815331
O O10 0.432337 0.750000 0.121051
O O11 0.542936 0.506100 0.118015
O O12 0.356378 0.541705 0.004725
O O13 0.361757 0.750000 0.890373
O O14 0.247449 0.511603 0.826912
O O15 0.021923 0.750000 0.418712
O O16 0.000000 0.500000 0.500000
O O17 0.916700 0.532612 0.325672
O O18 0.208392 0.250000 0.747768
#
# Coordination Sequence:
#
# PCOD9159757 Si02
#       7
#     4   4   4   4   4   4   4
#     4  10  19  34  53  75 110 146 174 212 264 314
#     4  10  22  39  54  75 109 144 181 223 262 307
#     4  11  22  34  53  80 109 142 180 219 260 313
#     4  10  20  34  52  76 109 141 171 215 266 317
#     4  10  20  33  53  80 105 136 177 217 263 316
#     4  11  22  37  57  79 105 141 182 221 264 311
#     4  10  20  34  54  79 109 140 171 217 269 309
#
# _framework density 16.504145999999999
#
# number of rings (size 3 to 8) (size 9 to 14) (size 15 to 20)
#    0.000    1.714    2.857    2.143    0.000    4.571 
#    0.000    0.000    0.000    0.857    0.000    0.000 
#    0.000    0.000    0.000    0.000    0.000    0.000 
#
# Total GULP energy -156370.539218 kJ/mol
# GULP energy per Si atom -5584.662115 kJ/mol
# Density = 1.646658 g / cm^3
# Si number density = 16.504146 Si / 1000 Ang^3
#
#
#
# Elastic Constant Matrix: (Units=GPa)
#
#
# Indices 1 2 3 4 5 6 
#
# 1 107.0514 55.4564 77.4661 0.0000 -5.3075 0.0000
# 2 55.4564 53.6234 66.5029 0.0000 -1.2087 0.0000
# 3 77.4661 66.5029 154.4935 0.0000 0.4705 0.0000
# 4 0.0000 0.0000 0.0000 30.5234 0.0000 2.3464
# 5 -5.3075 -1.2087 0.4705 0.0000 21.9930 0.0000
# 6 0.0000 0.0000 0.0000 2.3464 0.0000 28.6470
#
#
#
# Elastic Compliance Matrix: (Units=1/GPa)
#
#
# Indices 1 2 3 4 5 6 
#
# 1 0.020917 -0.018270 -0.002636 0.000000 0.004100 0.000000
# 2 -0.018270 0.056109 -0.014989 0.000000 -0.001005 0.000000
# 3 -0.002636 -0.014989 0.014252 0.000000 -0.001765 0.000000
# 4 0.000000 0.000000 0.000000 0.032969 0.000000 -0.002700
# 5 0.004100 -0.001005 -0.001765 0.000000 0.046441 0.000000
# 6 0.000000 0.000000 0.000000 -0.002700 0.000000 0.035129
#
#
# Mechanical properties :
#
#
# Convention : Reuss Voigt Hill
#
# Bulk Modulus (GPa) = 51.31284 79.33542 65.32413
# Shear Modulus (GPa) = 17.59931 23.94888 20.77410
#
# Velocity S-wave (km/s) = 3.26905 3.81344 3.55169
# Velocity P-wave (km/s) = 6.73850 8.21974 7.51570
#
# Compressibility (1/GPa) = 0.01948830
#
# Stress axis : x y z
#
# Youngs Moduli (GPa) = 47.80886 17.82242 70.16646
#
# Poissons Ratio (x) = 0.32562 0.18496
# Poissons Ratio (y) = 0.87347 1.05169
# Poissons Ratio (z) = 0.12602 0.26713
#
# Static dielectric constant tensor:
#      x y z
#    x 1.521140 0.000000 -0.001330 
#    y 0.000000 1.748950 0.000000 
#    z -0.001330 0.000000 1.559960 
# 
# From -- ./inp_files/37496.got.cif
#   From: 2010.05.17/outbox.cif.g08.bks.cpg/sg11_19_cif.got.tgz:37496.got - 2010.06.03 12:22:45.
