data_PCOD9159502
_publ_section_title
;
Structure prediction by ZEFSAII (Michael W. Deem and Ramdas Pophale) SiO2 
 PCOD9159502
Probable space group: P 21/M
;
_chemical_formula_sum "Si O2"
_cell_formula_units_Z 28
_cell_length_a 14.943267
_cell_length_b 7.401784
_cell_length_c 13.194697
_cell_angle_alpha 90.000000
_cell_angle_beta 122.596615
_cell_angle_gamma 90.000000
_cell_volume 1229.541419
_symmetry_space_group_name_H-M "P 21/M"
_symmetry_group_IT_number 11
_symmetry_cell_setting 'monoclinic'
loop_
_space_group_symop_operation_xyz
x,y,z
-x,1/2+y,-z
-x,-y,-z
x,1/2-y,z
loop_
_atom_site_type_symbol
_atom_site_label
_atom_site_fract_x
_atom_site_fract_y
_atom_site_fract_z
Si Si1 0.573541 0.535007 0.448738
Si Si2 0.745579 0.958349 0.022979
Si Si3 0.493867 0.968988 0.181740
Si Si4 0.891066 0.965243 0.491320
Si Si5 0.715018 0.971263 0.225858
Si Si6 0.124354 0.465988 0.088550
Si Si7 0.809356 0.528900 0.649303
O O1 0.500000 0.500000 0.500000
O O2 0.583735 0.750000 0.441454
O O3 0.522381 0.468813 0.313086
O O4 0.691690 0.469438 0.544792
O O5 0.780445 0.750000 0.052273
O O6 0.810402 0.038481 0.968263
O O7 0.620535 0.963127 0.921644
O O8 0.756699 0.035994 0.142519
O O9 0.488308 0.750000 0.177085
O O10 0.593384 0.024320 0.172791
O O11 0.877642 0.750000 0.488323
O O12 0.792078 0.031399 0.363414
O O13 0.885988 0.029558 0.604261
O O14 0.000000 0.000000 0.500000
O O15 0.715373 0.750000 0.225342
O O16 0.142458 0.250000 0.101521
O O17 0.161799 0.535242 0.220964
O O18 0.000000 0.500000 0.000000
O O19 0.810600 0.750000 0.654052
#
# Coordination Sequence:
#
# PCOD9159502 Si02
#       7
#     4   4   4   4   4   4   4
#     4  10  19  33  55  80 107 141 178 217 262 315
#     4  10  21  36  55  80 111 144 177 220 269 313
#     4  10  19  34  56  82 109 141 180 217 262 322
#     4  10  20  36  58  81 106 140 181 223 266 316
#     4   9  18  35  57  80 109 144 178 215 266 322
#     4  10  22  38  56  78 106 142 181 219 265 316
#     4   9  18  36  57  76 105 144 177 209 263 328
#
# _framework density 22.772717
#
# number of rings (size 3 to 8) (size 9 to 14) (size 15 to 20)
#    0.000    2.286    1.429    1.286    2.000    2.286 
#    0.000    2.857    0.000    0.000    0.000    0.000 
#    0.000    0.000    0.000    0.000    0.000    0.000 
#
# Total GULP energy -156495.480174 kJ/mol
# GULP energy per Si atom -5589.124292 kJ/mol
# Density = 2.272089 g / cm^3
# Si number density = 22.772717 Si / 1000 Ang^3
#
#
#
# Elastic Constant Matrix: (Units=GPa)
#
#
# Indices 1 2 3 4 5 6 
#
# 1 142.7104 -6.7941 34.4800 0.0000 -37.2785 0.0000
# 2 -6.7941 75.9918 1.1875 0.0000 -8.1975 0.0000
# 3 34.4800 1.1875 106.0348 0.0000 -39.6397 0.0000
# 4 0.0000 0.0000 0.0000 6.1189 0.0000 8.6056
# 5 -37.2785 -8.1975 -39.6397 0.0000 48.0762 0.0000
# 6 0.0000 0.0000 0.0000 8.6056 0.0000 19.9276
#
#
#
# Elastic Compliance Matrix: (Units=1/GPa)
#
#
# Indices 1 2 3 4 5 6 
#
# 1 0.008978 0.001557 -0.000340 0.000000 0.006947 0.000000
# 2 0.001557 0.013753 0.000965 0.000000 0.004348 0.000000
# 3 -0.000340 0.000965 0.013724 0.000000 0.011216 0.000000
# 4 0.000000 0.000000 0.000000 0.416206 0.000000 -0.179736
# 5 0.006947 0.004348 0.011216 0.000000 0.036177 0.000000
# 6 0.000000 0.000000 0.000000 -0.179736 0.000000 0.127800
#
#
# Mechanical properties :
#
#
# Convention : Reuss Voigt Hill
#
# Bulk Modulus (GPa) = 24.49798 42.49821 33.49810
# Shear Modulus (GPa) = 7.98878 34.54879 21.26879
#
# Velocity S-wave (km/s) = 1.87501 3.89924 3.05939
# Velocity P-wave (km/s) = 3.93300 6.24296 5.21742
#
# Compressibility (1/GPa) = 0.04081969
#
# Stress axis : x y z
#
# Youngs Moduli (GPa) = 111.38167 72.71383 72.86664
#
# Poissons Ratio (x) = -0.11324 0.02477
# Poissons Ratio (y) = -0.17347 -0.07032
# Poissons Ratio (z) = 0.03786 -0.07018
#
# Static dielectric constant tensor:
#      x y z
#    x 1.802320 0.000000 -0.033420 
#    y 0.000000 1.948170 0.000000 
#    z -0.033420 0.000000 1.812460 
# 
# From -- ./inp_files/38414.got.cif
#   From: 2010.05.17/outbox.cif.g08.bks.cpg/sg11_20_cif.got.tgz:38414.got - 2010.06.03 12:22:45.
