data_PCOD9159604
_publ_section_title
;
Structure prediction by ZEFSAII (Michael W. Deem and Ramdas Pophale) SiO2 
 PCOD9159604
Probable space group: P 21/M
;
_chemical_formula_sum "Si O2"
_cell_formula_units_Z 28
_cell_length_a 17.910962
_cell_length_b 8.631713
_cell_length_c 14.604762
_cell_angle_alpha 90.000000
_cell_angle_beta 136.866117
_cell_angle_gamma 90.000000
_cell_volume 1543.758743
_symmetry_space_group_name_H-M "P 21/M"
_symmetry_group_IT_number 11
_symmetry_cell_setting 'monoclinic'
loop_
_space_group_symop_operation_xyz
x,y,z
-x,1/2+y,-z
-x,-y,-z
x,1/2-y,z
loop_
_atom_site_type_symbol
_atom_site_label
_atom_site_fract_x
_atom_site_fract_y
_atom_site_fract_z
Si Si1 0.725472 0.935184 0.062597
Si Si2 0.336372 0.064628 0.618929
Si Si3 0.087618 0.436566 0.909039
Si Si4 0.244870 0.563380 0.204747
Si Si5 0.429241 0.562755 0.234036
Si Si6 0.616398 0.434161 0.137991
Si Si7 0.836041 0.437363 0.671021
O O1 0.719281 0.750000 0.067436
O O2 0.838860 0.976025 0.113714
O O3 0.703679 0.014877 0.139624
O O4 0.631897 0.990732 0.908254
O O5 0.332369 0.250000 0.618986
O O6 0.444290 0.018467 0.657092
O O7 0.353596 0.000959 0.736239
O O8 0.229804 0.000549 0.473978
O O9 0.090024 0.250000 0.920833
O O10 0.962572 0.486231 0.787906
O O11 0.148804 0.507194 0.051418
O O12 0.243251 0.750000 0.204198
O O13 0.358923 0.514246 0.259717
O O14 0.222690 0.509532 0.287718
O O15 0.422577 0.750000 0.220575
O O16 0.608779 0.250000 0.135895
O O17 0.500000 0.500000 0.000000
O O18 0.834016 0.250000 0.666618
#
# Coordination Sequence:
#
# PCOD9159604 Si02
#       7
#     4   4   4   4   4   4   4
#     4  10  19  33  56  84 110 139 180 226 274 322
#     4  11  23  37  54  79 112 147 186 226 270 327
#     4   9  19  35  56  82 111 144 185 231 272 320
#     4   9  18  33  56  82 108 144 187 230 275 323
#     4   9  18  33  52  78 111 143 180 227 275 322
#     4  12  23  37  59  85 111 140 177 220 272 328
#     4  10  21  37  54  77 113 151 186 228 276 321
#
# _framework density 18.137547999999999
#
# number of rings (size 3 to 8) (size 9 to 14) (size 15 to 20)
#    0.000    2.000    1.429    2.571    0.000    2.857 
#    0.000    0.714    0.000    0.000    0.000    0.000 
#    0.000    0.000    0.000    0.000    0.000    0.000 
#
# Total GULP energy -156324.226740 kJ/mol
# GULP energy per Si atom -5583.008098 kJ/mol
# Density = 1.809627 g / cm^3
# Si number density = 18.137548 Si / 1000 Ang^3
#
#
#
# Elastic Constant Matrix: (Units=GPa)
#
#
# Indices 1 2 3 4 5 6 
#
# 1 66.2659 9.7601 19.8809 0.0000 -19.4762 0.0000
# 2 9.7601 19.4257 2.0696 0.0000 -3.8972 0.0000
# 3 19.8809 2.0696 49.1489 0.0000 -19.3674 0.0000
# 4 0.0000 0.0000 0.0000 24.3888 0.0000 -3.5736
# 5 -19.4762 -3.8972 -19.3674 0.0000 18.9141 0.0000
# 6 0.0000 0.0000 0.0000 -3.5736 0.0000 20.8291
#
#
#
# Elastic Compliance Matrix: (Units=1/GPa)
#
#
# Indices 1 2 3 4 5 6 
#
# 1 0.022509 -0.006989 -0.000410 0.000000 0.021317 0.000000
# 2 -0.006989 0.056233 0.003670 0.000000 0.008148 0.000000
# 3 -0.000410 0.003670 0.034349 0.000000 0.035506 0.000000
# 4 0.000000 0.000000 0.000000 0.042060 0.000000 0.007216
# 5 0.021317 0.008148 0.035506 0.000000 0.112858 0.000000
# 6 0.000000 0.000000 0.000000 0.007216 0.000000 0.049248
#
#
# Mechanical properties :
#
#
# Convention : Reuss Voigt Hill
#
# Bulk Modulus (GPa) = 9.46672 22.02906 15.74789
# Shear Modulus (GPa) = 13.89177 19.70172 16.79674
#
# Velocity S-wave (km/s) = 2.77051 3.29939 3.04645
# Velocity P-wave (km/s) = 3.93256 5.16590 4.59084
#
# Compressibility (1/GPa) = 0.10563317
#
# Stress axis : x y z
#
# Youngs Moduli (GPa) = 44.42759 17.78308 29.11277
#
# Poissons Ratio (x) = 0.12428 0.01194
# Poissons Ratio (y) = 0.31049 -0.10684
# Poissons Ratio (z) = 0.01822 -0.06526
#
# Static dielectric constant tensor:
#      x y z
#    x 1.651560 0.000000 0.014900 
#    y 0.000000 1.608170 0.000000 
#    z 0.014900 0.000000 1.575450 
# 
# From -- ./inp_files/53269.got.cif
#   From: 2010.05.17/outbox.cif.g08.bks.cpg/sg11_27_cif.got.tgz:53269.got - 2010.06.03 12:22:45.
