data_PCOD9159594
_publ_section_title
;
Structure prediction by ZEFSAII (Michael W. Deem and Ramdas Pophale) SiO2 
 PCOD9159594
Probable space group: P 21/M
;
_chemical_formula_sum "Si O2"
_cell_formula_units_Z 32
_cell_length_a 20.101418
_cell_length_b 8.786033
_cell_length_c 14.591496
_cell_angle_alpha 90.000000
_cell_angle_beta 46.107913
_cell_angle_gamma 90.000000
_cell_volume 1857.128049
_symmetry_space_group_name_H-M "P 21/M"
_symmetry_group_IT_number 11
_symmetry_cell_setting 'monoclinic'
loop_
_space_group_symop_operation_xyz
x,y,z
-x,1/2+y,-z
-x,-y,-z
x,1/2-y,z
loop_
_atom_site_type_symbol
_atom_site_label
_atom_site_fract_x
_atom_site_fract_y
_atom_site_fract_z
Si Si1 0.164126 0.434709 0.028101
Si Si2 0.976386 0.065963 0.121985
Si Si3 0.692996 0.569441 0.961784
Si Si4 0.357117 0.069989 0.359320
Si Si5 0.769271 0.432168 0.372913
Si Si6 0.462437 0.429533 0.731541
Si Si7 0.599404 0.069368 0.879105
Si Si8 0.688703 0.566332 0.268652
O O1 0.166802 0.250000 0.027729
O O2 0.215822 0.484214 0.071025
O O3 0.059492 0.482251 0.110047
O O4 0.228155 0.478166 0.880228
O O5 0.977754 0.250000 0.114996
O O6 0.874546 0.019842 0.251199
O O7 0.000000 0.000000 0.000000
O O8 0.700371 0.750000 0.934244
O O9 0.668170 0.479801 0.894415
O O10 0.609763 0.553783 0.115140
O O11 0.351151 0.250000 0.355744
O O12 0.270397 0.004523 0.497176
O O13 0.447656 0.025113 0.331747
O O14 0.369374 0.995179 0.248310
O O15 0.765880 0.250000 0.382114
O O16 0.706741 0.487795 0.347658
O O17 0.486514 0.250000 0.703243
O O18 0.405898 0.472026 0.694106
O O19 0.590759 0.250000 0.881956
O O20 0.500000 0.000000 0.000000
O O21 0.691301 0.750000 0.276600
#
# Coordination Sequence:
#
# PCOD9159594 Si02
#       8
#     4   4   4   4   4   4   4   4
#     4   8  15  30  54  82 111 142 178 220 267 319
#     4  10  19  33  56  83 110 144 183 224 271 317
#     4   9  17  32  56  83 110 142 177 219 270 320
#     4  12  25  39  56  77 105 147 188 227 273 324
#     4  11  23  36  52  79 113 148 184 229 275 319
#     4   9  18  33  54  79 109 144 182 225 266 315
#     4  12  23  37  58  84 112 141 177 224 270 323
#     4   9  17  32  54  78 108 148 185 218 265 322
#
# _framework density 17.230907999999999
#
# number of rings (size 3 to 8) (size 9 to 14) (size 15 to 20)
#    0.000    2.000    2.500    4.125    0.000    1.500 
#    0.000    2.500    0.000    0.750    0.000    0.000 
#    0.000    0.000    0.000    0.000    0.000    0.000 
#
# Total GULP energy -178643.275855 kJ/mol
# GULP energy per Si atom -5582.602370 kJ/mol
# Density = 1.719169 g / cm^3
# Si number density = 17.230908 Si / 1000 Ang^3
#
#
#
# Elastic Constant Matrix: (Units=GPa)
#
#
# Indices 1 2 3 4 5 6 
#
# 1 120.9601 44.6442 68.1687 0.0000 5.6776 0.0000
# 2 44.6442 71.1146 51.6222 0.0000 3.6630 0.0000
# 3 68.1687 51.6222 112.5395 0.0000 10.0167 0.0000
# 4 0.0000 0.0000 0.0000 21.6873 0.0000 5.2638
# 5 5.6776 3.6630 10.0167 0.0000 20.0500 0.0000
# 6 0.0000 0.0000 0.0000 5.2638 0.0000 26.5207
#
#
#
# Elastic Compliance Matrix: (Units=1/GPa)
#
#
# Indices 1 2 3 4 5 6 
#
# 1 0.013176 -0.003713 -0.006285 0.000000 0.000088 0.000000
# 2 -0.003713 0.022148 -0.007999 0.000000 0.001001 0.000000
# 3 -0.006285 -0.007999 0.016822 0.000000 -0.005163 0.000000
# 4 0.000000 0.000000 0.000000 0.048444 0.000000 -0.009615
# 5 0.000088 0.001001 -0.005163 0.000000 0.052247 0.000000
# 6 0.000000 0.000000 0.000000 -0.009615 0.000000 0.039615
#
#
# Mechanical properties :
#
#
# Convention : Reuss Voigt Hill
#
# Bulk Modulus (GPa) = 61.92095 70.38716 66.15406
# Shear Modulus (GPa) = 21.38304 22.99689 22.18996
#
# Velocity S-wave (km/s) = 3.52656 3.65722 3.59249
# Velocity P-wave (km/s) = 7.25232 7.66627 7.46217
#
# Compressibility (1/GPa) = 0.01614962
#
# Stress axis : x y z
#
# Youngs Moduli (GPa) = 75.89609 45.15072 59.44659
#
# Poissons Ratio (x) = 0.16766 0.37365
# Poissons Ratio (y) = 0.28183 0.47552
# Poissons Ratio (z) = 0.47704 0.36117
#
# Static dielectric constant tensor:
#      x y z
#    x 1.599410 0.000000 -0.015040 
#    y 0.000000 1.577480 0.000000 
#    z -0.015040 0.000000 1.570900 
# 
# From -- ./inp_files/54240.got.cif
#   From: 2010.05.17/outbox.cif.g08.bks.cpg/sg11_28_cif.got.tgz:54240.got - 2010.06.03 12:22:45.
