data_PCOD9159648
_publ_section_title
;
Structure prediction by ZEFSAII (Michael W. Deem and Ramdas Pophale) SiO2 
 PCOD9159648
Probable space group: P 21/M
;
_chemical_formula_sum "Si O2"
_cell_formula_units_Z 32
_cell_length_a 11.505731
_cell_length_b 27.939616
_cell_length_c 9.033179
_cell_angle_alpha 90.000000
_cell_angle_beta 144.107443
_cell_angle_gamma 90.000000
_cell_volume 1702.436045
_symmetry_space_group_name_H-M "P 21/M"
_symmetry_group_IT_number 11
_symmetry_cell_setting 'monoclinic'
loop_
_space_group_symop_operation_xyz
x,y,z
-x,1/2+y,-z
-x,-y,-z
x,1/2-y,z
loop_
_atom_site_type_symbol
_atom_site_label
_atom_site_fract_x
_atom_site_fract_y
_atom_site_fract_z
Si Si1 0.111748 0.194475 0.960473
Si Si2 0.905354 0.882514 0.291736
Si Si3 0.403592 0.448044 0.207882
Si Si4 0.141261 0.528548 0.859690
Si Si5 0.805903 0.193921 0.905168
Si Si6 0.419115 0.369019 0.463576
Si Si7 0.221452 0.961754 0.607964
Si Si8 0.078814 0.123311 0.344612
O O1 0.160285 0.250000 0.996752
O O2 0.085264 0.168265 0.777838
O O3 0.915117 0.189799 0.858562
O O4 0.284833 0.166263 0.224373
O O5 0.874690 0.879327 0.434471
O O6 0.108586 0.911277 0.474724
O O7 0.735773 0.914334 0.039005
O O8 0.458580 0.416486 0.407166
O O9 0.591031 0.462477 0.303615
O O10 0.270396 0.495117 0.099714
O O11 0.255813 0.532459 0.819784
O O12 0.936814 0.501654 0.605902
O O13 0.074115 0.580006 0.848350
O O14 0.763647 0.250000 0.888730
O O15 0.612557 0.160730 0.707453
O O16 0.966180 0.172000 0.184295
O O17 0.278201 0.381826 0.455810
#
# Coordination Sequence:
#
# PCOD9159648 Si02
#       8
#     4   4   4   4   4   4   4   4
#     4   9  18  35  58  79 101 131 173 225 268 308
#     4   9  19  34  54  81 106 134 177 221 264 315
#     4  10  19  33  57  80 105 142 182 221 259 307
#     4   9  19  33  51  78 109 141 178 216 262 316
#     4  10  21  38  58  76 101 141 179 213 263 322
#     4  10  21  36  54  79 108 142 179 215 261 318
#     4   9  17  32  53  77 107 142 177 218 263 311
#     4  10  22  37  53  78 113 143 171 215 267 317
#
# _framework density 18.796593999999999
#
# number of rings (size 3 to 8) (size 9 to 14) (size 15 to 20)
#    0.000    2.500    0.000    2.250    0.000    5.500 
#    0.000    1.250    0.000    0.000    0.000    0.000 
#    0.000    0.000    0.000    0.000    0.000    0.000 
#
# Total GULP energy -178602.614990 kJ/mol
# GULP energy per Si atom -5581.331718 kJ/mol
# Density = 1.875381 g / cm^3
# Si number density = 18.796594 Si / 1000 Ang^3
#
#
#
# Elastic Constant Matrix: (Units=GPa)
#
#
# Indices 1 2 3 4 5 6 
#
# 1 63.7797 31.1567 22.2476 0.0000 13.0940 0.0000
# 2 31.1567 78.4951 3.8395 0.0000 -1.9928 0.0000
# 3 22.2476 3.8395 31.0884 0.0000 4.8666 0.0000
# 4 0.0000 0.0000 0.0000 17.1077 0.0000 -2.1689
# 5 13.0940 -1.9928 4.8666 0.0000 19.6847 0.0000
# 6 0.0000 0.0000 0.0000 -2.1689 0.0000 26.3698
#
#
#
# Elastic Compliance Matrix: (Units=1/GPa)
#
#
# Indices 1 2 3 4 5 6 
#
# 1 0.031647 -0.012113 -0.018375 0.000000 -0.017734 0.000000
# 2 -0.012113 0.017512 0.005167 0.000000 0.008553 0.000000
# 3 -0.018375 0.005167 0.044401 0.000000 0.001769 0.000000
# 4 0.000000 0.000000 0.000000 0.059069 0.000000 0.004858
# 5 -0.017734 0.008553 0.001769 0.000000 0.063026 0.000000
# 6 0.000000 0.000000 0.000000 0.004858 0.000000 0.038322
#
#
# Mechanical properties :
#
#
# Convention : Reuss Voigt Hill
#
# Bulk Modulus (GPa) = 23.30070 31.98343 27.64207
# Shear Modulus (GPa) = 15.67770 20.37373 18.02571
#
# Velocity S-wave (km/s) = 2.89116 3.29584 3.10011
# Velocity P-wave (km/s) = 4.85471 5.61569 5.24901
#
# Compressibility (1/GPa) = 0.04291716
#
# Stress axis : x y z
#
# Youngs Moduli (GPa) = 31.59904 57.10394 22.52204
#
# Poissons Ratio (x) = 0.69169 0.41384
# Poissons Ratio (y) = 0.38275 -0.11636
# Poissons Ratio (z) = 0.58063 -0.29503
#
# Static dielectric constant tensor:
#      x y z
#    x 1.623640 0.000000 -0.001400 
#    y 0.000000 1.651660 0.000000 
#    z -0.001400 0.000000 1.650440 
# 
# From -- ./inp_files/3396.got.cif
#   From: 2010.05.17/outbox.cif.g08.bks.cpg/sg11_2_cif.got.tgz:3396.got - 2010.06.03 12:22:45.
