data_PCOD9159023
_publ_section_title
;
Structure prediction by ZEFSAII (Michael W. Deem and Ramdas Pophale) SiO2 
 PCOD9159023
Probable space group: P 21/M
;
_chemical_formula_sum "Si O2"
_cell_formula_units_Z 32
_cell_length_a 15.726708
_cell_length_b 7.423487
_cell_length_c 24.918912
_cell_angle_alpha 90.000000
_cell_angle_beta 27.693345
_cell_angle_gamma 90.000000
_cell_volume 1352.023252
_symmetry_space_group_name_H-M "P 21/M"
_symmetry_group_IT_number 11
_symmetry_cell_setting 'monoclinic'
loop_
_space_group_symop_operation_xyz
x,y,z
-x,1/2+y,-z
-x,-y,-z
x,1/2-y,z
loop_
_atom_site_type_symbol
_atom_site_label
_atom_site_fract_x
_atom_site_fract_y
_atom_site_fract_z
Si Si1 0.026126 0.456764 0.121994
Si Si2 0.204851 0.033944 0.406784
Si Si3 0.195858 0.962666 0.918338
Si Si4 0.866397 0.469053 0.747123
Si Si5 0.695389 0.045656 0.949484
Si Si6 0.400428 0.041225 0.195115
Si Si7 0.743803 0.969599 0.499396
Si Si8 0.654114 0.029767 0.274780
O O1 0.996438 0.250000 0.153452
O O2 0.116893 0.550599 0.121712
O O3 0.834272 0.530994 0.206243
O O4 0.171274 0.461961 0.991433
O O5 0.228943 0.250000 0.394646
O O6 0.350166 0.964633 0.281346
O O7 0.229844 0.970911 0.453553
O O8 0.000000 0.000000 0.500000
O O9 0.223239 0.750000 0.909682
O O10 0.332127 0.026435 0.795645
O O11 0.000000 0.000000 0.000000
O O12 0.861578 0.250000 0.749988
O O13 0.741634 0.534816 0.865985
O O14 0.784016 0.532771 0.736974
O O15 0.077431 0.525768 0.633206
O O16 0.632084 0.250000 0.974962
O O17 0.549440 0.958259 0.071381
O O18 0.455949 0.250000 0.172475
O O19 0.743750 0.750000 0.499569
O O20 0.542340 0.025223 0.593143
O O21 0.664728 0.250000 0.268060
#
# Coordination Sequence:
#
# PCOD9159023 Si02
#       8
#     4   4   4   4   4   4   4   4
#     4  10  20  34  51  76 105 137 179 224 267 306
#     4  10  19  32  53  78 106 137 170 209 256 309
#     4   9  16  28  49  73 103 139 172 211 257 308
#     4  10  20  36  57  78 102 135 176 219 260 307
#     4  10  22  37  54  77 103 138 179 216 262 316
#     4  10  21  35  54  79 107 138 172 209 261 324
#     4   9  17  31  53  78 104 137 175 209 251 311
#     4   8  16  30  51  76 103 138 176 209 252 313
#
# _framework density 23.668232
#
# number of rings (size 3 to 8) (size 9 to 14) (size 15 to 20)
#    0.000    2.500    1.250    1.875    1.750    1.000 
#    0.000    0.625    0.000    6.000    0.000    0.000 
#    0.000    0.000    0.000    0.000    0.000    0.000 
#
# Total GULP energy -178699.210726 kJ/mol
# GULP energy per Si atom -5584.350335 kJ/mol
# Density = 2.361436 g / cm^3
# Si number density = 23.668232 Si / 1000 Ang^3
#
#
#
# Elastic Constant Matrix: (Units=GPa)
#
#
# Indices 1 2 3 4 5 6 
#
# 1 60.2353 -0.2115 9.7792 0.0000 -2.6539 0.0000
# 2 -0.2115 82.8932 7.1891 0.0000 2.8903 0.0000
# 3 9.7792 7.1891 136.1929 0.0000 -0.8071 0.0000
# 4 0.0000 0.0000 0.0000 3.7289 0.0000 -4.6415
# 5 -2.6539 2.8903 -0.8071 0.0000 39.3068 0.0000
# 6 0.0000 0.0000 0.0000 -4.6415 0.0000 13.6741
#
#
#
# Elastic Compliance Matrix: (Units=1/GPa)
#
#
# Indices 1 2 3 4 5 6 
#
# 1 0.016847 0.000109 -0.001209 0.000000 0.001105 0.000000
# 2 0.000109 0.012152 -0.000655 0.000000 -0.000900 0.000000
# 3 -0.001209 -0.000655 0.007465 0.000000 0.000120 0.000000
# 4 0.000000 0.000000 0.000000 0.464381 0.000000 0.157629
# 5 0.001105 -0.000900 0.000120 0.000000 0.025584 0.000000
# 6 0.000000 0.000000 0.000000 0.157629 0.000000 0.126636
#
#
# Mechanical properties :
#
#
# Convention : Reuss Voigt Hill
#
# Bulk Modulus (GPa) = 30.34427 34.75946 32.55187
# Shear Modulus (GPa) = 7.48997 28.84627 18.16812
#
# Velocity S-wave (km/s) = 1.78085 3.49488 2.77359
# Velocity P-wave (km/s) = 4.13244 5.56809 4.90310
#
# Compressibility (1/GPa) = 0.03295515
#
# Stress axis : x y z
#
# Youngs Moduli (GPa) = 59.35815 82.29009 133.96573
#
# Poissons Ratio (x) = -0.00900 0.16195
# Poissons Ratio (y) = -0.00649 0.08770
# Poissons Ratio (z) = 0.07176 0.05387
#
# Static dielectric constant tensor:
#      x y z
#    x 1.868010 0.000000 -0.015020 
#    y 0.000000 1.741160 0.000000 
#    z -0.015020 0.000000 1.931350 
# 
# From -- ./inp_files/69062.got.cif
#   From: 2010.05.17/outbox.cif.g08.bks.cpg/sg11_35_cif.got.tgz:69062.got - 2010.06.03 12:22:45.
