data_PCOD9159647
_publ_section_title
;
Structure prediction by ZEFSAII (Michael W. Deem and Ramdas Pophale) SiO2 
 PCOD9159647
Probable space group: P 21/M
;
_chemical_formula_sum "Si O2"
_cell_formula_units_Z 30
_cell_length_a 12.329914
_cell_length_b 7.754007
_cell_length_c 31.968391
_cell_angle_alpha 90.000000
_cell_angle_beta 26.394880
_cell_angle_gamma 90.000000
_cell_volume 1358.728379
_symmetry_space_group_name_H-M "P 21/M"
_symmetry_group_IT_number 11
_symmetry_cell_setting 'monoclinic'
loop_
_space_group_symop_operation_xyz
x,y,z
-x,1/2+y,-z
-x,-y,-z
x,1/2-y,z
loop_
_atom_site_type_symbol
_atom_site_label
_atom_site_fract_x
_atom_site_fract_y
_atom_site_fract_z
Si Si1 0.149253 0.046748 0.489821
Si Si2 0.922431 0.750000 0.720689
Si Si3 0.823757 0.552070 0.892900
Si Si4 0.159613 0.959844 0.320171
Si Si5 0.281187 0.938687 0.158674
Si Si6 0.655876 0.950446 0.282577
Si Si7 0.670353 0.540977 0.181548
Si Si8 0.204924 0.551397 0.002158
O O1 0.188336 0.250000 0.476510
O O2 0.991148 0.006675 0.585221
O O3 0.415020 0.965583 0.393301
O O4 0.000000 0.000000 0.500000
O O5 0.937409 0.593528 0.680290
O O6 0.873501 0.599033 0.772871
O O7 0.753319 0.750000 0.923253
O O8 0.682615 0.464188 0.903592
O O9 0.823165 0.456273 0.937690
O O10 0.109382 0.546582 0.781476
O O11 0.144427 0.750000 0.316863
O O12 0.444451 0.005389 0.230449
O O13 0.174964 0.750000 0.202671
O O14 0.542480 0.953100 0.092151
O O15 0.722105 0.750000 0.257184
O O16 0.610798 0.011268 0.250109
O O17 0.682537 0.750000 0.177219
O O18 0.945176 0.481678 0.075361
O O19 0.759496 0.250000 0.023345
#
# Coordination Sequence:
#
# PCOD9159647 Si02
#       8
#     4   2   4   4   4   4   4   4
#     4  11  21  33  58  95 131 162 197 249 307 373
#     4  12  26  44  64  86 114 170 218 260 302 364
#     4  11  21  37  60  97 128 160 196 254 320 375
#     4  10  22  41  62  89 123 166 211 252 303 363
#     4  12  24  43  65  88 119 161 214 262 308 365
#     4  10  19  33  56  93 131 162 196 242 312 377
#     4   8  16  33  57  85 128 166 195 247 306 366
#     4  10  19  36  62  94 131 159 199 252 316 369
#
# _framework density 22.079467000000001
#
# number of rings (size 3 to 8) (size 9 to 14) (size 15 to 20)
#    0.000    1.600    2.667    4.000    1.867    0.000 
#    6.000    0.667    0.000    0.800    0.000    0.000 
#    0.000    0.000    0.000    0.000    0.000    0.000 
#
# Total GULP energy -167073.415902 kJ/mol
# GULP energy per Si atom -5569.113863 kJ/mol
# Density = 2.202921 g / cm^3
# Si number density = 22.079467 Si / 1000 Ang^3
#
#
#
# Elastic Constant Matrix: (Units=GPa)
#
#
# Indices 1 2 3 4 5 6 
#
# 1 6.9993 13.2930 39.4013 0.0000 19.3169 0.0000
# 2 13.2930 123.4067 10.4448 0.0000 13.3565 0.0000
# 3 39.4013 10.4448 11.6871 0.0000 -12.2754 0.0000
# 4 0.0000 0.0000 0.0000 34.1609 0.0000 5.0827
# 5 19.3169 13.3565 -12.2754 0.0000 33.9874 0.0000
# 6 0.0000 0.0000 0.0000 5.0827 0.0000 27.8119
#
#
#
# Elastic Compliance Matrix: (Units=1/GPa)
#
#
# Indices 1 2 3 4 5 6 
#
# 1 -0.002508 -0.002680 0.021676 0.000000 0.010307 0.000000
# 2 -0.002680 0.008762 -0.001307 0.000000 -0.002392 0.000000
# 3 0.021676 -0.001307 0.002021 0.000000 -0.011076 0.000000
# 4 0.000000 0.000000 0.000000 0.030091 0.000000 -0.005499
# 5 0.010307 -0.002392 -0.011076 0.000000 0.020504 0.000000
# 6 0.000000 0.000000 0.000000 -0.005499 0.000000 0.036961
#
#
# Mechanical properties :
#
#
# Convention : Reuss Voigt Hill
#
# Bulk Modulus (GPa) = 22.90824 29.81902 26.36363
# Shear Modulus (GPa) = 66.66364 24.45562 45.55963
#
# Velocity S-wave (km/s) = 5.50074 3.33170 4.54744
# Velocity P-wave (km/s) = 7.12335 5.32306 6.28796
#
# Compressibility (1/GPa) = 0.04365242
#
# Stress axis : x y z
#
# Youngs Moduli (GPa) = -398.75693 114.13567 494.88894
#
# Poissons Ratio (x) = 0.30589 -10.72732
# Poissons Ratio (y) = -1.06870 0.64688
# Poissons Ratio (z) = 8.64354 0.14919
#
# Static dielectric constant tensor:
#      x y z
#    x 1.830280 0.000000 -0.012600 
#    y 0.000000 1.784160 0.000000 
#    z -0.012600 0.000000 1.879100 
# 
# From -- ./inp_files/72956.got.cif
#   From: 2010.05.17/outbox.cif.g08.bks.cpg/sg11_37_cif.got.tgz:72956.got - 2010.06.03 12:22:45.
