data_PCOD9159776
_publ_section_title
;
Structure prediction by ZEFSAII (Michael W. Deem and Ramdas Pophale) SiO2 
 PCOD9159776
Probable space group: P 21/M
;
_chemical_formula_sum "Si O2"
_cell_formula_units_Z 32
_cell_length_a 12.968218
_cell_length_b 7.463662
_cell_length_c 33.731661
_cell_angle_alpha 90.000000
_cell_angle_beta 27.001375
_cell_angle_gamma 90.000000
_cell_volume 1482.303768
_symmetry_space_group_name_H-M "P 21/M"
_symmetry_group_IT_number 11
_symmetry_cell_setting 'monoclinic'
loop_
_space_group_symop_operation_xyz
x,y,z
-x,1/2+y,-z
-x,-y,-z
x,1/2-y,z
loop_
_atom_site_type_symbol
_atom_site_label
_atom_site_fract_x
_atom_site_fract_y
_atom_site_fract_z
Si Si1 0.375953 0.466437 0.624986
Si Si2 0.275617 0.464529 0.339388
Si Si3 0.945385 0.961212 0.718570
Si Si4 0.627735 0.963189 0.283917
Si Si5 0.017433 0.957095 0.092517
Si Si6 0.135540 0.969536 0.569367
Si Si7 0.443393 0.969670 0.904945
Si Si8 0.674075 0.033403 0.143471
O O1 0.384797 0.250000 0.622812
O O2 0.374529 0.532454 0.670742
O O3 0.606038 0.528704 0.524688
O O4 0.150370 0.516728 0.678797
O O5 0.270526 0.250000 0.340005
O O6 0.392234 0.512568 0.340868
O O7 0.453405 0.523027 0.244439
O O8 0.026767 0.525874 0.411448
O O9 0.907047 0.750000 0.725107
O O10 0.704523 0.030167 0.817165
O O11 0.024876 0.031985 0.648521
O O12 0.660466 0.750000 0.275045
O O13 0.836083 0.036720 0.185726
O O14 0.048298 0.750000 0.093419
O O15 0.888214 0.963092 0.094469
O O16 0.266614 0.034057 0.998809
O O17 0.138064 0.750000 0.569200
O O18 0.438149 0.750000 0.908181
O O19 0.352927 0.023124 0.892443
O O20 0.684006 0.250000 0.140836
#
# Coordination Sequence:
#
# PCOD9159776 Si02
#       8
#     4   4   4   4   4   4   4   4
#     4  10  21  36  51  68  95 132 165 195 238 285
#     4   9  16  29  51  75  97 124 158 196 236 283
#     4  10  19  34  54  74  95 120 160 206 243 281
#     4   9  19  34  48  67 101 135 160 190 232 282
#     4   9  17  29  46  68  95 128 159 187 228 282
#     4   9  17  32  54  75  96 123 155 196 248 293
#     4   9  16  28  48  71  94 122 156 193 237 285
#     4   9  15  26  45  70  98 124 151 189 237 283
#
# _framework density 21.588017000000001
#
# number of rings (size 3 to 8) (size 9 to 14) (size 15 to 20)
#    0.000    2.750    1.250    0.750    0.000    1.000 
#    0.000    3.125    0.000    0.000    0.000    0.000 
#    0.000    0.000    0.000    0.000    0.000    0.000 
#
# Total GULP energy -178574.263651 kJ/mol
# GULP energy per Si atom -5580.445739 kJ/mol
# Density = 2.153888 g / cm^3
# Si number density = 21.588017 Si / 1000 Ang^3
#
#
#
# Elastic Constant Matrix: (Units=GPa)
#
#
# Indices 1 2 3 4 5 6 
#
# 1 24.5620 -27.2098 -88.5191 0.0000 -10.6359 0.0000
# 2 -27.2098 55.5393 -34.2518 0.0000 0.9622 0.0000
# 3 -88.5191 -34.2518 -188.0635 0.0000 -46.6707 0.0000
# 4 0.0000 0.0000 0.0000 4.7622 0.0000 -4.6929
# 5 -10.6359 0.9622 -46.6707 0.0000 19.7756 0.0000
# 6 0.0000 0.0000 0.0000 -4.6929 0.0000 22.1225
#
#
#
# Elastic Compliance Matrix: (Units=1/GPa)
#
#
# Indices 1 2 3 4 5 6 
#
# 1 0.017076 0.004204 -0.006957 0.000000 -0.007439 0.000000
# 2 0.004204 0.018007 -0.003533 0.000000 -0.006953 0.000000
# 3 -0.006957 -0.003533 -0.000324 0.000000 -0.004334 0.000000
# 4 0.000000 0.000000 0.000000 0.265488 0.000000 0.056318
# 5 -0.007439 -0.006953 -0.004334 0.000000 0.036677 0.000000
# 6 0.000000 0.000000 0.000000 0.056318 0.000000 0.057150
#
#
# Mechanical properties :
#
#
# Convention : Reuss Voigt Hill
#
# Bulk Modulus (GPa) = 45.07001 -45.32485 -0.12742
# Shear Modulus (GPa) = 12.07609 12.13327 12.10468
#
# Velocity S-wave (km/s) = 2.36771 2.37330 2.37051
# Velocity P-wave (km/s) = 5.32892 3.67843 2.72640
#
# Compressibility (1/GPa) = 0.02218771
#
# Stress axis : x y z
#
# Youngs Moduli (GPa) = 58.56030 55.53493 -3089.08145
#
# Poissons Ratio (x) = -0.23349 -21.49132
# Poissons Ratio (y) = -0.24621 -10.91378
# Poissons Ratio (z) = 0.40741 0.19621
#
# Static dielectric constant tensor:
#      x y z
#    x 1.740000 0.000000 -0.003500 
#    y 0.000000 1.832540 0.000000 
#    z -0.003500 0.000000 1.807650 
# 
# From -- ./inp_files/43142.got.cif
#   From: 2010.05.17/outbox.cif.g08.bks.cpg/sg11_22_cif.got.tgz:43142.got - 2010.06.03 12:22:45.
