data_PCOD9159819
_publ_section_title
;
Structure prediction by ZEFSAII (Michael W. Deem and Ramdas Pophale) SiO2 
 PCOD9159819
Probable space group: P 21/M
;
_chemical_formula_sum "Si O2"
_cell_formula_units_Z 28
_cell_length_a 9.478199
_cell_length_b 9.275444
_cell_length_c 24.939212
_cell_angle_alpha 90.000000
_cell_angle_beta 40.720165
_cell_angle_gamma 90.000000
_cell_volume 1430.322708
_symmetry_space_group_name_H-M "P 21/M"
_symmetry_group_IT_number 11
_symmetry_cell_setting 'monoclinic'
loop_
_space_group_symop_operation_xyz
x,y,z
-x,1/2+y,-z
-x,-y,-z
x,1/2-y,z
loop_
_atom_site_type_symbol
_atom_site_label
_atom_site_fract_x
_atom_site_fract_y
_atom_site_fract_z
Si Si1 0.571563 0.081772 0.926215
Si Si2 0.777248 0.915407 0.569590
Si Si3 0.366006 0.417403 0.655359
Si Si4 0.625966 0.582739 0.737039
Si Si5 0.107845 0.418798 0.018457
Si Si6 0.085596 0.924763 0.259327
Si Si7 0.791839 0.582267 0.176137
O O1 0.601142 0.250000 0.931368
O O2 0.782156 0.034220 0.832732
O O3 0.366074 0.069096 0.945601
O O4 0.500000 0.000000 0.000000
O O5 0.805227 0.750000 0.545109
O O6 0.709387 0.919143 0.651700
O O7 0.581445 0.988179 0.593211
O O8 0.000000 0.000000 0.500000
O O9 0.420354 0.250000 0.629358
O O10 0.270101 0.424321 0.743549
O O11 0.166870 0.461129 0.674856
O O12 0.592147 0.750000 0.762358
O O13 0.797491 0.504786 0.725800
O O14 0.402440 0.494248 0.800084
O O15 0.052337 0.250000 0.034102
O O16 0.007126 0.495683 0.099665
O O17 0.000000 0.500000 0.000000
O O18 0.103591 0.750000 0.259527
O O19 0.812770 0.750000 0.154867
#
# Coordination Sequence:
#
# PCOD9159819 Si02
#       7
#     4   4   4   4   4   4   4
#     4  10  22  37  53  76 107 144 187 231 276 323
#     4  10  21  38  61  87 114 141 176 219 265 323
#     4   9  19  35  57  82 108 141 180 220 266 320
#     4  10  21  36  56  84 113 143 180 224 271 323
#     4  11  22  34  50  75 105 139 182 232 280 326
#     4  10  20  36  56  80 111 146 185 227 271 326
#     4  10  19  34  55  76 102 140 183 227 274 325
#
# _framework density 19.576001000000002
#
# number of rings (size 3 to 8) (size 9 to 14) (size 15 to 20)
#    0.000    2.000    0.000    3.429    0.000    6.857 
#    0.000    0.714    0.000    0.000    0.000    0.000 
#    0.000    0.000    0.000    0.000    0.000    0.000 
#
# Total GULP energy -156411.496847 kJ/mol
# GULP energy per Si atom -5586.124887 kJ/mol
# Density = 1.953145 g / cm^3
# Si number density = 19.576001 Si / 1000 Ang^3
#
#
#
# Elastic Constant Matrix: (Units=GPa)
#
#
# Indices 1 2 3 4 5 6 
#
# 1 87.1605 38.4120 0.5543 0.0000 -26.7379 0.0000
# 2 38.4120 96.0184 31.3103 0.0000 -26.5300 0.0000
# 3 0.5543 31.3103 49.8003 0.0000 -32.8159 0.0000
# 4 0.0000 0.0000 0.0000 31.5852 0.0000 -0.7822
# 5 -26.7379 -26.5300 -32.8159 0.0000 32.5485 0.0000
# 6 0.0000 0.0000 0.0000 -0.7822 0.0000 31.6240
#
#
#
# Elastic Compliance Matrix: (Units=1/GPa)
#
#
# Indices 1 2 3 4 5 6 
#
# 1 0.063580 -0.020708 0.106085 0.000000 0.142307 0.000000
# 2 -0.020708 0.020416 -0.038284 0.000000 -0.038969 0.000000
# 3 0.106085 -0.038284 0.237852 0.000000 0.295748 0.000000
# 4 0.000000 0.000000 0.000000 0.031680 0.000000 0.000784
# 5 0.142307 -0.038969 0.295748 0.000000 0.414039 0.000000
# 6 0.000000 0.000000 0.000000 0.000784 0.000000 0.031641
#
#
# Mechanical properties :
#
#
# Convention : Reuss Voigt Hill
#
# Bulk Modulus (GPa) = 2.40366 41.50361 21.95363
# Shear Modulus (GPa) = 5.92628 29.99837 17.96232
#
# Velocity S-wave (km/s) = 1.74181 3.91884 3.03243
# Velocity P-wave (km/s) = 2.29689 6.45939 4.84765
#
# Compressibility (1/GPa) = 0.41603218
#
# Stress axis : x y z
#
# Youngs Moduli (GPa) = 15.72832 48.98217 4.20430
#
# Poissons Ratio (x) = 1.01433 -0.44601
# Poissons Ratio (y) = 0.32571 0.16096
# Poissons Ratio (z) = -1.66854 1.87523
#
# Static dielectric constant tensor:
#      x y z
#    x 1.698410 0.000000 0.008690 
#    y 0.000000 1.663170 0.000000 
#    z 0.008690 0.000000 1.691340 
# 
# From -- ./inp_files/28161.got.cif
#   From: 2010.05.17/outbox.cif.g08.bks.cpg/sg11_15_cif.got.tgz:28161.got - 2010.06.03 12:22:45.
