data_PCOD9159220
_publ_section_title
;
Structure prediction by ZEFSAII (Michael W. Deem and Ramdas Pophale) SiO2 
 PCOD9159220
Probable space group: P 21/M
;
_chemical_formula_sum "Si O2"
_cell_formula_units_Z 28
_cell_length_a 29.831128
_cell_length_b 8.583526
_cell_length_c 9.176767
_cell_angle_alpha 90.000000
_cell_angle_beta 40.065645
_cell_angle_gamma 90.000000
_cell_volume 1512.463520
_symmetry_space_group_name_H-M "P 21/M"
_symmetry_group_IT_number 11
_symmetry_cell_setting 'monoclinic'
loop_
_space_group_symop_operation_xyz
x,y,z
-x,1/2+y,-z
-x,-y,-z
x,1/2-y,z
loop_
_atom_site_type_symbol
_atom_site_label
_atom_site_fract_x
_atom_site_fract_y
_atom_site_fract_z
Si Si1 0.793923 0.437016 0.599126
Si Si2 0.931738 0.437223 0.750267
Si Si3 0.501177 0.062205 0.662962
Si Si4 0.651727 0.437067 0.288443
Si Si5 0.350570 0.437371 0.038620
Si Si6 0.067408 0.562083 0.915222
Si Si7 0.203070 0.435452 0.078268
O O1 0.791591 0.250000 0.610324
O O2 0.720611 0.497884 0.717426
O O3 0.861106 0.487813 0.340557
O O4 0.800991 0.500035 0.746289
O O5 0.931434 0.250000 0.744263
O O6 0.862281 0.500322 0.847376
O O7 0.000000 0.500000 0.500000
O O8 0.933725 0.486624 0.913887
O O9 0.502011 0.250000 0.654576
O O10 0.576267 0.014738 0.540923
O O11 0.500000 0.000000 0.500000
O O12 0.426132 0.017234 0.916332
O O13 0.657330 0.250000 0.277517
O O14 0.649321 0.494370 0.126198
O O15 0.722848 0.508864 0.171734
O O16 0.346473 0.250000 0.041390
O O17 0.065726 0.750000 0.914954
O O18 0.000000 0.500000 0.000000
O O19 0.201659 0.250000 0.087061
#
# Coordination Sequence:
#
# PCOD9159220 Si02
#       7
#     4   4   4   4   4   4   4
#     4  10  19  33  51  74 102 135 169 206 249 298
#     4  11  23  40  58  79 103 131 164 203 247 296
#     4   8  14  22  35  58  91 127 165 203 246 291
#     4   9  15  25  41  63  93 132 169 206 248 293
#     4   9  15  24  39  64  96 130 165 206 248 293
#     4  10  23  39  57  78 102 129 163 202 245 294
#     4  11  21  33  50  76 105 136 170 208 249 295
#
# _framework density 18.512841999999999
#
# number of rings (size 3 to 8) (size 9 to 14) (size 15 to 20)
#    0.000    2.286    0.000    5.571    0.000    5.714 
#    0.000    0.000    0.000    0.000    0.000    1.000 
#    0.000    0.000    0.000    0.000    0.000    0.000 
#
# Total GULP energy -156062.370446 kJ/mol
# GULP energy per Si atom -5573.656087 kJ/mol
# Density = 1.847071 g / cm^3
# Si number density = 18.512842 Si / 1000 Ang^3
#
#
#
# Elastic Constant Matrix: (Units=GPa)
#
#
# Indices 1 2 3 4 5 6 
#
# 1 116.4561 35.3048 92.6550 0.0000 -43.8350 0.0000
# 2 35.3048 59.6290 35.2203 0.0000 -13.0994 0.0000
# 3 92.6550 35.2203 146.5651 0.0000 -48.8533 0.0000
# 4 0.0000 0.0000 0.0000 21.3471 0.0000 -10.0818
# 5 -43.8350 -13.0994 -48.8533 0.0000 41.8168 0.0000
# 6 0.0000 0.0000 0.0000 -10.0818 0.0000 24.4624
#
#
#
# Elastic Compliance Matrix: (Units=1/GPa)
#
#
# Indices 1 2 3 4 5 6 
#
# 1 0.020692 -0.005001 -0.008470 0.000000 0.010229 0.000000
# 2 -0.005001 0.020781 -0.002309 0.000000 -0.001430 0.000000
# 3 -0.008470 -0.002309 0.015610 0.000000 0.008636 0.000000
# 4 0.000000 0.000000 0.000000 0.058166 0.000000 0.023973
# 5 0.010229 -0.001430 0.008636 0.000000 0.044278 0.000000
# 6 0.000000 0.000000 0.000000 0.023973 0.000000 0.050759
#
#
# Mechanical properties :
#
#
# Convention : Reuss Voigt Hill
#
# Bulk Modulus (GPa) = 39.17857 72.11226 55.64541
# Shear Modulus (GPa) = 19.97172 28.15660 24.06416
#
# Velocity S-wave (km/s) = 3.28808 3.90413 3.60927
# Velocity P-wave (km/s) = 5.96860 7.70455 6.89145
#
# Compressibility (1/GPa) = 0.02552416
#
# Stress axis : x y z
#
# Youngs Moduli (GPa) = 48.32754 48.12072 64.06005
#
# Poissons Ratio (x) = 0.24067 0.54256
# Poissons Ratio (y) = 0.24171 0.14789
# Poissons Ratio (z) = 0.40931 0.11110
#
# Static dielectric constant tensor:
#      x y z
#    x 1.646640 0.000000 -0.041010 
#    y 0.000000 1.625610 0.000000 
#    z -0.041010 0.000000 1.678770 
# 
# From -- ./inp_files/28994.got.cif
#   From: 2010.05.17/outbox.cif.g08.bks.cpg/sg11_15_cif.got.tgz:28994.got - 2010.06.03 12:22:45.
