data_PCOD9159644
_publ_section_title
;
Structure prediction by ZEFSAII (Michael W. Deem and Ramdas Pophale) SiO2 
 PCOD9159644
Probable space group: P 21/M
;
_chemical_formula_sum "Si O2"
_cell_formula_units_Z 32
_cell_length_a 12.404124
_cell_length_b 20.697759
_cell_length_c 6.576814
_cell_angle_alpha 90.000000
_cell_angle_beta 115.297116
_cell_angle_gamma 90.000000
_cell_volume 1526.593483
_symmetry_space_group_name_H-M "P 21/M"
_symmetry_group_IT_number 11
_symmetry_cell_setting 'monoclinic'
loop_
_space_group_symop_operation_xyz
x,y,z
-x,1/2+y,-z
-x,-y,-z
x,1/2-y,z
loop_
_atom_site_type_symbol
_atom_site_label
_atom_site_fract_x
_atom_site_fract_y
_atom_site_fract_z
Si Si1 0.333846 0.399268 0.041759
Si Si2 0.757928 0.423389 0.637606
Si Si3 0.809866 0.825715 0.732228
Si Si4 0.094324 0.824210 0.974243
Si Si5 0.257797 0.676947 0.735191
Si Si6 0.732854 0.948594 0.407634
Si Si7 0.508365 0.822388 0.153423
Si Si8 0.507300 0.577851 0.457075
O O1 0.261965 0.447123 0.832772
O O2 0.413246 0.359769 0.946982
O O3 0.250199 0.353492 0.110483
O O4 0.425735 0.429975 0.276204
O O5 0.846989 0.381420 0.846930
O O6 0.730664 0.376637 0.426015
O O7 0.797342 0.492415 0.575574
O O8 0.632477 0.435026 0.651629
O O9 0.777682 0.750000 0.668382
O O10 0.774459 0.879259 0.532371
O O11 0.952398 0.827714 0.868609
O O12 0.130011 0.750000 0.064960
O O13 0.142187 0.831675 0.782735
O O14 0.257162 0.750000 0.649219
O O15 0.371594 0.672305 0.974408
O O16 0.593003 0.956427 0.361079
O O17 0.547938 0.750000 0.177672
O O18 0.517474 0.848544 0.388844
#
# Coordination Sequence:
#
# PCOD9159644 Si02
#       8
#     4   4   4   4   4   4   4   4
#     4  10  21  39  59  92 120 159 201 246 309 362
#     4  12  22  39  63  91 127 165 202 249 306 370
#     4  10  23  45  67  87 118 162 210 256 303 363
#     4  10  23  43  66  91 122 162 206 254 305 357
#     4  10  21  36  58  91 125 160 200 249 306 359
#     4  10  25  40  61  93 124 163 206 251 303 361
#     4  10  19  33  56  90 124 152 197 255 305 356
#     4  10  21  37  57  88 123 164 202 242 303 367
#
# _framework density 20.961703
#
# number of rings (size 3 to 8) (size 9 to 14) (size 15 to 20)
#    0.000    1.750    2.500    1.125    0.000   10.000 
#    0.000    3.750    0.000    0.000    0.000    0.000 
#    0.000    0.000    0.000    0.000    0.000    0.000 
#
# Total GULP energy -178465.425752 kJ/mol
# GULP energy per Si atom -5577.044555 kJ/mol
# Density = 2.091399 g / cm^3
# Si number density = 20.961703 Si / 1000 Ang^3
#
#
#
# Elastic Constant Matrix: (Units=GPa)
#
#
# Indices 1 2 3 4 5 6 
#
# 1 88.9856 18.1698 16.0793 0.0000 8.2637 0.0000
# 2 18.1698 96.2214 26.9473 0.0000 0.4456 0.0000
# 3 16.0793 26.9473 80.2718 0.0000 -6.9668 0.0000
# 4 0.0000 0.0000 0.0000 28.0890 0.0000 -0.7879
# 5 8.2637 0.4456 -6.9668 0.0000 20.7875 0.0000
# 6 0.0000 0.0000 0.0000 -0.7879 0.0000 23.1184
#
#
#
# Elastic Compliance Matrix: (Units=1/GPa)
#
#
# Indices 1 2 3 4 5 6 
#
# 1 0.012557 -0.001655 -0.002462 0.000000 -0.005781 0.000000
# 2 -0.001655 0.011740 -0.003681 0.000000 -0.000828 0.000000
# 3 -0.002462 -0.003681 0.014706 0.000000 0.005986 0.000000
# 4 0.000000 0.000000 0.000000 0.035635 0.000000 0.001214
# 5 -0.005781 -0.000828 0.005986 0.000000 0.052428 0.000000
# 6 0.000000 0.000000 0.000000 0.001214 0.000000 0.043297
#
#
# Mechanical properties :
#
#
# Convention : Reuss Voigt Hill
#
# Bulk Modulus (GPa) = 42.72142 43.09685 42.90914
# Shear Modulus (GPa) = 25.80479 28.01781 26.91130
#
# Velocity S-wave (km/s) = 3.51243 3.65995 3.58695
# Velocity P-wave (km/s) = 6.07244 6.20199 6.13756
#
# Compressibility (1/GPa) = 0.02340746
#
# Stress axis : x y z
#
# Youngs Moduli (GPa) = 79.63429 85.17836 67.99880
#
# Poissons Ratio (x) = 0.14098 0.16738
# Poissons Ratio (y) = 0.13180 0.25033
# Poissons Ratio (z) = 0.19602 0.31358
#
# Static dielectric constant tensor:
#      x y z
#    x 1.734270 0.000000 0.012390 
#    y 0.000000 1.827530 0.000000 
#    z 0.012390 0.000000 1.771850 
# 
# From -- ./inp_files/5499.got.cif
#   From: 2010.05.17/outbox.cif.g08.bks.cpg/sg11_3_cif.got.tgz:5499.got - 2010.06.03 12:22:45.
