data_PCOD9159857
_publ_section_title
;
Structure prediction by ZEFSAII (Michael W. Deem and Ramdas Pophale) SiO2 
 PCOD9159857
Probable space group: P 21/M
;
_chemical_formula_sum "Si O2"
_cell_formula_units_Z 24
_cell_length_a 21.234433
_cell_length_b 8.530027
_cell_length_c 9.262102
_cell_angle_alpha 90.000000
_cell_angle_beta 129.881260
_cell_angle_gamma 90.000000
_cell_volume 1287.384367
_symmetry_space_group_name_H-M "P 21/M"
_symmetry_group_IT_number 11
_symmetry_cell_setting 'monoclinic'
loop_
_space_group_symop_operation_xyz
x,y,z
-x,1/2+y,-z
-x,-y,-z
x,1/2-y,z
loop_
_atom_site_type_symbol
_atom_site_label
_atom_site_fract_x
_atom_site_fract_y
_atom_site_fract_z
Si Si1 0.232361 0.063313 0.265978
Si Si2 0.921181 0.938077 0.469252
Si Si3 0.761898 0.560052 0.063370
Si Si4 0.405451 0.564202 0.529156
Si Si5 0.417001 0.059812 0.219263
Si Si6 0.076305 0.564345 0.203588
O O1 0.220792 0.250000 0.254772
O O2 0.323026 0.021457 0.457697
O O3 0.160431 0.981402 0.247658
O O4 0.228937 0.014099 0.091662
O O5 0.921396 0.750000 0.463483
O O6 0.837539 0.996950 0.269712
O O7 0.924515 0.991616 0.638716
O O8 0.000000 0.000000 0.500000
O O9 0.764764 0.750000 0.069082
O O10 0.669985 0.516950 0.980226
O O11 0.394326 0.750000 0.529544
O O12 0.495425 0.518982 0.722813
O O13 0.413150 0.520775 0.370627
O O14 0.417637 0.250000 0.241673
O O15 0.068871 0.750000 0.204017
O O16 0.000000 0.500000 0.000000
#
# Coordination Sequence:
#
# PCOD9159857 Si02
#       6
#     4   4   4   4   4   4
#     4  10  19  34  55  80 110 143 179 220 267 319
#     4  11  22  38  59  82 109 142 180 223 272 324
#     4   8  16  31  53  78 105 139 178 219 264 315
#     4   9  15  24  43  73 106 139 176 220 267 312
#     4   8  14  26  44  69 103 141 180 221 263 309
#     4  12  25  41  59  81 108 139 178 222 271 326
#
# _framework density 18.642451000000001
#
# number of rings (size 3 to 8) (size 9 to 14) (size 15 to 20)
#    0.000    2.333    0.000    5.000    0.000    2.000 
#    0.000    7.500    0.000    1.000    0.000    0.000 
#    0.000    0.000    0.000    0.000    0.000    0.000 
#
# Total GULP energy -133802.700555 kJ/mol
# GULP energy per Si atom -5575.112523 kJ/mol
# Density = 1.860002 g / cm^3
# Si number density = 18.642451 Si / 1000 Ang^3
#
#
#
# Elastic Constant Matrix: (Units=GPa)
#
#
# Indices 1 2 3 4 5 6 
#
# 1 102.9517 16.3237 75.2292 0.0000 28.1939 0.0000
# 2 16.3237 50.8557 22.4774 0.0000 5.9436 0.0000
# 3 75.2292 22.4774 133.1086 0.0000 31.2333 0.0000
# 4 0.0000 0.0000 0.0000 21.9248 0.0000 4.1909
# 5 28.1939 5.9436 31.2333 0.0000 31.3322 0.0000
# 6 0.0000 0.0000 0.0000 4.1909 0.0000 31.7357
#
#
#
# Elastic Compliance Matrix: (Units=1/GPa)
#
#
# Indices 1 2 3 4 5 6 
#
# 1 0.017995 -0.001272 -0.008110 0.000000 -0.007868 0.000000
# 2 -0.001272 0.021348 -0.002877 0.000000 -0.000037 0.000000
# 3 -0.008110 -0.002877 0.014021 0.000000 -0.006134 0.000000
# 4 0.000000 0.000000 0.000000 0.046791 0.000000 -0.006179
# 5 -0.007868 -0.000037 -0.006134 0.000000 0.045117 0.000000
# 6 0.000000 0.000000 0.000000 -0.006179 0.000000 0.032326
#
#
# Mechanical properties :
#
#
# Convention : Reuss Voigt Hill
#
# Bulk Modulus (GPa) = 34.66679 57.21961 45.94320
# Shear Modulus (GPa) = 23.61468 28.52427 26.06947
#
# Velocity S-wave (km/s) = 3.56296 3.91586 3.74357
# Velocity P-wave (km/s) = 5.96340 7.15577 6.58662
#
# Compressibility (1/GPa) = 0.02884605
#
# Stress axis : x y z
#
# Youngs Moduli (GPa) = 55.56949 46.84315 71.32132
#
# Poissons Ratio (x) = 0.05960 0.57838
# Poissons Ratio (y) = 0.07071 0.20521
# Poissons Ratio (z) = 0.45064 0.13478
#
# Static dielectric constant tensor:
#      x y z
#    x 1.645040 0.000000 0.043660 
#    y 0.000000 1.638850 0.000000 
#    z 0.043660 0.000000 1.664230 
# 
# From -- ./inp_files/25713.got.cif
#   From: 2010.05.17/outbox.cif.g08.bks.cpg/sg11_13_cif.got.tgz:25713.got - 2010.06.03 12:22:45.
