data_PCOD9159051
_publ_section_title
;
Structure prediction by ZEFSAII (Michael W. Deem and Ramdas Pophale) SiO2 
 PCOD9159051
Probable space group: P 21/M
;
_chemical_formula_sum "Si O2"
_cell_formula_units_Z 28
_cell_length_a 24.711967
_cell_length_b 14.100113
_cell_length_c 19.384681
_cell_angle_alpha 90.000000
_cell_angle_beta 12.521901
_cell_angle_gamma 90.000000
_cell_volume 1464.446293
_symmetry_space_group_name_H-M "P 21/M"
_symmetry_group_IT_number 11
_symmetry_cell_setting 'monoclinic'
loop_
_space_group_symop_operation_xyz
x,y,z
-x,1/2+y,-z
-x,-y,-z
x,1/2-y,z
loop_
_atom_site_type_symbol
_atom_site_label
_atom_site_fract_x
_atom_site_fract_y
_atom_site_fract_z
Si Si1 0.209991 0.480991 0.845762
Si Si2 0.955655 0.361911 0.042261
Si Si3 0.683078 0.356778 0.749939
Si Si4 0.116547 0.469789 0.263644
Si Si5 0.489458 0.356217 0.718800
Si Si6 0.857181 0.860645 0.629718
Si Si7 0.903301 0.355311 0.322807
O O1 0.500000 0.500000 0.500000
O O2 0.062923 0.575523 0.003690
O O3 0.091853 0.433933 0.060862
O O4 0.145053 0.408605 0.862659
O O5 0.004278 0.250000 0.973170
O O6 0.676528 0.371926 0.422602
O O7 0.743118 0.250000 0.699215
O O8 0.834825 0.431535 0.605023
O O9 0.789464 0.365951 0.539896
O O10 0.386832 0.366466 0.114784
O O11 0.206716 0.415250 0.219794
O O12 0.088196 0.581343 0.310282
O O13 0.282231 0.433654 0.993961
O O14 0.378214 0.250000 0.852759
O O15 0.676310 0.356698 0.551210
O O16 0.905184 0.750000 0.583171
O O17 0.019469 0.250000 0.172593
#
# Coordination Sequence:
#
# PCOD9159051 Si02
#       7
#     4   4   4   4   4   4   4
#     4  10  20  33  52  82 110 138 173 216 271 326
#     4   9  20  36  54  78 109 142 177 222 268 313
#     4  10  19  32  53  81 106 130 169 218 261 302
#     4  11  20  31  55  80 101 136 173 209 256 311
#     4   9  16  31  53  78 105 131 169 217 259 301
#     4  10  21  36  50  75 109 136 168 213 256 302
#     4   9  18  33  54  80 109 132 163 221 269 301
#
# _framework density 19.119854
#
# number of rings (size 3 to 8) (size 9 to 14) (size 15 to 20)
#    0.000    2.286    1.429    3.000    2.000    1.143 
#    0.000    0.000    0.000    9.429    0.000    0.000 
#    0.000    0.000    0.000    0.000    0.000    0.000 
#
# Total GULP energy -156138.850229 kJ/mol
# GULP energy per Si atom -5576.387508 kJ/mol
# Density = 1.907634 g / cm^3
# Si number density = 19.119854 Si / 1000 Ang^3
#
#
#
# Elastic Constant Matrix: (Units=GPa)
#
#
# Indices 1 2 3 4 5 6 
#
# 1 29.8702 9.2555 7.2330 0.0000 -10.9494 0.0000
# 2 9.2555 109.1263 46.1598 0.0000 -3.8544 0.0000
# 3 7.2330 46.1598 69.1185 0.0000 -3.0296 0.0000
# 4 0.0000 0.0000 0.0000 27.3325 0.0000 4.0045
# 5 -10.9494 -3.8544 -3.0296 0.0000 29.4760 0.0000
# 6 0.0000 0.0000 0.0000 4.0045 0.0000 10.0898
#
#
#
# Elastic Compliance Matrix: (Units=1/GPa)
#
#
# Indices 1 2 3 4 5 6 
#
# 1 0.039873 -0.001918 -0.002263 0.000000 0.014328 0.000000
# 2 -0.001918 0.012882 -0.008398 0.000000 0.000109 0.000000
# 3 -0.002263 -0.008398 0.020320 0.000000 0.000150 0.000000
# 4 0.000000 0.000000 0.000000 0.038845 0.000000 -0.015417
# 5 0.014328 0.000109 0.000150 0.000000 0.039278 0.000000
# 6 0.000000 0.000000 0.000000 -0.015417 0.000000 0.105229
#
#
# Mechanical properties :
#
#
# Convention : Reuss Voigt Hill
#
# Bulk Modulus (GPa) = 20.86990 37.04573 28.95781
# Shear Modulus (GPa) = 16.80341 23.07744 19.94043
#
# Velocity S-wave (km/s) = 2.96775 3.47794 3.23293
# Velocity P-wave (km/s) = 4.76260 5.96202 5.39574
#
# Compressibility (1/GPa) = 0.04791591
#
# Stress axis : x y z
#
# Youngs Moduli (GPa) = 25.07971 77.62471 49.21331
#
# Poissons Ratio (x) = 0.14891 0.11139
# Poissons Ratio (y) = 0.04811 0.41329
# Poissons Ratio (z) = 0.05676 0.65188
#
# Static dielectric constant tensor:
#      x y z
#    x 1.683110 0.000000 -0.016490 
#    y 0.000000 1.733450 0.000000 
#    z -0.016490 0.000000 1.691840 
# 
# From -- ./inp_files/70456.got.cif
#   From: 2010.05.17/outbox.cif.g08.bks.cpg/sg11_36_cif.got.tgz:70456.got - 2010.06.03 12:22:45.
