data_PCOD9159755
_publ_section_title
;
Structure prediction by ZEFSAII (Michael W. Deem and Ramdas Pophale) SiO2 
 PCOD9159755
Probable space group: P 21/M
;
_chemical_formula_sum "Si O2"
_cell_formula_units_Z 28
_cell_length_a 30.034277
_cell_length_b 8.867653
_cell_length_c 13.083677
_cell_angle_alpha 90.000000
_cell_angle_beta 150.781377
_cell_angle_gamma 90.000000
_cell_volume 1700.995144
_symmetry_space_group_name_H-M "P 21/M"
_symmetry_group_IT_number 11
_symmetry_cell_setting 'monoclinic'
loop_
_space_group_symop_operation_xyz
x,y,z
-x,1/2+y,-z
-x,-y,-z
x,1/2-y,z
loop_
_atom_site_type_symbol
_atom_site_label
_atom_site_fract_x
_atom_site_fract_y
_atom_site_fract_z
Si Si1 0.095509 0.930051 0.570314
Si Si2 0.600483 0.931601 0.699682
Si Si3 0.395372 0.068901 0.897243
Si Si4 0.282287 0.069154 0.264811
Si Si5 0.720885 0.568038 0.137344
Si Si6 0.901230 0.069804 0.182115
Si Si7 0.607972 0.070065 0.329319
O O1 0.090057 0.750000 0.550518
O O2 0.111048 0.967700 0.721735
O O3 0.180581 0.994340 0.678538
O O4 0.999193 0.003389 0.347462
O O5 0.593324 0.750000 0.686514
O O6 0.655356 0.975973 0.707669
O O7 0.500000 0.000000 0.500000
O O8 0.658164 0.977203 0.915116
O O9 0.390308 0.250000 0.872512
O O10 0.330393 0.026916 0.860877
O O11 0.371509 0.987931 0.743628
O O12 0.501029 0.032969 0.134538
O O13 0.277160 0.250000 0.256630
O O14 0.329460 0.008035 0.461189
O O15 0.182361 0.001370 0.046454
O O16 0.730039 0.750000 0.152673
O O17 0.901361 0.250000 0.172281
O O18 0.618192 0.250000 0.355517
#
# Coordination Sequence:
#
# PCOD9159755 Si02
#       7
#     4   4   4   4   4   4   4
#     4  10  20  33  52  78 106 137 175 218 260 312
#     4  10  21  33  48  73 107 142 172 209 258 311
#     4   9  19  35  55  77 104 140 181 222 262 308
#     4  11  21  34  53  77 107 140 176 217 262 314
#     4  10  19  34  53  75 106 141 175 214 262 314
#     4  10  20  34  53  76 105 140 176 216 261 312
#     4  10  20  35  55  77 105 139 181 225 263 309
#
# _framework density 16.460953
#
# number of rings (size 3 to 8) (size 9 to 14) (size 15 to 20)
#    0.000    2.000    1.429    2.571    0.000    5.143 
#    0.000    0.000    0.000    0.857    0.000    0.000 
#    0.000    0.000    0.000    0.000    0.000    0.000 
#
# Total GULP energy -156341.546719 kJ/mol
# GULP energy per Si atom -5583.626669 kJ/mol
# Density = 1.642349 g / cm^3
# Si number density = 16.460953 Si / 1000 Ang^3
#
#
#
# Elastic Constant Matrix: (Units=GPa)
#
#
# Indices 1 2 3 4 5 6 
#
# 1 119.5858 47.5011 93.5933 0.0000 7.3357 0.0000
# 2 47.5011 41.5853 57.9333 0.0000 0.6672 0.0000
# 3 93.5933 57.9333 155.8774 0.0000 7.5522 0.0000
# 4 0.0000 0.0000 0.0000 29.2570 0.0000 7.2233
# 5 7.3357 0.6672 7.5522 0.0000 22.1824 0.0000
# 6 0.0000 0.0000 0.0000 7.2233 0.0000 21.4417
#
#
#
# Elastic Compliance Matrix: (Units=1/GPa)
#
#
# Indices 1 2 3 4 5 6 
#
# 1 0.018340 -0.012007 -0.006378 0.000000 -0.003532 0.000000
# 2 -0.012007 0.058253 -0.014793 0.000000 0.007255 0.000000
# 3 -0.006378 -0.014793 0.015881 0.000000 -0.002853 0.000000
# 4 0.000000 0.000000 0.000000 0.037281 0.000000 -0.012559
# 5 -0.003532 0.007255 -0.002853 0.000000 0.047002 0.000000
# 6 0.000000 0.000000 0.000000 -0.012559 0.000000 0.050869
#
#
# Mechanical properties :
#
#
# Convention : Reuss Voigt Hill
#
# Bulk Modulus (GPa) = 38.28623 79.45599 58.87111
# Shear Modulus (GPa) = 16.51867 22.44428 19.48147
#
# Velocity S-wave (km/s) = 3.17125 3.69655 3.44393
# Velocity P-wave (km/s) = 6.05957 8.16048 7.18721
#
# Compressibility (1/GPa) = 0.02611905
#
# Stress axis : x y z
#
# Youngs Moduli (GPa) = 54.52529 17.16640 62.96750
#
# Poissons Ratio (x) = 0.20611 0.40164
# Poissons Ratio (y) = 0.65466 0.93147
# Poissons Ratio (z) = 0.34779 0.25394
#
# Static dielectric constant tensor:
#      x y z
#    x 1.535770 0.000000 0.001020 
#    y 0.000000 1.548100 0.000000 
#    z 0.001020 0.000000 1.524480 
# 
# From -- ./inp_files/44677.got.cif
#   From: 2010.05.17/outbox.cif.g08.bks.cpg/sg11_23_cif.got.tgz:44677.got - 2010.06.03 12:22:45.
