data_PCOD9159369
_publ_section_title
;
Structure prediction by ZEFSAII (Michael W. Deem and Ramdas Pophale) SiO2 
 PCOD9159369
Probable space group: P 21/M
;
_chemical_formula_sum "Si O2"
_cell_formula_units_Z 32
_cell_length_a 14.117280
_cell_length_b 14.392329
_cell_length_c 9.805006
_cell_angle_alpha 90.000000
_cell_angle_beta 133.614620
_cell_angle_gamma 90.000000
_cell_volume 1442.334723
_symmetry_space_group_name_H-M "P 21/M"
_symmetry_group_IT_number 11
_symmetry_cell_setting 'monoclinic'
loop_
_space_group_symop_operation_xyz
x,y,z
-x,1/2+y,-z
-x,-y,-z
x,1/2-y,z
loop_
_atom_site_type_symbol
_atom_site_label
_atom_site_fract_x
_atom_site_fract_y
_atom_site_fract_z
Si Si1 0.313110 0.146851 0.615974
Si Si2 0.220330 0.641285 0.744663
Si Si3 0.508113 0.142822 0.596839
Si Si4 0.668462 0.000359 0.926999
Si Si5 0.876239 0.016394 0.563929
Si Si6 0.258076 0.643762 0.342440
Si Si7 0.099511 0.529948 0.980901
Si Si8 0.513991 0.853471 0.952439
O O1 0.256833 0.250000 0.575705
O O2 0.359471 0.136564 0.504156
O O3 0.437661 0.141768 0.841903
O O4 0.217105 0.067797 0.569458
O O5 0.194503 0.750000 0.746658
O O6 0.256583 0.578830 0.910188
O O7 0.110841 0.589093 0.546648
O O8 0.357869 0.636246 0.796514
O O9 0.544259 0.250000 0.675661
O O10 0.585181 0.135138 0.529707
O O11 0.568776 0.056177 0.735314
O O12 0.782541 0.960143 0.943117
O O13 0.592488 0.929268 0.946171
O O14 0.799467 0.073758 0.604893
O O15 0.004332 0.970673 0.756171
O O16 0.231415 0.750000 0.354504
O O17 0.179113 0.617435 0.124163
O O18 0.000000 0.500000 0.000000
O O19 0.546303 0.750000 0.934619
#
# Coordination Sequence:
#
# PCOD9159369 Si02
#       8
#     4   4   4   4   4   4   4   4
#     4  10  19  33  53  79 115 149 184 227 273 331
#     4  11  21  33  56  89 118 143 178 228 283 343
#     4   9  17  31  55  83 106 140 189 230 270 332
#     4  11  18  34  60  80 109 148 189 227 278 327
#     4  11  21  36  54  80 117 146 182 230 287 324
#     4   9  19  37  59  79 104 144 189 235 282 330
#     4   9  22  40  58  77 105 146 196 238 270 323
#     4  10  20  35  54  83 118 151 183 218 273 341
#
# _framework density 22.186250000000001
#
# number of rings (size 3 to 8) (size 9 to 14) (size 15 to 20)
#    0.000    2.000    2.500    1.875    0.000    2.000 
#    0.000    4.375    0.000    7.500    0.000    0.000 
#    0.000    0.000    0.000    0.000    0.000    0.000 
#
# Total GULP energy -178329.142624 kJ/mol
# GULP energy per Si atom -5572.785707 kJ/mol
# Density = 2.213575 g / cm^3
# Si number density = 22.186250 Si / 1000 Ang^3
#
#
#
# Elastic Constant Matrix: (Units=GPa)
#
#
# Indices 1 2 3 4 5 6 
#
# 1 65.5935 20.1344 -23.4794 0.0000 5.5278 0.0000
# 2 20.1344 93.8579 18.2129 0.0000 2.9828 0.0000
# 3 -23.4794 18.2129 53.8119 0.0000 -7.8294 0.0000
# 4 0.0000 0.0000 0.0000 19.1537 0.0000 -4.9885
# 5 5.5278 2.9828 -7.8294 0.0000 19.6019 0.0000
# 6 0.0000 0.0000 0.0000 -4.9885 0.0000 17.1469
#
#
#
# Elastic Compliance Matrix: (Units=1/GPa)
#
#
# Indices 1 2 3 4 5 6 
#
# 1 0.021574 -0.006885 0.011690 0.000000 -0.000367 0.000000
# 2 -0.006885 0.013828 -0.008184 0.000000 -0.003431 0.000000
# 3 0.011690 -0.008184 0.027769 0.000000 0.009040 0.000000
# 4 0.000000 0.000000 0.000000 0.056489 0.000000 0.016434
# 5 -0.000367 -0.003431 0.009040 0.000000 0.055252 0.000000
# 6 0.000000 0.000000 0.000000 0.016434 0.000000 0.063101
#
#
# Mechanical properties :
#
#
# Convention : Reuss Voigt Hill
#
# Bulk Modulus (GPa) = 17.72579 26.99991 22.36285
# Shear Modulus (GPa) = 18.96992 24.40688 21.68840
#
# Velocity S-wave (km/s) = 2.92726 3.32036 3.12999
# Velocity P-wave (km/s) = 4.40818 5.18612 4.81289
#
# Compressibility (1/GPa) = 0.05641497
#
# Stress axis : x y z
#
# Youngs Moduli (GPa) = 46.35166 72.31496 36.01140
#
# Poissons Ratio (x) = 0.49788 -0.42098
# Poissons Ratio (y) = 0.31913 0.29470
# Poissons Ratio (z) = -0.54186 0.59179
#
# Static dielectric constant tensor:
#      x y z
#    x 1.917400 0.000000 -0.027220 
#    y 0.000000 1.787470 0.000000 
#    z -0.027220 0.000000 1.868080 
# 
# From -- ./inp_files/39662.got.cif
#   From: 2010.05.17/outbox.cif.g08.bks.cpg/sg11_20_cif.got.tgz:39662.got - 2010.06.03 12:22:45.
