data_PCOD9159785
_publ_section_title
;
Structure prediction by ZEFSAII (Michael W. Deem and Ramdas Pophale) SiO2 
 PCOD9159785
Probable space group: P 21/M
;
_chemical_formula_sum "Si O2"
_cell_formula_units_Z 28
_cell_length_a 32.295787
_cell_length_b 8.405153
_cell_length_c 32.295786
_cell_angle_alpha 90.000000
_cell_angle_beta 170.570617
_cell_angle_gamma 90.000000
_cell_volume 1436.268982
_symmetry_space_group_name_H-M "P 21/M"
_symmetry_group_IT_number 11
_symmetry_cell_setting 'monoclinic'
loop_
_space_group_symop_operation_xyz
x,y,z
-x,1/2+y,-z
-x,-y,-z
x,1/2-y,z
loop_
_atom_site_type_symbol
_atom_site_label
_atom_site_fract_x
_atom_site_fract_y
_atom_site_fract_z
Si Si1 0.095834 0.940933 0.904185
Si Si2 0.666848 0.056004 0.333160
Si Si3 0.238470 0.939262 0.761530
Si Si4 0.808730 0.557339 0.191259
Si Si5 0.476402 0.442354 0.523610
Si Si6 0.618930 0.441015 0.381089
Si Si7 0.047873 0.944055 0.952113
O O1 0.095877 0.750000 0.904138
O O2 0.071824 0.995755 0.928182
O O3 0.857406 0.000122 0.642674
O O4 0.357352 0.000120 0.142621
O O5 0.666727 0.250000 0.333279
O O6 0.642920 0.003998 0.357087
O O7 0.929303 0.004758 0.571327
O O8 0.428686 0.004756 0.070709
O O9 0.238972 0.750000 0.761028
O O10 0.214745 0.997379 0.785257
O O11 0.000000 0.000000 0.500000
O O12 0.500000 0.000000 0.000000
O O13 0.808286 0.750000 0.191701
O O14 0.500000 0.500000 0.500000
O O15 0.476444 0.250000 0.523565
O O16 0.714134 0.496215 0.785656
O O17 0.214362 0.496217 0.285885
O O18 0.618915 0.250000 0.381101
O O19 0.047941 0.750000 0.952041
#
# Coordination Sequence:
#
# PCOD9159785 Si02
#       7
#     4   4   4   4   4   4   4
#     4  11  22  39  61  86 115 156 201 240 284 347
#     4   9  19  35  58  83 114 155 194 229 286 357
#     4  12  25  42  63  91 123 158 197 244 296 349
#     4  10  19  36  60  85 112 152 199 239 280 343
#     4  10  19  34  54  77 103 138 179 226 278 336
#     4  11  22  39  61  89 121 155 194 243 295 346
#     4   9  19  35  55  75 105 146 185 221 275 344
#
# _framework density 19.494956999999999
#
# number of rings (size 3 to 8) (size 9 to 14) (size 15 to 20)
#    0.000    1.714    0.000    5.143    0.000    5.714 
#    0.000    8.571    0.000    0.000    0.000    0.000 
#    0.000    0.000    0.000    0.000    0.000    0.000 
#
# Total GULP energy -156551.805298 kJ/mol
# GULP energy per Si atom -5591.135903 kJ/mol
# Density = 1.945059 g / cm^3
# Si number density = 19.494957 Si / 1000 Ang^3
#
#
#
# Elastic Constant Matrix: (Units=GPa)
#
#
# Indices 1 2 3 4 5 6 
#
# 1 249.3945 36.7716 155.6770 0.0000 0.0335 0.0000
# 2 36.7716 43.0577 38.8497 0.0000 0.1833 0.0000
# 3 155.6770 38.8497 251.5727 0.0000 0.1586 0.0000
# 4 0.0000 0.0000 0.0000 20.8647 0.0000 -1.2549
# 5 0.0335 0.1833 0.1586 0.0000 47.0594 0.0000
# 6 0.0000 0.0000 0.0000 -1.2549 0.0000 35.0926
#
#
#
# Elastic Compliance Matrix: (Units=1/GPa)
#
#
# Indices 1 2 3 4 5 6 
#
# 1 0.006726 -0.002311 -0.003805 0.000000 0.000017 0.000000
# 2 -0.002311 0.027779 -0.002860 0.000000 -0.000097 0.000000
# 3 -0.003805 -0.002860 0.006771 0.000000 -0.000009 0.000000
# 4 0.000000 0.000000 0.000000 0.048031 0.000000 0.001718
# 5 0.000017 -0.000097 -0.000009 0.000000 0.021250 0.000000
# 6 0.000000 0.000000 0.000000 0.001718 0.000000 0.028557
#
#
# Mechanical properties :
#
#
# Convention : Reuss Voigt Hill
#
# Bulk Modulus (GPa) = 42.87346 111.84686 77.36016
# Shear Modulus (GPa) = 30.33238 41.45177 35.89207
#
# Velocity S-wave (km/s) = 3.94878 4.61616 4.29545
# Velocity P-wave (km/s) = 6.54449 9.26870 8.02306
#
# Compressibility (1/GPa) = 0.02332445
#
# Stress axis : x y z
#
# Youngs Moduli (GPa) = 148.68542 35.99879 147.68187
#
# Poissons Ratio (x) = 0.08318 0.56195
# Poissons Ratio (y) = 0.34355 0.42236
# Poissons Ratio (z) = 0.56576 0.10295
#
# Static dielectric constant tensor:
#      x y z
#    x 1.647220 0.000000 -0.000730 
#    y 0.000000 1.673820 0.000000 
#    z -0.000730 0.000000 1.638980 
# 
# From -- ./inp_files/73840.got.cif
#   From: 2010.05.17/outbox.cif.g08.bks.cpg/sg11_37_cif.got.tgz:73840.got - 2010.06.03 12:22:45.
