data_PCOD9159802
_publ_section_title
;
Structure prediction by ZEFSAII (Michael W. Deem and Ramdas Pophale) SiO2 
 PCOD9159802
Probable space group: P 21/M
;
_chemical_formula_sum "Si O2"
_cell_formula_units_Z 32
_cell_length_a 11.587308
_cell_length_b 8.866315
_cell_length_c 21.856043
_cell_angle_alpha 90.000000
_cell_angle_beta 52.290755
_cell_angle_gamma 90.000000
_cell_volume 1776.406159
_symmetry_space_group_name_H-M "P 21/M"
_symmetry_group_IT_number 11
_symmetry_cell_setting 'monoclinic'
loop_
_space_group_symop_operation_xyz
x,y,z
-x,1/2+y,-z
-x,-y,-z
x,1/2-y,z
loop_
_atom_site_type_symbol
_atom_site_label
_atom_site_fract_x
_atom_site_fract_y
_atom_site_fract_z
Si Si1 0.984159 0.431927 0.572240
Si Si2 0.158470 0.070597 0.941953
Si Si3 0.282596 0.068144 0.539769
Si Si4 0.334948 0.076399 0.122843
Si Si5 0.310089 0.567764 0.262670
Si Si6 0.563904 0.932203 0.385842
Si Si7 0.686107 0.077489 0.995499
Si Si8 0.610390 0.566283 0.232203
O O1 0.985311 0.250000 0.567535
O O2 0.122548 0.477412 0.568996
O O3 0.000000 0.500000 0.500000
O O4 0.830662 0.476291 0.652131
O O5 0.145870 0.250000 0.941790
O O6 0.251883 0.016214 0.852920
O O7 0.248380 0.025260 0.972925
O O8 0.000000 0.000000 0.000000
O O9 0.292014 0.250000 0.532915
O O10 0.324471 0.025257 0.595866
O O11 0.407379 0.997955 0.456230
O O12 0.286998 0.250000 0.136084
O O13 0.299033 0.001671 0.199035
O O14 0.276090 0.984706 0.083810
O O15 0.510984 0.074907 0.059197
O O16 0.312840 0.750000 0.256770
O O17 0.460380 0.520372 0.247064
O O18 0.553397 0.750000 0.388601
O O19 0.608993 0.982462 0.303330
O O20 0.736010 0.250000 0.986612
O O21 0.611535 0.750000 0.231821
#
# Coordination Sequence:
#
# PCOD9159802 Si02
#       8
#     4   4   4   4   4   4   4   4
#     4  10  21  35  53  80 113 148 183 226 277 328
#     4  11  22  38  57  80 112 145 184 233 281 333
#     4   9  18  33  52  79 112 140 177 224 270 317
#     4  10  20  34  56  84 111 141 179 227 278 327
#     4  10  19  34  54  78 108 145 187 228 274 332
#     4   9  17  33  57  79 103 142 184 221 263 318
#     4  10  20  36  58  82 108 143 183 222 277 338
#     4   9  18  33  55  78 102 138 184 226 267 323
#
# _framework density 18.013898999999999
#
# number of rings (size 3 to 8) (size 9 to 14) (size 15 to 20)
#    0.000    2.250    1.250    1.875    0.000    3.000 
#    2.250    1.875    0.000    0.000    0.000    0.000 
#    0.000    0.000    0.000    0.000    0.000    0.000 
#
# Total GULP energy -178546.437924 kJ/mol
# GULP energy per Si atom -5579.576185 kJ/mol
# Density = 1.797290 g / cm^3
# Si number density = 18.013899 Si / 1000 Ang^3
#
#
#
# Elastic Constant Matrix: (Units=GPa)
#
#
# Indices 1 2 3 4 5 6 
#
# 1 73.2196 16.8994 72.6104 0.0000 -1.4148 0.0000
# 2 16.8994 28.3240 36.0926 0.0000 -1.7394 0.0000
# 3 72.6104 36.0926 178.7188 0.0000 16.6914 0.0000
# 4 0.0000 0.0000 0.0000 28.1373 0.0000 2.6035
# 5 -1.4148 -1.7394 16.6914 0.0000 30.3277 0.0000
# 6 0.0000 0.0000 0.0000 2.6035 0.0000 26.7214
#
#
#
# Elastic Compliance Matrix: (Units=1/GPa)
#
#
# Indices 1 2 3 4 5 6 
#
# 1 0.024182 -0.000937 -0.010263 0.000000 0.006723 0.000000
# 2 -0.000937 0.049720 -0.010460 0.000000 0.008565 0.000000
# 3 -0.010263 -0.010460 0.012627 0.000000 -0.008029 0.000000
# 4 0.000000 0.000000 0.000000 0.035863 0.000000 -0.003494
# 5 0.006723 0.008565 -0.008029 0.000000 0.038197 0.000000
# 6 0.000000 0.000000 0.000000 -0.003494 0.000000 0.037764
#
#
# Mechanical properties :
#
#
# Convention : Reuss Voigt Hill
#
# Bulk Modulus (GPa) = 23.14370 59.05191 41.09781
# Shear Modulus (GPa) = 19.52543 27.34796 23.43669
#
# Velocity S-wave (km/s) = 3.29585 3.90058 3.61090
# Velocity P-wave (km/s) = 5.23059 7.28962 6.34419
#
# Compressibility (1/GPa) = 0.04320830
#
# Stress axis : x y z
#
# Youngs Moduli (GPa) = 41.35391 20.11258 79.19231
#
# Poissons Ratio (x) = 0.01884 0.81277
# Poissons Ratio (y) = 0.03874 0.82838
# Poissons Ratio (z) = 0.42443 0.21039
#
# Static dielectric constant tensor:
#      x y z
#    x 1.614380 0.000000 -0.001080 
#    y 0.000000 1.612760 0.000000 
#    z -0.001080 0.000000 1.596610 
# 
# From -- ./inp_files/64381.got.cif
#   From: 2010.05.17/outbox.cif.g08.bks.cpg/sg11_33_cif.got.tgz:64381.got - 2010.06.03 12:22:45.
