data_PCOD9159413
_publ_section_title
;
Structure prediction by ZEFSAII (Michael W. Deem and Ramdas Pophale) SiO2 
 PCOD9159413
Probable space group: P 21/M
;
_chemical_formula_sum "Si O2"
_cell_formula_units_Z 28
_cell_length_a 19.415267
_cell_length_b 8.897598
_cell_length_c 14.586667
_cell_angle_alpha 90.000000
_cell_angle_beta 138.028956
_cell_angle_gamma 90.000000
_cell_volume 1685.152570
_symmetry_space_group_name_H-M "P 21/M"
_symmetry_group_IT_number 11
_symmetry_cell_setting 'monoclinic'
loop_
_space_group_symop_operation_xyz
x,y,z
-x,1/2+y,-z
-x,-y,-z
x,1/2-y,z
loop_
_atom_site_type_symbol
_atom_site_label
_atom_site_fract_x
_atom_site_fract_y
_atom_site_fract_z
Si Si1 0.102014 0.429411 0.716475
Si Si2 0.691914 0.070837 0.404402
Si Si3 0.377603 0.071042 0.478976
Si Si4 0.484335 0.070005 0.084601
Si Si5 0.880706 0.570643 0.481362
Si Si6 0.293732 0.930468 0.006210
Si Si7 0.620612 0.070340 0.711676
O O1 0.100933 0.250000 0.727482
O O2 0.131697 0.461447 0.639590
O O3 0.988289 0.496166 0.617638
O O4 0.186149 0.504896 0.864533
O O5 0.705228 0.250000 0.418747
O O6 0.585374 0.037097 0.245554
O O7 0.680930 0.008156 0.496046
O O8 0.785785 0.995359 0.443600
O O9 0.366307 0.250000 0.474392
O O10 0.499778 0.034351 0.608665
O O11 0.345635 0.013178 0.347087
O O12 0.472522 0.250000 0.066146
O O13 0.384858 0.999764 0.034902
O O14 0.500000 0.000000 0.000000
O O15 0.886469 0.750000 0.498118
O O16 0.295803 0.750000 0.999681
O O17 0.317348 0.969186 0.135445
O O18 0.627250 0.250000 0.703722
#
# Coordination Sequence:
#
# PCOD9159413 Si02
#       7
#     4   4   4   4   4   4   4
#     4  10  21  37  57  81 108 141 183 227 268 316
#     4  11  22  35  53  78 109 143 179 222 270 322
#     4  10  19  33  54  78 106 141 180 222 266 318
#     4  11  23  35  50  75 109 146 180 217 266 321
#     4  10  21  37  57  79 106 142 184 227 268 316
#     4  11  21  35  55  79 110 144 179 220 268 320
#     4   9  19  34  52  77 108 142 178 220 266 317
#
# _framework density 16.615705999999999
#
# number of rings (size 3 to 8) (size 9 to 14) (size 15 to 20)
#    0.000    1.714    1.429    3.429    0.000    7.429 
#    0.000    0.000    0.000    0.857    0.000    0.000 
#    0.000    0.000    0.000    0.000    0.000    0.000 
#
# Total GULP energy -156421.027381 kJ/mol
# GULP energy per Si atom -5586.465264 kJ/mol
# Density = 1.657789 g / cm^3
# Si number density = 16.615706 Si / 1000 Ang^3
#
#
#
# Elastic Constant Matrix: (Units=GPa)
#
#
# Indices 1 2 3 4 5 6 
#
# 1 45.5764 31.3231 34.6958 0.0000 -9.5359 0.0000
# 2 31.3231 53.0942 50.5434 0.0000 -5.6390 0.0000
# 3 34.6958 50.5434 120.8941 0.0000 -11.4167 0.0000
# 4 0.0000 0.0000 0.0000 29.9970 0.0000 0.6212
# 5 -9.5359 -5.6390 -11.4167 0.0000 22.1536 0.0000
# 6 0.0000 0.0000 0.0000 0.6212 0.0000 33.7896
#
#
#
# Elastic Compliance Matrix: (Units=1/GPa)
#
#
# Indices 1 2 3 4 5 6 
#
# 1 0.039729 -0.020607 -0.001752 0.000000 0.010953 0.000000
# 2 -0.020607 0.042010 -0.012064 0.000000 -0.004394 0.000000
# 3 -0.001752 -0.012064 0.014146 0.000000 0.003465 0.000000
# 4 0.000000 0.000000 0.000000 0.033349 0.000000 -0.000613
# 5 0.010953 -0.004394 0.003465 0.000000 0.050521 0.000000
# 6 0.000000 0.000000 0.000000 -0.000613 0.000000 0.029606
#
#
# Mechanical properties :
#
#
# Convention : Reuss Voigt Hill
#
# Bulk Modulus (GPa) = 36.98595 50.29882 43.64238
# Shear Modulus (GPa) = 17.40818 24.05486 20.73152
#
# Velocity S-wave (km/s) = 3.24032 3.80902 3.53612
# Velocity P-wave (km/s) = 6.02557 7.04857 6.55705
#
# Compressibility (1/GPa) = 0.02703729
#
# Stress axis : x y z
#
# Youngs Moduli (GPa) = 25.17027 23.80401 70.69322
#
# Poissons Ratio (x) = 0.49053 0.12387
# Poissons Ratio (y) = 0.51869 0.85286
# Poissons Ratio (z) = 0.04410 0.28718
#
# Static dielectric constant tensor:
#      x y z
#    x 1.526990 0.000000 -0.008830 
#    y 0.000000 1.551320 0.000000 
#    z -0.008830 0.000000 1.544050 
# 
# From -- ./inp_files/44650.got.cif
#   From: 2010.05.17/outbox.cif.g08.bks.cpg/sg11_23_cif.got.tgz:44650.got - 2010.06.03 12:22:45.
