data_PCOD9159612
_publ_section_title
;
Structure prediction by ZEFSAII (Michael W. Deem and Ramdas Pophale) SiO2 
 PCOD9159612
Probable space group: P 21/M
;
_chemical_formula_sum "Si O2"
_cell_formula_units_Z 28
_cell_length_a 10.154988
_cell_length_b 8.751928
_cell_length_c 28.755775
_cell_angle_alpha 90.000000
_cell_angle_beta 37.577243
_cell_angle_gamma 90.000000
_cell_volume 1558.537726
_symmetry_space_group_name_H-M "P 21/M"
_symmetry_group_IT_number 11
_symmetry_cell_setting 'monoclinic'
loop_
_space_group_symop_operation_xyz
x,y,z
-x,1/2+y,-z
-x,-y,-z
x,1/2-y,z
loop_
_atom_site_type_symbol
_atom_site_label
_atom_site_fract_x
_atom_site_fract_y
_atom_site_fract_z
Si Si1 0.534026 0.567792 0.194857
Si Si2 0.854892 0.066000 0.629361
Si Si3 0.282103 0.432519 0.041266
Si Si4 0.815310 0.066520 0.197451
Si Si5 0.351758 0.065088 0.500183
Si Si6 0.569728 0.933719 0.627642
Si Si7 0.224117 0.568098 0.955711
O O1 0.537912 0.750000 0.187412
O O2 0.311435 0.523642 0.282891
O O3 0.718849 0.517632 0.179538
O O4 0.587319 0.485847 0.131862
O O5 0.851994 0.250000 0.625788
O O6 0.098711 0.019357 0.573162
O O7 0.757146 0.999962 0.608664
O O8 0.295100 0.250000 0.035114
O O9 0.067115 0.471161 0.131082
O O10 0.500000 0.500000 0.000000
O O11 0.254470 0.501068 0.998054
O O12 0.797296 0.250000 0.194976
O O13 0.658134 0.026648 0.284111
O O14 0.362194 0.250000 0.499710
O O15 0.423088 0.017288 0.428029
O O16 0.500000 0.000000 0.500000
O O17 0.592766 0.750000 0.621816
O O18 0.212553 0.750000 0.959723
O O19 0.000000 0.500000 0.000000
#
# Coordination Sequence:
#
# PCOD9159612 Si02
#       7
#     4   4   4   4   4   4   4
#     4  10  19  33  56  84 113 143 184 232 280 328
#     4   9  19  35  56  83 113 143 181 230 275 325
#     4  11  23  39  57  80 114 153 191 232 279 332
#     4   9  18  34  56  80 110 143 184 232 276 326
#     4  10  21  37  55  79 115 149 181 223 272 329
#     4   9  18  34  58  84 107 139 184 229 272 324
#     4  12  23  37  59  85 113 147 189 233 281 332
#
# _framework density 17.965558999999999
#
# number of rings (size 3 to 8) (size 9 to 14) (size 15 to 20)
#    0.000    2.000    1.429    2.571    0.000    2.286 
#    2.571    0.000    0.000    0.000    0.000    0.000 
#    0.000    0.000    0.000    0.000    0.000    0.000 
#
# Total GULP energy -156256.580370 kJ/mol
# GULP energy per Si atom -5580.592156 kJ/mol
# Density = 1.792467 g / cm^3
# Si number density = 17.965559 Si / 1000 Ang^3
#
#
#
# Elastic Constant Matrix: (Units=GPa)
#
#
# Indices 1 2 3 4 5 6 
#
# 1 147.3389 37.6319 93.1772 0.0000 -13.1389 0.0000
# 2 37.6319 41.7673 43.9369 0.0000 -8.1101 0.0000
# 3 93.1772 43.9369 139.3775 0.0000 -10.9552 0.0000
# 4 0.0000 0.0000 0.0000 21.8020 0.0000 1.2901
# 5 -13.1389 -8.1101 -10.9552 0.0000 25.2562 0.0000
# 6 0.0000 0.0000 0.0000 1.2901 0.0000 34.5137
#
#
#
# Elastic Compliance Matrix: (Units=1/GPa)
#
#
# Indices 1 2 3 4 5 6 
#
# 1 0.012229 -0.003235 -0.006975 0.000000 0.002298 0.000000
# 2 -0.003235 0.037854 -0.009263 0.000000 0.006455 0.000000
# 3 -0.006975 -0.009263 0.014742 0.000000 -0.000209 0.000000
# 4 0.000000 0.000000 0.000000 0.045969 0.000000 -0.001718
# 5 0.002298 0.006455 -0.000209 0.000000 0.042772 0.000000
# 6 0.000000 0.000000 0.000000 -0.001718 0.000000 0.029038
#
#
# Mechanical properties :
#
#
# Convention : Reuss Voigt Hill
#
# Bulk Modulus (GPa) = 38.64171 75.33063 56.98617
# Shear Modulus (GPa) = 21.72243 26.56358 24.14300
#
# Velocity S-wave (km/s) = 3.48101 3.84941 3.66983
# Velocity P-wave (km/s) = 6.14101 7.85995 7.05304
#
# Compressibility (1/GPa) = 0.02587877
#
# Stress axis : x y z
#
# Youngs Moduli (GPa) = 81.77063 26.41704 67.83524
#
# Poissons Ratio (x) = 0.08545 0.47317
# Poissons Ratio (y) = 0.26451 0.62837
# Poissons Ratio (z) = 0.57037 0.24471
#
# Static dielectric constant tensor:
#      x y z
#    x 1.671010 0.000000 -0.037410 
#    y 0.000000 1.601310 0.000000 
#    z -0.037410 0.000000 1.662490 
# 
# From -- ./inp_files/70781.got.cif
#   From: 2010.05.17/outbox.cif.g08.bks.cpg/sg11_36_cif.got.tgz:70781.got - 2010.06.03 12:22:45.
