data_PCOD9159763
_publ_section_title
;
Structure prediction by ZEFSAII (Michael W. Deem and Ramdas Pophale) SiO2 
 PCOD9159763
Probable space group: P 21/M
;
_chemical_formula_sum "Si O2"
_cell_formula_units_Z 32
_cell_length_a 10.502468
_cell_length_b 10.777493
_cell_length_c 34.946822
_cell_angle_alpha 90.000000
_cell_angle_beta 152.873098
_cell_angle_gamma 90.000000
_cell_volume 1803.625022
_symmetry_space_group_name_H-M "P 21/M"
_symmetry_group_IT_number 11
_symmetry_cell_setting 'monoclinic'
loop_
_space_group_symop_operation_xyz
x,y,z
-x,1/2+y,-z
-x,-y,-z
x,1/2-y,z
loop_
_atom_site_type_symbol
_atom_site_label
_atom_site_fract_x
_atom_site_fract_y
_atom_site_fract_z
Si Si1 0.638413 0.108340 0.303987
Si Si2 0.925543 0.384939 0.930125
Si Si3 0.282554 0.607685 0.358847
Si Si4 0.455699 0.050752 0.118632
Si Si5 0.051975 0.886585 0.694281
Si Si6 0.136834 0.106414 0.823041
Si Si7 0.166732 0.601692 0.181394
Si Si8 0.072839 0.108596 0.489911
O O1 0.515588 0.250000 0.271445
O O2 0.800169 0.095327 0.307035
O O3 0.858694 0.102193 0.397406
O O4 0.420811 0.995925 0.250306
O O5 0.788365 0.250000 0.896011
O O6 0.718344 0.478583 0.895433
O O7 0.965260 0.411911 0.896045
O O8 0.215990 0.382070 0.030489
O O9 0.228254 0.750000 0.357708
O O10 0.611679 0.592494 0.440853
O O11 0.149744 0.501113 0.349723
O O12 0.127408 0.595021 0.276349
O O13 0.704684 0.115206 0.208426
O O14 0.612717 0.965589 0.129789
O O15 0.913820 0.750000 0.657347
O O16 0.215740 0.250000 0.845926
O O17 0.040665 0.068214 0.839502
O O18 0.241368 0.750000 0.206201
O O19 0.055380 0.250000 0.501491
O O20 0.000000 0.000000 0.500000
#
# Coordination Sequence:
#
# PCOD9159763 Si02
#       8
#     4   4   4   4   4   4   4   4
#     4  10  21  37  55  80 112 144 178 224 278 326
#     4  10  20  33  53  79 106 139 187 233 267 320
#     4   9  19  35  54  78 106 142 182 222 271 324
#     4  10  19  34  53  77 108 145 179 223 278 327
#     4  10  20  35  55  79 109 143 179 222 274 326
#     4   9  18  33  54  76 106 141 179 225 274 325
#     4  10  20  36  56  81 109 143 188 231 269 322
#     4  10  21  37  57  80 110 144 182 226 271 326
#
# _framework density 17.742045999999998
#
# number of rings (size 3 to 8) (size 9 to 14) (size 15 to 20)
#    0.000    2.250    1.250    1.500    0.000    4.000 
#    0.000    5.000    0.000    0.000    0.000    0.000 
#    0.000    0.000    0.000    0.000    0.000    0.000 
#
# Total GULP energy -178268.555562 kJ/mol
# GULP energy per Si atom -5570.892361 kJ/mol
# Density = 1.770166 g / cm^3
# Si number density = 17.742046 Si / 1000 Ang^3
#
#
#
# Elastic Constant Matrix: (Units=GPa)
#
#
# Indices 1 2 3 4 5 6 
#
# 1 112.8749 67.1397 12.4975 0.0000 -11.0386 0.0000
# 2 67.1397 97.3168 24.4817 0.0000 -2.9833 0.0000
# 3 12.4975 24.4817 35.5554 0.0000 -2.3367 0.0000
# 4 0.0000 0.0000 0.0000 28.6032 0.0000 11.1162
# 5 -11.0386 -2.9833 -2.3367 0.0000 14.9266 0.0000
# 6 0.0000 0.0000 0.0000 11.1162 0.0000 26.3779
#
#
#
# Elastic Compliance Matrix: (Units=1/GPa)
#
#
# Indices 1 2 3 4 5 6 
#
# 1 0.016628 -0.011920 0.003045 0.000000 0.010392 0.000000
# 2 -0.011920 0.020993 -0.010678 0.000000 -0.006291 0.000000
# 3 0.003045 -0.010678 0.034773 0.000000 0.005562 0.000000
# 4 0.000000 0.000000 0.000000 0.041809 0.000000 -0.017619
# 5 0.010392 -0.006291 0.005562 0.000000 0.074293 0.000000
# 6 0.000000 0.000000 0.000000 -0.017619 0.000000 0.045336
#
#
# Mechanical properties :
#
#
# Convention : Reuss Voigt Hill
#
# Bulk Modulus (GPa) = 30.04007 50.44277 40.24142
# Shear Modulus (GPa) = 17.60364 23.42340 20.51352
#
# Velocity S-wave (km/s) = 3.15334 3.63742 3.40400
# Velocity P-wave (km/s) = 5.49785 6.79221 6.17901
#
# Compressibility (1/GPa) = 0.03328887
#
# Stress axis : x y z
#
# Youngs Moduli (GPa) = 60.13799 47.63570 28.75812
#
# Poissons Ratio (x) = 0.56780 -0.08758
# Poissons Ratio (y) = 0.71683 0.30709
# Poissons Ratio (z) = -0.18315 0.50867
#
# Static dielectric constant tensor:
#      x y z
#    x 1.575220 0.000000 -0.015050 
#    y 0.000000 1.667030 0.000000 
#    z -0.015050 0.000000 1.592540 
# 
# From -- ./inp_files/47199.got.cif
#   From: 2010.05.17/outbox.cif.g08.bks.cpg/sg11_24_cif.got.tgz:47199.got - 2010.06.03 12:22:45.
