data_PCOD9159154
_publ_section_title
;
Structure prediction by ZEFSAII (Michael W. Deem and Ramdas Pophale) SiO2 
 PCOD9159154
Probable space group: P 21/M
;
_chemical_formula_sum "Si O2"
_cell_formula_units_Z 32
_cell_length_a 28.750243
_cell_length_b 9.009513
_cell_length_c 22.238384
_cell_angle_alpha 90.000000
_cell_angle_beta 17.876254
_cell_angle_gamma 90.000000
_cell_volume 1768.198305
_symmetry_space_group_name_H-M "P 21/M"
_symmetry_group_IT_number 11
_symmetry_cell_setting 'monoclinic'
loop_
_space_group_symop_operation_xyz
x,y,z
-x,1/2+y,-z
-x,-y,-z
x,1/2-y,z
loop_
_atom_site_type_symbol
_atom_site_label
_atom_site_fract_x
_atom_site_fract_y
_atom_site_fract_z
Si Si1 0.781059 0.927075 0.300763
Si Si2 0.735631 0.426467 0.564937
Si Si3 0.111743 0.926684 0.948674
Si Si4 0.912410 0.926248 0.895914
Si Si5 0.959706 0.571641 0.486181
Si Si6 0.800119 0.071725 0.912079
Si Si7 0.658587 0.928059 0.786793
Si Si8 0.545891 0.572164 0.693187
O O1 0.780190 0.750000 0.290913
O O2 0.641459 0.964988 0.515664
O O3 0.786984 0.011018 0.230266
O O4 0.937784 0.962136 0.143109
O O5 0.717570 0.250000 0.595490
O O6 0.707990 0.510015 0.661367
O O7 0.620051 0.486859 0.657415
O O8 0.907217 0.455535 0.332107
O O9 0.125370 0.750000 0.936280
O O10 0.143171 0.000774 0.973914
O O11 0.889819 0.750000 0.925494
O O12 0.835463 0.994596 0.931663
O O13 0.968939 0.750000 0.480171
O O14 0.791308 0.533167 0.670703
O O15 0.000000 0.500000 0.500000
O O16 0.078086 0.526178 0.288386
O O17 0.812837 0.250000 0.904284
O O18 0.630443 0.038542 0.098872
O O19 0.645900 0.750000 0.800049
O O20 0.500000 0.000000 0.000000
O O21 0.562340 0.750000 0.682724
#
# Coordination Sequence:
#
# PCOD9159154 Si02
#       8
#     4   4   4   4   4   4   4   4
#     4   9  18  33  53  83 119 150 189 241 295 346
#     4  11  23  38  60  89 119 153 196 243 289 343
#     4  10  19  32  56  84 115 154 194 239 291 346
#     4  11  22  37  59  87 117 154 196 242 290 340
#     4  10  23  41  61  86 118 155 194 236 286 346
#     4  10  22  41  62  85 115 154 197 236 288 350
#     4  11  24  42  63  89 120 154 193 241 292 342
#     4  10  21  38  61  88 118 155 194 242 296 346
#
# _framework density 18.097518999999998
#
# number of rings (size 3 to 8) (size 9 to 14) (size 15 to 20)
#    0.000    1.750    2.500    1.500    1.750    4.000 
#    0.000    0.625    0.000    0.000    0.000    0.000 
#    0.000    0.000    0.000    0.000    0.000    0.000 
#
# Total GULP energy -178778.907904 kJ/mol
# GULP energy per Si atom -5586.840872 kJ/mol
# Density = 1.805633 g / cm^3
# Si number density = 18.097519 Si / 1000 Ang^3
#
#
#
# Elastic Constant Matrix: (Units=GPa)
#
#
# Indices 1 2 3 4 5 6 
#
# 1 161.1665 62.3134 53.6294 0.0000 2.5021 0.0000
# 2 62.3134 42.2858 36.2062 0.0000 -5.0761 0.0000
# 3 53.6294 36.2062 82.7777 0.0000 -7.1998 0.0000
# 4 0.0000 0.0000 0.0000 24.9191 0.0000 4.3555
# 5 2.5021 -5.0761 -7.1998 0.0000 28.4380 0.0000
# 6 0.0000 0.0000 0.0000 4.3555 0.0000 40.1744
#
#
#
# Elastic Compliance Matrix: (Units=1/GPa)
#
#
# Indices 1 2 3 4 5 6 
#
# 1 0.015215 -0.022752 -0.000384 0.000000 -0.005497 0.000000
# 2 -0.022752 0.072023 -0.015818 0.000000 0.010853 0.000000
# 3 -0.000384 -0.015818 0.019433 0.000000 0.002130 0.000000
# 4 0.000000 0.000000 0.000000 0.040905 0.000000 -0.004435
# 5 -0.005497 0.010853 0.002130 0.000000 0.038124 0.000000
# 6 0.000000 0.000000 0.000000 -0.004435 0.000000 0.025372
#
#
# Mechanical properties :
#
#
# Convention : Reuss Voigt Hill
#
# Bulk Modulus (GPa) = 34.76628 65.61422 50.19025
# Shear Modulus (GPa) = 16.74667 27.64505 22.19586
#
# Velocity S-wave (km/s) = 3.04527 3.91264 3.50588
# Velocity P-wave (km/s) = 5.62291 7.53301 6.64693
#
# Compressibility (1/GPa) = 0.02876350
#
# Stress axis : x y z
#
# Youngs Moduli (GPa) = 65.72643 13.88449 51.45871
#
# Poissons Ratio (x) = 0.31590 0.01975
# Poissons Ratio (y) = 1.49540 0.81397
# Poissons Ratio (z) = 0.02522 0.21962
#
# Static dielectric constant tensor:
#      x y z
#    x 1.583470 0.000000 -0.000710 
#    y 0.000000 1.603110 0.000000 
#    z -0.000710 0.000000 1.614500 
# 
# From -- ./inp_files/66956.got.cif
#   From: 2010.05.17/outbox.cif.g08.bks.cpg/sg11_34_cif.got.tgz:66956.got - 2010.06.03 12:22:45.
