data_PCOD9159230
_publ_section_title
;
Structure prediction by ZEFSAII (Michael W. Deem and Ramdas Pophale) SiO2 
 PCOD9159230
Probable space group: P 21/M
;
_chemical_formula_sum "Si O2"
_cell_formula_units_Z 28
_cell_length_a 14.036907
_cell_length_b 13.001182
_cell_length_c 22.771903
_cell_angle_alpha 90.000000
_cell_angle_beta 157.728862
_cell_angle_gamma 90.000000
_cell_volume 1575.003027
_symmetry_space_group_name_H-M "P 21/M"
_symmetry_group_IT_number 11
_symmetry_cell_setting 'monoclinic'
loop_
_space_group_symop_operation_xyz
x,y,z
-x,1/2+y,-z
-x,-y,-z
x,1/2-y,z
loop_
_atom_site_type_symbol
_atom_site_label
_atom_site_fract_x
_atom_site_fract_y
_atom_site_fract_z
Si Si1 0.043434 0.950772 0.107147
Si Si2 0.883864 0.128680 0.102276
Si Si3 0.889522 0.129548 0.556315
Si Si4 0.431640 0.474521 0.233102
Si Si5 0.641113 0.868011 0.260206
Si Si6 0.849735 0.511014 0.643195
Si Si7 0.378606 0.636469 0.389776
O O1 0.151197 0.870379 0.214550
O O2 0.248546 0.965392 0.173371
O O3 0.018152 0.059582 0.128296
O O4 0.773045 0.922234 0.926681
O O5 0.953630 0.250000 0.141531
O O6 0.956589 0.074200 0.205243
O O7 0.590143 0.121783 0.917822
O O8 0.893505 0.250000 0.576438
O O9 0.619361 0.098875 0.375256
O O10 0.100197 0.115234 0.626503
O O11 0.945252 0.051945 0.641852
O O12 0.590357 0.553385 0.283851
O O13 0.634736 0.750000 0.278273
O O14 0.623552 0.588401 0.498819
O O15 0.710647 0.429025 0.605787
O O16 0.438586 0.750000 0.443475
#
# Coordination Sequence:
#
# PCOD9159230 Si02
#       7
#     4   4   4   4   4   4   4
#     4   9  19  33  54  81 106 133 174 214 268 316
#     4   9  18  35  57  81 108 138 175 218 264 318
#     4  11  22  36  54  77 107 145 182 218 262 312
#     4  10  19  36  54  77 106 138 175 218 260 315
#     4   9  20  37  57  78 104 141 181 220 263 310
#     4  10  20  34  51  79 105 140 177 214 261 315
#     4  10  19  33  51  75 107 136 167 215 268 317
#
# _framework density 17.777743000000001
#
# number of rings (size 3 to 8) (size 9 to 14) (size 15 to 20)
#    0.000    2.286    1.429    1.286    0.000    2.286 
#    0.000    2.857    0.000    0.857    0.000    0.000 
#    0.000    0.000    0.000    0.000    0.000    0.000 
#
# Total GULP energy -156022.635861 kJ/mol
# GULP energy per Si atom -5572.236995 kJ/mol
# Density = 1.773728 g / cm^3
# Si number density = 17.777743 Si / 1000 Ang^3
#
#
#
# Elastic Constant Matrix: (Units=GPa)
#
#
# Indices 1 2 3 4 5 6 
#
# 1 46.1947 12.9202 14.0473 0.0000 1.5588 0.0000
# 2 12.9202 71.6855 12.8212 0.0000 -0.0514 0.0000
# 3 14.0473 12.8212 43.4807 0.0000 -5.8586 0.0000
# 4 0.0000 0.0000 0.0000 15.8605 0.0000 4.9222
# 5 1.5588 -0.0514 -5.8586 0.0000 28.4060 0.0000
# 6 0.0000 0.0000 0.0000 4.9222 0.0000 13.7284
#
#
#
# Elastic Compliance Matrix: (Units=1/GPa)
#
#
# Indices 1 2 3 4 5 6 
#
# 1 0.024911 -0.003148 -0.007514 0.000000 -0.002922 0.000000
# 2 -0.003148 0.015146 -0.003520 0.000000 -0.000526 0.000000
# 3 -0.007514 -0.003520 0.027277 0.000000 0.006032 0.000000
# 4 0.000000 0.000000 0.000000 0.070944 0.000000 -0.025436
# 5 -0.002922 -0.000526 0.006032 0.000000 0.036607 0.000000
# 6 0.000000 0.000000 0.000000 -0.025436 0.000000 0.081961
#
#
# Mechanical properties :
#
#
# Convention : Reuss Voigt Hill
#
# Bulk Modulus (GPa) = 25.66004 26.77093 26.21548
# Shear Modulus (GPa) = 16.76723 19.70381 18.23552
#
# Velocity S-wave (km/s) = 3.07442 3.33279 3.20621
# Velocity P-wave (km/s) = 5.20268 5.46821 5.33710
#
# Compressibility (1/GPa) = 0.03897110
#
# Stress axis : x y z
#
# Youngs Moduli (GPa) = 40.14223 66.02225 36.66121
#
# Poissons Ratio (x) = 0.20785 0.27546
# Poissons Ratio (y) = 0.12637 0.12905
# Poissons Ratio (z) = 0.30161 0.23240
#
# Static dielectric constant tensor:
#      x y z
#    x 1.590510 0.000000 -0.024370 
#    y 0.000000 1.614980 0.000000 
#    z -0.024370 0.000000 1.632030 
# 
# From -- ./inp_files/64682.got.cif
#   From: 2010.05.17/outbox.cif.g08.bks.cpg/sg11_33_cif.got.tgz:64682.got - 2010.06.03 12:22:45.
