data_PCOD9159438
_publ_section_title
;
Structure prediction by ZEFSAII (Michael W. Deem and Ramdas Pophale) SiO2 
 PCOD9159438
Probable space group: P 21/M
;
_chemical_formula_sum "Si O2"
_cell_formula_units_Z 32
_cell_length_a 12.431717
_cell_length_b 14.751249
_cell_length_c 9.875870
_cell_angle_alpha 90.000000
_cell_angle_beta 127.577595
_cell_angle_gamma 90.000000
_cell_volume 1435.324123
_symmetry_space_group_name_H-M "P 21/M"
_symmetry_group_IT_number 11
_symmetry_cell_setting 'monoclinic'
loop_
_space_group_symop_operation_xyz
x,y,z
-x,1/2+y,-z
-x,-y,-z
x,1/2-y,z
loop_
_atom_site_type_symbol
_atom_site_label
_atom_site_fract_x
_atom_site_fract_y
_atom_site_fract_z
Si Si1 0.015595 0.147879 0.288910
Si Si2 0.757091 0.359452 0.960853
Si Si3 0.322132 0.348846 0.190508
Si Si4 0.548092 0.471774 0.684701
Si Si5 0.098379 0.582748 0.532682
Si Si6 0.338286 0.984288 0.866461
Si Si7 0.694170 0.853549 0.495710
Si Si8 0.861986 0.645567 0.187173
O O1 0.050069 0.250000 0.273077
O O2 0.160169 0.103520 0.423179
O O3 0.934990 0.149782 0.367400
O O4 0.913793 0.111420 0.098270
O O5 0.747900 0.250000 0.955608
O O6 0.678241 0.405902 0.777561
O O7 0.688171 0.409229 0.036063
O O8 0.379265 0.250000 0.197019
O O9 0.411373 0.434229 0.215127
O O10 0.311218 0.351597 0.344298
O O11 0.179633 0.357253 0.002804
O O12 0.500000 0.500000 0.500000
O O13 0.427610 0.412885 0.654226
O O14 0.256631 0.557949 0.673176
O O15 0.000000 0.500000 0.500000
O O16 0.017932 0.619807 0.340243
O O17 0.245798 0.074639 0.828202
O O18 0.500000 0.000000 0.000000
O O19 0.680717 0.750000 0.435720
O O20 0.840129 0.750000 0.217286
#
# Coordination Sequence:
#
# PCOD9159438 Si02
#       8
#     4   4   4   4   4   4   4   4
#     4   9  18  34  56  83 113 142 180 232 284 335
#     4  10  20  36  59  83 114 150 184 232 292 345
#     4   9  18  34  56  79 111 154 193 232 284 346
#     4  10  19  33  54  80 111 145 187 235 284 340
#     4   9  19  34  54  79 109 144 184 232 278 333
#     4  10  21  37  58  86 119 148 188 240 289 344
#     4   9  18  33  57  87 112 142 189 238 285 339
#     4  10  19  35  59  80 111 158 196 227 279 352
#
# _framework density 22.294615
#
# number of rings (size 3 to 8) (size 9 to 14) (size 15 to 20)
#    0.000    2.500    1.250    0.750    0.000    3.500 
#    0.000    2.500    2.750    0.000    0.000    0.875 
#    0.000    0.000    0.000    0.000    0.000    0.000 
#
# Total GULP energy -178165.958924 kJ/mol
# GULP energy per Si atom -5567.686216 kJ/mol
# Density = 2.224387 g / cm^3
# Si number density = 22.294615 Si / 1000 Ang^3
#
#
#
# Elastic Constant Matrix: (Units=GPa)
#
#
# Indices 1 2 3 4 5 6 
#
# 1 32.0830 19.5825 20.8402 0.0000 25.2627 0.0000
# 2 19.5825 125.9797 57.1674 0.0000 15.6669 0.0000
# 3 20.8402 57.1674 176.8933 0.0000 34.8095 0.0000
# 4 0.0000 0.0000 0.0000 38.3865 0.0000 3.7751
# 5 25.2627 15.6669 34.8095 0.0000 36.1287 0.0000
# 6 0.0000 0.0000 0.0000 3.7751 0.0000 20.5457
#
#
#
# Elastic Compliance Matrix: (Units=1/GPa)
#
#
# Indices 1 2 3 4 5 6 
#
# 1 0.074293 -0.006714 0.003784 0.000000 -0.052683 0.000000
# 2 -0.006714 0.009967 -0.003089 0.000000 0.003349 0.000000
# 3 0.003784 -0.003089 0.007975 0.000000 -0.008990 0.000000
# 4 0.000000 0.000000 0.000000 0.026530 0.000000 -0.004875
# 5 -0.052683 0.003349 -0.008990 0.000000 0.071727 0.000000
# 6 0.000000 0.000000 0.000000 -0.004875 0.000000 0.049568
#
#
# Mechanical properties :
#
#
# Convention : Reuss Voigt Hill
#
# Bulk Modulus (GPa) = 12.46930 58.90405 35.68667
# Shear Modulus (GPa) = 17.93222 34.83659 26.38440
#
# Velocity S-wave (km/s) = 2.83915 3.95721 3.44385
# Velocity P-wave (km/s) = 4.04386 6.88167 5.64403
#
# Compressibility (1/GPa) = 0.08019699
#
# Stress axis : x y z
#
# Youngs Moduli (GPa) = 13.46030 100.33461 125.39715
#
# Poissons Ratio (x) = 0.67362 -0.47454
# Poissons Ratio (y) = 0.09037 0.38735
# Poissons Ratio (z) = -0.05094 0.30993
#
# Static dielectric constant tensor:
#      x y z
#    x 1.848410 0.000000 -0.015520 
#    y 0.000000 1.963840 0.000000 
#    z -0.015520 0.000000 1.935650 
# 
# From -- ./inp_files/26847.got.cif
#   From: 2010.05.17/outbox.cif.g08.bks.cpg/sg11_14_cif.got.tgz:26847.got - 2010.06.03 12:22:45.
