data_PCOD9159343
_publ_section_title
;
Structure prediction by ZEFSAII (Michael W. Deem and Ramdas Pophale) SiO2 
 PCOD9159343
Probable space group: P 21/M
;
_chemical_formula_sum "Si O2"
_cell_formula_units_Z 28
_cell_length_a 15.247883
_cell_length_b 7.774646
_cell_length_c 11.601541
_cell_angle_alpha 90.000000
_cell_angle_beta 113.382503
_cell_angle_gamma 90.000000
_cell_volume 1262.379123
_symmetry_space_group_name_H-M "P 21/M"
_symmetry_group_IT_number 11
_symmetry_cell_setting 'monoclinic'
loop_
_space_group_symop_operation_xyz
x,y,z
-x,1/2+y,-z
-x,-y,-z
x,1/2-y,z
loop_
_atom_site_type_symbol
_atom_site_label
_atom_site_fract_x
_atom_site_fract_y
_atom_site_fract_z
Si Si1 0.248203 0.041523 0.818474
Si Si2 0.659658 0.955260 0.912805
Si Si3 0.740010 0.539375 0.716377
Si Si4 0.041445 0.948228 0.647191
Si Si5 0.040504 0.457403 0.149073
Si Si6 0.587519 0.543504 0.463499
Si Si7 0.553062 0.957515 0.189968
O O1 0.243235 0.250000 0.810151
O O2 0.349869 0.985709 0.820193
O O3 0.155548 0.972182 0.707358
O O4 0.258031 0.985485 0.956746
O O5 0.667796 0.750000 0.912353
O O6 0.678893 0.021513 0.794879
O O7 0.553138 0.990715 0.903005
O O8 0.739107 0.750000 0.715511
O O9 0.848990 0.485855 0.786051
O O10 0.685282 0.482070 0.573167
O O11 0.015202 0.750000 0.641795
O O12 0.008017 0.023778 0.755682
O O13 0.000000 0.000000 0.500000
O O14 0.037404 0.250000 0.151516
O O15 0.000000 0.500000 0.000000
O O16 0.500000 0.500000 0.500000
O O17 0.594247 0.750000 0.457111
O O18 0.564311 0.475985 0.325874
O O19 0.553659 0.750000 0.186425
#
# Coordination Sequence:
#
# PCOD9159343 Si02
#       7
#     4   4   4   4   4   4   4
#     4  10  22  39  60  83 113 155 199 241 295 356
#     4  10  19  34  57  84 114 151 188 232 289 353
#     4   9  18  33  56  81 109 147 187 228 287 355
#     4  11  25  43  65  92 123 162 206 257 311 363
#     4  10  22  41  66  92 120 157 202 253 307 365
#     4  10  19  33  53  77 109 147 187 232 282 342
#     4  10  21  34  54  83 114 151 190 235 288 345
#
# _framework density 22.180342
#
# number of rings (size 3 to 8) (size 9 to 14) (size 15 to 20)
#    0.000    2.000    1.429    1.714    2.000    3.429 
#    0.000    1.429    0.000    0.000    0.000    0.000 
#    0.000    0.000    0.000    0.000    0.000    0.000 
#
# Total GULP energy -156201.508615 kJ/mol
# GULP energy per Si atom -5578.625308 kJ/mol
# Density = 2.212986 g / cm^3
# Si number density = 22.180342 Si / 1000 Ang^3
#
#
#
# Elastic Constant Matrix: (Units=GPa)
#
#
# Indices 1 2 3 4 5 6 
#
# 1 97.7548 -4.2203 64.3274 0.0000 8.7614 0.0000
# 2 -4.2203 28.3879 10.5683 0.0000 -5.8019 0.0000
# 3 64.3274 10.5683 189.0860 0.0000 23.1099 0.0000
# 4 0.0000 0.0000 0.0000 16.7147 0.0000 -2.2999
# 5 8.7614 -5.8019 23.1099 0.0000 41.4020 0.0000
# 6 0.0000 0.0000 0.0000 -2.2999 0.0000 14.7036
#
#
#
# Elastic Compliance Matrix: (Units=1/GPa)
#
#
# Indices 1 2 3 4 5 6 
#
# 1 0.013580 0.003921 -0.004888 0.000000 0.000404 0.000000
# 2 0.003921 0.038878 -0.004370 0.000000 0.007057 0.000000
# 3 -0.004888 -0.004370 0.007667 0.000000 -0.003858 0.000000
# 4 0.000000 0.000000 0.000000 0.061143 0.000000 0.009564
# 5 0.000404 0.007057 -0.003858 0.000000 0.027210 0.000000
# 6 0.000000 0.000000 0.000000 0.009564 0.000000 0.069507
#
#
# Mechanical properties :
#
#
# Convention : Reuss Voigt Hill
#
# Bulk Modulus (GPa) = 20.22164 50.73106 35.47635
# Shear Modulus (GPa) = 20.39630 30.86762 25.63196
#
# Velocity S-wave (km/s) = 3.03573 3.73455 3.40312
# Velocity P-wave (km/s) = 4.62863 6.44341 5.60989
#
# Compressibility (1/GPa) = 0.04945196
#
# Stress axis : x y z
#
# Youngs Moduli (GPa) = 73.64041 25.72124 130.42350
#
# Poissons Ratio (x) = -0.10086 0.63756
# Poissons Ratio (y) = -0.28877 0.56989
# Poissons Ratio (z) = 0.35998 0.11239
#
# Static dielectric constant tensor:
#      x y z
#    x 1.813260 0.000000 -0.042710 
#    y 0.000000 1.825670 0.000000 
#    z -0.042710 0.000000 1.826640 
# 
# From -- ./inp_files/38393.got.cif
#   From: 2010.05.17/outbox.cif.g08.bks.cpg/sg11_20_cif.got.tgz:38393.got - 2010.06.03 12:22:45.
