data_PCOD9159128
_publ_section_title
;
Structure prediction by ZEFSAII (Michael W. Deem and Ramdas Pophale) SiO2 
 PCOD9159128
Probable space group: P 21/M
;
_chemical_formula_sum "Si O2"
_cell_formula_units_Z 32
_cell_length_a 7.388842
_cell_length_b 21.319311
_cell_length_c 8.960315
_cell_angle_alpha 90.000000
_cell_angle_beta 98.383835
_cell_angle_gamma 90.000000
_cell_volume 1396.390101
_symmetry_space_group_name_H-M "P 21/M"
_symmetry_group_IT_number 11
_symmetry_cell_setting 'monoclinic'
loop_
_space_group_symop_operation_xyz
x,y,z
-x,1/2+y,-z
-x,-y,-z
x,1/2-y,z
loop_
_atom_site_type_symbol
_atom_site_label
_atom_site_fract_x
_atom_site_fract_y
_atom_site_fract_z
Si Si1 0.998268 0.317011 0.903631
Si Si2 0.443608 0.323160 0.510528
Si Si3 0.504902 0.066848 0.085162
Si Si4 0.111304 0.437273 0.000239
Si Si5 0.428855 0.179419 0.865665
Si Si6 0.866613 0.178438 0.553943
Si Si7 0.857521 0.580355 0.564224
Si Si8 0.179084 0.994974 0.716112
O O1 0.954763 0.250000 0.967673
O O2 0.979828 0.378155 0.000435
O O3 0.215309 0.317357 0.888959
O O4 0.889578 0.323984 0.736359
O O5 0.392955 0.250000 0.476959
O O6 0.433887 0.333191 0.689189
O O7 0.654541 0.331172 0.490568
O O8 0.308516 0.372971 0.419900
O O9 0.664728 0.054634 0.221547
O O10 0.295733 0.071110 0.115241
O O11 0.525720 0.126019 0.976520
O O12 0.500000 0.000000 0.000000
O O13 0.175076 0.447642 0.834085
O O14 0.000000 0.500000 0.000000
O O15 0.504565 0.250000 0.898053
O O16 0.920231 0.250000 0.517945
O O17 0.996956 0.126605 0.499850
O O18 0.984609 0.540917 0.691940
O O19 0.789830 0.527469 0.439161
#
# Coordination Sequence:
#
# PCOD9159128 Si02
#       8
#     4   4   4   4   4   4   4   4
#     4   9  16  30  54  80 108 140 182 233 284 326
#     4  10  19  32  57  87 107 142 188 232 285 329
#     4   9  18  34  52  76 107 142 183 225 276 334
#     4  10  19  34  56  82 113 144 184 234 288 336
#     4   9  16  30  54  79 107 141 183 236 284 328
#     4  10  19  32  55  84 108 139 186 230 280 331
#     4  11  20  39  55  75 121 144 183 236 274 337
#     4  10  22  37  53  79 106 155 190 217 286 347
#
# _framework density 22.916232999999998
#
# number of rings (size 3 to 8) (size 9 to 14) (size 15 to 20)
#    0.000    2.250    2.500    1.875    0.000    3.000 
#    2.250    2.500    0.000    1.500    0.000    0.000 
#    0.000    0.000    0.000    0.000    0.000    0.000 
#
# Total GULP energy -178661.267872 kJ/mol
# GULP energy per Si atom -5583.164621 kJ/mol
# Density = 2.286407 g / cm^3
# Si number density = 22.916233 Si / 1000 Ang^3
#
#
#
# Elastic Constant Matrix: (Units=GPa)
#
#
# Indices 1 2 3 4 5 6 
#
# 1 57.9431 28.7859 35.9704 0.0000 30.5449 0.0000
# 2 28.7859 178.0695 64.6877 0.0000 21.4032 0.0000
# 3 35.9704 64.6877 88.3013 0.0000 32.8441 0.0000
# 4 0.0000 0.0000 0.0000 41.7964 0.0000 9.9013
# 5 30.5449 21.4032 32.8441 0.0000 32.1609 0.0000
# 6 0.0000 0.0000 0.0000 9.9013 0.0000 28.1145
#
#
#
# Elastic Compliance Matrix: (Units=1/GPa)
#
#
# Indices 1 2 3 4 5 6 
#
# 1 0.035279 -0.001278 -0.002078 0.000000 -0.030534 0.000000
# 2 -0.001278 0.007719 -0.005926 0.000000 0.002129 0.000000
# 3 -0.002078 -0.005926 0.023078 0.000000 -0.017651 0.000000
# 4 0.000000 0.000000 0.000000 0.026103 0.000000 -0.009193
# 5 -0.030534 0.002129 -0.017651 0.000000 0.076703 0.000000
# 6 0.000000 0.000000 0.000000 -0.009193 0.000000 0.038806
#
#
# Mechanical properties :
#
#
# Convention : Reuss Voigt Hill
#
# Bulk Modulus (GPa) = 21.04708 64.80020 42.92364
# Shear Modulus (GPa) = 20.65342 33.40569 27.02955
#
# Velocity S-wave (km/s) = 3.00535 3.82217 3.43810
# Velocity P-wave (km/s) = 4.60946 6.91498 5.87640
#
# Compressibility (1/GPa) = 0.04751252
#
# Stress axis : x y z
#
# Youngs Moduli (GPa) = 28.34527 129.54461 43.33139
#
# Poissons Ratio (x) = 0.16559 0.09003
# Poissons Ratio (y) = 0.03623 0.25679
# Poissons Ratio (z) = 0.05889 0.76770
#
# Static dielectric constant tensor:
#      x y z
#    x 1.939460 0.000000 -0.035110 
#    y 0.000000 1.842740 0.000000 
#    z -0.035110 0.000000 1.901750 
# 
# From -- ./inp_files/32673.got.cif
#   From: 2010.05.17/outbox.cif.g08.bks.cpg/sg11_17_cif.got.tgz:32673.got - 2010.06.03 12:22:45.
