data_PCOD9159681
_publ_section_title
;
Structure prediction by ZEFSAII (Michael W. Deem and Ramdas Pophale) SiO2 
 PCOD9159681
Probable space group: P 21/M
;
_chemical_formula_sum "Si O2"
_cell_formula_units_Z 32
_cell_length_a 25.767286
_cell_length_b 8.781377
_cell_length_c 21.011284
_cell_angle_alpha 90.000000
_cell_angle_beta 157.581395
_cell_angle_gamma 90.000000
_cell_volume 1813.138890
_symmetry_space_group_name_H-M "P 21/M"
_symmetry_group_IT_number 11
_symmetry_cell_setting 'monoclinic'
loop_
_space_group_symop_operation_xyz
x,y,z
-x,1/2+y,-z
-x,-y,-z
x,1/2-y,z
loop_
_atom_site_type_symbol
_atom_site_label
_atom_site_fract_x
_atom_site_fract_y
_atom_site_fract_z
Si Si1 0.933605 0.568891 0.611088
Si Si2 0.655586 0.568255 0.739743
Si Si3 0.918731 0.568645 0.847654
Si Si4 0.925538 0.931974 0.353733
Si Si5 0.652104 0.430602 0.595881
Si Si6 0.662640 0.431036 0.255760
Si Si7 0.057177 0.432149 0.879170
Si Si8 0.353789 0.068271 0.902434
O O1 0.939734 0.750000 0.618130
O O2 0.777934 0.514708 0.426347
O O3 0.998664 0.502590 0.748705
O O4 0.013529 0.504659 0.640421
O O5 0.658431 0.750000 0.728290
O O6 0.672014 0.478829 0.692162
O O7 0.506104 0.534527 0.597859
O O8 0.782496 0.534583 0.928816
O O9 0.932818 0.750000 0.863894
O O10 0.762154 0.520129 0.679545
O O11 0.980242 0.499472 0.853170
O O12 0.000000 0.500000 0.000000
O O13 0.946041 0.750000 0.375305
O O14 0.765229 0.962844 0.182456
O O15 0.000000 0.000000 0.500000
O O16 0.674427 0.250000 0.614423
O O17 0.681973 0.250000 0.282744
O O18 0.675838 0.481114 0.196906
O O19 0.506888 0.469085 0.097511
O O20 0.040453 0.250000 0.859160
O O21 0.350714 0.250000 0.884784
#
# Coordination Sequence:
#
# PCOD9159681 Si02
#       8
#     4   4   4   4   4   4   4   4
#     4  12  25  40  57  83 119 157 195 237 287 349
#     4   9  19  35  57  85 116 150 191 238 291 344
#     4  12  23  37  58  88 119 153 195 241 286 341
#     4  11  21  36  59  88 117 149 191 239 287 340
#     4  10  19  33  57  88 118 150 189 239 289 340
#     4  10  19  34  57  84 114 151 191 236 289 341
#     4  11  23  41  62  85 115 153 195 241 292 348
#     4   9  19  34  56  86 116 145 187 241 290 338
#
# _framework density 17.648952000000001
#
# number of rings (size 3 to 8) (size 9 to 14) (size 15 to 20)
#    0.000    1.500    2.500    3.750    0.000    2.000 
#    0.000    1.250    0.000    3.000    0.000    0.000 
#    0.000    0.000    0.000    0.000    0.000    0.000 
#
# Total GULP energy -178758.307646 kJ/mol
# GULP energy per Si atom -5586.197114 kJ/mol
# Density = 1.760878 g / cm^3
# Si number density = 17.648952 Si / 1000 Ang^3
#
#
#
# Elastic Constant Matrix: (Units=GPa)
#
#
# Indices 1 2 3 4 5 6 
#
# 1 110.3244 56.7400 83.8860 0.0000 -2.7416 0.0000
# 2 56.7400 102.8709 79.1456 0.0000 0.8802 0.0000
# 3 83.8860 79.1456 159.8063 0.0000 2.4311 0.0000
# 4 0.0000 0.0000 0.0000 27.5325 0.0000 -1.1610
# 5 -2.7416 0.8802 2.4311 0.0000 27.8226 0.0000
# 6 0.0000 0.0000 0.0000 -1.1610 0.0000 30.7116
#
#
#
# Elastic Compliance Matrix: (Units=1/GPa)
#
#
# Indices 1 2 3 4 5 6 
#
# 1 0.016102 -0.003831 -0.006590 0.000000 0.002284 0.000000
# 2 -0.003831 0.016617 -0.006214 0.000000 -0.000360 0.000000
# 3 -0.006590 -0.006214 0.012818 0.000000 -0.001573 0.000000
# 4 0.000000 0.000000 0.000000 0.036379 0.000000 0.001375
# 5 0.002284 -0.000360 -0.001573 0.000000 0.036316 0.000000
# 6 0.000000 0.000000 0.000000 0.001375 0.000000 0.032613
#
#
# Mechanical properties :
#
#
# Convention : Reuss Voigt Hill
#
# Bulk Modulus (GPa) = 81.50660 90.28275 85.89468
# Shear Modulus (GPa) = 26.56720 27.42868 26.99794
#
# Velocity S-wave (km/s) = 3.88405 3.94652 3.91541
# Velocity P-wave (km/s) = 8.14842 8.48719 8.31953
#
# Compressibility (1/GPa) = 0.01226895
#
# Stress axis : x y z
#
# Youngs Moduli (GPa) = 62.10590 60.17756 78.01608
#
# Poissons Ratio (x) = 0.23053 0.51409
# Poissons Ratio (y) = 0.23791 0.48476
# Poissons Ratio (z) = 0.40925 0.37392
#
# Static dielectric constant tensor:
#      x y z
#    x 1.566990 0.000000 0.034710 
#    y 0.000000 1.588690 0.000000 
#    z 0.034710 0.000000 1.614660 
# 
# From -- ./inp_files/67276.got.cif
#   From: 2010.05.17/outbox.cif.g08.bks.cpg/sg11_34_cif.got.tgz:67276.got - 2010.06.03 12:22:45.
