data_PCOD9159166
_publ_section_title
;
Structure prediction by ZEFSAII (Michael W. Deem and Ramdas Pophale) SiO2 
 PCOD9159166
Probable space group: P 21/M
;
_chemical_formula_sum "Si O2"
_cell_formula_units_Z 32
_cell_length_a 11.511760
_cell_length_b 8.962456
_cell_length_c 21.630117
_cell_angle_alpha 90.000000
_cell_angle_beta 127.203415
_cell_angle_gamma 90.000000
_cell_volume 1777.501908
_symmetry_space_group_name_H-M "P 21/M"
_symmetry_group_IT_number 11
_symmetry_cell_setting 'monoclinic'
loop_
_space_group_symop_operation_xyz
x,y,z
-x,1/2+y,-z
-x,-y,-z
x,1/2-y,z
loop_
_atom_site_type_symbol
_atom_site_label
_atom_site_fract_x
_atom_site_fract_y
_atom_site_fract_z
Si Si1 0.647250 0.577448 0.991351
Si Si2 0.560855 0.071573 0.615833
Si Si3 0.151295 0.423193 0.063313
Si Si4 0.979827 0.928923 0.426232
Si Si5 0.394195 0.430751 0.236494
Si Si6 0.297197 0.572178 0.728367
Si Si7 0.344944 0.423993 0.871353
Si Si8 0.714929 0.428885 0.538362
O O1 0.591291 0.750000 0.976105
O O2 0.720267 0.547700 0.081368
O O3 0.754429 0.568539 0.968730
O O4 0.514144 0.466517 0.936413
O O5 0.554844 0.250000 0.620293
O O6 0.672793 0.035237 0.595754
O O7 0.602120 0.997929 0.693992
O O8 0.404141 0.010281 0.542723
O O9 0.123095 0.250000 0.068287
O O10 0.254677 0.482437 0.151626
O O11 0.000000 0.500000 0.000000
O O12 0.972270 0.750000 0.428523
O O13 0.121578 0.966699 0.429972
O O14 0.832280 0.992270 0.349589
O O15 0.000000 0.000000 0.500000
O O16 0.390505 0.250000 0.238417
O O17 0.544196 0.469864 0.248614
O O18 0.282848 0.750000 0.718198
O O19 0.290285 0.522568 0.797409
O O20 0.327317 0.250000 0.850241
O O21 0.696266 0.250000 0.524701
#
# Coordination Sequence:
#
# PCOD9159166 Si02
#       8
#     4   4   4   4   4   4   4   4
#     4   9  18  36  57  79 111 146 179 223 282 337
#     4  10  20  35  60  88 110 143 191 232 267 320
#     4  10  21  39  58  79 110 148 186 229 282 335
#     4  11  23  39  58  84 118 151 187 227 279 334
#     4  10  21  38  58  79 111 148 183 226 282 335
#     4  11  22  38  58  81 114 151 187 230 283 334
#     4  10  19  32  57  86 109 140 184 230 274 328
#     4   9  20  39  58  80 116 153 181 222 280 330
#
# _framework density 18.002791999999999
#
# number of rings (size 3 to 8) (size 9 to 14) (size 15 to 20)
#    0.000    2.000    1.250    2.250    0.000    7.000 
#    2.250    0.000    0.000    0.000    0.000    0.000 
#    0.000    0.000    0.000    0.000    0.000    0.000 
#
# Total GULP energy -178568.134165 kJ/mol
# GULP energy per Si atom -5580.254193 kJ/mol
# Density = 1.796182 g / cm^3
# Si number density = 18.002792 Si / 1000 Ang^3
#
#
#
# Elastic Constant Matrix: (Units=GPa)
#
#
# Indices 1 2 3 4 5 6 
#
# 1 56.0816 33.6642 64.4872 0.0000 4.1110 0.0000
# 2 33.6642 39.1220 47.0117 0.0000 0.6697 0.0000
# 3 64.4872 47.0117 162.4703 0.0000 -6.1090 0.0000
# 4 0.0000 0.0000 0.0000 37.5145 0.0000 -0.3942
# 5 4.1110 0.6697 -6.1090 0.0000 28.5851 0.0000
# 6 0.0000 0.0000 0.0000 -0.3942 0.0000 28.4375
#
#
#
# Elastic Compliance Matrix: (Units=1/GPa)
#
#
# Indices 1 2 3 4 5 6 
#
# 1 0.048222 -0.027517 -0.011507 0.000000 -0.008750 0.000000
# 2 -0.027517 0.055214 -0.004994 0.000000 0.001597 0.000000
# 3 -0.011507 -0.004994 0.012333 0.000000 0.004408 0.000000
# 4 0.000000 0.000000 0.000000 0.026660 0.000000 0.000370
# 5 -0.008750 0.001597 0.004408 0.000000 0.037146 0.000000
# 6 0.000000 0.000000 0.000000 0.000370 0.000000 0.035170
#
#
# Mechanical properties :
#
#
# Convention : Reuss Voigt Hill
#
# Bulk Modulus (GPa) = 36.05977 60.88891 48.47434
# Shear Modulus (GPa) = 16.02433 26.40813 21.21623
#
# Velocity S-wave (km/s) = 2.98669 3.83416 3.43665
# Velocity P-wave (km/s) = 5.65397 7.31412 6.53696
#
# Compressibility (1/GPa) = 0.02773173
#
# Stress axis : x y z
#
# Youngs Moduli (GPa) = 20.73748 18.11147 81.08310
#
# Poissons Ratio (x) = 0.49838 0.93300
# Poissons Ratio (y) = 0.57064 0.40495
# Poissons Ratio (z) = 0.23862 0.09045
#
# Static dielectric constant tensor:
#      x y z
#    x 1.615840 0.000000 -0.012160 
#    y 0.000000 1.614910 0.000000 
#    z -0.012160 0.000000 1.643860 
# 
# From -- ./inp_files/64452.got.cif
#   From: 2010.05.17/outbox.cif.g08.bks.cpg/sg11_33_cif.got.tgz:64452.got - 2010.06.03 12:22:45.
