data_PCOD9159782
_publ_section_title
;
Structure prediction by ZEFSAII (Michael W. Deem and Ramdas Pophale) SiO2 
 PCOD9159782
Probable space group: P 21/M
;
_chemical_formula_sum "Si O2"
_cell_formula_units_Z 32
_cell_length_a 18.427750
_cell_length_b 19.399353
_cell_length_c 10.980609
_cell_angle_alpha 90.000000
_cell_angle_beta 150.050230
_cell_angle_gamma 90.000000
_cell_volume 1959.728306
_symmetry_space_group_name_H-M "P 21/M"
_symmetry_group_IT_number 11
_symmetry_cell_setting 'monoclinic'
loop_
_space_group_symop_operation_xyz
x,y,z
-x,1/2+y,-z
-x,-y,-z
x,1/2-y,z
loop_
_atom_site_type_symbol
_atom_site_label
_atom_site_fract_x
_atom_site_fract_y
_atom_site_fract_z
Si Si1 0.293245 0.047347 0.633760
Si Si2 0.805310 0.171040 0.970782
Si Si3 0.791891 0.042905 0.121693
Si Si4 0.107865 0.169812 0.271630
Si Si5 0.944079 0.330187 0.780292
Si Si6 0.462097 0.042901 0.132289
Si Si7 0.952751 0.047354 0.612228
Si Si8 0.639816 0.328959 0.474315
O O1 0.233972 0.117524 0.490300
O O2 0.401997 0.005484 0.705380
O O3 0.154526 0.000000 0.463613
O O4 0.377624 0.059354 0.883517
O O5 0.792066 0.250000 0.996127
O O6 0.705914 0.164505 0.705899
O O7 0.766748 0.113097 0.011908
O O8 0.971190 0.161158 0.164945
O O9 0.871738 0.059360 0.365837
O O10 0.901356 0.994503 0.204745
O O11 0.647914 0.000009 0.943772
O O12 0.151811 0.250000 0.340703
O O13 0.043865 0.156068 0.043853
O O14 0.962896 0.250000 0.773983
O O15 0.977636 0.382470 0.721290
O O16 0.777410 0.338844 0.583625
O O17 0.521560 0.113099 0.276378
O O18 0.587986 0.250000 0.383890
#
# Coordination Sequence:
#
# PCOD9159782 Si02
#       8
#     4   4   4   4   4   4   4   4
#     4  10  19  34  54  76 103 137 173 213 257 300
#     4   9  18  34  55  77 103 137 175 213 258 314
#     4  10  21  34  51  78 109 138 172 211 254 311
#     4   9  18  33  55  81 103 130 176 224 259 299
#     4   9  18  33  55  81 103 130 176 224 259 299
#     4  10  21  34  51  78 109 138 172 211 254 311
#     4  10  19  34  54  76 103 137 173 213 257 300
#     4   9  18  34  55  77 103 137 175 213 258 314
#
# _framework density 16.328793999999998
#
# number of rings (size 3 to 8) (size 9 to 14) (size 15 to 20)
#    0.000    2.500    2.500    1.500    0.000    3.000 
#    0.000    1.250    0.000    3.000    0.000    0.000 
#    0.000    0.000    0.000    0.000    0.000    0.000 
#
# Total GULP energy -178436.975479 kJ/mol
# GULP energy per Si atom -5576.155484 kJ/mol
# Density = 1.629163 g / cm^3
# Si number density = 16.328794 Si / 1000 Ang^3
#
#
#
# Elastic Constant Matrix: (Units=GPa)
#
#
# Indices 1 2 3 4 5 6 
#
# 1 84.1483 76.0486 42.8301 0.0000 13.9381 0.0000
# 2 76.0486 156.8720 76.9724 0.0000 -1.7103 0.0000
# 3 42.8301 76.9724 67.9981 0.0000 14.5405 0.0000
# 4 0.0000 0.0000 0.0000 41.7832 0.0000 -9.5200
# 5 13.9381 -1.7103 14.5405 0.0000 15.6225 0.0000
# 6 0.0000 0.0000 0.0000 -9.5200 0.0000 36.4196
#
#
#
# Elastic Compliance Matrix: (Units=1/GPa)
#
#
# Indices 1 2 3 4 5 6 
#
# 1 0.035863 -0.028542 0.021511 0.000000 -0.055143 0.000000
# 2 -0.028542 0.045780 -0.050390 0.000000 0.077376 0.000000
# 3 0.021511 -0.050390 0.079255 0.000000 -0.098474 0.000000
# 4 0.000000 0.000000 0.000000 0.025449 0.000000 0.006652
# 5 -0.055143 0.077376 -0.098474 0.000000 0.213332 0.000000
# 6 0.000000 0.000000 0.000000 0.006652 0.000000 0.029197
#
#
# Mechanical properties :
#
#
# Convention : Reuss Voigt Hill
#
# Bulk Modulus (GPa) = 21.71251 77.85787 49.78519
# Shear Modulus (GPa) = 8.94346 26.30956 17.62651
#
# Velocity S-wave (km/s) = 2.34286 4.01838 3.28910
# Velocity P-wave (km/s) = 4.54363 8.32554 6.70668
#
# Compressibility (1/GPa) = 0.04605641
#
# Stress axis : x y z
#
# Youngs Moduli (GPa) = 27.88366 21.84380 12.61758
#
# Poissons Ratio (x) = 0.62346 -0.27142
# Poissons Ratio (y) = 0.79585 0.63580
# Poissons Ratio (z) = -0.59981 1.10070
#
# Static dielectric constant tensor:
#      x y z
#    x 1.535840 0.000000 0.001840 
#    y 0.000000 1.530960 0.000000 
#    z 0.001840 0.000000 1.534800 
# 
# From -- ./inp_files/41849.got.cif
#   From: 2010.05.17/outbox.cif.g08.bks.cpg/sg11_21_cif.got.tgz:41849.got - 2010.06.03 12:22:45.
