data_PCOD9159752
_publ_section_title
;
Structure prediction by ZEFSAII (Michael W. Deem and Ramdas Pophale) SiO2 
 PCOD9159752
Probable space group: P 21/M
;
_chemical_formula_sum "Si O2"
_cell_formula_units_Z 32
_cell_length_a 18.364572
_cell_length_b 12.689855
_cell_length_c 6.735774
_cell_angle_alpha 90.000000
_cell_angle_beta 88.357313
_cell_angle_gamma 90.000000
_cell_volume 1569.084967
_symmetry_space_group_name_H-M "P 21/M"
_symmetry_group_IT_number 11
_symmetry_cell_setting 'monoclinic'
loop_
_space_group_symop_operation_xyz
x,y,z
-x,1/2+y,-z
-x,-y,-z
x,1/2-y,z
loop_
_atom_site_type_symbol
_atom_site_label
_atom_site_fract_x
_atom_site_fract_y
_atom_site_fract_z
Si Si1 0.105477 0.633422 0.586590
Si Si2 0.656024 0.515439 0.913996
Si Si3 0.095672 0.453107 0.909969
Si Si4 0.435905 0.369589 0.417720
Si Si5 0.595162 0.434295 0.304523
Si Si6 0.057304 0.632255 0.166195
Si Si7 0.753531 0.870070 0.233544
Si Si8 0.735256 0.439204 0.531723
O O1 0.098165 0.750000 0.676115
O O2 0.089030 0.539428 0.735763
O O3 0.052664 0.627223 0.403028
O O4 0.188736 0.620133 0.503441
O O5 0.609944 0.442781 0.068825
O O6 0.701895 0.587023 0.062297
O O7 0.605104 0.582517 0.770839
O O8 0.709036 0.452777 0.759544
O O9 0.165014 0.383355 0.857548
O O10 0.021666 0.386956 0.924457
O O11 0.104535 0.531627 0.095569
O O12 0.413577 0.250000 0.457974
O O13 0.521951 0.374156 0.366273
O O14 0.418496 0.448391 0.601076
O O15 0.667432 0.392609 0.410552
O O16 0.085390 0.750000 0.119375
O O17 0.738269 0.750000 0.284183
O O18 0.746597 0.946562 0.424557
#
# Coordination Sequence:
#
# PCOD9159752 Si02
#       8
#     4   4   4   4   4   4   4   4
#     4  10  20  35  54  75 101 135 171 206 249 298
#     4  10  19  34  53  73 102 133 165 207 251 295
#     4  10  20  35  53  75 105 135 166 208 254 297
#     4  10  20  34  53  76 101 132 168 204 248 301
#     4   9  20  36  52  74 104 132 164 208 251 294
#     4  10  20  34  54  78 102 132 171 210 249 298
#     4  10  20  33  51  75 102 133 167 205 251 300
#     4   9  20  35  51  73 101 132 167 208 249 295
#
# _framework density 20.39405
#
# number of rings (size 3 to 8) (size 9 to 14) (size 15 to 20)
#    0.000    2.250    0.000    2.625    0.000    6.000 
#    0.000    0.625    0.000    8.250    0.000    0.000 
#    0.000    0.000    0.000    0.000    0.000    0.000 
#
# Total GULP energy -178562.517062 kJ/mol
# GULP energy per Si atom -5580.078658 kJ/mol
# Density = 2.034763 g / cm^3
# Si number density = 20.394050 Si / 1000 Ang^3
#
#
#
# Elastic Constant Matrix: (Units=GPa)
#
#
# Indices 1 2 3 4 5 6 
#
# 1 63.1693 -11.0932 -6.4612 0.0000 -10.3993 0.0000
# 2 -11.0932 56.7646 10.3217 0.0000 3.3167 0.0000
# 3 -6.4612 10.3217 82.0470 0.0000 -12.2107 0.0000
# 4 0.0000 0.0000 0.0000 7.8950 0.0000 -3.2969
# 5 -10.3993 3.3167 -12.2107 0.0000 27.6265 0.0000
# 6 0.0000 0.0000 0.0000 -3.2969 0.0000 -2.5694
#
#
#
# Elastic Compliance Matrix: (Units=1/GPa)
#
#
# Indices 1 2 3 4 5 6 
#
# 1 0.017717 0.002645 0.002149 0.000000 0.007301 0.000000
# 2 0.002645 0.018725 -0.002498 0.000000 -0.002357 0.000000
# 3 0.002149 -0.002498 0.013741 0.000000 0.007182 0.000000
# 4 0.000000 0.000000 0.000000 0.082471 0.000000 -0.105823
# 5 0.007301 -0.002357 0.007182 0.000000 0.042403 0.000000
# 6 0.000000 0.000000 0.000000 -0.105823 0.000000 -0.253408
#
#
# Mechanical properties :
#
#
# Convention : Reuss Voigt Hill
#
# Bulk Modulus (GPa) = 18.25667 20.83503 19.54585
# Shear Modulus (GPa) = -77.29845 20.53799 -28.38023
#
# Velocity S-wave (km/s) = -6.16318 3.17686 -3.73445
# Velocity P-wave (km/s) = 6.45561 4.86775 2.99833
#
# Compressibility (1/GPa) = 0.05477449
#
# Stress axis : x y z
#
# Youngs Moduli (GPa) = 56.44371 53.40328 72.77746
#
# Poissons Ratio (x) = -0.14125 -0.15641
# Poissons Ratio (y) = -0.14929 0.18181
# Poissons Ratio (z) = -0.12130 0.13341
#
# Static dielectric constant tensor:
#      x y z
#    x 1.741460 0.000000 -0.019690 
#    y 0.000000 1.709570 0.000000 
#    z -0.019690 0.000000 1.715530 
# 
# From -- ./inp_files/8111.got.cif
#   From: 2010.05.17/outbox.cif.g08.bks.cpg/sg11_5_cif.got.tgz:8111.got - 2010.06.03 12:22:45.
