data_PCOD9159364
_publ_section_title
;
Structure prediction by ZEFSAII (Michael W. Deem and Ramdas Pophale) SiO2 
 PCOD9159364
Probable space group: P 21/M
;
_chemical_formula_sum "Si O2"
_cell_formula_units_Z 32
_cell_length_a 23.366660
_cell_length_b 8.541314
_cell_length_c 17.863802
_cell_angle_alpha 90.000000
_cell_angle_beta 150.430459
_cell_angle_gamma 90.000000
_cell_volume 1759.399226
_symmetry_space_group_name_H-M "P 21/M"
_symmetry_group_IT_number 11
_symmetry_cell_setting 'monoclinic'
loop_
_space_group_symop_operation_xyz
x,y,z
-x,1/2+y,-z
-x,-y,-z
x,1/2-y,z
loop_
_atom_site_type_symbol
_atom_site_label
_atom_site_fract_x
_atom_site_fract_y
_atom_site_fract_z
Si Si1 0.308935 0.939290 0.562446
Si Si2 0.936338 0.062144 0.302582
Si Si3 0.266363 0.436280 0.825933
Si Si4 0.231539 0.560130 0.023374
Si Si5 0.124704 0.560784 0.053890
Si Si6 0.196999 0.562356 0.592775
Si Si7 0.568565 0.062064 0.858549
Si Si8 0.865692 0.439385 0.765995
O O1 0.312492 0.750000 0.565687
O O2 0.251147 0.988145 0.575237
O O3 0.228379 0.991211 0.401699
O O4 0.438704 0.001963 0.704362
O O5 0.936032 0.250000 0.309068
O O6 0.854493 0.993098 0.274192
O O7 0.872870 0.019040 0.152222
O O8 0.066220 0.000118 0.451668
O O9 0.269765 0.250000 0.829780
O O10 0.269675 0.499975 0.745695
O O11 0.367862 0.501619 0.994324
O O12 0.235367 0.750000 0.030071
O O13 0.203858 0.504133 0.075314
O O14 0.349759 0.508044 0.117720
O O15 0.124318 0.750000 0.052256
O O16 0.161547 0.511698 0.179454
O O17 0.993267 0.503423 0.892638
O O18 0.194647 0.750000 0.592336
O O19 0.570066 0.250000 0.861762
O O20 0.870789 0.250000 0.770093
#
# Coordination Sequence:
#
# PCOD9159364 Si02
#       8
#     4   4   4   4   4   4   4   4
#     4  10  22  38  53  73 104 140 176 214 259 307
#     4  10  19  33  53  79 110 138 170 211 257 308
#     4  11  22  37  56  77 103 134 170 212 262 313
#     4   8  16  31  52  77 102 133 171 210 252 300
#     4   9  16  30  54  80 107 137 168 204 251 305
#     4  11  22  35  52  75 104 137 174 215 259 309
#     4  10  21  38  57  75  99 133 176 220 258 303
#     4   9  18  32  51  78 110 138 166 206 253 301
#
# _framework density 18.188027000000002
#
# number of rings (size 3 to 8) (size 9 to 14) (size 15 to 20)
#    0.000    2.250    0.000    4.125    0.000    2.000 
#    0.000    3.750    0.000    0.000    0.000    0.000 
#    0.000    0.000    0.000    0.000    0.000    0.000 
#
# Total GULP energy -178633.710277 kJ/mol
# GULP energy per Si atom -5582.303446 kJ/mol
# Density = 1.814663 g / cm^3
# Si number density = 18.188027 Si / 1000 Ang^3
#
#
#
# Elastic Constant Matrix: (Units=GPa)
#
#
# Indices 1 2 3 4 5 6 
#
# 1 100.0718 25.2382 94.9497 0.0000 -23.9041 0.0000
# 2 25.2382 32.5906 26.5619 0.0000 -4.5606 0.0000
# 3 94.9497 26.5619 142.4105 0.0000 -5.8510 0.0000
# 4 0.0000 0.0000 0.0000 27.3522 0.0000 8.0301
# 5 -23.9041 -4.5606 -5.8510 0.0000 16.8712 0.0000
# 6 0.0000 0.0000 0.0000 8.0301 0.0000 15.8833
#
#
#
# Elastic Compliance Matrix: (Units=1/GPa)
#
#
# Indices 1 2 3 4 5 6 
#
# 1 0.081378 -0.010147 -0.048430 0.000000 0.095762 0.000000
# 2 -0.010147 0.038422 -0.000573 0.000000 -0.004189 0.000000
# 3 -0.048430 -0.000573 0.037122 0.000000 -0.055899 0.000000
# 4 0.000000 0.000000 0.000000 0.042932 0.000000 -0.021705
# 5 0.095762 -0.004189 -0.055899 0.000000 0.174435 0.000000
# 6 0.000000 0.000000 0.000000 -0.021705 0.000000 0.073932
#
#
# Mechanical properties :
#
#
# Convention : Reuss Voigt Hill
#
# Bulk Modulus (GPa) = 25.89225 63.17475 44.53350
# Shear Modulus (GPa) = 8.62966 20.57621 14.60294
#
# Velocity S-wave (km/s) = 2.18059 3.36714 2.83660
# Velocity P-wave (km/s) = 4.53947 7.06587 5.93857
#
# Compressibility (1/GPa) = 0.03862159
#
# Stress axis : x y z
#
# Youngs Moduli (GPa) = 12.28834 26.02642 26.93803
#
# Poissons Ratio (x) = 0.26409 1.30462
# Poissons Ratio (y) = 0.12469 0.01544
# Poissons Ratio (z) = 0.59513 0.01492
#
# Static dielectric constant tensor:
#      x y z
#    x 1.634180 0.000000 -0.023610 
#    y 0.000000 1.614400 0.000000 
#    z -0.023610 0.000000 1.594740 
# 
# From -- ./inp_files/61792.got.cif
#   From: 2010.05.17/outbox.cif.g08.bks.cpg/sg11_31_cif.got.tgz:61792.got - 2010.06.03 12:22:45.
