data_PCOD9159830
_publ_section_title
;
Structure prediction by ZEFSAII (Michael W. Deem and Ramdas Pophale) SiO2 
 PCOD9159830
Probable space group: P 21/M
;
_chemical_formula_sum "Si O2"
_cell_formula_units_Z 20
_cell_length_a 14.292898
_cell_length_b 13.583604
_cell_length_c 7.008575
_cell_angle_alpha 90.000000
_cell_angle_beta 37.911026
_cell_angle_gamma 90.000000
_cell_volume 836.069576
_symmetry_space_group_name_H-M "P 21/M"
_symmetry_group_IT_number 11
_symmetry_cell_setting 'monoclinic'
loop_
_space_group_symop_operation_xyz
x,y,z
-x,1/2+y,-z
-x,-y,-z
x,1/2-y,z
loop_
_atom_site_type_symbol
_atom_site_label
_atom_site_fract_x
_atom_site_fract_y
_atom_site_fract_z
Si Si1 0.325756 0.075526 0.644443
Si Si2 0.009262 0.862083 0.929158
Si Si3 0.600688 0.142316 0.450598
Si Si4 0.610807 0.636277 0.871808
Si Si5 0.093118 0.029219 0.537457
O O1 0.398916 0.084268 0.316009
O O2 0.556958 0.866433 0.412866
O O3 0.158726 0.121360 0.891919
O O4 0.991841 0.897992 0.175591
O O5 0.054670 0.750000 0.844354
O O6 0.316529 0.961027 0.720897
O O7 0.115409 0.933307 0.635041
O O8 0.670741 0.250000 0.297621
O O9 0.542915 0.138955 0.761182
O O10 0.658431 0.750000 0.763231
O O11 0.746542 0.580419 0.764149
O O12 0.000000 0.000000 0.500000
#
# Coordination Sequence:
#
# PCOD9159830 Si02
#       5
#     4   4   4   4   4
#     4  10  19  34  55  78 107 140 177 217 257 314
#     4  10  21  37  56  78 108 146 182 219 270 327
#     4  10  20  33  54  81 107 140 177 216 263 311
#     4  10  20  36  57  78 104 139 177 216 264 321
#     4  10  20  34  56  83 106 134 180 230 268 314
#
# _framework density 23.921454000000001
#
# number of rings (size 3 to 8) (size 9 to 14) (size 15 to 20)
#    0.000    2.000    0.000    5.400    0.000    3.200 
#    0.000   10.000    0.000   12.000    0.000    0.000 
#    0.000    0.000    0.000    0.000    0.000    0.000 
#
# Total GULP energy -111889.853070 kJ/mol
# GULP energy per Si atom -5594.492654 kJ/mol
# Density = 2.386701 g / cm^3
# Si number density = 23.921454 Si / 1000 Ang^3
#
#
#
# Elastic Constant Matrix: (Units=GPa)
#
#
# Indices 1 2 3 4 5 6 
#
# 1 88.1051 8.0654 18.7195 0.0000 -3.2900 0.0000
# 2 8.0654 204.1482 8.3931 0.0000 3.4379 0.0000
# 3 18.7195 8.3931 19.4847 0.0000 0.6937 0.0000
# 4 0.0000 0.0000 0.0000 25.6071 0.0000 -2.8302
# 5 -3.2900 3.4379 0.6937 0.0000 30.4361 0.0000
# 6 0.0000 0.0000 0.0000 -2.8302 0.0000 13.7965
#
#
#
# Elastic Compliance Matrix: (Units=1/GPa)
#
#
# Indices 1 2 3 4 5 6 
#
# 1 0.014367 -0.000029 -0.013856 0.000000 0.001872 0.000000
# 2 -0.000029 0.004995 -0.002105 0.000000 -0.000519 0.000000
# 3 -0.013856 -0.002105 0.065639 0.000000 -0.002756 0.000000
# 4 0.000000 0.000000 0.000000 0.039958 0.000000 0.008197
# 5 0.001872 -0.000519 -0.002756 0.000000 0.033180 0.000000
# 6 0.000000 0.000000 0.000000 0.008197 0.000000 0.074164
#
#
# Mechanical properties :
#
#
# Convention : Reuss Voigt Hill
#
# Bulk Modulus (GPa) = 18.86099 42.45488 30.65793
# Shear Modulus (GPa) = 17.73327 32.40530 25.06928
#
# Velocity S-wave (km/s) = 2.72566 3.68456 3.24077
# Velocity P-wave (km/s) = 4.21987 5.99061 5.18144
#
# Compressibility (1/GPa) = 0.05301950
#
# Stress axis : x y z
#
# Youngs Moduli (GPa) = 69.60525 200.20648 15.23479
#
# Poissons Ratio (x) = 0.00589 0.21110
# Poissons Ratio (y) = 0.00205 0.03207
# Poissons Ratio (z) = 0.96448 0.42139
#
# Static dielectric constant tensor:
#      x y z
#    x 1.944790 0.000000 -0.007520 
#    y 0.000000 1.873590 0.000000 
#    z -0.007520 0.000000 1.936670 
# 
# From -- ./inp_files/13097.got.cif
#   From: 2010.05.17/outbox.cif.g08.bks.cpg/sg11_7_cif.got.tgz:13097.got - 2010.06.03 12:22:45.
