data_PCOD9159919
_publ_section_title
;
Structure prediction by ZEFSAII (Michael W. Deem and Ramdas Pophale) SiO2 
 PCOD9159919
Probable space group: P 21/M
;
_chemical_formula_sum "Si O2"
_cell_formula_units_Z 28
_cell_length_a 10.133324
_cell_length_b 13.928160
_cell_length_c 12.137000
_cell_angle_alpha 90.000000
_cell_angle_beta 72.211623
_cell_angle_gamma 90.000000
_cell_volume 1631.102587
_symmetry_space_group_name_H-M "P 21/M"
_symmetry_group_IT_number 11
_symmetry_cell_setting 'monoclinic'
loop_
_space_group_symop_operation_xyz
x,y,z
-x,1/2+y,-z
-x,-y,-z
x,1/2-y,z
loop_
_atom_site_type_symbol
_atom_site_label
_atom_site_fract_x
_atom_site_fract_y
_atom_site_fract_z
Si Si1 0.805813 0.864377 0.222788
Si Si2 0.084663 0.532442 0.241001
Si Si3 0.163325 0.006430 0.983526
Si Si4 0.910339 0.140896 0.361798
Si Si5 0.302901 0.639239 0.788721
Si Si6 0.460608 0.022875 0.635263
Si Si7 0.269691 0.636848 0.371834
O O1 0.804707 0.750000 0.229873
O O2 0.788832 0.902354 0.101020
O O3 0.679032 0.913330 0.320725
O O4 0.950326 0.907563 0.232422
O O5 0.176632 0.596849 0.297047
O O6 0.025654 0.440042 0.320112
O O7 0.170675 0.496038 0.112841
O O8 0.240174 0.915303 0.909969
O O9 0.000000 0.000000 0.000000
O O10 0.964747 0.250000 0.356055
O O11 0.815040 0.135592 0.276586
O O12 0.814022 0.123054 0.492229
O O13 0.337055 0.750000 0.800228
O O14 0.426952 0.575273 0.708782
O O15 0.586722 0.080404 0.656606
O O16 0.500000 0.000000 0.500000
O O17 0.295055 0.750000 0.353001
#
# Coordination Sequence:
#
# PCOD9159919 Si02
#       7
#     4   4   4   4   4   4   4
#     4  10  20  34  55  82 112 143 189 236 276 322
#     4  11  20  38  55  85 114 150 184 227 283 337
#     4   9  18  33  53  81 110 140 190 229 273 318
#     4  10  19  34  56  82 112 148 184 226 277 329
#     4  10  19  34  56  81 108 143 187 232 273 322
#     4  11  20  37  56  81 108 145 188 231 269 327
#     4  11  23  36  56  84 118 150 182 226 287 339
#
# _framework density 17.166302999999999
#
# number of rings (size 3 to 8) (size 9 to 14) (size 15 to 20)
#    0.000    1.714    5.714    1.286    0.000    4.000 
#    0.000    3.571    0.000    1.714    0.000    0.000 
#    0.000    0.000    0.000    0.000    0.000    0.000 
#
# Total GULP energy -156175.837655 kJ/mol
# GULP energy per Si atom -5577.708488 kJ/mol
# Density = 1.712723 g / cm^3
# Si number density = 17.166303 Si / 1000 Ang^3
#
#
#
# Elastic Constant Matrix: (Units=GPa)
#
#
# Indices 1 2 3 4 5 6 
#
# 1 75.9683 47.2021 36.6787 0.0000 -4.1287 0.0000
# 2 47.2021 139.5987 37.1687 0.0000 -22.2581 0.0000
# 3 36.6787 37.1687 59.8766 0.0000 -25.6745 0.0000
# 4 0.0000 0.0000 0.0000 16.3845 0.0000 2.0990
# 5 -4.1287 -22.2581 -25.6745 0.0000 20.6500 0.0000
# 6 0.0000 0.0000 0.0000 2.0990 0.0000 26.2327
#
#
#
# Elastic Compliance Matrix: (Units=1/GPa)
#
#
# Indices 1 2 3 4 5 6 
#
# 1 0.032881 -0.009374 -0.033920 0.000000 -0.045703 0.000000
# 2 -0.009374 0.011570 0.006648 0.000000 0.018862 0.000000
# 3 -0.033920 0.006648 0.071790 0.000000 0.089641 0.000000
# 4 0.000000 0.000000 0.000000 0.061666 0.000000 -0.004934
# 5 -0.045703 0.018862 0.089641 0.000000 0.171072 0.000000
# 6 0.000000 0.000000 0.000000 -0.004934 0.000000 0.038515
#
#
# Mechanical properties :
#
#
# Convention : Reuss Voigt Hill
#
# Bulk Modulus (GPa) = 23.28317 57.50473 40.39395
# Shear Modulus (GPa) = 10.52403 22.94638 16.73521
#
# Velocity S-wave (km/s) = 2.47870 3.66007 3.12571
# Velocity P-wave (km/s) = 4.66741 7.17167 6.05052
#
# Compressibility (1/GPa) = 0.04294947
#
# Stress axis : x y z
#
# Youngs Moduli (GPa) = 30.41289 86.42767 13.92946
#
# Poissons Ratio (x) = 0.81013 0.47249
# Poissons Ratio (y) = 0.28508 -0.09260
# Poissons Ratio (z) = 1.03161 -0.57454
#
# Static dielectric constant tensor:
#      x y z
#    x 1.561270 0.000000 -0.000040 
#    y 0.000000 1.581550 0.000000 
#    z -0.000040 0.000000 1.587800 
# 
# From -- ./inp_files/17715.got.cif
#   From: 2010.05.17/outbox.cif.g08.bks.cpg/sg11_9_cif.got.tgz:17715.got - 2010.06.03 12:22:45.
