data_PCOD9159892
_publ_section_title
;
Structure prediction by ZEFSAII (Michael W. Deem and Ramdas Pophale) SiO2 
 PCOD9159892
Probable space group: P 21/M
;
_chemical_formula_sum "Si O2"
_cell_formula_units_Z 32
_cell_length_a 10.007324
_cell_length_b 13.765769
_cell_length_c 16.042686
_cell_angle_alpha 90.000000
_cell_angle_beta 49.501513
_cell_angle_gamma 90.000000
_cell_volume 1680.547653
_symmetry_space_group_name_H-M "P 21/M"
_symmetry_group_IT_number 11
_symmetry_cell_setting 'monoclinic'
loop_
_space_group_symop_operation_xyz
x,y,z
-x,1/2+y,-z
-x,-y,-z
x,1/2-y,z
loop_
_atom_site_type_symbol
_atom_site_label
_atom_site_fract_x
_atom_site_fract_y
_atom_site_fract_z
Si Si1 0.266661 0.633438 0.597155
Si Si2 0.033690 0.641117 0.957219
Si Si3 0.432434 0.021272 0.210568
Si Si4 0.788813 0.494731 0.977935
Si Si5 0.079754 0.498685 0.261454
Si Si6 0.393171 0.640804 0.715334
Si Si7 0.264227 0.563024 0.421868
Si Si8 0.932785 0.634920 0.459274
O O1 0.243943 0.750000 0.614759
O O2 0.389661 0.597838 0.623703
O O3 0.336483 0.608183 0.477107
O O4 0.081092 0.576790 0.677486
O O5 0.001613 0.750000 0.996564
O O6 0.188707 0.638942 0.825783
O O7 0.864096 0.595261 0.983442
O O8 0.107846 0.581695 0.005472
O O9 0.244304 0.043976 0.246841
O O10 0.510335 0.097467 0.244375
O O11 0.392900 0.932635 0.290431
O O12 0.581833 0.008606 0.080764
O O13 0.846178 0.479984 0.860034
O O14 0.012133 0.593384 0.339857
O O15 0.457054 0.750000 0.680779
O O16 0.211231 0.449055 0.460254
O O17 0.085401 0.617176 0.466459
O O18 0.887003 0.750000 0.474902
#
# Coordination Sequence:
#
# PCOD9159892 Si02
#       8
#     4   4   4   4   4   4   4   4
#     4  10  19  34  58  80 102 139 189 233 262 313
#     4   9  18  34  55  78 103 138 185 223 263 318
#     4  10  21  34  50  79 115 143 172 219 273 327
#     4  10  19  34  56  78 110 145 173 221 270 323
#     4  10  20  34  55  84 108 141 184 220 272 324
#     4   9  18  33  53  77 104 139 179 224 274 313
#     4   9  19  33  52  80 105 144 187 217 272 324
#     4   9  18  34  54  76 109 144 180 227 270 317
#
# _framework density 19.041412000000001
#
# number of rings (size 3 to 8) (size 9 to 14) (size 15 to 20)
#    0.000    2.500    1.250    1.500    0.000    2.000 
#    0.000    3.125    0.000    4.500    0.000    0.000 
#    0.000    0.000    0.000    0.000    0.000    0.000 
#
# Total GULP energy -178190.933960 kJ/mol
# GULP energy per Si atom -5568.466686 kJ/mol
# Density = 1.899807 g / cm^3
# Si number density = 19.041412 Si / 1000 Ang^3
#
#
#
# Elastic Constant Matrix: (Units=GPa)
#
#
# Indices 1 2 3 4 5 6 
#
# 1 60.1333 17.1109 14.4885 0.0000 13.8606 0.0000
# 2 17.1109 77.8663 9.5747 0.0000 0.6193 0.0000
# 3 14.4885 9.5747 97.9242 0.0000 18.1586 0.0000
# 4 0.0000 0.0000 0.0000 13.9820 0.0000 6.6887
# 5 13.8606 0.6193 18.1586 0.0000 35.2279 0.0000
# 6 0.0000 0.0000 0.0000 6.6887 0.0000 9.0377
#
#
#
# Elastic Compliance Matrix: (Units=1/GPa)
#
#
# Indices 1 2 3 4 5 6 
#
# 1 0.019724 -0.004130 -0.001204 0.000000 -0.007067 0.000000
# 2 -0.004130 0.013871 -0.001107 0.000000 0.001952 0.000000
# 3 -0.001204 -0.001107 0.011507 0.000000 -0.005438 0.000000
# 4 0.000000 0.000000 0.000000 0.110720 0.000000 -0.081942
# 5 -0.007067 0.001952 -0.005438 0.000000 0.033936 0.000000
# 6 0.000000 0.000000 0.000000 -0.081942 0.000000 0.171293
#
#
# Mechanical properties :
#
#
# Convention : Reuss Voigt Hill
#
# Bulk Modulus (GPa) = 31.03727 35.36356 33.20042
# Shear Modulus (GPa) = 12.99809 24.63282 18.81545
#
# Velocity S-wave (km/s) = 2.61554 3.60063 3.14687
# Velocity P-wave (km/s) = 5.04546 5.99152 5.53872
#
# Compressibility (1/GPa) = 0.03221933
#
# Stress axis : x y z
#
# Youngs Moduli (GPa) = 50.69965 72.09439 86.90523
#
# Poissons Ratio (x) = 0.29775 0.10463
# Poissons Ratio (y) = 0.20939 0.09621
# Poissons Ratio (z) = 0.06104 0.07982
#
# Static dielectric constant tensor:
#      x y z
#    x 1.701850 0.000000 -0.016180 
#    y 0.000000 1.722020 0.000000 
#    z -0.016180 0.000000 1.705600 
# 
# From -- ./inp_files/47592.got.cif
#   From: 2010.05.17/outbox.cif.g08.bks.cpg/sg11_24_cif.got.tgz:47592.got - 2010.06.03 12:22:45.
