data_PCOD9159171
_publ_section_title
;
Structure prediction by ZEFSAII (Michael W. Deem and Ramdas Pophale) SiO2 
 PCOD9159171
Probable space group: P 21/M
;
_chemical_formula_sum "Si O2"
_cell_formula_units_Z 24
_cell_length_a 12.023755
_cell_length_b 18.000522
_cell_length_c 9.097249
_cell_angle_alpha 90.000000
_cell_angle_beta 138.862272
_cell_angle_gamma 90.000000
_cell_volume 1295.317537
_symmetry_space_group_name_H-M "P 21/M"
_symmetry_group_IT_number 11
_symmetry_cell_setting 'monoclinic'
loop_
_space_group_symop_operation_xyz
x,y,z
-x,1/2+y,-z
-x,-y,-z
x,1/2-y,z
loop_
_atom_site_type_symbol
_atom_site_label
_atom_site_fract_x
_atom_site_fract_y
_atom_site_fract_z
Si Si1 0.163652 0.902802 0.082307
Si Si2 0.919558 0.919799 0.371591
Si Si3 0.528352 0.582487 0.468997
Si Si4 0.851698 0.582094 0.959725
Si Si5 0.789302 0.337494 0.190420
Si Si6 0.552515 0.575134 0.140393
O O1 0.349991 0.877063 0.315945
O O2 0.157547 0.992825 0.076687
O O3 0.149412 0.874975 0.901551
O O4 0.012041 0.882143 0.038131
O O5 0.743104 0.906527 0.280789
O O6 0.067389 0.861728 0.552855
O O7 0.870374 0.914111 0.152251
O O8 0.000000 0.000000 0.500000
O O9 0.500000 0.500000 0.500000
O O10 0.684453 0.614260 0.715794
O O11 0.557726 0.572403 0.323628
O O12 0.779581 0.250000 0.162659
O O13 0.604039 0.369397 0.046200
O O14 0.500000 0.500000 0.000000
#
# Coordination Sequence:
#
# PCOD9159171 Si02
#       6
#     4   4   4   4   4   4
#     4   9  18  34  56  83 116 152 197 249 302 362
#     4  12  22  36  62  93 125 161 206 261 304 369
#     4   9  18  29  51  84 116 148 195 255 303 342
#     4  10  19  32  57  89 118 148 199 257 300 350
#     4  11  24  41  60  88 125 165 206 255 321 376
#     4  11  21  37  62  89 122 162 211 259 306 368
#
# _framework density 18.528275000000001
#
# number of rings (size 3 to 8) (size 9 to 14) (size 15 to 20)
#    0.000    1.667    3.333    3.000    4.667    2.000 
#    0.000    0.833    0.000    4.000    0.000    0.000 
#    0.000    0.000    0.000    0.000    0.000    0.000 
#
# Total GULP energy -133714.333345 kJ/mol
# GULP energy per Si atom -5571.430556 kJ/mol
# Density = 1.848610 g / cm^3
# Si number density = 18.528275 Si / 1000 Ang^3
#
#
#
# Elastic Constant Matrix: (Units=GPa)
#
#
# Indices 1 2 3 4 5 6 
#
# 1 136.8649 9.1094 85.0984 0.0000 33.0602 0.0000
# 2 9.1094 31.8571 10.4235 0.0000 14.1922 0.0000
# 3 85.0984 10.4235 171.2568 0.0000 12.5919 0.0000
# 4 0.0000 0.0000 0.0000 13.8009 0.0000 4.8560
# 5 33.0602 14.1922 12.5919 0.0000 22.7577 0.0000
# 6 0.0000 0.0000 0.0000 4.8560 0.0000 6.5377
#
#
#
# Elastic Compliance Matrix: (Units=1/GPa)
#
#
# Indices 1 2 3 4 5 6 
#
# 1 0.018245 0.009972 -0.007575 0.000000 -0.028532 0.000000
# 2 0.009972 0.048993 -0.004822 0.000000 -0.042372 0.000000
# 3 -0.007575 -0.004822 0.009242 0.000000 0.008897 0.000000
# 4 0.000000 0.000000 0.000000 0.098097 0.000000 -0.072864
# 5 -0.028532 -0.042372 0.008897 0.000000 0.106891 0.000000
# 6 0.000000 0.000000 0.000000 -0.072864 0.000000 0.207079
#
#
# Mechanical properties :
#
#
# Convention : Reuss Voigt Hill
#
# Bulk Modulus (GPa) = 13.96040 61.02683 37.49361
# Shear Modulus (GPa) = 9.66609 24.30912 16.98760
#
# Velocity S-wave (km/s) = 2.28654 3.62609 3.03123
# Velocity P-wave (km/s) = 3.81078 7.10915 5.70359
#
# Compressibility (1/GPa) = 0.07163120
#
# Stress axis : x y z
#
# Youngs Moduli (GPa) = 54.81101 20.41109 108.19590
#
# Poissons Ratio (x) = -0.20355 0.81958
# Poissons Ratio (y) = -0.54659 0.52169
# Poissons Ratio (z) = 0.41519 0.09842
#
# Static dielectric constant tensor:
#      x y z
#    x 1.653240 0.000000 0.005730 
#    y 0.000000 -0.478160 0.000000 
#    z 0.005730 0.000000 1.705490 
# 
# From -- ./inp_files/19257.got.cif
#   From: 2010.05.17/outbox.cif.g08.bks.cpg/sg11_10_cif.got.tgz:19257.got - 2010.06.03 12:22:45.
