data_PCOD9159792
_publ_section_title
;
Structure prediction by ZEFSAII (Michael W. Deem and Ramdas Pophale) SiO2 
 PCOD9159792
Probable space group: P 21/M
;
_chemical_formula_sum "Si O2"
_cell_formula_units_Z 32
_cell_length_a 12.380491
_cell_length_b 8.634674
_cell_length_c 32.113509
_cell_angle_alpha 90.000000
_cell_angle_beta 150.089053
_cell_angle_gamma 90.000000
_cell_volume 1711.868213
_symmetry_space_group_name_H-M "P 21/M"
_symmetry_group_IT_number 11
_symmetry_cell_setting 'monoclinic'
loop_
_space_group_symop_operation_xyz
x,y,z
-x,1/2+y,-z
-x,-y,-z
x,1/2-y,z
loop_
_atom_site_type_symbol
_atom_site_label
_atom_site_fract_x
_atom_site_fract_y
_atom_site_fract_z
Si Si1 0.682773 0.935167 0.422389
Si Si2 0.852826 0.061414 0.217664
Si Si3 0.051304 0.935943 0.130537
Si Si4 0.128490 0.064739 0.603682
Si Si5 0.215660 0.435691 0.273732
Si Si6 0.197906 0.434908 0.093180
Si Si7 0.444341 0.063269 0.026821
Si Si8 0.312439 0.562765 0.750856
O O1 0.664365 0.750000 0.418607
O O2 0.730257 0.978360 0.389922
O O3 0.461114 0.012118 0.362877
O O4 0.892216 0.991167 0.517719
O O5 0.854612 0.250000 0.218409
O O6 0.631861 0.012136 0.120838
O O7 0.835880 0.012123 0.259880
O O8 0.055371 0.011770 0.257241
O O9 0.067381 0.750000 0.134401
O O10 0.136727 0.994026 0.203491
O O11 0.176664 0.006541 0.133389
O O12 0.798543 0.982207 0.042052
O O13 0.109028 0.250000 0.597406
O O14 0.235602 0.006955 0.681750
O O15 0.203044 0.250000 0.266629
O O16 0.184276 0.250000 0.087578
O O17 0.436669 0.479375 0.156759
O O18 0.000000 0.500000 0.000000
O O19 0.448568 0.250000 0.026846
O O20 0.500000 0.000000 0.000000
O O21 0.303509 0.750000 0.744852
#
# Coordination Sequence:
#
# PCOD9159792 Si02
#       8
#     4   4   4   4   4   4   4   4
#     4  10  21  38  61  87 117 146 178 228 286 341
#     4   9  19  36  56  78 110 150 191 235 281 331
#     4  11  22  35  55  82 115 150 190 238 289 344
#     4  10  21  38  61  89 115 143 182 229 280 337
#     4  11  21  35  57  84 114 147 188 235 283 335
#     4  11  23  38  58  83 115 152 193 239 287 340
#     4  10  19  34  54  77 108 148 192 238 283 330
#     4  10  21  39  60  81 111 154 194 229 280 339
#
# _framework density 18.693028000000002
#
# number of rings (size 3 to 8) (size 9 to 14) (size 15 to 20)
#    0.000    1.750    1.250    3.375    0.000    7.000 
#    0.000    2.500    0.000    0.000    0.000    0.000 
#    0.000    0.000    0.000    0.000    0.000    0.000 
#
# Total GULP energy -178776.002478 kJ/mol
# GULP energy per Si atom -5586.750077 kJ/mol
# Density = 1.865048 g / cm^3
# Si number density = 18.693028 Si / 1000 Ang^3
#
#
#
# Elastic Constant Matrix: (Units=GPa)
#
#
# Indices 1 2 3 4 5 6 
#
# 1 118.4831 27.9220 51.1719 0.0000 7.2985 0.0000
# 2 27.9220 26.5050 24.6363 0.0000 4.0718 0.0000
# 3 51.1719 24.6363 92.7621 0.0000 2.1908 0.0000
# 4 0.0000 0.0000 0.0000 34.2745 0.0000 -2.1363
# 5 7.2985 4.0718 2.1908 0.0000 33.8751 0.0000
# 6 0.0000 0.0000 0.0000 -2.1363 0.0000 23.6881
#
#
#
# Elastic Compliance Matrix: (Units=1/GPa)
#
#
# Indices 1 2 3 4 5 6 
#
# 1 0.012566 -0.008785 -0.004567 0.000000 -0.001356 0.000000
# 2 -0.008785 0.057157 -0.010232 0.000000 -0.004316 0.000000
# 3 -0.004567 -0.010232 0.015989 0.000000 0.001180 0.000000
# 4 0.000000 0.000000 0.000000 0.029341 0.000000 0.002646
# 5 -0.001356 -0.004316 0.001180 0.000000 0.030255 0.000000
# 6 0.000000 0.000000 0.000000 0.002646 0.000000 0.042454
#
#
# Mechanical properties :
#
#
# Convention : Reuss Voigt Hill
#
# Bulk Modulus (GPa) = 25.94387 49.46783 37.70585
# Shear Modulus (GPa) = 20.17936 27.30219 23.74077
#
# Velocity S-wave (km/s) = 3.28916 3.82587 3.56762
# Velocity P-wave (km/s) = 5.32295 6.78506 6.09798
#
# Compressibility (1/GPa) = 0.03854475
#
# Stress axis : x y z
#
# Youngs Moduli (GPa) = 79.57836 17.49575 62.54202
#
# Poissons Ratio (x) = 0.15370 0.28563
# Poissons Ratio (y) = 0.69907 0.63993
# Poissons Ratio (z) = 0.36343 0.17902
#
# Static dielectric constant tensor:
#      x y z
#    x 1.643030 0.000000 0.013940 
#    y 0.000000 1.634850 0.000000 
#    z 0.013940 0.000000 1.627040 
# 
# From -- ./inp_files/73167.got.cif
#   From: 2010.05.17/outbox.cif.g08.bks.cpg/sg11_37_cif.got.tgz:73167.got - 2010.06.03 12:22:45.
