data_PCOD9159322
_publ_section_title
;
Structure prediction by ZEFSAII (Michael W. Deem and Ramdas Pophale) SiO2 
 PCOD9159322
Probable space group: P 21/M
;
_chemical_formula_sum "Si O2"
_cell_formula_units_Z 32
_cell_length_a 16.219767
_cell_length_b 9.405293
_cell_length_c 21.775736
_cell_angle_alpha 90.000000
_cell_angle_beta 32.224442
_cell_angle_gamma 90.000000
_cell_volume 1771.373850
_symmetry_space_group_name_H-M "P 21/M"
_symmetry_group_IT_number 11
_symmetry_cell_setting 'monoclinic'
loop_
_space_group_symop_operation_xyz
x,y,z
-x,1/2+y,-z
-x,-y,-z
x,1/2-y,z
loop_
_atom_site_type_symbol
_atom_site_label
_atom_site_fract_x
_atom_site_fract_y
_atom_site_fract_z
Si Si1 0.716328 0.408044 0.012574
Si Si2 0.021769 0.412787 0.296367
Si Si3 0.063863 0.004573 0.784649
Si Si4 0.358106 0.078276 0.057525
Si Si5 0.383098 0.088409 0.532550
Si Si6 0.698027 0.422179 0.539398
Si Si7 0.568242 0.416850 0.239541
Si Si8 0.129120 0.914680 0.880638
O O1 0.670916 0.250000 0.019213
O O2 0.650205 0.428510 0.122039
O O3 0.655253 0.526370 0.004368
O O4 0.902470 0.415620 0.897238
O O5 0.038308 0.250000 0.304293
O O6 0.194046 0.473889 0.190205
O O7 0.969692 0.417624 0.257251
O O8 0.878429 0.469352 0.426473
O O9 0.101870 0.927867 0.824867
O O10 0.216267 0.091636 0.670837
O O11 0.368390 0.250000 0.054685
O O12 0.500000 0.000000 0.000000
O O13 0.435612 0.250000 0.488149
O O14 0.500000 0.000000 0.500000
O O15 0.363940 0.998085 0.482924
O O16 0.691264 0.250000 0.540295
O O17 0.583406 0.485875 0.662035
O O18 0.528791 0.250000 0.274500
O O19 0.698675 0.461091 0.207279
O O20 0.116732 0.750000 0.906609
O O21 0.000000 0.000000 0.000000
#
# Coordination Sequence:
#
# PCOD9159322 Si02
#       8
#     4   4   4   4   4   4   4   4
#     4  10  20  36  56  79 109 142 176 218 268 320
#     4   8  17  33  53  79 109 139 173 216 268 315
#     4  10  19  33  53  76 102 140 182 228 272 322
#     4  10  20  36  60  89 116 139 167 209 263 325
#     4  11  22  34  51  72  98 134 179 231 278 322
#     4  10  20  35  54  76 103 139 182 223 263 317
#     4  10  21  36  52  75 110 149 186 229 272 316
#     4  11  22  34  49  71 104 145 187 232 276 319
#
# _framework density 18.065075
#
# number of rings (size 3 to 8) (size 9 to 14) (size 15 to 20)
#    0.000    2.000    1.250    2.625    0.000    4.500 
#    0.000    1.875    0.000    0.750    0.000    0.000 
#    0.000    0.000    0.000    0.000    0.000    0.000 
#
# Total GULP energy -178302.545235 kJ/mol
# GULP energy per Si atom -5571.954539 kJ/mol
# Density = 1.802396 g / cm^3
# Si number density = 18.065075 Si / 1000 Ang^3
#
#
#
# Elastic Constant Matrix: (Units=GPa)
#
#
# Indices 1 2 3 4 5 6 
#
# 1 59.0272 23.2499 30.3071 0.0000 -22.2411 0.0000
# 2 23.2499 80.1829 40.1215 0.0000 -10.2800 0.0000
# 3 30.3071 40.1215 123.1490 0.0000 -11.9150 0.0000
# 4 0.0000 0.0000 0.0000 23.6384 0.0000 -0.8397
# 5 -22.2411 -10.2800 -11.9150 0.0000 26.6782 0.0000
# 6 0.0000 0.0000 0.0000 -0.8397 0.0000 21.1939
#
#
#
# Elastic Compliance Matrix: (Units=1/GPa)
#
#
# Indices 1 2 3 4 5 6 
#
# 1 0.027894 -0.003635 -0.003727 0.000000 0.020189 0.000000
# 2 -0.003635 0.015739 -0.004118 0.000000 0.001196 0.000000
# 3 -0.003727 -0.004118 0.010373 0.000000 -0.000061 0.000000
# 4 0.000000 0.000000 0.000000 0.042364 0.000000 0.001678
# 5 0.020189 0.001196 -0.000061 0.000000 0.054749 0.000000
# 6 0.000000 0.000000 0.000000 0.001678 0.000000 0.047250
#
#
# Mechanical properties :
#
#
# Convention : Reuss Voigt Hill
#
# Bulk Modulus (GPa) = 32.20910 49.96847 41.08878
# Shear Modulus (GPa) = 21.58186 25.54747 23.56466
#
# Velocity S-wave (km/s) = 3.46015 3.76465 3.61561
# Velocity P-wave (km/s) = 5.81651 6.82767 6.34227
#
# Compressibility (1/GPa) = 0.03104713
#
# Stress axis : x y z
#
# Youngs Moduli (GPa) = 35.85009 63.53635 96.40349
#
# Poissons Ratio (x) = 0.23094 0.35931
# Poissons Ratio (y) = 0.13031 0.39694
# Poissons Ratio (z) = 0.13362 0.26161
#
# Static dielectric constant tensor:
#      x y z
#    x 1.610990 0.000000 -0.005460 
#    y 0.000000 1.612270 0.000000 
#    z -0.005460 0.000000 1.667530 
# 
# From -- ./inp_files/69436.got.cif
#   From: 2010.05.17/outbox.cif.g08.bks.cpg/sg11_35_cif.got.tgz:69436.got - 2010.06.03 12:22:45.
