data_PCOD9159925
_publ_section_title
;
Structure prediction by ZEFSAII (Michael W. Deem and Ramdas Pophale) SiO2 
 PCOD9159925
Probable space group: P 21/M
;
_chemical_formula_sum "Si O2"
_cell_formula_units_Z 32
_cell_length_a 14.580712
_cell_length_b 8.776424
_cell_length_c 12.959418
_cell_angle_alpha 90.000000
_cell_angle_beta 90.073087
_cell_angle_gamma 90.000000
_cell_volume 1658.370153
_symmetry_space_group_name_H-M "P 21/M"
_symmetry_group_IT_number 11
_symmetry_cell_setting 'monoclinic'
loop_
_space_group_symop_operation_xyz
x,y,z
-x,1/2+y,-z
-x,-y,-z
x,1/2-y,z
loop_
_atom_site_type_symbol
_atom_site_label
_atom_site_fract_x
_atom_site_fract_y
_atom_site_fract_z
Si Si1 0.974671 0.568479 0.887940
Si Si2 0.713924 0.934433 0.387632
Si Si3 0.269431 0.923499 0.958364
Si Si4 0.316536 0.434908 0.387980
Si Si5 0.235226 0.433709 0.168081
Si Si6 0.525955 0.421890 0.105180
Si Si7 0.145862 0.069212 0.790417
Si Si8 0.515194 0.435278 0.331204
O O1 0.980194 0.750000 0.896505
O O2 0.048225 0.510024 0.804777
O O3 0.871620 0.528970 0.852590
O O4 0.000000 0.500000 0.000000
O O5 0.710426 0.750000 0.382297
O O6 0.732875 0.980760 0.506179
O O7 0.790360 0.984229 0.304791
O O8 0.612611 0.996325 0.362065
O O9 0.234078 0.750000 0.964368
O O10 0.363730 0.920394 0.895166
O O11 0.200303 0.029091 0.895528
O O12 0.286668 0.987809 0.072506
O O13 0.315807 0.250000 0.384962
O O14 0.270704 0.484342 0.280440
O O15 0.424089 0.479844 0.393489
O O16 0.246031 0.250000 0.161405
O O17 0.490447 0.250000 0.100695
O O18 0.494817 0.487579 0.213673
O O19 0.500000 0.500000 0.000000
O O20 0.133810 0.250000 0.782363
O O21 0.522724 0.250000 0.331649
#
# Coordination Sequence:
#
# PCOD9159925 Si02
#       8
#     4   4   4   4   4   4   4   4
#     4  11  22  36  59  88 115 145 184 232 284 341
#     4  10  21  37  58  83 111 149 195 236 273 326
#     4  11  21  34  54  80 113 146 183 233 282 331
#     4   9  19  37  59  82 111 148 190 234 279 334
#     4  10  21  38  60  83 111 147 185 227 285 349
#     4  10  21  33  48  76 111 149 186 226 280 335
#     4  11  22  36  56  82 112 148 187 229 281 334
#     4  10  19  34  56  81 111 147 187 233 284 332
#
# _framework density 19.296054000000002
#
# number of rings (size 3 to 8) (size 9 to 14) (size 15 to 20)
#    0.000    1.750    2.500    2.250    0.000    3.500 
#    0.000    1.875    0.000    0.000    0.000    0.000 
#    0.000    0.000    0.000    0.000    0.000    0.000 
#
# Total GULP energy -178602.762134 kJ/mol
# GULP energy per Si atom -5581.336317 kJ/mol
# Density = 1.925214 g / cm^3
# Si number density = 19.296054 Si / 1000 Ang^3
#
#
#
# Elastic Constant Matrix: (Units=GPa)
#
#
# Indices 1 2 3 4 5 6 
#
# 1 84.0888 16.6536 36.0117 0.0000 -15.5474 0.0000
# 2 16.6536 19.7382 13.4996 0.0000 -4.2517 0.0000
# 3 36.0117 13.4996 130.1153 0.0000 -19.7955 0.0000
# 4 0.0000 0.0000 0.0000 14.4446 0.0000 -1.7608
# 5 -15.5474 -4.2517 -19.7955 0.0000 26.7862 0.0000
# 6 0.0000 0.0000 0.0000 -1.7608 0.0000 26.3450
#
#
#
# Elastic Compliance Matrix: (Units=1/GPa)
#
#
# Indices 1 2 3 4 5 6 
#
# 1 0.016146 -0.010672 -0.002471 0.000000 0.005851 0.000000
# 2 -0.010672 0.062198 -0.003312 0.000000 0.001230 0.000000
# 3 -0.002471 -0.003312 0.009481 0.000000 0.005046 0.000000
# 4 0.000000 0.000000 0.000000 0.069799 0.000000 0.004665
# 5 0.005851 0.001230 0.005046 0.000000 0.044654 0.000000
# 6 0.000000 0.000000 0.000000 0.004665 0.000000 0.038270
#
#
# Mechanical properties :
#
#
# Convention : Reuss Voigt Hill
#
# Bulk Modulus (GPa) = 18.21047 40.69689 29.45368
# Shear Modulus (GPa) = 17.13725 24.70034 20.91880
#
# Velocity S-wave (km/s) = 2.98337 3.58169 3.29613
# Velocity P-wave (km/s) = 4.61792 6.18395 5.45740
#
# Compressibility (1/GPa) = 0.05491347
#
# Stress axis : x y z
#
# Youngs Moduli (GPa) = 61.93497 16.07775 105.47586
#
# Poissons Ratio (x) = 0.17158 0.26066
# Poissons Ratio (y) = 0.66098 0.34935
# Poissons Ratio (z) = 0.15306 0.05325
#
# Static dielectric constant tensor:
#      x y z
#    x 1.692700 0.000000 -0.010060 
#    y 0.000000 1.666310 0.000000 
#    z -0.010060 0.000000 1.685840 
# 
# From -- ./inp_files/38237.got.cif
#   From: 2010.05.17/outbox.cif.g08.bks.cpg/sg11_20_cif.got.tgz:38237.got - 2010.06.03 12:22:45.
