data_PCOD9159724
_publ_section_title
;
Structure prediction by ZEFSAII (Michael W. Deem and Ramdas Pophale) SiO2 
 PCOD9159724
Probable space group: P 21/M
;
_chemical_formula_sum "Si O2"
_cell_formula_units_Z 32
_cell_length_a 15.011905
_cell_length_b 17.372117
_cell_length_c 12.148970
_cell_angle_alpha 90.000000
_cell_angle_beta 29.531843
_cell_angle_gamma 90.000000
_cell_volume 1561.684042
_symmetry_space_group_name_H-M "P 21/M"
_symmetry_group_IT_number 11
_symmetry_cell_setting 'monoclinic'
loop_
_space_group_symop_operation_xyz
x,y,z
-x,1/2+y,-z
-x,-y,-z
x,1/2-y,z
loop_
_atom_site_type_symbol
_atom_site_label
_atom_site_fract_x
_atom_site_fract_y
_atom_site_fract_z
Si Si1 0.867376 0.597420 0.704814
Si Si2 0.398673 0.479699 0.718433
Si Si3 0.852927 0.338172 0.239893
Si Si4 0.775680 0.666173 0.034879
Si Si5 0.582001 0.570370 0.845255
Si Si6 0.187768 0.586764 0.196125
Si Si7 0.736333 0.501167 0.474579
Si Si8 0.919614 0.090928 0.935187
O O1 0.701135 0.619129 0.802701
O O2 0.838346 0.507054 0.770152
O O3 0.052103 0.611900 0.439647
O O4 0.855850 0.641572 0.831465
O O5 0.500000 0.500000 0.500000
O O6 0.378956 0.390881 0.761485
O O7 0.527155 0.515686 0.671314
O O8 0.201509 0.514344 0.927254
O O9 0.782813 0.250000 0.335208
O O10 0.777010 0.413745 0.389304
O O11 0.854473 0.357080 0.107201
O O12 0.061061 0.335955 0.054669
O O13 0.698247 0.750000 0.109630
O O14 0.731454 0.528066 0.606240
O O15 0.500000 0.500000 0.000000
O O16 0.398756 0.607699 0.992089
O O17 0.120635 0.616481 0.147780
O O18 0.876496 0.560244 0.268663
#
# Coordination Sequence:
#
# PCOD9159724 Si02
#       8
#     4   4   4   4   4   4   4   4
#     4  10  19  37  59  91 125 157 199 258 311 362
#     4  12  22  37  62  95 123 160 215 264 316 375
#     4  11  25  41  61  90 126 169 210 258 326 387
#     4  11  24  44  64  91 132 172 210 262 331 386
#     4  10  20  31  57  97 121 150 197 255 311 365
#     4  10  19  33  62  94 122 153 204 258 307 362
#     4  12  21  36  65  95 121 159 215 264 312 374
#     4  12  21  41  64  92 126 162 214 269 312 374
#
# _framework density 20.490698999999999
#
# number of rings (size 3 to 8) (size 9 to 14) (size 15 to 20)
#    0.000    1.000    6.250    1.875    3.500    0.500 
#    0.000    0.625    0.000    0.750    0.000    0.000 
#    0.000    0.000    0.000    0.000    0.000    0.000 
#
# Total GULP energy -178255.272223 kJ/mol
# GULP energy per Si atom -5570.477257 kJ/mol
# Density = 2.044406 g / cm^3
# Si number density = 20.490699 Si / 1000 Ang^3
#
#
#
# Elastic Constant Matrix: (Units=GPa)
#
#
# Indices 1 2 3 4 5 6 
#
# 1 102.2041 22.7279 19.8240 0.0000 2.4136 0.0000
# 2 22.7279 31.7074 22.9477 0.0000 2.2371 0.0000
# 3 19.8240 22.9477 84.3364 0.0000 6.7614 0.0000
# 4 0.0000 0.0000 0.0000 13.2875 0.0000 -0.7781
# 5 2.4136 2.2371 6.7614 0.0000 39.5983 0.0000
# 6 0.0000 0.0000 0.0000 -0.7781 0.0000 5.5959
#
#
#
# Elastic Compliance Matrix: (Units=1/GPa)
#
#
# Indices 1 2 3 4 5 6 
#
# 1 0.011664 -0.007937 -0.000569 0.000000 -0.000165 0.000000
# 2 -0.007937 0.044680 -0.010269 0.000000 -0.000287 0.000000
# 3 -0.000569 -0.010269 0.014940 0.000000 -0.001936 0.000000
# 4 0.000000 0.000000 0.000000 0.075877 0.000000 0.010551
# 5 -0.000165 -0.000287 -0.001936 0.000000 0.025611 0.000000
# 6 0.000000 0.000000 0.000000 0.010551 0.000000 0.180170
#
#
# Mechanical properties :
#
#
# Convention : Reuss Voigt Hill
#
# Bulk Modulus (GPa) = 29.64307 38.80524 34.22415
# Shear Modulus (GPa) = 12.44604 21.87955 17.16279
#
# Velocity S-wave (km/s) = 2.46722 3.27123 2.89725
# Velocity P-wave (km/s) = 4.75544 5.76603 5.28495
#
# Compressibility (1/GPa) = 0.03373470
#
# Stress axis : x y z
#
# Youngs Moduli (GPa) = 85.73666 22.38149 66.93341
#
# Poissons Ratio (x) = 0.17765 0.03806
# Poissons Ratio (y) = 0.68052 0.68731
# Poissons Ratio (z) = 0.04875 0.22982
#
# Static dielectric constant tensor:
#      x y z
#    x 1.055630 0.000000 0.087290 
#    y 0.000000 1.706590 0.000000 
#    z 0.087290 0.000000 1.724570 
# 
# From -- ./inp_files/39986.got.cif
#   From: 2010.05.17/outbox.cif.g08.bks.cpg/sg11_20_cif.got.tgz:39986.got - 2010.06.03 12:22:45.
