data_PCOD9159618
_publ_section_title
;
Structure prediction by ZEFSAII (Michael W. Deem and Ramdas Pophale) SiO2 
 PCOD9159618
Probable space group: P 21/M
;
_chemical_formula_sum "Si O2"
_cell_formula_units_Z 32
_cell_length_a 18.713309
_cell_length_b 15.613329
_cell_length_c 11.908070
_cell_angle_alpha 90.000000
_cell_angle_beta 150.637670
_cell_angle_gamma 90.000000
_cell_volume 1705.990865
_symmetry_space_group_name_H-M "P 21/M"
_symmetry_group_IT_number 11
_symmetry_cell_setting 'monoclinic'
loop_
_space_group_symop_operation_xyz
x,y,z
-x,1/2+y,-z
-x,-y,-z
x,1/2-y,z
loop_
_atom_site_type_symbol
_atom_site_label
_atom_site_fract_x
_atom_site_fract_y
_atom_site_fract_z
Si Si1 0.945790 0.018658 0.086321
Si Si2 0.348656 0.651081 0.043952
Si Si3 0.246556 0.153630 0.839751
Si Si4 0.486918 0.011752 0.114407
Si Si5 0.458299 0.089499 0.502791
Si Si6 0.032628 0.920094 0.629687
Si Si7 0.244324 0.998039 0.371103
Si Si8 0.188737 0.345249 0.019829
O O1 0.941052 0.053116 0.205569
O O2 0.827919 0.052780 0.833452
O O3 0.104949 0.028942 0.250460
O O4 0.904108 0.918304 0.045973
O O5 0.379086 0.750000 0.058553
O O6 0.433035 0.580123 0.086886
O O7 0.404861 0.632284 0.248547
O O8 0.178784 0.629428 0.795464
O O9 0.304502 0.250000 0.908380
O O10 0.110475 0.137922 0.572256
O O11 0.366246 0.081733 0.981460
O O12 0.182093 0.143677 0.876990
O O13 0.637837 0.039886 0.381234
O O14 0.500000 0.000000 0.000000
O O15 0.360478 0.143472 0.283690
O O16 0.500000 0.000000 0.500000
O O17 0.341626 0.069040 0.441372
O O18 0.000000 0.000000 0.500000
O O19 0.141372 0.250000 0.986182
#
# Coordination Sequence:
#
# PCOD9159618 Si02
#       8
#     4   4   4   4   4   4   4   4
#     4  10  19  37  59  84 114 153 198 242 296 361
#     4  11  23  38  59  91 121 154 207 260 308 371
#     4  11  23  38  57  86 116 150 203 253 302 362
#     4  11  22  39  61  85 120 163 200 248 312 372
#     4  10  19  36  61  86 116 156 200 246 302 365
#     4  12  21  37  61  84 115 160 200 253 307 366
#     4   9  20  34  59  87 112 152 201 242 294 362
#     4  10  19  33  56  84 115 148 185 240 300 353
#
# _framework density 18.757427
#
# number of rings (size 3 to 8) (size 9 to 14) (size 15 to 20)
#    0.000    1.500    2.500    4.500    0.000    0.500 
#    0.000    0.625    0.000   24.000    0.000    0.000 
#    0.000    0.000    0.000    0.000    0.000    0.000 
#
# Total GULP energy -178301.677273 kJ/mol
# GULP energy per Si atom -5571.927415 kJ/mol
# Density = 1.871473 g / cm^3
# Si number density = 18.757427 Si / 1000 Ang^3
#
#
#
# Elastic Constant Matrix: (Units=GPa)
#
#
# Indices 1 2 3 4 5 6 
#
# 1 67.8062 37.3262 26.7185 0.0000 -8.2466 0.0000
# 2 37.3262 107.4582 30.7833 0.0000 2.2834 0.0000
# 3 26.7185 30.7833 137.5634 0.0000 -3.7369 0.0000
# 4 0.0000 0.0000 0.0000 15.6115 0.0000 -4.8077
# 5 -8.2466 2.2834 -3.7369 0.0000 34.4954 0.0000
# 6 0.0000 0.0000 0.0000 -4.8077 0.0000 10.5588
#
#
#
# Elastic Compliance Matrix: (Units=1/GPa)
#
#
# Indices 1 2 3 4 5 6 
#
# 1 0.019707 -0.006294 -0.002287 0.000000 0.004880 0.000000
# 2 -0.006294 0.011982 -0.001526 0.000000 -0.002463 0.000000
# 3 -0.002287 -0.001526 0.008067 0.000000 0.000428 0.000000
# 4 0.000000 0.000000 0.000000 0.074502 0.000000 0.033923
# 5 0.004880 -0.002463 0.000428 0.000000 0.030366 0.000000
# 6 0.000000 0.000000 0.000000 0.033923 0.000000 0.110154
#
#
# Mechanical properties :
#
#
# Convention : Reuss Voigt Hill
#
# Bulk Modulus (GPa) = 51.17000 55.83154 53.50077
# Shear Modulus (GPa) = 17.76176 26.66646 22.21411
#
# Velocity S-wave (km/s) = 3.08054 3.77457 3.44508
# Velocity P-wave (km/s) = 6.32393 6.98757 6.66401
#
# Compressibility (1/GPa) = 0.01954270
#
# Stress axis : x y z
#
# Youngs Moduli (GPa) = 50.74273 83.46128 123.96898
#
# Poissons Ratio (x) = 0.52531 0.28347
# Poissons Ratio (y) = 0.31938 0.18913
# Poissons Ratio (z) = 0.11603 0.12733
#
# Static dielectric constant tensor:
#      x y z
#    x 1.648560 0.000000 -0.035650 
#    y 0.000000 1.653210 0.000000 
#    z -0.035650 0.000000 1.705410 
# 
# From -- ./inp_files/41683.got.cif
#   From: 2010.05.17/outbox.cif.g08.bks.cpg/sg11_21_cif.got.tgz:41683.got - 2010.06.03 12:22:45.
