data_PCOD9159998
_publ_section_title
;
Structure prediction by ZEFSAII (Michael W. Deem and Ramdas Pophale) SiO2 
 PCOD9159998
Probable space group: P 21/M
;
_chemical_formula_sum "Si O2"
_cell_formula_units_Z 28
_cell_length_a 9.223171
_cell_length_b 8.631513
_cell_length_c 29.653437
_cell_angle_alpha 90.000000
_cell_angle_beta 39.228813
_cell_angle_gamma 90.000000
_cell_volume 1492.956270
_symmetry_space_group_name_H-M "P 21/M"
_symmetry_group_IT_number 11
_symmetry_cell_setting 'monoclinic'
loop_
_space_group_symop_operation_xyz
x,y,z
-x,1/2+y,-z
-x,-y,-z
x,1/2-y,z
loop_
_atom_site_type_symbol
_atom_site_label
_atom_site_fract_x
_atom_site_fract_y
_atom_site_fract_z
Si Si1 0.081775 0.063979 0.932295
Si Si2 0.550017 0.061869 0.347203
Si Si3 0.755604 0.935956 0.932798
Si Si4 0.609052 0.064414 0.790034
Si Si5 0.070509 0.062506 0.208687
Si Si6 0.211338 0.064318 0.347438
Si Si7 0.844296 0.936026 0.496572
O O1 0.072001 0.250000 0.935490
O O2 0.343985 0.015981 0.859467
O O3 0.917471 0.001424 0.932815
O O4 0.000000 0.000000 0.000000
O O5 0.553518 0.250000 0.345220
O O6 0.398602 0.013493 0.340225
O O7 0.411440 0.018182 0.425973
O O8 0.810734 0.008656 0.281037
O O9 0.751523 0.750000 0.936609
O O10 0.854415 0.979890 0.859954
O O11 0.500000 0.000000 0.000000
O O12 0.616383 0.250000 0.786617
O O13 0.755245 0.005321 0.797036
O O14 0.713734 0.997574 0.718866
O O15 0.075150 0.250000 0.210731
O O16 0.207361 0.250000 0.348167
O O17 0.963474 0.003810 0.423582
O O18 0.857400 0.750000 0.492241
O O19 0.000000 0.000000 0.500000
#
# Coordination Sequence:
#
# PCOD9159998 Si02
#       7
#     4   4   4   4   4   4   4
#     4  11  24  41  62  87 117 151 189 233 283 338
#     4   8  16  32  55  81 107 138 181 229 276 328
#     4  11  23  39  62  89 118 151 189 232 280 335
#     4  11  24  39  55  81 114 147 185 233 282 330
#     4  10  21  38  58  80 108 147 189 228 275 334
#     4  10  19  34  57  82 109 145 187 231 280 338
#     4   9  16  29  51  80 112 143 180 230 282 335
#
# _framework density 18.754733999999999
#
# number of rings (size 3 to 8) (size 9 to 14) (size 15 to 20)
#    0.000    2.000    0.000    4.714    0.000    6.857 
#    0.000    5.000    0.000    0.000    0.000    0.000 
#    0.000    0.000    0.000    0.000    0.000    0.000 
#
# Total GULP energy -156344.582051 kJ/mol
# GULP energy per Si atom -5583.735073 kJ/mol
# Density = 1.871205 g / cm^3
# Si number density = 18.754734 Si / 1000 Ang^3
#
#
#
# Elastic Constant Matrix: (Units=GPa)
#
#
# Indices 1 2 3 4 5 6 
#
# 1 144.1521 39.7374 109.3106 0.0000 -1.7828 0.0000
# 2 39.7374 44.0676 58.7462 0.0000 1.9632 0.0000
# 3 109.3106 58.7462 227.8763 0.0000 -1.7460 0.0000
# 4 0.0000 0.0000 0.0000 29.7359 0.0000 1.9578
# 5 -1.7828 1.9632 -1.7460 0.0000 33.8346 0.0000
# 6 0.0000 0.0000 0.0000 1.9578 0.0000 29.8884
#
#
#
# Elastic Compliance Matrix: (Units=1/GPa)
#
#
# Indices 1 2 3 4 5 6 
#
# 1 0.011496 -0.004648 -0.004311 0.000000 0.000653 0.000000
# 2 -0.004648 0.036661 -0.007243 0.000000 -0.002746 0.000000
# 3 -0.004311 -0.007243 0.008328 0.000000 0.000623 0.000000
# 4 0.000000 0.000000 0.000000 0.033775 0.000000 -0.002212
# 5 0.000653 -0.002746 0.000623 0.000000 0.029781 0.000000
# 6 0.000000 0.000000 0.000000 -0.002212 0.000000 0.033603
#
#
# Mechanical properties :
#
#
# Convention : Reuss Voigt Hill
#
# Bulk Modulus (GPa) = 41.52566 92.40938 66.96752
# Shear Modulus (GPa) = 25.76331 32.57858 29.17094
#
# Velocity S-wave (km/s) = 3.71036 4.17236 3.94812
# Velocity P-wave (km/s) = 6.36751 8.52003 7.52118
#
# Compressibility (1/GPa) = 0.02408149
#
# Stress axis : x y z
#
# Youngs Moduli (GPa) = 86.99001 27.27693 120.07324
#
# Poissons Ratio (x) = 0.12678 0.51765
# Poissons Ratio (y) = 0.40433 0.86964
# Poissons Ratio (z) = 0.37502 0.19756
#
# Static dielectric constant tensor:
#      x y z
#    x 1.640530 0.000000 -0.000770 
#    y 0.000000 1.638040 0.000000 
#    z -0.000770 0.000000 1.664950 
# 
# From -- ./inp_files/70783.got.cif
#   From: 2010.05.17/outbox.cif.g08.bks.cpg/sg11_36_cif.got.tgz:70783.got - 2010.06.03 12:22:45.
