data_PCOD9159431
_publ_section_title
;
Structure prediction by ZEFSAII (Michael W. Deem and Ramdas Pophale) SiO2 
 PCOD9159431
Probable space group: P 21/M
;
_chemical_formula_sum "Si O2"
_cell_formula_units_Z 28
_cell_length_a 8.978576
_cell_length_b 8.974791
_cell_length_c 28.837683
_cell_angle_alpha 90.000000
_cell_angle_beta 139.315687
_cell_angle_gamma 90.000000
_cell_volume 1514.840923
_symmetry_space_group_name_H-M "P 21/M"
_symmetry_group_IT_number 11
_symmetry_cell_setting 'monoclinic'
loop_
_space_group_symop_operation_xyz
x,y,z
-x,1/2+y,-z
-x,-y,-z
x,1/2-y,z
loop_
_atom_site_type_symbol
_atom_site_label
_atom_site_fract_x
_atom_site_fract_y
_atom_site_fract_z
Si Si1 0.422928 0.575397 0.200233
Si Si2 0.834770 0.571508 0.499799
Si Si3 0.541384 0.921986 0.642643
Si Si4 0.426458 0.070152 0.933865
Si Si5 0.904017 0.425342 0.787848
Si Si6 0.752160 0.571895 0.933866
Si Si7 0.789896 0.077009 0.344535
O O1 0.423966 0.750000 0.187848
O O2 0.243860 0.554088 0.200158
O O3 0.343020 0.476437 0.138600
O O4 0.668503 0.524444 0.277857
O O5 0.840329 0.750000 0.496542
O O6 0.585572 0.510511 0.428285
O O7 0.000000 0.500000 0.500000
O O8 0.958537 0.534000 0.577654
O O9 0.562318 0.750000 0.634803
O O10 0.373570 0.931014 0.648269
O O11 0.779006 0.987253 0.717148
O O12 0.447577 0.250000 0.940282
O O13 0.163899 0.032812 0.859674
O O14 0.586705 0.999483 0.932878
O O15 0.500000 0.000000 0.000000
O O16 0.895989 0.250000 0.774800
O O17 0.763478 0.750000 0.940999
O O18 0.000000 0.500000 0.000000
O O19 0.791644 0.250000 0.330130
#
# Coordination Sequence:
#
# PCOD9159431 Si02
#       7
#     4   4   4   4   4   4   4
#     4  10  19  33  54  80 108 140 178 220 267 319
#     4   9  15  23  37  60  95 134 173 215 261 310
#     4   9  16  25  41  66  98 135 175 216 260 308
#     4  11  23  40  61  85 112 142 177 218 265 319
#     4   9  19  34  53  77 107 141 176 216 264 316
#     4  12  25  41  60  82 109 141 178 221 268 320
#     4   8  15  26  40  64  98 137 175 214 261 310
#
# _framework density 18.483789000000002
#
# number of rings (size 3 to 8) (size 9 to 14) (size 15 to 20)
#    0.000    2.286    0.000    4.714    0.000    6.857 
#    0.000    0.000    0.000    0.000    0.000    1.000 
#    0.000    0.000    0.000    0.000    0.000    0.000 
#
# Total GULP energy -156199.757162 kJ/mol
# GULP energy per Si atom -5578.562756 kJ/mol
# Density = 1.844172 g / cm^3
# Si number density = 18.483789 Si / 1000 Ang^3
#
#
#
# Elastic Constant Matrix: (Units=GPa)
#
#
# Indices 1 2 3 4 5 6 
#
# 1 26.7914 35.5283 44.0305 0.0000 13.2089 0.0000
# 2 35.5283 102.4046 91.3667 0.0000 11.8891 0.0000
# 3 44.0305 91.3667 187.9412 0.0000 23.0251 0.0000
# 4 0.0000 0.0000 0.0000 41.6317 0.0000 -0.3063
# 5 13.2089 11.8891 23.0251 0.0000 14.0957 0.0000
# 6 0.0000 0.0000 0.0000 -0.3063 0.0000 18.8141
#
#
#
# Elastic Compliance Matrix: (Units=1/GPa)
#
#
# Indices 1 2 3 4 5 6 
#
# 1 0.127414 -0.029995 -0.004676 0.000000 -0.086460 0.000000
# 2 -0.029995 0.024319 -0.007159 0.000000 0.019289 0.000000
# 3 -0.004676 -0.007159 0.010776 0.000000 -0.007183 0.000000
# 4 0.000000 0.000000 0.000000 0.024023 0.000000 0.000391
# 5 -0.086460 0.019289 -0.007183 0.000000 0.147428 0.000000
# 6 0.000000 0.000000 0.000000 0.000391 0.000000 0.053158
#
#
# Mechanical properties :
#
#
# Convention : Reuss Voigt Hill
#
# Bulk Modulus (GPa) = 12.68228 73.22093 42.95161
# Shear Modulus (GPa) = 10.05911 24.65574 17.35743
#
# Velocity S-wave (km/s) = 2.33537 3.65624 3.06774
# Velocity P-wave (km/s) = 3.76140 7.58444 5.98631
#
# Compressibility (1/GPa) = 0.07885016
#
# Stress axis : x y z
#
# Youngs Moduli (GPa) = 7.84844 41.11949 92.79472
#
# Poissons Ratio (x) = 1.23339 0.43389
# Poissons Ratio (y) = 0.23542 0.66429
# Poissons Ratio (z) = 0.03670 0.29436
#
# Static dielectric constant tensor:
#      x y z
#    x 1.652830 0.000000 0.009820 
#    y 0.000000 1.649560 0.000000 
#    z 0.009820 0.000000 1.655780 
# 
# From -- ./inp_files/28462.got.cif
#   From: 2010.05.17/outbox.cif.g08.bks.cpg/sg11_15_cif.got.tgz:28462.got - 2010.06.03 12:22:45.
