data_PCOD9159523
_publ_section_title
;
Structure prediction by ZEFSAII (Michael W. Deem and Ramdas Pophale) SiO2 
 PCOD9159523
Probable space group: P 21/M
;
_chemical_formula_sum "Si O2"
_cell_formula_units_Z 32
_cell_length_a 6.656482
_cell_length_b 22.899221
_cell_length_c 10.817103
_cell_angle_alpha 90.000000
_cell_angle_beta 117.404437
_cell_angle_gamma 90.000000
_cell_volume 1463.799746
_symmetry_space_group_name_H-M "P 21/M"
_symmetry_group_IT_number 11
_symmetry_cell_setting 'monoclinic'
loop_
_space_group_symop_operation_xyz
x,y,z
-x,1/2+y,-z
-x,-y,-z
x,1/2-y,z
loop_
_atom_site_type_symbol
_atom_site_label
_atom_site_fract_x
_atom_site_fract_y
_atom_site_fract_z
Si Si1 0.769207 0.354301 0.105654
Si Si2 0.155615 0.473854 0.375717
Si Si3 0.576713 0.417642 0.466634
Si Si4 0.694599 0.610290 0.087117
Si Si5 0.948742 0.139838 0.424207
Si Si6 0.892977 0.186288 0.877710
Si Si7 0.152959 0.992178 0.923728
Si Si8 0.586842 0.858348 0.332276
O O1 0.796854 0.423709 0.081322
O O2 0.877121 0.338600 0.268015
O O3 0.497610 0.348177 0.027061
O O4 0.879462 0.321411 0.021809
O O5 0.332755 0.435688 0.342475
O O6 0.287457 0.522121 0.489492
O O7 0.026972 0.426975 0.421258
O O8 0.988904 0.507274 0.238981
O O9 0.507106 0.399835 0.585780
O O10 0.726979 0.367686 0.446537
O O11 0.671842 0.545555 0.023582
O O12 0.644871 0.610075 0.219689
O O13 0.940687 0.637301 0.129590
O O14 0.173538 0.167558 0.549537
O O15 0.980725 0.250000 0.867650
O O16 0.632807 0.180587 0.758985
O O17 0.000000 0.000000 0.000000
#
# Coordination Sequence:
#
# PCOD9159523 Si02
#       8
#     4   4   4   4   4   4   4   4
#     4  10  24  39  61  96 129 166 204 254 311 378
#     4   9  20  30  47  82 122 168 209 239 290 354
#     4  10  19  33  55  81 123 161 202 249 298 358
#     4  11  23  39  62  92 128 167 214 254 313 366
#     4  10  20  36  58  87 123 161 201 250 306 366
#     4  11  24  45  67  88 118 158 207 264 318 373
#     4  11  20  34  58  87 133 170 205 249 302 365
#     4  10  22  39  63  90 116 155 204 260 304 368
#
# _framework density 21.860911999999999
#
# number of rings (size 3 to 8) (size 9 to 14) (size 15 to 20)
#    0.000    1.750    1.250    3.000    3.500    8.000 
#    0.000    0.625    0.000    0.750    0.000    0.000 
#    0.000    0.000    0.000    0.000    0.000    0.000 
#
# Total GULP energy -178426.273904 kJ/mol
# GULP energy per Si atom -5575.821059 kJ/mol
# Density = 2.181116 g / cm^3
# Si number density = 21.860912 Si / 1000 Ang^3
#
#
#
# Elastic Constant Matrix: (Units=GPa)
#
#
# Indices 1 2 3 4 5 6 
#
# 1 96.0421 7.6244 23.7529 0.0000 -1.3298 0.0000
# 2 7.6244 54.8406 -2.8216 0.0000 -4.3374 0.0000
# 3 23.7529 -2.8216 74.0460 0.0000 -3.4985 0.0000
# 4 0.0000 0.0000 0.0000 1.2964 0.0000 2.1648
# 5 -1.3298 -4.3374 -3.4985 0.0000 26.8878 0.0000
# 6 0.0000 0.0000 0.0000 2.1648 0.0000 10.6357
#
#
#
# Elastic Compliance Matrix: (Units=1/GPa)
#
#
# Indices 1 2 3 4 5 6 
#
# 1 0.011483 -0.001807 -0.003763 0.000000 -0.000213 0.000000
# 2 -0.001807 0.018808 0.001444 0.000000 0.003133 0.000000
# 3 -0.003763 0.001444 0.014861 0.000000 0.001980 0.000000
# 4 0.000000 0.000000 0.000000 1.168582 0.000000 -0.237856
# 5 -0.000213 0.003133 0.001980 0.000000 0.037944 0.000000
# 6 0.000000 0.000000 0.000000 -0.237856 0.000000 0.142437
#
#
# Mechanical properties :
#
#
# Convention : Reuss Voigt Hill
#
# Bulk Modulus (GPa) = 27.09917 31.33780 29.21848
# Shear Modulus (GPa) = 3.53440 20.85550 12.19495
#
# Velocity S-wave (km/s) = 1.27290 3.09205 2.36443
# Velocity P-wave (km/s) = 3.81883 5.20710 4.56604
#
# Compressibility (1/GPa) = 0.03690150
#
# Stress axis : x y z
#
# Youngs Moduli (GPa) = 87.08418 53.16899 67.29156
#
# Poissons Ratio (x) = 0.09607 0.25319
# Poissons Ratio (y) = 0.15736 -0.09719
# Poissons Ratio (z) = 0.32766 -0.07679
#
# Static dielectric constant tensor:
#      x y z
#    x 1.862410 0.000000 0.052180 
#    y 0.000000 1.879260 0.000000 
#    z 0.052180 0.000000 1.854290 
# 
# From -- ./inp_files/30259.got.cif
#   From: 2010.05.17/outbox.cif.g08.bks.cpg/sg11_16_cif.got.tgz:30259.got - 2010.06.03 12:22:45.
