data_PCOD9159662
_publ_section_title
;
Structure prediction by ZEFSAII (Michael W. Deem and Ramdas Pophale) SiO2 
 PCOD9159662
Probable space group: P 21/M
;
_chemical_formula_sum "Si O2"
_cell_formula_units_Z 32
_cell_length_a 11.434621
_cell_length_b 8.988496
_cell_length_c 29.895717
_cell_angle_alpha 90.000000
_cell_angle_beta 34.950972
_cell_angle_gamma 90.000000
_cell_volume 1760.264209
_symmetry_space_group_name_H-M "P 21/M"
_symmetry_group_IT_number 11
_symmetry_cell_setting 'monoclinic'
loop_
_space_group_symop_operation_xyz
x,y,z
-x,1/2+y,-z
-x,-y,-z
x,1/2-y,z
loop_
_atom_site_type_symbol
_atom_site_label
_atom_site_fract_x
_atom_site_fract_y
_atom_site_fract_z
Si Si1 0.087329 0.070840 0.927960
Si Si2 0.294828 0.073741 0.375083
Si Si3 0.546114 0.428590 0.761781
Si Si4 0.175192 0.577724 0.495679
Si Si5 0.692174 0.572156 0.879975
Si Si6 0.720016 0.075844 0.433127
Si Si7 0.774248 0.071596 0.948461
Si Si8 0.119627 0.929515 0.268218
O O1 0.076203 0.250000 0.934609
O O2 0.323461 0.027941 0.849062
O O3 0.951266 0.027766 0.927589
O O4 0.000000 0.000000 0.000000
O O5 0.317762 0.250000 0.365428
O O6 0.060342 0.032711 0.436704
O O7 0.425716 0.996261 0.296048
O O8 0.318667 0.017000 0.418159
O O9 0.554504 0.250000 0.755915
O O10 0.724526 0.474217 0.740428
O O11 0.193075 0.750000 0.476136
O O12 0.220916 0.565908 0.533254
O O13 0.718446 0.750000 0.868689
O O14 0.783106 0.510838 0.898136
O O15 0.792046 0.493750 0.805804
O O16 0.448403 0.540501 0.959952
O O17 0.710251 0.250000 0.423607
O O18 0.500000 0.000000 0.500000
O O19 0.896686 0.994455 0.349561
O O20 0.785197 0.250000 0.937460
O O21 0.112468 0.750000 0.268641
#
# Coordination Sequence:
#
# PCOD9159662 Si02
#       8
#     4   4   4   4   4   4   4   4
#     4  10  21  37  57  84 117 153 187 230 284 337
#     4  10  19  33  57  85 110 143 186 231 278 332
#     4  10  21  36  56  83 115 149 188 234 285 339
#     4   9  19  36  57  81 111 144 180 226 281 336
#     4  10  20  35  59  86 112 149 194 241 285 332
#     4  11  23  41  61  84 114 148 188 234 285 339
#     4   9  19  37  58  82 115 153 193 234 285 342
#     4  11  22  37  59  85 113 148 190 234 284 342
#
# _framework density 18.179089000000001
#
# number of rings (size 3 to 8) (size 9 to 14) (size 15 to 20)
#    0.000    2.000    1.250    2.250    0.000    3.500 
#    2.250    0.000    0.000    0.000    0.000    0.000 
#    0.000    0.000    0.000    0.000    0.000    0.000 
#
# Total GULP energy -178601.677658 kJ/mol
# GULP energy per Si atom -5581.302427 kJ/mol
# Density = 1.813771 g / cm^3
# Si number density = 18.179089 Si / 1000 Ang^3
#
#
#
# Elastic Constant Matrix: (Units=GPa)
#
#
# Indices 1 2 3 4 5 6 
#
# 1 45.3918 25.3306 35.1531 0.0000 -3.2771 0.0000
# 2 25.3306 46.3103 56.3266 0.0000 4.7803 0.0000
# 3 35.1531 56.3266 140.0303 0.0000 12.3254 0.0000
# 4 0.0000 0.0000 0.0000 34.1086 0.0000 6.3953
# 5 -3.2771 4.7803 12.3254 0.0000 30.0274 0.0000
# 6 0.0000 0.0000 0.0000 6.3953 0.0000 25.4257
#
#
#
# Elastic Compliance Matrix: (Units=1/GPa)
#
#
# Indices 1 2 3 4 5 6 
#
# 1 0.033437 -0.015765 -0.002692 0.000000 0.007264 0.000000
# 2 -0.015765 0.049712 -0.015760 0.000000 -0.003165 0.000000
# 3 -0.002692 -0.015760 0.014485 0.000000 -0.003730 0.000000
# 4 0.000000 0.000000 0.000000 0.030769 0.000000 -0.007739
# 5 0.007264 -0.003165 -0.003730 0.000000 0.036131 0.000000
# 6 0.000000 0.000000 0.000000 -0.007739 0.000000 0.041277
#
#
# Mechanical properties :
#
#
# Convention : Reuss Voigt Hill
#
# Bulk Modulus (GPa) = 34.24656 51.70589 42.97623
# Shear Modulus (GPa) = 17.60691 25.57381 21.59036
#
# Velocity S-wave (km/s) = 3.11549 3.75476 3.44997
# Velocity P-wave (km/s) = 5.64101 6.87764 6.28979
#
# Compressibility (1/GPa) = 0.02920002
#
# Stress axis : x y z
#
# Youngs Moduli (GPa) = 29.90684 20.11573 69.03678
#
# Poissons Ratio (x) = 0.31712 0.18585
# Poissons Ratio (y) = 0.47148 1.08805
# Poissons Ratio (z) = 0.08051 0.31703
#
# Static dielectric constant tensor:
#      x y z
#    x 1.626080 0.000000 -0.007620 
#    y 0.000000 1.625520 0.000000 
#    z -0.007620 0.000000 1.620680 
# 
# From -- ./inp_files/73032.got.cif
#   From: 2010.05.17/outbox.cif.g08.bks.cpg/sg11_37_cif.got.tgz:73032.got - 2010.06.03 12:22:45.
