data_PCOD9159622
_publ_section_title
;
Structure prediction by ZEFSAII (Michael W. Deem and Ramdas Pophale) SiO2 
 PCOD9159622
Probable space group: P 21/M
;
_chemical_formula_sum "Si O2"
_cell_formula_units_Z 32
_cell_length_a 29.583371
_cell_length_b 8.895961
_cell_length_c 12.499958
_cell_angle_alpha 90.000000
_cell_angle_beta 146.127688
_cell_angle_gamma 90.000000
_cell_volume 1833.463928
_symmetry_space_group_name_H-M "P 21/M"
_symmetry_group_IT_number 11
_symmetry_cell_setting 'monoclinic'
loop_
_space_group_symop_operation_xyz
x,y,z
-x,1/2+y,-z
-x,-y,-z
x,1/2-y,z
loop_
_atom_site_type_symbol
_atom_site_label
_atom_site_fract_x
_atom_site_fract_y
_atom_site_fract_z
Si Si1 0.007268 0.070638 0.685265
Si Si2 0.631649 0.428663 0.248123
Si Si3 0.462672 0.931121 0.320501
Si Si4 0.871917 0.570939 0.264914
Si Si5 0.521857 0.569923 0.206440
Si Si6 0.776904 0.570573 0.411489
Si Si7 0.724599 0.430269 0.082454
Si Si8 0.034496 0.429927 0.176021
O O1 0.995302 0.250000 0.668695
O O2 0.086577 0.042367 0.768266
O O3 0.932848 0.998220 0.472953
O O4 0.009066 0.998836 0.805492
O O5 0.644013 0.250000 0.275315
O O6 0.592797 0.487623 0.281666
O O7 0.713564 0.510470 0.374439
O O8 0.562557 0.460500 0.022352
O O9 0.465984 0.750000 0.332566
O O10 0.510132 0.976632 0.305941
O O11 0.500000 0.000000 0.500000
O O12 0.368390 0.973388 0.121288
O O13 0.867178 0.750000 0.271964
O O14 0.785229 0.496492 0.113252
O O15 0.534604 0.750000 0.226421
O O16 0.769633 0.750000 0.386503
O O17 0.753350 0.494446 0.252940
O O18 0.869715 0.535059 0.623227
O O19 0.730004 0.250000 0.095752
O O20 0.025363 0.250000 0.157244
O O21 0.000000 0.500000 0.000000
#
# Coordination Sequence:
#
# PCOD9159622 Si02
#       8
#     4   4   4   4   4   4   4   4
#     4  10  20  35  57  83 116 153 189 232 284 336
#     4  10  19  33  56  85 113 143 186 233 281 334
#     4  10  22  39  57  82 115 151 190 231 281 340
#     4  10  20  34  55  87 117 146 189 236 285 337
#     4   9  18  35  54  79 115 148 184 231 282 332
#     4  11  22  36  57  86 115 146 188 235 282 337
#     4  11  21  36  58  85 115 148 190 238 283 333
#     4  11  24  40  59  84 116 151 193 235 285 347
#
# _framework density 17.453302999999998
#
# number of rings (size 3 to 8) (size 9 to 14) (size 15 to 20)
#    0.000    1.750    2.500    2.250    0.000    5.000 
#    0.000    1.250    0.000    1.500    0.000    0.000 
#    0.000    0.000    0.000    0.000    0.000    0.000 
#
# Total GULP energy -178722.299832 kJ/mol
# GULP energy per Si atom -5585.071870 kJ/mol
# Density = 1.741358 g / cm^3
# Si number density = 17.453303 Si / 1000 Ang^3
#
#
#
# Elastic Constant Matrix: (Units=GPa)
#
#
# Indices 1 2 3 4 5 6 
#
# 1 162.7466 64.3267 77.4412 0.0000 -8.5753 0.0000
# 2 64.3267 62.8319 54.7266 0.0000 -0.2176 0.0000
# 3 77.4412 54.7266 101.7598 0.0000 -10.4276 0.0000
# 4 0.0000 0.0000 0.0000 27.4687 0.0000 -0.7188
# 5 -8.5753 -0.2176 -10.4276 0.0000 29.0876 0.0000
# 6 0.0000 0.0000 0.0000 -0.7188 0.0000 36.2622
#
#
#
# Elastic Compliance Matrix: (Units=1/GPa)
#
#
# Indices 1 2 3 4 5 6 
#
# 1 0.011398 -0.008031 -0.004170 0.000000 0.001805 0.000000
# 2 -0.008031 0.036558 -0.014289 0.000000 -0.007216 0.000000
# 3 -0.004170 -0.014289 0.021332 0.000000 0.006311 0.000000
# 4 0.000000 0.000000 0.000000 0.036424 0.000000 0.000722
# 5 0.001805 -0.007216 0.006311 0.000000 0.037119 0.000000
# 6 0.000000 0.000000 0.000000 0.000722 0.000000 0.027591
#
#
# Mechanical properties :
#
#
# Convention : Reuss Voigt Hill
#
# Bulk Modulus (GPa) = 61.31847 80.03637 70.67742
# Shear Modulus (GPa) = 21.84944 27.28663 24.56804
#
# Velocity S-wave (km/s) = 3.54203 3.95828 3.75593
# Velocity P-wave (km/s) = 7.20674 8.17604 7.70665
#
# Compressibility (1/GPa) = 0.01630830
#
# Stress axis : x y z
#
# Youngs Moduli (GPa) = 87.73233 27.35388 46.87791
#
# Poissons Ratio (x) = 0.21967 0.19550
# Poissons Ratio (y) = 0.70456 0.66983
# Poissons Ratio (z) = 0.36587 0.39085
#
# Static dielectric constant tensor:
#      x y z
#    x 1.600600 0.000000 0.008480 
#    y 0.000000 1.582630 0.000000 
#    z 0.008480 0.000000 1.561360 
# 
# From -- ./inp_files/45282.got.cif
#   From: 2010.05.17/outbox.cif.g08.bks.cpg/sg11_23_cif.got.tgz:45282.got - 2010.06.03 12:22:45.
