data_PCOD9159711
_publ_section_title
;
Structure prediction by ZEFSAII (Michael W. Deem and Ramdas Pophale) SiO2 
 PCOD9159711
Probable space group: P 21/M
;
_chemical_formula_sum "Si O2"
_cell_formula_units_Z 24
_cell_length_a 8.738146
_cell_length_b 15.298417
_cell_length_c 14.536202
_cell_angle_alpha 90.000000
_cell_angle_beta 31.937782
_cell_angle_gamma 90.000000
_cell_volume 1027.947208
_symmetry_space_group_name_H-M "P 21/M"
_symmetry_group_IT_number 11
_symmetry_cell_setting 'monoclinic'
loop_
_space_group_symop_operation_xyz
x,y,z
-x,1/2+y,-z
-x,-y,-z
x,1/2-y,z
loop_
_atom_site_type_symbol
_atom_site_label
_atom_site_fract_x
_atom_site_fract_y
_atom_site_fract_z
Si Si1 0.931885 0.083727 0.250593
Si Si2 0.664110 0.923724 0.343184
Si Si3 0.558400 0.565813 0.885024
Si Si4 0.765270 0.750000 0.381874
Si Si5 0.546289 0.250000 0.149543
Si Si6 0.704759 0.057547 0.651815
Si Si7 0.158579 0.750000 0.807102
Si Si8 0.061042 0.750000 0.424389
O O1 0.588941 0.078453 0.448947
O O2 0.998020 0.162212 0.147971
O O3 0.110968 0.092838 0.252534
O O4 0.940591 0.987122 0.205150
O O5 0.790752 0.830048 0.300272
O O6 0.484205 0.940837 0.343531
O O7 0.435078 0.660719 0.919264
O O8 0.534675 0.499203 0.813062
O O9 0.500000 0.500000 0.000000
O O10 0.456238 0.750000 0.594519
O O11 0.984428 0.750000 0.355128
O O12 0.766458 0.250000 0.123983
O O13 0.230430 0.250000 0.363630
O O14 0.777278 0.158281 0.638869
O O15 0.000000 0.000000 0.500000
#
# Coordination Sequence:
#
# PCOD9159711 Si02
#       8
#     4   4   4   2   2   4   2   2
#     4  10  19  35  59  90 121 156 202 259 315 365
#     4  10  19  33  59  89 124 153 206 265 310 360
#     4  12  26  42  64  93 135 174 210 256 322 392
#     4   9  19  31  53  94 127 156 192 265 332 360
#     4  11  21  42  65  92 125 170 217 264 317 381
#     4  12  22  38  64  95 123 164 215 264 312 365
#     4   9  19  33  61  90 115 155 212 258 310 375
#     4  11  21  36  67  96 129 159 217 277 315 368
#
# _framework density 23.347504000000001
#
# number of rings (size 3 to 8) (size 9 to 14) (size 15 to 20)
#    0.000    1.333    3.333    3.000    4.667    2.000 
#    0.000    4.167    0.000    0.000    0.000    0.000 
#    0.000    0.000    0.000    0.000    0.000    0.000 
#
# Total GULP energy -133763.289799 kJ/mol
# GULP energy per Si atom -5573.470408 kJ/mol
# Density = 2.329436 g / cm^3
# Si number density = 23.347504 Si / 1000 Ang^3
#
#
#
# Elastic Constant Matrix: (Units=GPa)
#
#
# Indices 1 2 3 4 5 6 
#
# 1 111.1584 37.0894 0.0040 0.0000 17.9473 0.0000
# 2 37.0894 183.4318 24.3448 0.0000 25.6307 0.0000
# 3 0.0040 24.3448 58.7768 0.0000 9.8417 0.0000
# 4 0.0000 0.0000 0.0000 21.5417 0.0000 15.4870
# 5 17.9473 25.6307 9.8417 0.0000 27.2896 0.0000
# 6 0.0000 0.0000 0.0000 15.4870 0.0000 41.5189
#
#
#
# Elastic Compliance Matrix: (Units=1/GPa)
#
#
# Indices 1 2 3 4 5 6 
#
# 1 0.010473 -0.001484 0.001633 0.000000 -0.006083 0.000000
# 2 -0.001484 0.006652 -0.001993 0.000000 -0.004553 0.000000
# 3 0.001633 -0.001993 0.018843 0.000000 -0.005997 0.000000
# 4 0.000000 0.000000 0.000000 0.063432 0.000000 -0.023661
# 5 -0.006083 -0.004553 -0.005997 0.000000 0.047083 0.000000
# 6 0.000000 0.000000 0.000000 -0.023661 0.000000 0.032911
#
#
# Mechanical properties :
#
#
# Convention : Reuss Voigt Hill
#
# Bulk Modulus (GPa) = 30.97945 52.91596 41.94770
# Shear Modulus (GPa) = 25.79378 37.53196 31.66287
#
# Velocity S-wave (km/s) = 3.32742 4.01376 3.68660
# Velocity P-wave (km/s) = 5.29717 6.64786 6.01058
#
# Compressibility (1/GPa) = 0.03227946
#
# Stress axis : x y z
#
# Youngs Moduli (GPa) = 95.47910 150.32017 53.06985
#
# Poissons Ratio (x) = 0.22315 -0.08664
# Poissons Ratio (y) = 0.14174 0.10576
# Poissons Ratio (z) = -0.15588 0.29958
#
# Static dielectric constant tensor:
#      x y z
#    x 1.892080 0.000000 0.161350 
#    y 0.000000 1.655880 0.000000 
#    z 0.161350 0.000000 2.572860 
# 
# From -- ./inp_files/22352.got.cif
#   From: 2010.05.17/outbox.cif.g08.bks.cpg/sg11_12_cif.got.tgz:22352.got - 2010.06.03 12:22:45.
