data_PCOD9159078
_publ_section_title
;
Structure prediction by ZEFSAII (Michael W. Deem and Ramdas Pophale) SiO2 
 PCOD9159078
Probable space group: P 21/M
;
_chemical_formula_sum "Si O2"
_cell_formula_units_Z 28
_cell_length_a 15.619836
_cell_length_b 10.737838
_cell_length_c 9.381371
_cell_angle_alpha 90.000000
_cell_angle_beta 107.121857
_cell_angle_gamma 90.000000
_cell_volume 1503.739051
_symmetry_space_group_name_H-M "P 21/M"
_symmetry_group_IT_number 11
_symmetry_cell_setting 'monoclinic'
loop_
_space_group_symop_operation_xyz
x,y,z
-x,1/2+y,-z
-x,-y,-z
x,1/2-y,z
loop_
_atom_site_type_symbol
_atom_site_label
_atom_site_fract_x
_atom_site_fract_y
_atom_site_fract_z
Si Si1 0.961082 0.389652 0.386159
Si Si2 0.670320 0.599159 0.488984
Si Si3 0.248575 0.889653 0.669316
Si Si4 0.521975 0.611291 0.205320
Si Si5 0.045513 0.392734 0.114259
Si Si6 0.642439 0.505261 0.034985
Si Si7 0.254783 0.103620 0.173362
O O1 0.981554 0.250000 0.453311
O O2 0.853507 0.400279 0.327612
O O3 0.000000 0.500000 0.500000
O O4 0.004850 0.397856 0.252165
O O5 0.689131 0.750000 0.479306
O O6 0.732031 0.503894 0.428917
O O7 0.571619 0.576036 0.375699
O O8 0.684104 0.568443 0.661297
O O9 0.260071 0.750000 0.612781
O O10 0.316889 0.904822 0.835492
O O11 0.487199 0.750000 0.202710
O O12 0.441316 0.530984 0.105284
O O13 0.600682 0.605453 0.124163
O O14 0.031269 0.250000 0.053704
O O15 0.151941 0.415989 0.166460
O O16 0.000000 0.500000 0.000000
O O17 0.719205 0.542056 0.962571
O O18 0.268325 0.250000 0.158357
#
# Coordination Sequence:
#
# PCOD9159078 Si02
#       7
#     4   4   4   4   4   4   4
#     4  10  21  36  55  79 107 141 181 223 265 313
#     4   9  19  36  57  80 109 143 178 217 262 315
#     4  10  20  35  54  79 110 142 179 221 265 312
#     4   9  18  33  52  76 104 136 177 219 259 309
#     4  10  21  37  55  78 109 142 178 221 268 316
#     4  10  19  32  54  78 105 139 176 216 264 315
#     4  10  20  35  55  79 107 140 179 221 265 316
#
# _framework density 18.620253000000002
#
# number of rings (size 3 to 8) (size 9 to 14) (size 15 to 20)
#    0.000    2.286    0.000    2.571    0.000    3.429 
#    0.000    3.571    0.000    0.000    0.000    0.000 
#    0.000    0.000    0.000    0.000    0.000    0.000 
#
# Total GULP energy -155942.870912 kJ/mol
# GULP energy per Si atom -5569.388247 kJ/mol
# Density = 1.857787 g / cm^3
# Si number density = 18.620253 Si / 1000 Ang^3
#
#
#
# Elastic Constant Matrix: (Units=GPa)
#
#
# Indices 1 2 3 4 5 6 
#
# 1 30.6294 15.4305 -4.2218 0.0000 -2.1289 0.0000
# 2 15.4305 74.2231 35.3012 0.0000 8.4099 0.0000
# 3 -4.2218 35.3012 66.2342 0.0000 7.3248 0.0000
# 4 0.0000 0.0000 0.0000 31.0210 0.0000 3.9614
# 5 -2.1289 8.4099 7.3248 0.0000 23.9109 0.0000
# 6 0.0000 0.0000 0.0000 3.9614 0.0000 11.1572
#
#
#
# Elastic Compliance Matrix: (Units=1/GPa)
#
#
# Indices 1 2 3 4 5 6 
#
# 1 0.041159 -0.013590 0.009246 0.000000 0.005612 0.000000
# 2 -0.013590 0.022826 -0.012431 0.000000 -0.005430 0.000000
# 3 0.009246 -0.012431 0.022501 0.000000 -0.001697 0.000000
# 4 0.000000 0.000000 0.000000 0.033767 0.000000 -0.011989
# 5 0.005612 -0.005430 -0.001697 0.000000 0.044751 0.000000
# 6 0.000000 0.000000 0.000000 -0.011989 0.000000 0.093885
#
#
# Mechanical properties :
#
#
# Convention : Reuss Voigt Hill
#
# Bulk Modulus (GPa) = 18.89109 29.34514 24.11812
# Shear Modulus (GPa) = 16.12457 21.52293 18.82375
#
# Velocity S-wave (km/s) = 2.94593 3.40352 3.18296
# Velocity P-wave (km/s) = 4.66249 5.58921 5.14675
#
# Compressibility (1/GPa) = 0.05293500
#
# Stress axis : x y z
#
# Youngs Moduli (GPa) = 24.29582 43.80983 44.44332
#
# Poissons Ratio (x) = 0.59538 -0.41093
# Poissons Ratio (y) = 0.33018 0.55249
# Poissons Ratio (z) = -0.22464 0.54462
#
# Static dielectric constant tensor:
#      x y z
#    x 1.648040 0.000000 0.008110 
#    y 0.000000 1.641970 0.000000 
#    z 0.008110 0.000000 1.630810 
# 
# From -- ./inp_files/21140.got.cif
#   From: 2010.05.17/outbox.cif.g08.bks.cpg/sg11_11_cif.got.tgz:21140.got - 2010.06.03 12:22:45.
