data_PCOD9159908
_publ_section_title
;
Structure prediction by ZEFSAII (Michael W. Deem and Ramdas Pophale) SiO2 
 PCOD9159908
Probable space group: P 21/M
;
_chemical_formula_sum "Si O2"
_cell_formula_units_Z 32
_cell_length_a 29.750694
_cell_length_b 9.034747
_cell_length_c 23.810386
_cell_angle_alpha 90.000000
_cell_angle_beta 164.180317
_cell_angle_gamma 90.000000
_cell_volume 1744.707249
_symmetry_space_group_name_H-M "P 21/M"
_symmetry_group_IT_number 11
_symmetry_cell_setting 'monoclinic'
loop_
_space_group_symop_operation_xyz
x,y,z
-x,1/2+y,-z
-x,-y,-z
x,1/2-y,z
loop_
_atom_site_type_symbol
_atom_site_label
_atom_site_fract_x
_atom_site_fract_y
_atom_site_fract_z
Si Si1 0.160301 0.569718 0.851306
Si Si2 0.561405 0.916921 0.519591
Si Si3 0.161135 0.928996 0.721489
Si Si4 0.506213 0.070963 0.946063
Si Si5 0.173046 0.071032 0.354127
Si Si6 0.168345 0.069886 0.478328
Si Si7 0.953072 0.582702 0.000231
Si Si8 0.503102 0.430711 0.683636
O O1 0.159782 0.750000 0.851744
O O2 0.169306 0.526568 0.796828
O O3 0.991876 0.520140 0.679206
O O4 0.324400 0.521955 0.081697
O O5 0.493480 0.750000 0.438577
O O6 0.518528 0.981396 0.406704
O O7 0.500000 0.000000 0.500000
O O8 0.757009 0.910839 0.762125
O O9 0.147941 0.750000 0.703637
O O10 0.000000 0.000000 0.500000
O O11 0.328013 0.970350 0.888683
O O12 0.505189 0.250000 0.949555
O O13 0.659260 0.974279 0.286096
O O14 0.500000 0.000000 0.000000
O O15 0.163830 0.250000 0.340980
O O16 0.163648 0.024239 0.407638
O O17 0.345726 0.026738 0.532255
O O18 0.026586 0.003324 0.141442
O O19 0.165820 0.250000 0.475577
O O20 0.018778 0.750000 0.079312
O O21 0.000000 0.500000 0.000000
O O22 0.501329 0.250000 0.680438
#
# Coordination Sequence:
#
# PCOD9159908 Si02
#       8
#     4   4   4   4   4   4   4   4
#     4   9  17  30  51  79 107 138 180 225 265 314
#     4  10  22  37  54  79 109 141 178 223 272 324
#     4  10  20  34  55  81 111 145 180 221 269 319
#     4  10  20  35  55  83 113 146 185 227 272 320
#     4  10  19  34  56  80 107 140 178 225 275 325
#     4   9  18  31  52  81 108 139 183 225 268 322
#     4  11  22  38  57  81 110 143 183 226 272 326
#     4   9  17  32  51  75 106 136 172 219 268 316
#
# _framework density 18.341186
#
# number of rings (size 3 to 8) (size 9 to 14) (size 15 to 20)
#    0.000    2.250    1.250    1.875    1.750    5.500 
#    0.000    0.625    0.000    3.750    0.000    0.000 
#    0.000    0.000    0.000    0.000    0.000    0.000 
#
# Total GULP energy -178502.531373 kJ/mol
# GULP energy per Si atom -5578.204105 kJ/mol
# Density = 1.829944 g / cm^3
# Si number density = 18.341186 Si / 1000 Ang^3
#
#
#
# Elastic Constant Matrix: (Units=GPa)
#
#
# Indices 1 2 3 4 5 6 
#
# 1 202.6940 35.4124 98.3292 0.0000 -16.6834 0.0000
# 2 35.4124 17.1661 21.7354 0.0000 -1.0825 0.0000
# 3 98.3292 21.7354 155.4809 0.0000 -23.0983 0.0000
# 4 0.0000 0.0000 0.0000 24.7477 0.0000 -3.0600
# 5 -16.6834 -1.0825 -23.0983 0.0000 35.3214 0.0000
# 6 0.0000 0.0000 0.0000 -3.0600 0.0000 23.2070
#
#
#
# Elastic Compliance Matrix: (Units=1/GPa)
#
#
# Indices 1 2 3 4 5 6 
#
# 1 0.009401 -0.014661 -0.003659 0.000000 0.001599 0.000000
# 2 -0.014661 0.094378 -0.005007 0.000000 -0.007307 0.000000
# 3 -0.003659 -0.005007 0.010152 0.000000 0.004757 0.000000
# 4 0.000000 0.000000 0.000000 0.041078 0.000000 0.005416
# 5 0.001599 -0.007307 0.004757 0.000000 0.031954 0.000000
# 6 0.000000 0.000000 0.000000 0.005416 0.000000 0.043805
#
#
# Mechanical properties :
#
#
# Convention : Reuss Voigt Hill
#
# Bulk Modulus (GPa) = 14.86367 76.25500 45.55933
# Shear Modulus (GPa) = 16.67516 31.31282 23.99399
#
# Velocity S-wave (km/s) = 3.01851 4.13636 3.62083
# Velocity P-wave (km/s) = 4.50223 8.02986 6.50956
#
# Compressibility (1/GPa) = 0.06727815
#
# Stress axis : x y z
#
# Youngs Moduli (GPa) = 106.36742 10.59567 98.50141
#
# Poissons Ratio (x) = 0.15534 0.36037
# Poissons Ratio (y) = 1.55947 0.49320
# Poissons Ratio (z) = 0.38915 0.05305
#
# Static dielectric constant tensor:
#      x y z
#    x 1.612500 0.000000 0.001240 
#    y 0.000000 1.635520 0.000000 
#    z 0.001240 0.000000 1.612470 
# 
# From -- ./inp_files/67249.got.cif
#   From: 2010.05.17/outbox.cif.g08.bks.cpg/sg11_34_cif.got.tgz:67249.got - 2010.06.03 12:22:45.
