data_PCOD9159849
_publ_section_title
;
Structure prediction by ZEFSAII (Michael W. Deem and Ramdas Pophale) SiO2 
 PCOD9159849
Probable space group: P 21/M
;
_chemical_formula_sum "Si O2"
_cell_formula_units_Z 32
_cell_length_a 20.108134
_cell_length_b 7.708855
_cell_length_c 26.841207
_cell_angle_alpha 90.000000
_cell_angle_beta 161.221814
_cell_angle_gamma 90.000000
_cell_volume 1339.342836
_symmetry_space_group_name_H-M "P 21/M"
_symmetry_group_IT_number 11
_symmetry_cell_setting 'monoclinic'
loop_
_space_group_symop_operation_xyz
x,y,z
-x,1/2+y,-z
-x,-y,-z
x,1/2-y,z
loop_
_atom_site_type_symbol
_atom_site_label
_atom_site_fract_x
_atom_site_fract_y
_atom_site_fract_z
Si Si1 0.283532 0.457032 0.872985
Si Si2 0.703406 0.455066 0.295693
Si Si3 0.015858 0.461820 0.139949
Si Si4 0.560221 0.041206 0.805618
Si Si5 0.789204 0.957573 0.820561
Si Si6 0.004067 0.957630 0.760504
Si Si7 0.361203 0.452736 0.567692
Si Si8 0.950905 0.549818 0.384053
O O1 0.272139 0.250000 0.864542
O O2 0.108606 0.529900 0.710762
O O3 0.216560 0.511224 0.880809
O O4 0.500000 0.500000 0.000000
O O5 0.732787 0.250000 0.309131
O O6 0.496415 0.486240 0.178937
O O7 0.745897 0.541653 0.273245
O O8 0.874665 0.528217 0.456418
O O9 0.020188 0.250000 0.143976
O O10 0.181376 0.516325 0.216085
O O11 0.021501 0.523210 0.201079
O O12 0.792621 0.514385 0.959954
O O13 0.554594 0.250000 0.799796
O O14 0.402568 0.971493 0.652139
O O15 0.765572 0.750000 0.804526
O O16 0.583946 0.035463 0.699104
O O17 0.000000 0.000000 0.000000
O O18 0.982168 0.750000 0.748698
O O19 0.818551 0.028975 0.594150
O O20 0.311178 0.250000 0.538907
O O21 0.007095 0.750000 0.416665
#
# Coordination Sequence:
#
# PCOD9159849 Si02
#       8
#     4   4   4   4   4   4   4   4
#     4  11  24  41  61  84 116 156 200 244 293 351
#     4  10  20  33  54  84 112 138 188 245 287 340
#     4   9  20  38  59  84 119 158 193 235 295 356
#     4  10  19  34  55  79 114 157 193 233 292 351
#     4  11  21  38  63  91 123 158 200 244 296 354
#     4  10  22  41  63  88 120 159 200 242 294 357
#     4  10  21  38  62  91 121 157 201 244 291 354
#     4   9  20  38  55  75 109 151 184 229 296 355
#
# _framework density 23.892315
#
# number of rings (size 3 to 8) (size 9 to 14) (size 15 to 20)
#    0.000    2.000    1.250    1.875    1.750    3.000 
#    0.000    1.250    0.000    0.000    0.000    0.000 
#    0.000    0.000    0.000    0.000    0.000    0.000 
#
# Total GULP energy -178763.731440 kJ/mol
# GULP energy per Si atom -5586.366608 kJ/mol
# Density = 2.383794 g / cm^3
# Si number density = 23.892315 Si / 1000 Ang^3
#
#
#
# Elastic Constant Matrix: (Units=GPa)
#
#
# Indices 1 2 3 4 5 6 
#
# 1 170.7428 -6.4018 37.4240 0.0000 -12.3956 0.0000
# 2 -6.4018 55.7448 1.4593 0.0000 -7.0781 0.0000
# 3 37.4240 1.4593 71.2427 0.0000 -11.9618 0.0000
# 4 0.0000 0.0000 0.0000 10.9695 0.0000 9.1163
# 5 -12.3956 -7.0781 -11.9618 0.0000 44.3945 0.0000
# 6 0.0000 0.0000 0.0000 9.1163 0.0000 26.9238
#
#
#
# Elastic Compliance Matrix: (Units=1/GPa)
#
#
# Indices 1 2 3 4 5 6 
#
# 1 0.006712 0.001002 -0.003357 0.000000 0.001129 0.000000
# 2 0.001002 0.018460 -0.000381 0.000000 0.003120 0.000000
# 3 -0.003357 -0.000381 0.016381 0.000000 0.003416 0.000000
# 4 0.000000 0.000000 0.000000 0.126859 0.000000 -0.042954
# 5 0.001129 0.003120 0.003416 0.000000 0.024259 0.000000
# 6 0.000000 0.000000 0.000000 -0.042954 0.000000 0.051686
#
#
# Mechanical properties :
#
#
# Convention : Reuss Voigt Hill
#
# Bulk Modulus (GPa) = 27.71398 40.29926 34.00662
# Shear Modulus (GPa) = 19.09453 34.14080 26.61767
#
# Velocity S-wave (km/s) = 2.83006 3.78424 3.34139
# Velocity P-wave (km/s) = 4.72268 5.99980 5.39914
#
# Compressibility (1/GPa) = 0.03608288
#
# Stress axis : x y z
#
# Youngs Moduli (GPa) = 148.98509 54.17070 61.04567
#
# Poissons Ratio (x) = -0.05428 0.20492
# Poissons Ratio (y) = -0.14930 0.02323
# Poissons Ratio (z) = 0.50011 0.02062
#
# Static dielectric constant tensor:
#      x y z
#    x 1.945390 0.000000 -0.008150 
#    y 0.000000 1.860160 0.000000 
#    z -0.008150 0.000000 1.961940 
# 
# From -- ./inp_files/72228.got.cif
#   From: 2010.05.17/outbox.cif.g08.bks.cpg/sg11_37_cif.got.tgz:72228.got - 2010.06.03 12:22:45.
