data_PCOD9159167
_publ_section_title
;
Structure prediction by ZEFSAII (Michael W. Deem and Ramdas Pophale) SiO2 
 PCOD9159167
Probable space group: P 21/M
;
_chemical_formula_sum "Si O2"
_cell_formula_units_Z 32
_cell_length_a 14.977164
_cell_length_b 8.739558
_cell_length_c 12.998454
_cell_angle_alpha 90.000000
_cell_angle_beta 79.043233
_cell_angle_gamma 90.000000
_cell_volume 1670.401620
_symmetry_space_group_name_H-M "P 21/M"
_symmetry_group_IT_number 11
_symmetry_cell_setting 'monoclinic'
loop_
_space_group_symop_operation_xyz
x,y,z
-x,1/2+y,-z
-x,-y,-z
x,1/2-y,z
loop_
_atom_site_type_symbol
_atom_site_label
_atom_site_fract_x
_atom_site_fract_y
_atom_site_fract_z
Si Si1 0.922514 0.432831 0.298229
Si Si2 0.598800 0.068850 0.460140
Si Si3 0.141543 0.070376 0.889039
Si Si4 0.879773 0.563732 0.678208
Si Si5 0.787176 0.564916 0.910768
Si Si6 0.405959 0.928886 0.984091
Si Si7 0.217511 0.066433 0.510581
Si Si8 0.672782 0.072355 0.216688
O O1 0.916883 0.250000 0.302973
O O2 0.921133 0.484572 0.179531
O O3 0.838259 0.500970 0.380186
O O4 0.015633 0.484405 0.332469
O O5 0.598063 0.250000 0.479856
O O6 0.626488 0.043961 0.335240
O O7 0.500000 0.000000 0.500000
O O8 0.679208 0.991424 0.507610
O O9 0.120607 0.250000 0.892377
O O10 0.243129 0.038453 0.823615
O O11 0.150146 0.015749 0.005533
O O12 0.879162 0.750000 0.677961
O O13 0.826671 0.514937 0.792659
O O14 0.832473 0.514188 0.583115
O O15 0.785698 0.750000 0.913858
O O16 0.684923 0.505944 0.950396
O O17 0.403946 0.750000 0.010450
O O18 0.395920 0.943837 0.863058
O O19 0.500000 0.000000 0.000000
O O20 0.215947 0.250000 0.515497
O O21 0.706538 0.250000 0.208199
#
# Coordination Sequence:
#
# PCOD9159167 Si02
#       8
#     4   4   4   4   4   4   4   4
#     4  11  21  36  59  85 115 155 196 235 288 351
#     4  11  23  39  59  85 114 150 189 236 291 345
#     4  10  19  32  57  86 111 143 188 238 282 330
#     4   9  21  39  59  83 117 158 194 234 291 350
#     4   9  19  38  58  80 113 151 190 236 288 341
#     4  10  20  35  56  83 110 145 189 233 282 341
#     4  11  22  39  61  85 114 151 197 246 289 339
#     4   9  19  36  56  76 107 147 185 226 281 341
#
# _framework density 19.157069
#
# number of rings (size 3 to 8) (size 9 to 14) (size 15 to 20)
#    0.000    2.000    1.250    2.250    0.000    3.000 
#    0.000    9.375    0.000    0.000    0.000    0.000 
#    0.000    0.000    0.000    0.000    0.000    0.000 
#
# Total GULP energy -178667.099874 kJ/mol
# GULP energy per Si atom -5583.346871 kJ/mol
# Density = 1.911347 g / cm^3
# Si number density = 19.157069 Si / 1000 Ang^3
#
#
#
# Elastic Constant Matrix: (Units=GPa)
#
#
# Indices 1 2 3 4 5 6 
#
# 1 106.6638 17.5759 32.1893 0.0000 19.8048 0.0000
# 2 17.5759 38.0712 18.5995 0.0000 5.1843 0.0000
# 3 32.1893 18.5995 84.3078 0.0000 13.3391 0.0000
# 4 0.0000 0.0000 0.0000 21.5588 0.0000 5.7390
# 5 19.8048 5.1843 13.3391 0.0000 26.3798 0.0000
# 6 0.0000 0.0000 0.0000 5.7390 0.0000 26.4902
#
#
#
# Elastic Compliance Matrix: (Units=1/GPa)
#
#
# Indices 1 2 3 4 5 6 
#
# 1 0.012049 -0.003253 -0.002775 0.000000 -0.007004 0.000000
# 2 -0.003253 0.030499 -0.005353 0.000000 -0.000845 0.000000
# 3 -0.002775 -0.005353 0.014789 0.000000 -0.004343 0.000000
# 4 0.000000 0.000000 0.000000 0.049224 0.000000 -0.010664
# 5 -0.007004 -0.000845 -0.004343 0.000000 0.045528 0.000000
# 6 0.000000 0.000000 0.000000 -0.010664 0.000000 0.040060
#
#
# Mechanical properties :
#
#
# Convention : Reuss Voigt Hill
#
# Bulk Modulus (GPa) = 28.92247 40.64134 34.78190
# Shear Modulus (GPa) = 22.08149 25.59764 23.83957
#
# Velocity S-wave (km/s) = 3.39876 3.65937 3.53147
# Velocity P-wave (km/s) = 5.52561 6.25424 5.90118
#
# Compressibility (1/GPa) = 0.03457519
#
# Stress axis : x y z
#
# Youngs Moduli (GPa) = 82.99415 32.78845 67.61932
#
# Poissons Ratio (x) = 0.10667 0.18762
# Poissons Ratio (y) = 0.27001 0.36194
# Poissons Ratio (z) = 0.23027 0.17550
#
# Static dielectric constant tensor:
#      x y z
#    x 1.648480 0.000000 0.022580 
#    y 0.000000 1.647290 0.000000 
#    z 0.022580 0.000000 1.671790 
# 
# From -- ./inp_files/38111.got.cif
#   From: 2010.05.17/outbox.cif.g08.bks.cpg/sg11_20_cif.got.tgz:38111.got - 2010.06.03 12:22:45.
