data_PCOD9159264
_publ_section_title
;
Structure prediction by ZEFSAII (Michael W. Deem and Ramdas Pophale) SiO2 
 PCOD9159264
Probable space group: P 21/M
;
_chemical_formula_sum "Si O2"
_cell_formula_units_Z 32
_cell_length_a 12.471941
_cell_length_b 8.038901
_cell_length_c 32.195745
_cell_angle_alpha 90.000000
_cell_angle_beta 149.869887
_cell_angle_gamma 90.000000
_cell_volume 1620.328088
_symmetry_space_group_name_H-M "P 21/M"
_symmetry_group_IT_number 11
_symmetry_cell_setting 'monoclinic'
loop_
_space_group_symop_operation_xyz
x,y,z
-x,1/2+y,-z
-x,-y,-z
x,1/2-y,z
loop_
_atom_site_type_symbol
_atom_site_label
_atom_site_fract_x
_atom_site_fract_y
_atom_site_fract_z
Si Si1 0.143622 0.050942 0.106196
Si Si2 0.785067 0.548808 0.223987
Si Si3 0.557679 0.549578 0.472598
Si Si4 0.040146 0.550410 0.627169
Si Si5 0.685252 0.051881 0.923014
Si Si6 0.206700 0.446238 0.595274
Si Si7 0.850513 0.453516 0.716539
Si Si8 0.682060 0.451446 0.746060
O O1 0.143627 0.250000 0.101819
O O2 0.286142 0.980596 0.116446
O O3 0.230609 0.004740 0.180182
O O4 0.901257 0.987418 0.017086
O O5 0.781224 0.750000 0.220641
O O6 0.870937 0.503168 0.298410
O O7 0.542708 0.485394 0.138417
O O8 0.948480 0.489039 0.243332
O O9 0.500000 0.500000 0.500000
O O10 0.562549 0.750000 0.471802
O O11 0.367529 0.492243 0.379226
O O12 0.794851 0.489633 0.541062
O O13 0.040679 0.750000 0.625761
O O14 0.172229 0.487145 0.632121
O O15 0.682563 0.250000 0.928715
O O16 0.218365 0.250000 0.593960
O O17 0.437851 0.513451 0.658658
O O18 0.000000 0.500000 0.500000
O O19 0.854379 0.250000 0.717035
O O20 0.830321 0.506422 0.757469
O O21 0.677365 0.250000 0.743738
#
# Coordination Sequence:
#
# PCOD9159264 Si02
#       8
#     4   4   4   4   4   4   4   4
#     4  10  20  35  56  82 109 138 174 219 269 320
#     4  10  19  34  56  79 104 138 180 221 266 321
#     4  10  19  33  52  75 104 139 179 221 260 308
#     4  11  22  34  52  80 113 141 175 225 273 318
#     4   9  19  35  56  82 109 136 172 220 270 321
#     4  11  23  38  56  78 108 143 181 224 268 318
#     4   9  18  34  55  75 101 140 183 219 258 314
#     4  10  21  38  57  77 106 145 183 217 261 321
#
# _framework density 19.749086999999999
#
# number of rings (size 3 to 8) (size 9 to 14) (size 15 to 20)
#    0.000    2.000    1.250    2.625    0.000    7.500 
#    0.000    1.875    0.000    0.000    0.000    0.000 
#    0.000    0.000    0.000    0.000    0.000    0.000 
#
# Total GULP energy -178687.357685 kJ/mol
# GULP energy per Si atom -5583.979928 kJ/mol
# Density = 1.970414 g / cm^3
# Si number density = 19.749087 Si / 1000 Ang^3
#
#
#
# Elastic Constant Matrix: (Units=GPa)
#
#
# Indices 1 2 3 4 5 6 
#
# 1 106.0566 -9.4576 63.9530 0.0000 12.1265 0.0000
# 2 -9.4576 7.8735 3.5100 0.0000 6.3992 0.0000
# 3 63.9530 3.5100 98.3162 0.0000 11.5967 0.0000
# 4 0.0000 0.0000 0.0000 22.9825 0.0000 -3.5660
# 5 12.1265 6.3992 11.5967 0.0000 35.8910 0.0000
# 6 0.0000 0.0000 0.0000 -3.5660 0.0000 16.6018
#
#
#
# Elastic Compliance Matrix: (Units=1/GPa)
#
#
# Indices 1 2 3 4 5 6 
#
# 1 0.024733 0.046201 -0.016406 0.000000 -0.011293 0.000000
# 2 0.046201 0.235322 -0.032919 0.000000 -0.046931 0.000000
# 3 -0.016406 -0.032919 0.021491 0.000000 0.004468 0.000000
# 4 0.000000 0.000000 0.000000 0.045012 0.000000 0.009668
# 5 -0.011293 -0.046931 0.004468 0.000000 0.038602 0.000000
# 6 0.000000 0.000000 0.000000 0.009668 0.000000 0.062311
#
#
# Mechanical properties :
#
#
# Convention : Reuss Voigt Hill
#
# Bulk Modulus (GPa) = 3.63240 36.47302 20.05271
# Shear Modulus (GPa) = 9.51504 25.37780 17.44642
#
# Velocity S-wave (km/s) = 2.19737 3.58859 2.97544
# Velocity P-wave (km/s) = 2.87770 5.97319 4.68829
#
# Compressibility (1/GPa) = 0.27529978
#
# Stress axis : x y z
#
# Youngs Moduli (GPa) = 40.43171 4.24949 46.53075
#
# Poissons Ratio (x) = -0.19633 0.76338
# Poissons Ratio (y) = -1.86800 1.53174
# Poissons Ratio (z) = 0.66332 0.13989
#
# Static dielectric constant tensor:
#      x y z
#    x 1.685590 0.000000 0.036710 
#    y 0.000000 1.708600 0.000000 
#    z 0.036710 0.000000 1.694590 
# 
# From -- ./inp_files/64389.got.cif
#   From: 2010.05.17/outbox.cif.g08.bks.cpg/sg11_33_cif.got.tgz:64389.got - 2010.06.03 12:22:45.
