data_PCOD9159826
_publ_section_title
;
Structure prediction by ZEFSAII (Michael W. Deem and Ramdas Pophale) SiO2 
 PCOD9159826
Probable space group: P 21/M
;
_chemical_formula_sum "Si O2"
_cell_formula_units_Z 32
_cell_length_a 26.871842
_cell_length_b 7.648424
_cell_length_c 20.748473
_cell_angle_alpha 90.000000
_cell_angle_beta 159.396310
_cell_angle_gamma 90.000000
_cell_volume 1500.642301
_symmetry_space_group_name_H-M "P 21/M"
_symmetry_group_IT_number 11
_symmetry_cell_setting 'monoclinic'
loop_
_space_group_symop_operation_xyz
x,y,z
-x,1/2+y,-z
-x,-y,-z
x,1/2-y,z
loop_
_atom_site_type_symbol
_atom_site_label
_atom_site_fract_x
_atom_site_fract_y
_atom_site_fract_z
Si Si1 0.184907 0.453338 0.893289
Si Si2 0.628383 0.964865 0.762087
Si Si3 0.685651 0.458336 0.594252
Si Si4 0.150999 0.538154 0.330415
Si Si5 0.842090 0.539274 0.283802
Si Si6 0.158412 0.460356 0.089590
Si Si7 0.336484 0.459985 0.812457
Si Si8 0.872088 0.956188 0.552031
O O1 0.224574 0.250000 0.934571
O O2 0.182577 0.529869 0.818416
O O3 0.026222 0.461614 0.728806
O O4 0.291067 0.525422 0.075620
O O5 0.630372 0.750000 0.763479
O O6 0.466673 0.025513 0.567436
O O7 0.718692 0.022760 0.809831
O O8 0.670115 0.250000 0.568764
O O9 0.738694 0.525087 0.589559
O O10 0.802008 0.490652 0.789985
O O11 0.150156 0.750000 0.328190
O O12 0.179746 0.484233 0.438235
O O13 0.994313 0.477269 0.119503
O O14 0.831912 0.750000 0.268535
O O15 0.729958 0.475103 0.200877
O O16 0.000000 0.500000 0.500000
O O17 0.155344 0.250000 0.082490
O O18 0.323935 0.250000 0.798053
O O19 0.238623 0.524341 0.634995
O O20 0.500000 0.500000 0.000000
O O21 0.891226 0.750000 0.564394
#
# Coordination Sequence:
#
# PCOD9159826 Si02
#       8
#     4   4   4   4   4   4   4   4
#     4  10  19  35  60  83 108 148 189 226 276 333
#     4   9  18  34  54  79 110 141 182 229 271 324
#     4  10  21  35  54  81 110 142 184 233 275 323
#     4  10  21  37  57  81 109 147 190 224 271 337
#     4  10  20  35  59  87 114 147 188 233 278 330
#     4  10  19  34  55  77 109 148 183 226 273 330
#     4  10  23  40  57  86 121 152 189 231 281 337
#     4  11  22  37  58  84 115 144 181 237 281 323
#
# _framework density 21.324203000000001
#
# number of rings (size 3 to 8) (size 9 to 14) (size 15 to 20)
#    0.000    2.000    2.500    1.125    0.000    3.500 
#    0.000    3.125    0.000    0.000    0.000    0.000 
#    0.000    0.000    0.000    0.000    0.000    0.000 
#
# Total GULP energy -178788.073709 kJ/mol
# GULP energy per Si atom -5587.127303 kJ/mol
# Density = 2.127567 g / cm^3
# Si number density = 21.324203 Si / 1000 Ang^3
#
#
#
# Elastic Constant Matrix: (Units=GPa)
#
#
# Indices 1 2 3 4 5 6 
#
# 1 111.4978 -1.5916 -7.4958 0.0000 -6.0360 0.0000
# 2 -1.5916 37.6048 -4.3716 0.0000 3.1104 0.0000
# 3 -7.4958 -4.3716 32.4881 0.0000 -0.5523 0.0000
# 4 0.0000 0.0000 0.0000 14.1227 0.0000 -4.3298
# 5 -6.0360 3.1104 -0.5523 0.0000 41.8339 0.0000
# 6 0.0000 0.0000 0.0000 -4.3298 0.0000 14.5084
#
#
#
# Elastic Compliance Matrix: (Units=1/GPa)
#
#
# Indices 1 2 3 4 5 6 
#
# 1 0.009197 0.000538 0.002217 0.000000 0.001316 0.000000
# 2 0.000538 0.027208 0.003753 0.000000 -0.001896 0.000000
# 3 0.002217 0.003753 0.031805 0.000000 0.000461 0.000000
# 4 0.000000 0.000000 0.000000 0.077939 0.000000 0.023260
# 5 0.001316 -0.001896 0.000461 0.000000 0.024241 0.000000
# 6 0.000000 0.000000 0.000000 0.023260 0.000000 0.075867
#
#
# Mechanical properties :
#
#
# Convention : Reuss Voigt Hill
#
# Bulk Modulus (GPa) = 12.31142 17.18585 14.74863
# Shear Modulus (GPa) = 19.20738 27.09631 23.15184
#
# Velocity S-wave (km/s) = 3.00447 3.56853 3.29858
# Velocity P-wave (km/s) = 4.22159 5.00560 4.63022
#
# Compressibility (1/GPa) = 0.08122543
#
# Stress axis : x y z
#
# Youngs Moduli (GPa) = 108.73406 36.75361 31.44177
#
# Poissons Ratio (x) = -0.01978 -0.06970
# Poissons Ratio (y) = -0.05851 -0.11800
# Poissons Ratio (z) = -0.24103 -0.13794
#
# Static dielectric constant tensor:
#      x y z
#    x 1.766370 0.000000 -0.000950 
#    y 0.000000 1.798330 0.000000 
#    z -0.000950 0.000000 1.728870 
# 
# From -- ./inp_files/67294.got.cif
#   From: 2010.05.17/outbox.cif.g08.bks.cpg/sg11_34_cif.got.tgz:67294.got - 2010.06.03 12:22:45.
