data_PCOD9159526
_publ_section_title
;
Structure prediction by ZEFSAII (Michael W. Deem and Ramdas Pophale) SiO2 
 PCOD9159526
Probable space group: P 21/M
;
_chemical_formula_sum "Si O2"
_cell_formula_units_Z 32
_cell_length_a 25.811302
_cell_length_b 7.883534
_cell_length_c 20.814848
_cell_angle_alpha 90.000000
_cell_angle_beta 156.849172
_cell_angle_gamma 90.000000
_cell_volume 1665.197078
_symmetry_space_group_name_H-M "P 21/M"
_symmetry_group_IT_number 11
_symmetry_cell_setting 'monoclinic'
loop_
_space_group_symop_operation_xyz
x,y,z
-x,1/2+y,-z
-x,-y,-z
x,1/2-y,z
loop_
_atom_site_type_symbol
_atom_site_label
_atom_site_fract_x
_atom_site_fract_y
_atom_site_fract_z
Si Si1 0.384546 0.447539 0.100731
Si Si2 0.842293 0.544775 0.061483
Si Si3 0.859172 0.546418 0.570533
Si Si4 0.386725 0.455599 0.458212
Si Si5 0.683876 0.546168 0.761197
Si Si6 0.685052 0.955179 0.255434
Si Si7 0.604851 0.450203 0.028019
Si Si8 0.327919 0.050843 0.530762
O O1 0.404596 0.250000 0.139302
O O2 0.523797 0.535958 0.273187
O O3 0.267387 0.513391 0.012215
O O4 0.350704 0.465663 0.987235
O O5 0.840126 0.750000 0.058955
O O6 0.988203 0.490801 0.246194
O O7 0.794441 0.484362 0.936643
O O8 0.841511 0.750000 0.549714
O O9 0.796735 0.485616 0.432125
O O10 0.773046 0.477763 0.532158
O O11 0.381453 0.250000 0.452889
O O12 0.540309 0.504041 0.626665
O O13 0.316762 0.516955 0.312992
O O14 0.329373 0.520755 0.460108
O O15 0.693872 0.750000 0.769768
O O16 0.683631 0.750000 0.251645
O O17 0.692263 0.017179 0.190609
O O18 0.542859 0.010818 0.121695
O O19 0.597182 0.250000 0.007344
O O20 0.296130 0.250000 0.488337
#
# Coordination Sequence:
#
# PCOD9159526 Si02
#       8
#     4   4   4   4   4   4   4   4
#     4  11  21  34  54  80 108 140 177 221 266 311
#     4  10  22  37  52  75 110 145 180 218 262 319
#     4  10  21  37  55  76 108 143 177 219 264 315
#     4   9  17  29  53  80 104 136 174 220 268 313
#     4   9  17  32  50  75 109 140 173 217 266 312
#     4   9  18  34  53  78 109 138 171 216 267 314
#     4  10  19  33  55  82 109 135 172 221 265 313
#     4  10  19  34  54  81 108 134 178 226 266 313
#
# _framework density 19.216943000000001
#
# number of rings (size 3 to 8) (size 9 to 14) (size 15 to 20)
#    0.000    2.250    2.500    0.750    0.000    3.000 
#    0.000    1.250    0.000    0.000    0.000    0.000 
#    0.000    0.000    0.000    0.000    0.000    0.000 
#
# Total GULP energy -178526.248110 kJ/mol
# GULP energy per Si atom -5578.945253 kJ/mol
# Density = 1.917320 g / cm^3
# Si number density = 19.216943 Si / 1000 Ang^3
#
#
#
# Elastic Constant Matrix: (Units=GPa)
#
#
# Indices 1 2 3 4 5 6 
#
# 1 104.6551 -4.4280 54.3810 0.0000 -19.8745 0.0000
# 2 -4.4280 16.2936 -6.9314 0.0000 -2.0912 0.0000
# 3 54.3810 -6.9314 118.4825 0.0000 -19.6850 0.0000
# 4 0.0000 0.0000 0.0000 -115.7988 0.0000 54.0076
# 5 -19.8745 -2.0912 -19.6850 0.0000 32.0905 0.0000
# 6 0.0000 0.0000 0.0000 54.0076 0.0000 -6.1906
#
#
#
# Elastic Compliance Matrix: (Units=1/GPa)
#
#
# Indices 1 2 3 4 5 6 
#
# 1 0.013293 0.002112 -0.005108 0.000000 0.005237 0.000000
# 2 0.002112 0.064755 0.004161 0.000000 0.008080 0.000000
# 3 -0.005108 0.004161 0.011744 0.000000 0.004312 0.000000
# 4 0.000000 0.000000 0.000000 0.002814 0.000000 0.024549
# 5 0.005237 0.008080 0.004312 0.000000 0.037577 0.000000
# 6 0.000000 0.000000 0.000000 0.024549 0.000000 0.052637
#
#
# Mechanical properties :
#
#
# Convention : Reuss Voigt Hill
#
# Bulk Modulus (GPa) = 10.85490 36.16381 23.50936
# Shear Modulus (GPa) = 23.67457 -4.88582 9.39438
#
# Velocity S-wave (km/s) = 3.51374 -1.59624 2.21341
# Velocity P-wave (km/s) = 4.70348 3.93221 4.33503
#
# Compressibility (1/GPa) = 0.09212425
#
# Stress axis : x y z
#
# Youngs Moduli (GPa) = 75.22668 15.44277 85.14838
#
# Poissons Ratio (x) = -0.03261 0.43490
# Poissons Ratio (y) = -0.15888 -0.35434
# Poissons Ratio (z) = 0.38423 -0.06426
#
# Static dielectric constant tensor:
#      x y z
#    x 1.688810 0.000000 -0.036550 
#    y 0.000000 1.695390 0.000000 
#    z -0.036550 0.000000 1.646210 
# 
# From -- ./inp_files/66449.got.cif
#   From: 2010.05.17/outbox.cif.g08.bks.cpg/sg11_34_cif.got.tgz:66449.got - 2010.06.03 12:22:45.
