data_PCOD9159472
_publ_section_title
;
Structure prediction by ZEFSAII (Michael W. Deem and Ramdas Pophale) SiO2 
 PCOD9159472
Probable space group: P 21/M
;
_chemical_formula_sum "Si O2"
_cell_formula_units_Z 28
_cell_length_a 15.501652
_cell_length_b 8.699271
_cell_length_c 18.385106
_cell_angle_alpha 90.000000
_cell_angle_beta 141.661058
_cell_angle_gamma 90.000000
_cell_volume 1537.932789
_symmetry_space_group_name_H-M "P 21/M"
_symmetry_group_IT_number 11
_symmetry_cell_setting 'monoclinic'
loop_
_space_group_symop_operation_xyz
x,y,z
-x,1/2+y,-z
-x,-y,-z
x,1/2-y,z
loop_
_atom_site_type_symbol
_atom_site_label
_atom_site_fract_x
_atom_site_fract_y
_atom_site_fract_z
Si Si1 0.141981 0.568611 0.266306
Si Si2 0.898248 0.434519 0.371026
Si Si3 0.332194 0.565190 0.677424
Si Si4 0.596390 0.067302 0.785957
Si Si5 0.871898 0.564747 0.582664
Si Si6 0.902936 0.931848 0.999356
Si Si7 0.590492 0.567917 0.625311
O O1 0.176289 0.750000 0.285261
O O2 0.151919 0.509119 0.354837
O O3 0.251579 0.476970 0.289488
O O4 0.989972 0.547230 0.131126
O O5 0.903505 0.250000 0.377089
O O6 0.745419 0.479113 0.298325
O O7 0.000000 0.500000 0.500000
O O8 0.973922 0.478345 0.346083
O O9 0.332607 0.750000 0.671422
O O10 0.486478 0.501659 0.769924
O O11 0.238731 0.496473 0.549766
O O12 0.590723 0.250000 0.783144
O O13 0.753368 0.010874 0.902311
O O14 0.552879 0.006987 0.677290
O O15 0.860505 0.750000 0.579671
O O16 0.884285 0.750000 0.974177
O O17 0.000000 0.000000 0.000000
O O18 0.500000 0.500000 0.500000
O O19 0.573093 0.750000 0.618021
#
# Coordination Sequence:
#
# PCOD9159472 Si02
#       7
#     4   4   4   4   4   4   4
#     4  11  23  38  56  80 109 141 180 224 270 323
#     4   8  16  30  51  78 109 144 180 220 265 321
#     4  10  19  34  55  81 113 147 183 223 272 324
#     4  12  24  38  56  80 110 142 182 227 272 325
#     4  10  19  33  54  83 115 146 181 221 271 326
#     4  11  23  40  61  80 104 140 186 231 273 321
#     4  12  24  38  56  78 109 144 179 219 271 324
#
# _framework density 18.206256
#
# number of rings (size 3 to 8) (size 9 to 14) (size 15 to 20)
#    0.000    1.429    1.429    5.143    0.000    2.857 
#    0.000    0.000    0.000    0.857    0.000    0.000 
#    0.000    0.000    0.000    0.000    0.000    0.000 
#
# Total GULP energy -156355.725168 kJ/mol
# GULP energy per Si atom -5584.133042 kJ/mol
# Density = 1.816482 g / cm^3
# Si number density = 18.206256 Si / 1000 Ang^3
#
#
#
# Elastic Constant Matrix: (Units=GPa)
#
#
# Indices 1 2 3 4 5 6 
#
# 1 85.2585 10.4018 -0.4292 0.0000 30.5097 0.0000
# 2 10.4018 78.6769 17.2433 0.0000 11.5146 0.0000
# 3 -0.4292 17.2433 43.5317 0.0000 19.7441 0.0000
# 4 0.0000 0.0000 0.0000 27.1113 0.0000 5.7787
# 5 30.5097 11.5146 19.7441 0.0000 29.9680 0.0000
# 6 0.0000 0.0000 0.0000 5.7787 0.0000 24.3101
#
#
#
# Elastic Compliance Matrix: (Units=1/GPa)
#
#
# Indices 1 2 3 4 5 6 
#
# 1 0.024992 -0.001816 0.017385 0.000000 -0.036200 0.000000
# 2 -0.001816 0.014177 -0.005707 0.000000 0.000162 0.000000
# 3 0.017385 -0.005707 0.046260 0.000000 -0.045984 0.000000
# 4 0.000000 0.000000 0.000000 0.038854 0.000000 -0.009236
# 5 -0.036200 0.000162 -0.045984 0.000000 0.100457 0.000000
# 6 0.000000 0.000000 0.000000 -0.009236 0.000000 0.043331
#
#
# Mechanical properties :
#
#
# Convention : Reuss Voigt Hill
#
# Bulk Modulus (GPa) = 9.51005 29.09987 19.30496
# Shear Modulus (GPa) = 17.64292 28.29461 22.96877
#
# Velocity S-wave (km/s) = 3.11635 3.94650 3.55574
# Velocity P-wave (km/s) = 4.26423 6.06504 5.24253
#
# Compressibility (1/GPa) = 0.10515191
#
# Stress axis : x y z
#
# Youngs Moduli (GPa) = 40.01249 70.53444 21.61685
#
# Poissons Ratio (x) = 0.12812 -0.37580
# Poissons Ratio (y) = 0.07268 0.12337
# Poissons Ratio (z) = -0.69560 0.40255
#
# Static dielectric constant tensor:
#      x y z
#    x 1.652390 0.000000 0.029740 
#    y 0.000000 1.603650 0.000000 
#    z 0.029740 0.000000 1.616140 
# 
# From -- ./inp_files/53236.got.cif
#   From: 2010.05.17/outbox.cif.g08.bks.cpg/sg11_27_cif.got.tgz:53236.got - 2010.06.03 12:22:45.
