data_PCOD9159181
_publ_section_title
;
Structure prediction by ZEFSAII (Michael W. Deem and Ramdas Pophale) SiO2 
 PCOD9159181
Probable space group: P 21/M
;
_chemical_formula_sum "Si O2"
_cell_formula_units_Z 28
_cell_length_a 12.018294
_cell_length_b 18.605201
_cell_length_c 9.284906
_cell_angle_alpha 90.000000
_cell_angle_beta 131.354719
_cell_angle_gamma 90.000000
_cell_volume 1558.413234
_symmetry_space_group_name_H-M "P 21/M"
_symmetry_group_IT_number 11
_symmetry_cell_setting 'monoclinic'
loop_
_space_group_symop_operation_xyz
x,y,z
-x,1/2+y,-z
-x,-y,-z
x,1/2-y,z
loop_
_atom_site_type_symbol
_atom_site_label
_atom_site_fract_x
_atom_site_fract_y
_atom_site_fract_z
Si Si1 0.358393 0.935028 0.069366
Si Si2 0.896182 0.061857 0.575930
Si Si3 0.157422 0.669389 0.709914
Si Si4 0.649525 0.661461 0.332986
Si Si5 0.081884 0.169147 0.246733
Si Si6 0.116333 0.935708 0.105589
Si Si7 0.771195 0.547561 0.235584
O O1 0.269812 0.881425 0.888743
O O2 0.351821 0.009336 0.971371
O O3 0.506611 0.890195 0.227986
O O4 0.259478 0.945564 0.127511
O O5 0.875302 0.135101 0.470806
O O6 0.843789 0.070750 0.693301
O O7 0.072581 0.045020 0.717382
O O8 0.809478 0.000685 0.410435
O O9 0.213367 0.750000 0.749158
O O10 0.011310 0.668126 0.683975
O O11 0.629260 0.750000 0.306135
O O12 0.756355 0.646105 0.561420
O O13 0.725439 0.625967 0.255049
O O14 0.094976 0.250000 0.205810
O O15 0.982970 0.127438 0.047950
O O16 0.000000 0.000000 0.000000
#
# Coordination Sequence:
#
# PCOD9159181 Si02
#       7
#     4   4   4   4   4   4   4
#     4  10  21  35  57  82 115 146 185 228 281 335
#     4  10  19  32  59  85 112 140 186 236 274 321
#     4   9  17  33  55  81 107 142 187 233 273 320
#     4  11  21  36  59  82 109 148 189 229 279 338
#     4   9  19  34  54  78 109 145 187 227 271 327
#     4  11  20  35  57  84 110 147 184 230 274 331
#     4  10  19  36  56  86 110 142 185 238 276 324
#
# _framework density 17.966992999999999
#
# number of rings (size 3 to 8) (size 9 to 14) (size 15 to 20)
#    0.000    2.000    2.857    1.714    0.000    1.143 
#    0.000    2.857    3.143    0.000    0.000    0.000 
#    0.000    0.000    0.000    0.000    0.000    0.000 
#
# Total GULP energy -155901.826257 kJ/mol
# GULP energy per Si atom -5567.922366 kJ/mol
# Density = 1.792610 g / cm^3
# Si number density = 17.966993 Si / 1000 Ang^3
#
#
#
# Elastic Constant Matrix: (Units=GPa)
#
#
# Indices 1 2 3 4 5 6 
#
# 1 63.4443 14.8809 36.0968 0.0000 -10.0699 0.0000
# 2 14.8809 53.4256 2.1527 0.0000 -14.9302 0.0000
# 3 36.0968 2.1527 57.4419 0.0000 -17.1502 0.0000
# 4 0.0000 0.0000 0.0000 21.6964 0.0000 4.1467
# 5 -10.0699 -14.9302 -17.1502 0.0000 36.7615 0.0000
# 6 0.0000 0.0000 0.0000 4.1467 0.0000 21.5175
#
#
#
# Elastic Compliance Matrix: (Units=1/GPa)
#
#
# Indices 1 2 3 4 5 6 
#
# 1 0.027281 -0.008056 -0.018110 0.000000 -0.004248 0.000000
# 2 -0.008056 0.023704 0.007423 0.000000 0.010883 0.000000
# 3 -0.018110 0.007423 0.032450 0.000000 0.013193 0.000000
# 4 0.000000 0.000000 0.000000 0.047853 0.000000 -0.009222
# 5 -0.004248 0.010883 0.013193 0.000000 0.036614 0.000000
# 6 0.000000 0.000000 0.000000 -0.009222 0.000000 0.048251
#
#
# Mechanical properties :
#
#
# Convention : Reuss Voigt Hill
#
# Bulk Modulus (GPa) = 21.76264 31.17474 26.46869
# Shear Modulus (GPa) = 18.59059 24.07384 21.33222
#
# Velocity S-wave (km/s) = 3.22018 3.66443 3.44946
# Velocity P-wave (km/s) = 5.09558 5.94077 5.53433
#
# Compressibility (1/GPa) = 0.04595030
#
# Stress axis : x y z
#
# Youngs Moduli (GPa) = 36.65591 42.18732 30.81676
#
# Poissons Ratio (x) = 0.33986 0.55808
# Poissons Ratio (y) = 0.29530 -0.22877
# Poissons Ratio (z) = 0.66383 -0.31318
#
# Static dielectric constant tensor:
#      x y z
#    x 1.637350 0.000000 0.017280 
#    y 0.000000 1.664840 0.000000 
#    z 0.017280 0.000000 1.789280 
# 
# From -- ./inp_files/14031.got.cif
#   From: 2010.05.17/outbox.cif.g08.bks.cpg/sg11_8_cif.got.tgz:14031.got - 2010.06.03 12:22:45.
