data_PCOD9159045
_publ_section_title
;
Structure prediction by ZEFSAII (Michael W. Deem and Ramdas Pophale) SiO2 
 PCOD9159045
Probable space group: P 21/M
;
_chemical_formula_sum "Si O2"
_cell_formula_units_Z 28
_cell_length_a 9.850120
_cell_length_b 7.608943
_cell_length_c 29.400179
_cell_angle_alpha 90.000000
_cell_angle_beta 37.913619
_cell_angle_gamma 90.000000
_cell_volume 1353.999336
_symmetry_space_group_name_H-M "P 21/M"
_symmetry_group_IT_number 11
_symmetry_cell_setting 'monoclinic'
loop_
_space_group_symop_operation_xyz
x,y,z
-x,1/2+y,-z
-x,-y,-z
x,1/2-y,z
loop_
_atom_site_type_symbol
_atom_site_label
_atom_site_fract_x
_atom_site_fract_y
_atom_site_fract_z
Si Si1 0.171955 0.959979 0.495089
Si Si2 0.868342 0.040881 0.104933
Si Si3 0.315557 0.542833 0.654073
Si Si4 0.239937 0.960760 0.576011
Si Si5 0.319992 0.038349 0.940086
Si Si6 0.829264 0.449808 0.211725
Si Si7 0.673401 0.040507 0.914369
O O1 0.186815 0.750000 0.493641
O O2 0.121459 0.023064 0.560609
O O3 0.418912 0.027247 0.419192
O O4 0.000000 0.000000 0.500000
O O5 0.895394 0.250000 0.104644
O O6 0.777368 0.967385 0.176348
O O7 0.712778 0.013524 0.103046
O O8 0.108354 0.971095 0.025103
O O9 0.258551 0.750000 0.670109
O O10 0.204054 0.470484 0.637050
O O11 0.242262 0.465595 0.721867
O O12 0.210093 0.750000 0.585740
O O13 0.500000 0.000000 0.500000
O O14 0.311765 0.250000 0.944981
O O15 0.547522 0.981692 0.902211
O O16 0.738842 0.250000 0.235846
O O17 0.094828 0.447967 0.140754
O O18 0.712161 0.250000 0.903080
O O19 0.500000 0.000000 0.000000
#
# Coordination Sequence:
#
# PCOD9159045 Si02
#       7
#     4   4   4   4   4   4   4
#     4  10  19  32  53  80 109 136 171 210 247 296
#     4   9  17  31  49  70  96 127 164 205 253 304
#     4   9  18  34  55  76 103 136 170 209 257 304
#     4   8  15  29  50  75  99 130 167 204 243 293
#     4   9  18  32  48  69  96 124 164 212 253 300
#     4  10  20  35  53  76 104 133 168 213 260 309
#     4  11  21  34  52  74 100 130 169 216 258 303
#
# _framework density 20.679480000000002
#
# number of rings (size 3 to 8) (size 9 to 14) (size 15 to 20)
#    0.000    2.571    1.429    0.857    0.000    2.857 
#    0.000    1.429    0.000    6.857    0.000    0.000 
#    0.000    0.000    0.000    0.000    0.000    0.000 
#
# Total GULP energy -155982.096047 kJ/mol
# GULP energy per Si atom -5570.789145 kJ/mol
# Density = 2.063241 g / cm^3
# Si number density = 20.679480 Si / 1000 Ang^3
#
#
#
# Elastic Constant Matrix: (Units=GPa)
#
#
# Indices 1 2 3 4 5 6 
#
# 1 147.9090 -4.7460 42.0887 0.0000 48.6672 0.0000
# 2 -4.7460 51.7866 -5.3999 0.0000 5.2683 0.0000
# 3 42.0887 -5.3999 78.7573 0.0000 47.4242 0.0000
# 4 0.0000 0.0000 0.0000 10.5982 0.0000 -1.7316
# 5 48.6672 5.2683 47.4242 0.0000 45.4729 0.0000
# 6 0.0000 0.0000 0.0000 -1.7316 0.0000 20.8599
#
#
#
# Elastic Compliance Matrix: (Units=1/GPa)
#
#
# Indices 1 2 3 4 5 6 
#
# 1 0.011194 0.003232 0.004513 0.000000 -0.017062 0.000000
# 2 0.003232 0.022153 0.009194 0.000000 -0.015614 0.000000
# 3 0.004513 0.009194 0.038885 0.000000 -0.046450 0.000000
# 4 0.000000 0.000000 0.000000 0.095653 0.000000 0.007940
# 5 -0.017062 -0.015614 -0.046450 0.000000 0.090504 0.000000
# 6 0.000000 0.000000 0.000000 0.007940 0.000000 0.048598
#
#
# Mechanical properties :
#
#
# Convention : Reuss Voigt Hill
#
# Bulk Modulus (GPa) = 9.42402 38.03761 23.73082
# Shear Modulus (GPa) = 16.20853 31.82022 24.01438
#
# Velocity S-wave (km/s) = 2.80268 3.92693 3.41143
# Velocity P-wave (km/s) = 3.87820 6.24458 5.19785
#
# Compressibility (1/GPa) = 0.10611180
#
# Stress axis : x y z
#
# Youngs Moduli (GPa) = 89.33042 45.13996 25.71654
#
# Poissons Ratio (x) = -0.14591 -0.11607
# Poissons Ratio (y) = -0.28874 -0.23643
# Poissons Ratio (z) = -0.40318 -0.41500
#
# Static dielectric constant tensor:
#      x y z
#    x 1.744550 0.000000 0.086930 
#    y 0.000000 1.774930 0.000000 
#    z 0.086930 0.000000 1.736860 
# 
# From -- ./inp_files/70832.got.cif
#   From: 2010.05.17/outbox.cif.g08.bks.cpg/sg11_36_cif.got.tgz:70832.got - 2010.06.03 12:22:45.
