data_PCOD9159797
_publ_section_title
;
Structure prediction by ZEFSAII (Michael W. Deem and Ramdas Pophale) SiO2 
 PCOD9159797
Probable space group: P 21/M
;
_chemical_formula_sum "Si O2"
_cell_formula_units_Z 24
_cell_length_a 10.201617
_cell_length_b 15.925340
_cell_length_c 8.914467
_cell_angle_alpha 90.000000
_cell_angle_beta 47.807192
_cell_angle_gamma 90.000000
_cell_volume 1073.016011
_symmetry_space_group_name_H-M "P 21/M"
_symmetry_group_IT_number 11
_symmetry_cell_setting 'monoclinic'
loop_
_space_group_symop_operation_xyz
x,y,z
-x,1/2+y,-z
-x,-y,-z
x,1/2-y,z
loop_
_atom_site_type_symbol
_atom_site_label
_atom_site_fract_x
_atom_site_fract_y
_atom_site_fract_z
Si Si1 0.834040 0.906021 0.421101
Si Si2 0.689178 0.250000 0.062865
Si Si3 0.891374 0.750000 0.179782
Si Si4 0.829593 0.405254 0.420497
Si Si5 0.343558 0.250000 0.905856
Si Si6 0.355130 0.750000 0.576633
Si Si7 0.746531 0.091949 0.827161
Si Si8 0.248086 0.403146 0.173737
O O1 0.810120 0.832699 0.320461
O O2 0.747084 0.890401 0.650385
O O3 0.044162 0.907253 0.294668
O O4 0.787435 0.999638 0.402300
O O5 0.584295 0.250000 0.298273
O O6 0.661809 0.166791 0.985839
O O7 0.898337 0.250000 0.950240
O O8 0.839795 0.750000 0.046518
O O9 0.758970 0.333684 0.366463
O O10 0.742495 0.393976 0.651860
O O11 0.040481 0.398738 0.285864
O O12 0.491800 0.250000 0.664701
O O13 0.346384 0.331921 0.006681
O O14 0.687499 0.997495 0.909671
#
# Coordination Sequence:
#
# PCOD9159797 Si02
#       8
#     4   2   2   4   2   2   4   4
#     4   8  16  32  60  88 103 122 167 220 266 311
#     4  10  19  34  54  78 106 138 171 210 258 312
#     4  10  19  34  54  78 106 138 171 210 258 312
#     4   9  17  35  60  83 103 129 167 218 267 310
#     4  12  25  36  46  72 110 148 181 210 248 302
#     4  12  25  36  46  72 110 148 181 210 248 302
#     4   8  16  32  60  88 103 122 167 220 266 311
#     4   9  17  35  60  83 103 129 167 218 267 310
#
# _framework density 22.366862000000001
#
# number of rings (size 3 to 8) (size 9 to 14) (size 15 to 20)
#    0.000    2.667    0.000    4.500    0.000    4.000 
#    0.000   15.000    0.000    0.000    0.000    0.000 
#    0.000    0.000    0.000    0.000    0.000    0.000 
#
# Total GULP energy -134228.352644 kJ/mol
# GULP energy per Si atom -5592.848027 kJ/mol
# Density = 2.231595 g / cm^3
# Si number density = 22.366862 Si / 1000 Ang^3
#
#
#
# Elastic Constant Matrix: (Units=GPa)
#
#
# Indices 1 2 3 4 5 6 
#
# 1 59.0050 30.3099 18.3731 0.0000 -5.7213 0.0000
# 2 30.3099 171.1757 98.1425 0.0000 21.6687 0.0000
# 3 18.3731 98.1425 113.2694 0.0000 0.1227 0.0000
# 4 0.0000 0.0000 0.0000 -226.4345 0.0000 104.4378
# 5 -5.7213 21.6687 0.1227 0.0000 33.1082 0.0000
# 6 0.0000 0.0000 0.0000 104.4378 0.0000 -31.1195
#
#
#
# Elastic Compliance Matrix: (Units=1/GPa)
#
#
# Indices 1 2 3 4 5 6 
#
# 1 0.019814 -0.004982 0.001096 0.000000 0.006681 0.000000
# 2 -0.004982 0.015123 -0.012284 0.000000 -0.010713 0.000000
# 3 0.001096 -0.012284 0.019285 0.000000 0.008157 0.000000
# 4 0.000000 0.000000 0.000000 0.008061 0.000000 0.027051
# 5 0.006681 -0.010713 0.008157 0.000000 0.038340 0.000000
# 6 0.000000 0.000000 0.000000 0.027051 0.000000 0.058651
#
#
# Mechanical properties :
#
#
# Convention : Reuss Voigt Hill
#
# Bulk Modulus (GPa) = 45.70074 70.78901 58.24487
# Shear Modulus (GPa) = 25.13730 -31.78087 -3.32178
#
# Velocity S-wave (km/s) = 3.35604 -3.77356 -1.21998
# Velocity P-wave (km/s) = 5.95769 3.56811 4.91047
#
# Compressibility (1/GPa) = 0.02188148
#
# Stress axis : x y z
#
# Youngs Moduli (GPa) = 50.47025 66.12397 51.85342
#
# Poissons Ratio (x) = 0.32945 -0.05682
# Poissons Ratio (y) = 0.25146 0.63695
# Poissons Ratio (z) = -0.05531 0.81224
#
# Static dielectric constant tensor:
#      x y z
#    x 1.816380 0.000000 -0.055800 
#    y 0.000000 1.792920 0.000000 
#    z -0.055800 0.000000 1.803370 
# 
# From -- ./inp_files/18573.got.cif
#   From: 2010.05.17/outbox.cif.g08.bks.cpg/sg11_10_cif.got.tgz:18573.got - 2010.06.03 12:22:45.
