data_PCOD9159494
_publ_section_title
;
Structure prediction by ZEFSAII (Michael W. Deem and Ramdas Pophale) SiO2 
 PCOD9159494
Probable space group: P 21/M
;
_chemical_formula_sum "Si O2"
_cell_formula_units_Z 32
_cell_length_a 13.266206
_cell_length_b 7.492277
_cell_length_c 30.286757
_cell_angle_alpha 90.000000
_cell_angle_beta 152.213599
_cell_angle_gamma 90.000000
_cell_volume 1403.343136
_symmetry_space_group_name_H-M "P 21/M"
_symmetry_group_IT_number 11
_symmetry_cell_setting 'monoclinic'
loop_
_space_group_symop_operation_xyz
x,y,z
-x,1/2+y,-z
-x,-y,-z
x,1/2-y,z
loop_
_atom_site_type_symbol
_atom_site_label
_atom_site_fract_x
_atom_site_fract_y
_atom_site_fract_z
Si Si1 0.238813 0.036819 0.573416
Si Si2 0.938356 0.957666 0.096569
Si Si3 0.059526 0.033340 0.414748
Si Si4 0.460294 0.955404 0.904356
Si Si5 0.249681 0.462966 0.397063
Si Si6 0.585314 0.956503 0.212799
Si Si7 0.042420 0.967202 0.794969
Si Si8 0.637601 0.030277 0.788323
O O1 0.264690 0.250000 0.582264
O O2 0.438764 0.969423 0.679925
O O3 0.220247 0.972854 0.515643
O O4 0.000000 0.000000 0.500000
O O5 0.919806 0.750000 0.076018
O O6 0.134837 0.030774 0.143586
O O7 0.993769 0.968013 0.169703
O O8 0.698623 0.038609 0.999284
O O9 0.057588 0.250000 0.414240
O O10 0.129793 0.967664 0.394029
O O11 0.814438 0.971887 0.326588
O O12 0.482273 0.750000 0.927526
O O13 0.270128 0.029309 0.861585
O O14 0.394961 0.955860 0.827487
O O15 0.500000 0.500000 0.500000
O O16 0.218147 0.250000 0.384815
O O17 0.143583 0.528173 0.310815
O O18 0.539205 0.750000 0.186070
O O19 0.410277 0.026477 0.179933
O O20 0.044508 0.750000 0.797030
O O21 0.634217 0.250000 0.787102
#
# Coordination Sequence:
#
# PCOD9159494 Si02
#       8
#     4   4   4   4   4   4   4   4
#     4  10  19  33  55  79 109 147 183 222 267 325
#     4  10  22  39  62  85 110 150 192 231 284 347
#     4  10  20  36  57  80 111 153 190 227 282 337
#     4  10  21  40  62  84 112 146 187 237 289 342
#     4  10  22  38  56  82 116 150 184 229 282 332
#     4  11  21  35  59  85 114 150 189 238 282 331
#     4  10  21  39  59  82 118 150 181 237 289 328
#     4   9  20  37  54  83 120 147 182 236 286 326
#
# _framework density 22.802692
#
# number of rings (size 3 to 8) (size 9 to 14) (size 15 to 20)
#    0.000    2.000    2.500    0.750    1.750    2.500 
#    0.000    1.875    0.000    0.000    0.000    0.000 
#    0.000    0.000    0.000    0.000    0.000    0.000 
#
# Total GULP energy -178771.234615 kJ/mol
# GULP energy per Si atom -5586.601082 kJ/mol
# Density = 2.275079 g / cm^3
# Si number density = 22.802692 Si / 1000 Ang^3
#
#
#
# Elastic Constant Matrix: (Units=GPa)
#
#
# Indices 1 2 3 4 5 6 
#
# 1 92.3344 -10.5641 -4.7447 0.0000 23.4233 0.0000
# 2 -10.5641 62.0305 -9.5904 0.0000 1.5099 0.0000
# 3 -4.7447 -9.5904 45.7329 0.0000 24.4506 0.0000
# 4 0.0000 0.0000 0.0000 12.0201 0.0000 -0.6666
# 5 23.4233 1.5099 24.4506 0.0000 39.3267 0.0000
# 6 0.0000 0.0000 0.0000 -0.6666 0.0000 5.6428
#
#
#
# Elastic Compliance Matrix: (Units=1/GPa)
#
#
# Indices 1 2 3 4 5 6 
#
# 1 0.016517 0.005130 0.012214 0.000000 -0.017629 0.000000
# 2 0.005130 0.018734 0.009705 0.000000 -0.009809 0.000000
# 3 0.012214 0.009705 0.043824 0.000000 -0.034895 0.000000
# 4 0.000000 0.000000 0.000000 0.083743 0.000000 0.009892
# 5 -0.017629 -0.009809 -0.034895 0.000000 0.057999 0.000000
# 6 0.000000 0.000000 0.000000 0.009892 0.000000 0.178384
#
#
# Mechanical properties :
#
#
# Convention : Reuss Voigt Hill
#
# Bulk Modulus (GPa) = 7.50890 16.69995 12.10442
# Shear Modulus (GPa) = 12.83718 26.39773 19.61745
#
# Velocity S-wave (km/s) = 2.37527 3.40613 2.93629
# Velocity P-wave (km/s) = 3.28978 4.77583 4.10068
#
# Compressibility (1/GPa) = 0.13317524
#
# Stress axis : x y z
#
# Youngs Moduli (GPa) = 60.54442 53.37862 22.81829
#
# Poissons Ratio (x) = -0.27386 -0.27871
# Poissons Ratio (y) = -0.31062 -0.22146
# Poissons Ratio (z) = -0.73951 -0.51805
#
# Static dielectric constant tensor:
#      x y z
#    x 1.840330 0.000000 0.005140 
#    y 0.000000 1.911210 0.000000 
#    z 0.005140 0.000000 1.832010 
# 
# From -- ./inp_files/65234.got.cif
#   From: 2010.05.17/outbox.cif.g08.bks.cpg/sg11_33_cif.got.tgz:65234.got - 2010.06.03 12:22:45.
