data_PCOD9159434
_publ_section_title
;
Structure prediction by ZEFSAII (Michael W. Deem and Ramdas Pophale) SiO2 
 PCOD9159434
Probable space group: P 21/M
;
_chemical_formula_sum "Si O2"
_cell_formula_units_Z 32
_cell_length_a 20.752830
_cell_length_b 8.822198
_cell_length_c 25.755757
_cell_angle_alpha 90.000000
_cell_angle_beta 23.131098
_cell_angle_gamma 90.000000
_cell_volume 1852.422570
_symmetry_space_group_name_H-M "P 21/M"
_symmetry_group_IT_number 11
_symmetry_cell_setting 'monoclinic'
loop_
_space_group_symop_operation_xyz
x,y,z
-x,1/2+y,-z
-x,-y,-z
x,1/2-y,z
loop_
_atom_site_type_symbol
_atom_site_label
_atom_site_fract_x
_atom_site_fract_y
_atom_site_fract_z
Si Si1 0.742819 0.067925 0.182765
Si Si2 0.939419 0.932777 0.346949
Si Si3 0.052348 0.431941 0.881524
Si Si4 0.761735 0.569128 0.814469
Si Si5 0.571369 0.566439 0.648533
Si Si6 0.551835 0.431983 0.882621
Si Si7 0.923851 0.066546 0.866771
Si Si8 0.439769 0.067980 0.852707
O O1 0.743889 0.250000 0.185422
O O2 0.567761 0.019639 0.289894
O O3 0.798951 0.001328 0.196076
O O4 0.884577 0.023924 0.036209
O O5 0.946653 0.750000 0.343898
O O6 0.753580 0.979279 0.496730
O O7 0.995956 0.978530 0.247210
O O8 0.068914 0.999208 0.291674
O O9 0.064264 0.250000 0.874979
O O10 0.031682 0.477169 0.837036
O O11 0.773071 0.750000 0.805156
O O12 0.696874 0.508532 0.807510
O O13 0.618749 0.526207 0.961909
O O14 0.565657 0.750000 0.656104
O O15 0.522493 0.499285 0.740272
O O16 0.568333 0.250000 0.874154
O O17 0.535547 0.474507 0.834588
O O18 0.907267 0.250000 0.879905
O O19 0.744404 0.995366 0.005739
O O20 0.434102 0.250000 0.854020
#
# Coordination Sequence:
#
# PCOD9159434 Si02
#       8
#     4   4   4   4   4   4   4   4
#     4   9  17  31  50  73 104 139 174 216 264 312
#     4  10  21  36  57  79 107 146 180 216 266 321
#     4   9  17  30  50  76 104 134 173 221 265 310
#     4  10  19  33  54  80 110 140 174 219 267 314
#     4  10  21  38  55  77 109 145 182 217 262 323
#     4   9  19  34  52  79 110 137 173 220 266 315
#     4  10  19  34  55  80 107 139 179 221 264 316
#     4  11  21  34  55  83 109 137 176 225 269 309
#
# _framework density 17.274675999999999
#
# number of rings (size 3 to 8) (size 9 to 14) (size 15 to 20)
#    0.000    2.250    2.500    0.750    0.000    3.000 
#    0.000    1.250    0.000    0.000    0.000    0.000 
#    0.000    0.000    0.000    0.000    0.000    0.000 
#
# Total GULP energy -178526.263206 kJ/mol
# GULP energy per Si atom -5578.945725 kJ/mol
# Density = 1.723536 g / cm^3
# Si number density = 17.274676 Si / 1000 Ang^3
#
#
#
# Elastic Constant Matrix: (Units=GPa)
#
#
# Indices 1 2 3 4 5 6 
#
# 1 176.6450 36.6863 89.4011 0.0000 -21.9171 0.0000
# 2 36.6863 11.3584 31.7516 0.0000 -4.4352 0.0000
# 3 89.4011 31.7516 124.1756 0.0000 -13.2221 0.0000
# 4 0.0000 0.0000 0.0000 12.5586 0.0000 -6.2849
# 5 -21.9171 -4.4352 -13.2221 0.0000 28.0488 0.0000
# 6 0.0000 0.0000 0.0000 -6.2849 0.0000 29.2394
#
#
#
# Elastic Compliance Matrix: (Units=1/GPa)
#
#
# Indices 1 2 3 4 5 6 
#
# 1 0.019648 -0.081936 0.007434 0.000000 0.005901 0.000000
# 2 -0.081936 0.654409 -0.109644 0.000000 -0.012231 0.000000
# 3 0.007434 -0.109644 0.031069 0.000000 0.003117 0.000000
# 4 0.000000 0.000000 0.000000 0.089224 0.000000 0.019178
# 5 0.005901 -0.012231 0.003117 0.000000 0.039798 0.000000
# 6 0.000000 0.000000 0.000000 0.019178 0.000000 0.038323
#
#
# Mechanical properties :
#
#
# Convention : Reuss Voigt Hill
#
# Bulk Modulus (GPa) = 2.96883 69.76190 36.36537
# Shear Modulus (GPa) = 3.69538 24.25870 13.97704
#
# Velocity S-wave (km/s) = 1.46418 3.75145 2.84756
# Velocity P-wave (km/s) = 2.14027 7.69650 5.64876
#
# Compressibility (1/GPa) = 0.33683326
#
# Stress axis : x y z
#
# Youngs Moduli (GPa) = 50.89668 1.52810 32.18655
#
# Poissons Ratio (x) = 0.12521 -0.23927
# Poissons Ratio (y) = 4.17028 3.52906
# Poissons Ratio (z) = -0.37836 0.16755
#
# Static dielectric constant tensor:
#      x y z
#    x 1.585450 0.000000 -0.000270 
#    y 0.000000 1.581120 0.000000 
#    z -0.000270 0.000000 1.562940 
# 
# From -- ./inp_files/72093.got.cif
#   From: 2010.05.17/outbox.cif.g08.bks.cpg/sg11_37_cif.got.tgz:72093.got - 2010.06.03 12:22:45.
