data_PCOD9159983
_publ_section_title
;
Structure prediction by ZEFSAII (Michael W. Deem and Ramdas Pophale) SiO2 
 PCOD9159983
Probable space group: P 21/M
;
_chemical_formula_sum "Si O2"
_cell_formula_units_Z 32
_cell_length_a 15.068133
_cell_length_b 12.753302
_cell_length_c 8.652412
_cell_angle_alpha 90.000000
_cell_angle_beta 86.263016
_cell_angle_gamma 90.000000
_cell_volume 1659.185258
_symmetry_space_group_name_H-M "P 21/M"
_symmetry_group_IT_number 11
_symmetry_cell_setting 'monoclinic'
loop_
_space_group_symop_operation_xyz
x,y,z
-x,1/2+y,-z
-x,-y,-z
x,1/2-y,z
loop_
_atom_site_type_symbol
_atom_site_label
_atom_site_fract_x
_atom_site_fract_y
_atom_site_fract_z
Si Si1 0.294718 0.867206 0.244441
Si Si2 0.766484 0.523242 0.001328
Si Si3 0.117062 0.874185 0.791681
Si Si4 0.454654 0.985586 0.337961
Si Si5 0.842842 0.025558 0.543118
Si Si6 0.916525 0.627346 0.774588
Si Si7 0.388886 0.367644 0.796851
Si Si8 0.679378 0.865385 0.547497
O O1 0.301790 0.750000 0.185563
O O2 0.379244 0.895177 0.342109
O O3 0.202694 0.884870 0.346839
O O4 0.289773 0.951257 0.108924
O O5 0.822129 0.444162 0.103722
O O6 0.697472 0.593313 0.103485
O O7 0.836124 0.592918 0.895618
O O8 0.140631 0.750000 0.791310
O O9 0.127034 0.922579 0.618885
O O10 0.012574 0.883021 0.844243
O O11 0.530094 0.950518 0.209761
O O12 0.500000 0.000000 0.500000
O O13 0.395574 0.090197 0.328004
O O14 0.911586 0.954973 0.632700
O O15 0.761302 0.944383 0.528673
O O16 0.908512 0.750000 0.728909
O O17 0.415683 0.250000 0.842228
O O18 0.361786 0.361587 0.619057
O O19 0.708551 0.750000 0.590689
#
# Coordination Sequence:
#
# PCOD9159983 Si02
#       8
#     4   4   4   4   4   4   4   4
#     4  10  21  37  58  82 115 156 190 233 289 349
#     4  11  22  38  58  83 120 156 197 237 289 355
#     4  11  22  38  58  84 117 154 199 247 296 349
#     4   9  19  35  56  83 112 143 186 232 284 334
#     4  10  19  36  59  85 113 148 196 245 291 343
#     4  10  22  38  58  84 117 154 195 248 301 350
#     4  10  19  34  57  80 111 149 188 233 282 341
#     4   9  17  32  55  83 114 144 181 231 285 340
#
# _framework density 19.286574000000002
#
# number of rings (size 3 to 8) (size 9 to 14) (size 15 to 20)
#    0.000    2.000    1.250    2.625    0.000    1.000 
#    0.000    1.875    0.000    6.000    0.000    0.000 
#    0.000    0.000    0.000    0.000    0.000    0.000 
#
# Total GULP energy -178372.934980 kJ/mol
# GULP energy per Si atom -5574.154218 kJ/mol
# Density = 1.924268 g / cm^3
# Si number density = 19.286574 Si / 1000 Ang^3
#
#
#
# Elastic Constant Matrix: (Units=GPa)
#
#
# Indices 1 2 3 4 5 6 
#
# 1 69.1684 25.3730 15.7784 0.0000 -8.0671 0.0000
# 2 25.3730 83.8218 22.7005 0.0000 -13.4182 0.0000
# 3 15.7784 22.7005 57.3267 0.0000 -2.0874 0.0000
# 4 0.0000 0.0000 0.0000 14.6444 0.0000 -1.0464
# 5 -8.0671 -13.4182 -2.0874 0.0000 25.7605 0.0000
# 6 0.0000 0.0000 0.0000 -1.0464 0.0000 21.8664
#
#
#
# Elastic Compliance Matrix: (Units=1/GPa)
#
#
# Indices 1 2 3 4 5 6 
#
# 1 0.016903 -0.003804 -0.003034 0.000000 0.003066 0.000000
# 2 -0.003804 0.015421 -0.004824 0.000000 0.006450 0.000000
# 3 -0.003034 -0.004824 0.020123 0.000000 -0.001833 0.000000
# 4 0.000000 0.000000 0.000000 0.068520 0.000000 0.003279
# 5 0.003066 0.006450 -0.001833 0.000000 0.042991 0.000000
# 6 0.000000 0.000000 0.000000 0.003279 0.000000 0.045889
#
#
# Mechanical properties :
#
#
# Convention : Reuss Voigt Hill
#
# Bulk Modulus (GPa) = 34.34000 37.55787 35.94893
# Shear Modulus (GPa) = 20.58649 22.21860 21.40254
#
# Velocity S-wave (km/s) = 3.27065 3.39783 3.33485
# Velocity P-wave (km/s) = 5.66628 5.90843 5.78862
#
# Compressibility (1/GPa) = 0.02912056
#
# Stress axis : x y z
#
# Youngs Moduli (GPa) = 59.16256 64.84819 49.69510
#
# Poissons Ratio (x) = 0.24668 0.15079
# Poissons Ratio (y) = 0.22505 0.23975
# Poissons Ratio (z) = 0.17952 0.31286
#
# Static dielectric constant tensor:
#      x y z
#    x 1.692240 0.000000 0.018650 
#    y 0.000000 1.667460 0.000000 
#    z 0.018650 0.000000 1.669950 
# 
# From -- ./inp_files/21517.got.cif
#   From: 2010.05.17/outbox.cif.g08.bks.cpg/sg11_11_cif.got.tgz:21517.got - 2010.06.03 12:22:45.
