data_PCOD9159426
_publ_section_title
;
Structure prediction by ZEFSAII (Michael W. Deem and Ramdas Pophale) SiO2 
 PCOD9159426
Probable space group: P 21/M
;
_chemical_formula_sum "Si O2"
_cell_formula_units_Z 32
_cell_length_a 12.152111
_cell_length_b 7.546755
_cell_length_c 28.923368
_cell_angle_alpha 90.000000
_cell_angle_beta 31.385401
_cell_angle_gamma 90.000000
_cell_volume 1381.418458
_symmetry_space_group_name_H-M "P 21/M"
_symmetry_group_IT_number 11
_symmetry_cell_setting 'monoclinic'
loop_
_space_group_symop_operation_xyz
x,y,z
-x,1/2+y,-z
-x,-y,-z
x,1/2-y,z
loop_
_atom_site_type_symbol
_atom_site_label
_atom_site_fract_x
_atom_site_fract_y
_atom_site_fract_z
Si Si1 0.580966 0.467440 0.854221
Si Si2 0.651389 0.460746 0.402138
Si Si3 0.369935 0.961591 0.346744
Si Si4 0.067846 0.544819 0.206102
Si Si5 0.834464 0.957437 0.199943
Si Si6 0.901127 0.961199 0.985121
Si Si7 0.844033 0.466874 0.670779
Si Si8 0.725112 0.538062 0.520392
O O1 0.580000 0.250000 0.855158
O O2 0.715692 0.529251 0.850263
O O3 0.339803 0.525781 0.934844
O O4 0.715060 0.523542 0.761462
O O5 0.500000 0.500000 0.500000
O O6 0.679381 0.250000 0.389798
O O7 0.503756 0.528527 0.413003
O O8 0.883848 0.538876 0.311438
O O9 0.387847 0.750000 0.334570
O O10 0.602577 0.035938 0.274182
O O11 0.271144 0.027368 0.334719
O O12 0.233584 0.995983 0.441289
O O13 0.113420 0.750000 0.179416
O O14 0.966171 0.465159 0.195961
O O15 0.802692 0.750000 0.222521
O O16 0.959693 0.968513 0.107026
O O17 0.896831 0.750000 0.982155
O O18 0.000000 0.000000 0.000000
O O19 0.846773 0.250000 0.670134
O O20 0.086417 0.526953 0.579811
O O21 0.718020 0.750000 0.518114
#
# Coordination Sequence:
#
# PCOD9159426 Si02
#       8
#     4   4   4   4   4   4   4   4
#     4   9  19  37  60  84 113 150 193 238 294 356
#     4  11  22  35  54  80 115 157 201 247 293 343
#     4  10  19  33  54  79 110 149 189 232 283 339
#     4  10  20  38  62  85 114 154 198 242 294 353
#     4  10  21  37  59  87 119 155 194 242 296 350
#     4  11  23  40  64  91 118 152 194 241 295 356
#     4   9  17  31  52  77 108 146 188 234 284 339
#     4  10  20  33  51  78 109 144 187 235 285 336
#
# _framework density 23.164594999999998
#
# number of rings (size 3 to 8) (size 9 to 14) (size 15 to 20)
#    0.000    2.000    1.250    2.625    0.000    6.000 
#    0.000    1.250    0.000    2.250    0.000    0.000 
#    0.000    0.000    0.000    0.000    0.000    0.000 
#
# Total GULP energy -178810.323489 kJ/mol
# GULP energy per Si atom -5587.822609 kJ/mol
# Density = 2.311187 g / cm^3
# Si number density = 23.164595 Si / 1000 Ang^3
#
#
#
# Elastic Constant Matrix: (Units=GPa)
#
#
# Indices 1 2 3 4 5 6 
#
# 1 75.7924 -2.7938 26.3856 0.0000 -10.5938 0.0000
# 2 -2.7938 64.0486 -10.8176 0.0000 -7.4724 0.0000
# 3 26.3856 -10.8176 100.7610 0.0000 -11.5747 0.0000
# 4 0.0000 0.0000 0.0000 19.2416 0.0000 9.7266
# 5 -10.5938 -7.4724 -11.5747 0.0000 42.4094 0.0000
# 6 0.0000 0.0000 0.0000 9.7266 0.0000 7.5018
#
#
#
# Elastic Compliance Matrix: (Units=1/GPa)
#
#
# Indices 1 2 3 4 5 6 
#
# 1 0.014826 0.000380 -0.003519 0.000000 0.002810 0.000000
# 2 0.000380 0.016393 0.002068 0.000000 0.003548 0.000000
# 3 -0.003519 0.002068 0.011365 0.000000 0.002587 0.000000
# 4 0.000000 0.000000 0.000000 0.150818 0.000000 -0.195545
# 5 0.002810 0.003548 0.002587 0.000000 0.025613 0.000000
# 6 0.000000 0.000000 0.000000 -0.195545 0.000000 0.386837
#
#
# Mechanical properties :
#
#
# Convention : Reuss Voigt Hill
#
# Bulk Modulus (GPa) = 24.72642 29.57227 27.14934
# Shear Modulus (GPa) = 8.04539 29.01909 18.53224
#
# Velocity S-wave (km/s) = 1.86566 3.54324 2.83154
# Velocity P-wave (km/s) = 3.91642 5.43445 4.73664
#
# Compressibility (1/GPa) = 0.04044257
#
# Stress axis : x y z
#
# Youngs Moduli (GPa) = 67.45057 61.00207 87.98870
#
# Poissons Ratio (x) = -0.02320 0.30960
# Poissons Ratio (y) = -0.02565 -0.18195
# Poissons Ratio (z) = 0.23734 -0.12615
#
# Static dielectric constant tensor:
#      x y z
#    x 1.903800 0.000000 -0.020810 
#    y 0.000000 1.861730 0.000000 
#    z -0.020810 0.000000 1.850670 
# 
# From -- ./inp_files/45364.got.cif
#   From: 2010.05.17/outbox.cif.g08.bks.cpg/sg11_23_cif.got.tgz:45364.got - 2010.06.03 12:22:45.
