data_PCOD9159157
_publ_section_title
;
Structure prediction by ZEFSAII (Michael W. Deem and Ramdas Pophale) SiO2 
 PCOD9159157
Probable space group: P 21/M
;
_chemical_formula_sum "Si O2"
_cell_formula_units_Z 32
_cell_length_a 19.760583
_cell_length_b 9.025368
_cell_length_c 11.438653
_cell_angle_alpha 90.000000
_cell_angle_beta 54.954812
_cell_angle_gamma 90.000000
_cell_volume 1670.182933
_symmetry_space_group_name_H-M "P 21/M"
_symmetry_group_IT_number 11
_symmetry_cell_setting 'monoclinic'
loop_
_space_group_symop_operation_xyz
x,y,z
-x,1/2+y,-z
-x,-y,-z
x,1/2-y,z
loop_
_atom_site_type_symbol
_atom_site_label
_atom_site_fract_x
_atom_site_fract_y
_atom_site_fract_z
Si Si1 0.253114 0.922044 0.671146
Si Si2 0.713137 0.574494 0.603306
Si Si3 0.411801 0.927596 0.112886
Si Si4 0.670764 0.069940 0.045926
Si Si5 0.883678 0.572976 0.550516
Si Si6 0.573824 0.078355 0.360411
Si Si7 0.035391 0.073205 0.282271
Si Si8 0.838919 0.428729 0.006124
O O1 0.238531 0.750000 0.652477
O O2 0.341805 0.927829 0.648303
O O3 0.258762 0.022762 0.552343
O O4 0.185967 0.965432 0.835985
O O5 0.698432 0.750000 0.620560
O O6 0.632157 0.489588 0.728017
O O7 0.789642 0.537953 0.613082
O O8 0.418680 0.750000 0.110814
O O9 0.353493 0.970074 0.060627
O O10 0.500000 0.000000 0.000000
O O11 0.670992 0.250000 0.053275
O O12 0.600733 0.017206 0.206911
O O13 0.760379 0.022728 0.004000
O O14 0.895220 0.750000 0.526517
O O15 0.910454 0.532969 0.655691
O O16 0.945419 0.490943 0.400802
O O17 0.550661 0.250000 0.368641
O O18 0.500000 0.000000 0.500000
O O19 0.032506 0.250000 0.275240
O O20 0.079884 0.002509 0.126783
O O21 0.844902 0.250000 0.992985
#
# Coordination Sequence:
#
# PCOD9159157 Si02
#       8
#     4   4   4   4   4   4   4   4
#     4   9  20  37  55  78 108 144 185 226 272 328
#     4  11  23  39  58  79 110 148 185 226 273 326
#     4  11  23  38  56  80 110 144 182 224 272 328
#     4   8  17  34  54  75 102 137 177 217 263 324
#     4   9  20  37  55  81 114 148 182 221 272 327
#     4   9  18  33  53  77 102 132 175 224 272 317
#     4  10  19  32  56  87 115 139 177 228 273 324
#     4   9  17  34  58  80 107 143 180 223 275 324
#
# _framework density 19.159576999999999
#
# number of rings (size 3 to 8) (size 9 to 14) (size 15 to 20)
#    0.000    2.500    0.000    3.375    1.750    2.500 
#    0.000    3.750    0.000    0.000    0.000    0.000 
#    0.000    0.000    0.000    0.000    0.000    0.000 
#
# Total GULP energy -178583.765750 kJ/mol
# GULP energy per Si atom -5580.742680 kJ/mol
# Density = 1.911597 g / cm^3
# Si number density = 19.159577 Si / 1000 Ang^3
#
#
#
# Elastic Constant Matrix: (Units=GPa)
#
#
# Indices 1 2 3 4 5 6 
#
# 1 23.4225 23.0702 22.9192 0.0000 -1.5194 0.0000
# 2 23.0702 38.2003 49.2012 0.0000 -9.2911 0.0000
# 3 22.9192 49.2012 141.9878 0.0000 -19.8931 0.0000
# 4 0.0000 0.0000 0.0000 33.2106 0.0000 -1.2725
# 5 -1.5194 -9.2911 -19.8931 0.0000 23.4128 0.0000
# 6 0.0000 0.0000 0.0000 -1.2725 0.0000 21.4258
#
#
#
# Elastic Compliance Matrix: (Units=1/GPa)
#
#
# Indices 1 2 3 4 5 6 
#
# 1 0.120014 -0.088117 0.008347 0.000000 -0.020087 0.000000
# 2 -0.088117 0.112607 -0.021950 0.000000 0.020318 0.000000
# 3 0.008347 -0.021950 0.013800 0.000000 0.003556 0.000000
# 4 0.000000 0.000000 0.000000 0.030180 0.000000 0.001792
# 5 -0.020087 0.020318 0.003556 0.000000 0.052493 0.000000
# 6 0.000000 0.000000 0.000000 0.001792 0.000000 0.046779
#
#
# Mechanical properties :
#
#
# Convention : Reuss Voigt Hill
#
# Bulk Modulus (GPa) = 23.26554 43.77688 33.52121
# Shear Modulus (GPa) = 8.42263 22.83784 15.63024
#
# Velocity S-wave (km/s) = 2.09895 3.45625 2.85931
# Velocity P-wave (km/s) = 4.24777 6.23103 5.33241
#
# Compressibility (1/GPa) = 0.04298202
#
# Stress axis : x y z
#
# Youngs Moduli (GPa) = 8.33235 8.88044 72.46491
#
# Poissons Ratio (x) = 0.78252 -0.60489
# Poissons Ratio (y) = 0.73422 1.59061
# Poissons Ratio (z) = -0.06955 0.19493
#
# Static dielectric constant tensor:
#      x y z
#    x 1.676560 0.000000 0.019760 
#    y 0.000000 1.542660 0.000000 
#    z 0.019760 0.000000 1.665460 
# 
# From -- ./inp_files/42805.got.cif
#   From: 2010.05.17/outbox.cif.g08.bks.cpg/sg11_22_cif.got.tgz:42805.got - 2010.06.03 12:22:45.
