data_PCOD9159385
_publ_section_title
;
Structure prediction by ZEFSAII (Michael W. Deem and Ramdas Pophale) SiO2 
 PCOD9159385
Probable space group: P 21/M
;
_chemical_formula_sum "Si O2"
_cell_formula_units_Z 32
_cell_length_a 12.795000
_cell_length_b 11.988546
_cell_length_c 23.814437
_cell_angle_alpha 90.000000
_cell_angle_beta 152.923180
_cell_angle_gamma 90.000000
_cell_volume 1662.780018
_symmetry_space_group_name_H-M "P 21/M"
_symmetry_group_IT_number 11
_symmetry_cell_setting 'monoclinic'
loop_
_space_group_symop_operation_xyz
x,y,z
-x,1/2+y,-z
-x,-y,-z
x,1/2-y,z
loop_
_atom_site_type_symbol
_atom_site_label
_atom_site_fract_x
_atom_site_fract_y
_atom_site_fract_z
Si Si1 0.169677 0.625645 0.753823
Si Si2 0.962530 0.127747 0.107035
Si Si3 0.178898 0.122010 0.633953
Si Si4 0.872346 0.877863 0.930905
Si Si5 0.138775 0.043245 0.306142
Si Si6 0.436871 0.031514 0.125345
Si Si7 0.484317 0.879653 0.424737
Si Si8 0.184104 0.053190 0.508720
O O1 0.149442 0.750000 0.767858
O O2 0.422266 0.600493 0.852962
O O3 0.076923 0.538200 0.755150
O O4 0.001644 0.616523 0.619433
O O5 0.851676 0.250000 0.050024
O O6 0.151142 0.122877 0.147521
O O7 0.071148 0.112096 0.219346
O O8 0.773610 0.034298 0.003355
O O9 0.182332 0.250000 0.651424
O O10 0.383390 0.055560 0.761957
O O11 0.211688 0.108957 0.582550
O O12 0.938567 0.064450 0.536793
O O13 0.970992 0.750000 0.990558
O O14 0.657385 0.892601 0.868982
O O15 0.000000 0.000000 0.000000
O O16 0.333599 0.101031 0.437766
O O17 0.247728 0.930114 0.334248
O O18 0.469422 0.750000 0.403590
O O19 0.587479 0.944317 0.419945
#
# Coordination Sequence:
#
# PCOD9159385 Si02
#       8
#     4   4   4   4   4   4   4   4
#     4  10  19  36  57  78 107 145 182 228 277 327
#     4  10  20  37  56  79 114 146 181 229 280 334
#     4  10  19  33  53  82 115 147 184 228 280 336
#     4   9  19  36  56  80 111 148 189 234 280 334
#     4  10  21  36  58  81 107 140 188 224 276 337
#     4  10  21  34  55  82 113 148 189 225 273 339
#     4  10  20  38  59  81 107 141 183 233 284 331
#     4   9  19  34  55  79 110 142 185 226 277 338
#
# _framework density 19.244879999999998
#
# number of rings (size 3 to 8) (size 9 to 14) (size 15 to 20)
#    0.000    2.250    0.000    3.750    1.750    1.000 
#    0.000   15.625    0.000    0.000    0.000    0.000 
#    0.000    0.000    0.000    0.000    0.000    0.000 
#
# Total GULP energy -178195.794705 kJ/mol
# GULP energy per Si atom -5568.618585 kJ/mol
# Density = 1.920108 g / cm^3
# Si number density = 19.244880 Si / 1000 Ang^3
#
#
#
# Elastic Constant Matrix: (Units=GPa)
#
#
# Indices 1 2 3 4 5 6 
#
# 1 139.6702 31.7057 33.3838 0.0000 12.4270 0.0000
# 2 31.7057 92.6207 18.6282 0.0000 4.3919 0.0000
# 3 33.3838 18.6282 21.1965 0.0000 5.8715 0.0000
# 4 0.0000 0.0000 0.0000 16.2781 0.0000 -0.3239
# 5 12.4270 4.3919 5.8715 0.0000 29.8077 0.0000
# 6 0.0000 0.0000 0.0000 -0.3239 0.0000 16.3003
#
#
#
# Elastic Compliance Matrix: (Units=1/GPa)
#
#
# Indices 1 2 3 4 5 6 
#
# 1 0.011540 -0.000371 -0.017485 0.000000 -0.001312 0.000000
# 2 -0.000371 0.013130 -0.011065 0.000000 0.000400 0.000000
# 3 -0.017485 -0.011065 0.086701 0.000000 -0.008158 0.000000
# 4 0.000000 0.000000 0.000000 0.061457 0.000000 0.001221
# 5 -0.001312 0.000400 -0.008158 0.000000 0.035644 0.000000
# 6 0.000000 0.000000 0.000000 0.001221 0.000000 0.061373
#
#
# Mechanical properties :
#
#
# Convention : Reuss Voigt Hill
#
# Bulk Modulus (GPa) = 18.68211 46.76921 32.72566
# Shear Modulus (GPa) = 14.47051 23.79521 19.13286
#
# Velocity S-wave (km/s) = 2.74508 3.52012 3.15648
# Velocity P-wave (km/s) = 4.44701 6.39348 5.50693
#
# Compressibility (1/GPa) = 0.05352715
#
# Stress axis : x y z
#
# Youngs Moduli (GPa) = 86.65427 76.15920 11.53394
#
# Poissons Ratio (x) = 0.02829 0.20168
# Poissons Ratio (y) = 0.03219 0.12763
# Poissons Ratio (z) = 1.51518 0.84272
#
# Static dielectric constant tensor:
#      x y z
#    x 1.679770 0.000000 0.027750 
#    y 0.000000 1.703810 0.000000 
#    z 0.027750 0.000000 1.670410 
# 
# From -- ./inp_files/44248.got.cif
#   From: 2010.05.17/outbox.cif.g08.bks.cpg/sg11_23_cif.got.tgz:44248.got - 2010.06.03 12:22:45.
