data_PCOD9159476
_publ_section_title
;
Structure prediction by ZEFSAII (Michael W. Deem and Ramdas Pophale) SiO2 
 PCOD9159476
Probable space group: P 21/M
;
_chemical_formula_sum "Si O2"
_cell_formula_units_Z 28
_cell_length_a 12.577589
_cell_length_b 8.924321
_cell_length_c 15.249821
_cell_angle_alpha 90.000000
_cell_angle_beta 121.505792
_cell_angle_gamma 90.000000
_cell_volume 1459.406272
_symmetry_space_group_name_H-M "P 21/M"
_symmetry_group_IT_number 11
_symmetry_cell_setting 'monoclinic'
loop_
_space_group_symop_operation_xyz
x,y,z
-x,1/2+y,-z
-x,-y,-z
x,1/2-y,z
loop_
_atom_site_type_symbol
_atom_site_label
_atom_site_fract_x
_atom_site_fract_y
_atom_site_fract_z
Si Si1 0.793857 0.082376 0.075200
Si Si2 0.013377 0.579270 0.098040
Si Si3 0.383058 0.069245 0.501831
Si Si4 0.876956 0.431720 0.674362
Si Si5 0.877091 0.424170 0.304286
Si Si6 0.516606 0.077755 0.914339
Si Si7 0.664036 0.569444 0.317411
O O1 0.849548 0.250000 0.082671
O O2 0.789335 0.071356 0.178830
O O3 0.878517 0.945871 0.082629
O O4 0.665351 0.075789 0.967787
O O5 0.046283 0.750000 0.096849
O O6 0.101525 0.521660 0.214341
O O7 0.000000 0.500000 0.000000
O O8 0.383688 0.250000 0.492715
O O9 0.383216 0.032459 0.605783
O O10 0.500000 0.000000 0.500000
O O11 0.253103 0.000337 0.412003
O O12 0.877304 0.250000 0.670129
O O13 0.994252 0.494631 0.668430
O O14 0.903064 0.250000 0.334792
O O15 0.796629 0.498790 0.346696
O O16 0.477539 0.250000 0.908870
O O17 0.438121 0.018840 0.798740
O O18 0.500000 0.000000 0.000000
O O19 0.676268 0.750000 0.318767
#
# Coordination Sequence:
#
# PCOD9159476 Si02
#       7
#     4   4   4   4   4   4   4
#     4   9  18  32  51  80 118 155 189 233 288 346
#     4  10  21  36  57  85 115 150 194 242 294 354
#     4  11  25  45  65  88 119 158 206 256 303 356
#     4  10  22  41  64  88 118 158 199 247 305 359
#     4  10  19  34  59  91 122 152 194 244 297 358
#     4  10  19  33  54  83 119 156 190 231 286 347
#     4  10  22  38  59  87 122 161 201 247 303 361
#
# _framework density 19.185886
#
# number of rings (size 3 to 8) (size 9 to 14) (size 15 to 20)
#    0.000    2.000    1.429    1.714    0.000    5.714 
#    0.000    2.857    0.000    0.000    0.000    0.000 
#    0.000    0.000    0.000    0.000    0.000    0.000 
#
# Total GULP energy -156052.464152 kJ/mol
# GULP energy per Si atom -5573.302291 kJ/mol
# Density = 1.914222 g / cm^3
# Si number density = 19.185886 Si / 1000 Ang^3
#
#
#
# Elastic Constant Matrix: (Units=GPa)
#
#
# Indices 1 2 3 4 5 6 
#
# 1 112.9397 43.4462 80.1639 0.0000 -5.2155 0.0000
# 2 43.4462 47.5295 54.5134 0.0000 -3.0486 0.0000
# 3 80.1639 54.5134 138.3087 0.0000 -0.9510 0.0000
# 4 0.0000 0.0000 0.0000 25.2045 0.0000 -2.1862
# 5 -5.2155 -3.0486 -0.9510 0.0000 32.4829 0.0000
# 6 0.0000 0.0000 0.0000 -2.1862 0.0000 36.0190
#
#
#
# Elastic Compliance Matrix: (Units=1/GPa)
#
#
# Indices 1 2 3 4 5 6 
#
# 1 0.016470 -0.007313 -0.006652 0.000000 0.001763 0.000000
# 2 -0.007313 0.041972 -0.012288 0.000000 0.002405 0.000000
# 3 -0.006652 -0.012288 0.015917 0.000000 -0.001755 0.000000
# 4 0.000000 0.000000 0.000000 0.039885 0.000000 0.002421
# 5 0.001763 0.002405 -0.001755 0.000000 0.031243 0.000000
# 6 0.000000 0.000000 0.000000 0.002421 0.000000 0.027910
#
#
# Mechanical properties :
#
#
# Convention : Reuss Voigt Hill
#
# Bulk Modulus (GPa) = 45.75865 72.78053 59.26959
# Shear Modulus (GPa) = 21.44205 26.78492 24.11348
#
# Velocity S-wave (km/s) = 3.34667 3.74046 3.54903
# Velocity P-wave (km/s) = 6.23182 7.52805 6.91039
#
# Compressibility (1/GPa) = 0.02185379
#
# Stress axis : x y z
#
# Youngs Moduli (GPa) = 60.71558 23.82541 62.82779
#
# Poissons Ratio (x) = 0.17424 0.41791
# Poissons Ratio (y) = 0.44402 0.77201
# Poissons Ratio (z) = 0.40386 0.29276
#
# Static dielectric constant tensor:
#      x y z
#    x 1.690120 0.000000 -0.012250 
#    y 0.000000 1.643520 0.000000 
#    z -0.012250 0.000000 1.711240 
# 
# From -- ./inp_files/49475.got.cif
#   From: 2010.05.17/outbox.cif.g08.bks.cpg/sg11_25_cif.got.tgz:49475.got - 2010.06.03 12:22:45.
