data_PCOD9159694
_publ_section_title
;
Structure prediction by ZEFSAII (Michael W. Deem and Ramdas Pophale) SiO2 
 PCOD9159694
Probable space group: P 21/M
;
_chemical_formula_sum "Si O2"
_cell_formula_units_Z 24
_cell_length_a 15.305020
_cell_length_b 8.664258
_cell_length_c 15.447962
_cell_angle_alpha 90.000000
_cell_angle_beta 39.789778
_cell_angle_gamma 90.000000
_cell_volume 1310.985430
_symmetry_space_group_name_H-M "P 21/M"
_symmetry_group_IT_number 11
_symmetry_cell_setting 'monoclinic'
loop_
_space_group_symop_operation_xyz
x,y,z
-x,1/2+y,-z
-x,-y,-z
x,1/2-y,z
loop_
_atom_site_type_symbol
_atom_site_label
_atom_site_fract_x
_atom_site_fract_y
_atom_site_fract_z
Si Si1 0.910053 0.564614 0.887228
Si Si2 0.304239 0.435753 0.095228
Si Si3 0.408441 0.435667 0.376202
Si Si4 0.396045 0.565712 0.200096
Si Si5 0.719170 0.064683 0.182533
Si Si6 0.790178 0.935211 0.316463
O O1 0.923735 0.750000 0.877661
O O2 0.819839 0.518896 0.872375
O O3 0.057492 0.487284 0.775799
O O4 0.825693 0.511825 0.035682
O O5 0.305992 0.250000 0.099718
O O6 0.304356 0.504307 0.191192
O O7 0.448004 0.484483 0.941645
O O8 0.405281 0.250000 0.373725
O O9 0.360393 0.502386 0.321327
O O10 0.565289 0.482444 0.273772
O O11 0.313711 0.483087 0.528437
O O12 0.392929 0.750000 0.203400
O O13 0.730006 0.250000 0.168184
O O14 0.749302 0.011566 0.256863
O O15 0.784391 0.750000 0.311914
#
# Coordination Sequence:
#
# PCOD9159694 Si02
#       6
#     4   4   4   4   4   4
#     4  11  22  39  60  85 116 151 190 234 282 335
#     4   9  19  35  56  84 115 146 183 232 283 332
#     4  10  22  39  59  84 116 151 189 234 284 336
#     4  10  19  33  58  88 114 144 185 234 283 334
#     4  11  22  38  61  86 111 149 194 237 283 334
#     4  11  24  40  57  82 117 154 190 234 284 336
#
# _framework density 18.306840999999999
#
# number of rings (size 3 to 8) (size 9 to 14) (size 15 to 20)
#    0.000    1.667    1.667    3.000    0.000    4.000 
#    0.000    0.833    0.000    0.000    0.000    0.000 
#    0.000    0.000    0.000    0.000    0.000    0.000 
#
# Total GULP energy -134108.027225 kJ/mol
# GULP energy per Si atom -5587.834468 kJ/mol
# Density = 1.826517 g / cm^3
# Si number density = 18.306841 Si / 1000 Ang^3
#
#
#
# Elastic Constant Matrix: (Units=GPa)
#
#
# Indices 1 2 3 4 5 6 
#
# 1 80.5437 0.9241 4.1774 0.0000 22.2172 0.0000
# 2 0.9241 9.5334 -11.4270 0.0000 -4.5950 0.0000
# 3 4.1774 -11.4270 2.6735 0.0000 -29.5297 0.0000
# 4 0.0000 0.0000 0.0000 20.1112 0.0000 5.7092
# 5 22.2172 -4.5950 -29.5297 0.0000 4.5879 0.0000
# 6 0.0000 0.0000 0.0000 5.7092 0.0000 14.2995
#
#
#
# Elastic Compliance Matrix: (Units=1/GPa)
#
#
# Indices 1 2 3 4 5 6 
#
# 1 0.012094 0.007853 0.007780 0.000000 -0.000624 0.000000
# 2 0.007853 0.077027 -0.010686 0.000000 -0.029663 0.000000
# 3 0.007780 -0.010686 0.003112 0.000000 -0.028347 0.000000
# 4 0.000000 0.000000 0.000000 0.056080 0.000000 -0.022390
# 5 -0.000624 -0.029663 -0.028347 0.000000 0.008824 0.000000
# 6 0.000000 0.000000 0.000000 -0.022390 0.000000 0.078872
#
#
# Mechanical properties :
#
#
# Convention : Reuss Voigt Hill
#
# Bulk Modulus (GPa) = 9.79174 8.89994 9.34584
# Shear Modulus (GPa) = 19.21910 14.40480 16.81195
#
# Velocity S-wave (km/s) = 3.24363 2.80813 3.03370
# Velocity P-wave (km/s) = 4.40323 3.92253 4.16981
#
# Compressibility (1/GPa) = 0.10212686
#
# Stress axis : x y z
#
# Youngs Moduli (GPa) = 82.68567 12.98250 321.29173
#
# Poissons Ratio (x) = -0.10195 -2.49974
# Poissons Ratio (y) = -0.64932 3.43344
# Poissons Ratio (z) = -0.64332 0.13874
#
# Static dielectric constant tensor:
#      x y z
#    x 1.613930 0.000000 -0.004990 
#    y 0.000000 1.611690 0.000000 
#    z -0.004990 0.000000 1.605740 
# 
# From -- ./inp_files/51497.got.cif
#   From: 2010.05.17/outbox.cif.g08.bks.cpg/sg11_26_cif.got.tgz:51497.got - 2010.06.03 12:22:45.
