data_PCOD9159156
_publ_section_title
;
Structure prediction by ZEFSAII (Michael W. Deem and Ramdas Pophale) SiO2 
 PCOD9159156
Probable space group: P 21/M
;
_chemical_formula_sum "Si O2"
_cell_formula_units_Z 32
_cell_length_a 16.615896
_cell_length_b 8.816873
_cell_length_c 12.449349
_cell_angle_alpha 90.000000
_cell_angle_beta 88.902703
_cell_angle_gamma 90.000000
_cell_volume 1823.498216
_symmetry_space_group_name_H-M "P 21/M"
_symmetry_group_IT_number 11
_symmetry_cell_setting 'monoclinic'
loop_
_space_group_symop_operation_xyz
x,y,z
-x,1/2+y,-z
-x,-y,-z
x,1/2-y,z
loop_
_atom_site_type_symbol
_atom_site_label
_atom_site_fract_x
_atom_site_fract_y
_atom_site_fract_z
Si Si1 0.128414 0.068931 0.989777
Si Si2 0.776330 0.432242 0.369239
Si Si3 0.720951 0.432283 0.130101
Si Si4 0.629065 0.930971 0.491863
Si Si5 0.962888 0.432431 0.392898
Si Si6 0.516504 0.432074 0.663986
Si Si7 0.544516 0.932345 0.101414
Si Si8 0.981846 0.068872 0.830037
O O1 0.136477 0.250000 0.998149
O O2 0.062508 0.036080 0.897915
O O3 0.211628 0.993602 0.952705
O O4 0.090948 0.001060 0.099350
O O5 0.771498 0.250000 0.375730
O O6 0.748455 0.477111 0.250009
O O7 0.714396 0.502316 0.455403
O O8 0.868688 0.476562 0.385784
O O9 0.717220 0.250000 0.125217
O O10 0.634394 0.502739 0.108173
O O11 0.633038 0.750000 0.494360
O O12 0.563268 0.975961 0.402187
O O13 0.592164 0.992839 0.603408
O O14 0.967669 0.250000 0.393626
O O15 0.007519 0.496322 0.286714
O O16 0.000000 0.500000 0.500000
O O17 0.524145 0.250000 0.656406
O O18 0.502182 0.474201 0.787513
O O19 0.547482 0.750000 0.095408
O O20 0.500000 0.000000 0.000000
O O21 0.973237 0.250000 0.822679
#
# Coordination Sequence:
#
# PCOD9159156 Si02
#       8
#     4   4   4   4   4   4   4   4
#     4  10  20  34  57  87 118 150 189 240 288 339
#     4  10  21  36  57  84 116 149 188 235 284 337
#     4  11  21  36  59  87 116 150 192 239 287 339
#     4  10  19  32  56  86 113 143 186 234 280 332
#     4  11  23  40  59  84 117 155 195 237 289 348
#     4   9  19  35  54  80 115 149 183 228 282 334
#     4  11  23  40  59  84 117 154 193 235 286 346
#     4  10  20  35  57  85 117 153 191 235 290 345
#
# _framework density 17.548689
#
# number of rings (size 3 to 8) (size 9 to 14) (size 15 to 20)
#    0.000    1.750    2.500    2.250    0.000    4.000 
#    0.000    1.250    0.000    4.500    0.000    0.000 
#    0.000    0.000    0.000    0.000    0.000    0.000 
#
# Total GULP energy -178743.161623 kJ/mol
# GULP energy per Si atom -5585.723801 kJ/mol
# Density = 1.750875 g / cm^3
# Si number density = 17.548689 Si / 1000 Ang^3
#
#
#
# Elastic Constant Matrix: (Units=GPa)
#
#
# Indices 1 2 3 4 5 6 
#
# 1 129.8351 50.3024 97.0293 0.0000 -17.2866 0.0000
# 2 50.3024 50.8883 62.6522 0.0000 -5.8254 0.0000
# 3 97.0293 62.6522 167.0330 0.0000 -19.1108 0.0000
# 4 0.0000 0.0000 0.0000 30.8620 0.0000 -3.5684
# 5 -17.2866 -5.8254 -19.1108 0.0000 34.2635 0.0000
# 6 0.0000 0.0000 0.0000 -3.5684 0.0000 30.6966
#
#
#
# Elastic Compliance Matrix: (Units=1/GPa)
#
#
# Indices 1 2 3 4 5 6 
#
# 1 0.015400 -0.007982 -0.005574 0.000000 0.003304 0.000000
# 2 -0.007982 0.040724 -0.011010 0.000000 -0.003244 0.000000
# 3 -0.005574 -0.011010 0.013692 0.000000 0.002953 0.000000
# 4 0.000000 0.000000 0.000000 0.032844 0.000000 0.003818
# 5 0.003304 -0.003244 0.002953 0.000000 0.031948 0.000000
# 6 0.000000 0.000000 0.000000 0.003818 0.000000 0.033021
#
#
# Mechanical properties :
#
#
# Convention : Reuss Voigt Hill
#
# Bulk Modulus (GPa) = 48.34339 85.30269 66.82304
# Shear Modulus (GPa) = 22.35586 28.34927 25.35256
#
# Velocity S-wave (km/s) = 3.57309 4.02364 3.80504
# Velocity P-wave (km/s) = 6.68061 8.38457 7.58062
#
# Compressibility (1/GPa) = 0.02068535
#
# Stress axis : x y z
#
# Youngs Moduli (GPa) = 64.93525 24.55530 73.03469
#
# Poissons Ratio (x) = 0.19600 0.40708
# Poissons Ratio (y) = 0.51832 0.80408
# Poissons Ratio (z) = 0.36194 0.27034
#
# Static dielectric constant tensor:
#      x y z
#    x 1.575540 0.000000 -0.000570 
#    y 0.000000 1.583440 0.000000 
#    z -0.000570 0.000000 1.580890 
# 
# From -- ./inp_files/38108.got.cif
#   From: 2010.05.17/outbox.cif.g08.bks.cpg/sg11_20_cif.got.tgz:38108.got - 2010.06.03 12:22:45.
