data_PCOD9159460
_publ_section_title
;
Structure prediction by ZEFSAII (Michael W. Deem and Ramdas Pophale) SiO2 
 PCOD9159460
Probable space group: P 21/M
;
_chemical_formula_sum "Si O2"
_cell_formula_units_Z 32
_cell_length_a 21.733417
_cell_length_b 14.090466
_cell_length_c 15.470832
_cell_angle_alpha 90.000000
_cell_angle_beta 158.859744
_cell_angle_gamma 90.000000
_cell_volume 1708.659949
_symmetry_space_group_name_H-M "P 21/M"
_symmetry_group_IT_number 11
_symmetry_cell_setting 'monoclinic'
loop_
_space_group_symop_operation_xyz
x,y,z
-x,1/2+y,-z
-x,-y,-z
x,1/2-y,z
loop_
_atom_site_type_symbol
_atom_site_label
_atom_site_fract_x
_atom_site_fract_y
_atom_site_fract_z
Si Si1 0.902529 0.141015 0.859215
Si Si2 0.750878 0.353464 0.295140
Si Si3 0.087435 0.430856 0.684734
Si Si4 0.781140 0.060097 0.523497
Si Si5 0.402728 0.862185 0.218092
Si Si6 0.752249 0.953275 0.741603
Si Si7 0.122472 0.982999 0.922159
Si Si8 0.407013 0.517103 0.052125
O O1 0.885916 0.250000 0.865373
O O2 0.836206 0.127093 0.674300
O O3 0.796563 0.062438 0.774233
O O4 0.100490 0.107850 0.113336
O O5 0.671962 0.250000 0.182039
O O6 0.765681 0.382591 0.414249
O O7 0.942583 0.352391 0.506651
O O8 0.646053 0.433039 0.106476
O O9 0.104180 0.472657 0.803132
O O10 0.000000 0.500000 0.500000
O O11 0.281740 0.427283 0.906012
O O12 0.601582 0.012935 0.308402
O O13 0.930602 0.981226 0.707903
O O14 0.429372 0.750000 0.250673
O O15 0.567713 0.916440 0.472664
O O16 0.376029 0.905988 0.087452
O O17 0.236457 0.890247 0.056575
O O18 0.779218 0.950294 0.880305
#
# Coordination Sequence:
#
# PCOD9159460 Si02
#       8
#     4   4   4   4   4   4   4   4
#     4  10  20  35  56  82 110 146 189 233 285 341
#     4  10  19  33  54  82 110 143 187 233 279 338
#     4   8  17  34  57  78 104 141 180 220 279 333
#     4  10  19  36  57  79 112 148 185 234 289 335
#     4  11  21  36  56  81 112 150 193 233 279 341
#     4  10  20  36  55  79 113 150 186 236 288 329
#     4   9  20  35  56  78 108 147 183 228 283 336
#     4  10  19  35  57  81 108 151 186 227 284 339
#
# _framework density 18.728127000000001
#
# number of rings (size 3 to 8) (size 9 to 14) (size 15 to 20)
#    0.000    2.250    1.250    1.875    0.000    0.500 
#    0.000    3.125    0.000    0.750    0.000    0.000 
#    0.000    0.000    0.000    0.000    0.000    0.000 
#
# Total GULP energy -178197.709496 kJ/mol
# GULP energy per Si atom -5568.678422 kJ/mol
# Density = 1.868550 g / cm^3
# Si number density = 18.728127 Si / 1000 Ang^3
#
#
#
# Elastic Constant Matrix: (Units=GPa)
#
#
# Indices 1 2 3 4 5 6 
#
# 1 45.6793 -0.8034 4.2795 0.0000 -8.1933 0.0000
# 2 -0.8034 76.9168 6.0422 0.0000 14.0393 0.0000
# 3 4.2795 6.0422 69.4969 0.0000 9.0682 0.0000
# 4 0.0000 0.0000 0.0000 11.5061 0.0000 2.5353
# 5 -8.1933 14.0393 9.0682 0.0000 43.4771 0.0000
# 6 0.0000 0.0000 0.0000 2.5353 0.0000 13.9277
#
#
#
# Elastic Compliance Matrix: (Units=1/GPa)
#
#
# Indices 1 2 3 4 5 6 
#
# 1 0.022951 -0.000498 -0.002010 0.000000 0.004905 0.000000
# 2 -0.000498 0.013854 -0.000594 0.000000 -0.004443 0.000000
# 3 -0.002010 -0.000594 0.014997 0.000000 -0.003315 0.000000
# 4 0.000000 0.000000 0.000000 0.090542 0.000000 -0.016481
# 5 0.004905 -0.004443 -0.003315 0.000000 0.026051 0.000000
# 6 0.000000 0.000000 0.000000 -0.016481 0.000000 0.074799
#
#
# Mechanical properties :
#
#
# Convention : Reuss Voigt Hill
#
# Bulk Modulus (GPa) = 21.93064 23.45882 22.69473
# Shear Modulus (GPa) = 18.89667 25.95385 22.42526
#
# Velocity S-wave (km/s) = 3.17992 3.72670 3.46412
# Velocity P-wave (km/s) = 5.02175 5.57413 5.30513
#
# Compressibility (1/GPa) = 0.04559830
#
# Stress axis : x y z
#
# Youngs Moduli (GPa) = 43.57084 72.18362 66.67952
#
# Poissons Ratio (x) = 0.03592 0.13403
# Poissons Ratio (y) = 0.02168 0.03961
# Poissons Ratio (z) = 0.08758 0.04288
#
# Static dielectric constant tensor:
#      x y z
#    x 1.680020 0.000000 0.007230 
#    y 0.000000 1.639470 0.000000 
#    z 0.007230 0.000000 1.660140 
# 
# From -- ./inp_files/55028.got.cif
#   From: 2010.05.17/outbox.cif.g08.bks.cpg/sg11_28_cif.got.tgz:55028.got - 2010.06.03 12:22:45.
