data_PCOD9159088
_publ_section_title
;
Structure prediction by ZEFSAII (Michael W. Deem and Ramdas Pophale) SiO2 
 PCOD9159088
Probable space group: P 21/M
;
_chemical_formula_sum "Si O2"
_cell_formula_units_Z 28
_cell_length_a 22.116703
_cell_length_b 7.644601
_cell_length_c 17.497709
_cell_angle_alpha 90.000000
_cell_angle_beta 24.291649
_cell_angle_gamma 90.000000
_cell_volume 1217.029686
_symmetry_space_group_name_H-M "P 21/M"
_symmetry_group_IT_number 11
_symmetry_cell_setting 'monoclinic'
loop_
_space_group_symop_operation_xyz
x,y,z
-x,1/2+y,-z
-x,-y,-z
x,1/2-y,z
loop_
_atom_site_type_symbol
_atom_site_label
_atom_site_fract_x
_atom_site_fract_y
_atom_site_fract_z
Si Si1 0.230874 0.454102 0.501857
Si Si2 0.520303 0.054664 0.389269
Si Si3 0.973490 0.448049 0.897886
Si Si4 0.869240 0.453960 0.543726
Si Si5 0.454388 0.538340 0.800659
Si Si6 0.809611 0.958206 0.781540
Si Si7 0.801642 0.035219 0.229863
O O1 0.227448 0.250000 0.528841
O O2 0.078682 0.531623 0.712803
O O3 0.217713 0.462892 0.425988
O O4 0.386055 0.527117 0.353394
O O5 0.578925 0.250000 0.326415
O O6 0.589658 0.969777 0.233499
O O7 0.500000 0.000000 0.500000
O O8 0.348679 0.040448 0.564999
O O9 0.937238 0.250000 0.915772
O O10 0.080461 0.453344 0.848437
O O11 0.829825 0.519312 0.108182
O O12 0.879698 0.250000 0.512758
O O13 0.795483 0.473052 0.711579
O O14 0.035521 0.526061 0.362306
O O15 0.464358 0.750000 0.783122
O O16 0.327581 0.498995 0.007142
O O17 0.824949 0.750000 0.757531
O O18 0.802886 0.250000 0.232192
#
# Coordination Sequence:
#
# PCOD9159088 Si02
#       7
#     4   4   4   4   4   4   4
#     4  10  20  37  60  87 120 157 198 242 294 350
#     4  11  23  40  58  80 115 155 198 244 292 349
#     4   9  18  34  54  78 111 149 188 234 284 340
#     4  10  22  40  62  90 120 152 193 240 293 352
#     4  10  22  40  62  86 118 158 197 241 296 354
#     4  10  22  41  64  89 119 154 195 240 291 351
#     4  10  19  32  54  81 108 145 192 237 288 339
#
# _framework density 23.006833
#
# number of rings (size 3 to 8) (size 9 to 14) (size 15 to 20)
#    0.000    2.000    1.429    1.714    0.000    6.286 
#    0.000    4.286    0.000    0.000    0.000    0.000 
#    0.000    0.000    0.000    0.000    0.000    0.000 
#
# Total GULP energy -156029.709096 kJ/mol
# GULP energy per Si atom -5572.489611 kJ/mol
# Density = 2.295447 g / cm^3
# Si number density = 23.006833 Si / 1000 Ang^3
#
#
#
# Elastic Constant Matrix: (Units=GPa)
#
#
# Indices 1 2 3 4 5 6 
#
# 1 109.2346 2.0395 41.9546 0.0000 33.9506 0.0000
# 2 2.0395 65.8288 -6.0323 0.0000 -1.1928 0.0000
# 3 41.9546 -6.0323 140.2013 0.0000 29.6616 0.0000
# 4 0.0000 0.0000 0.0000 23.7293 0.0000 3.6915
# 5 33.9506 -1.1928 29.6616 0.0000 27.7389 0.0000
# 6 0.0000 0.0000 0.0000 3.6915 0.0000 19.2845
#
#
#
# Elastic Compliance Matrix: (Units=1/GPa)
#
#
# Indices 1 2 3 4 5 6 
#
# 1 0.014887 -0.000851 -0.000813 0.000000 -0.017388 0.000000
# 2 -0.000851 0.015300 0.000715 0.000000 0.000934 0.000000
# 3 -0.000813 0.000715 0.009292 0.000000 -0.008910 0.000000
# 4 0.000000 0.000000 0.000000 0.043435 0.000000 -0.008314
# 5 -0.017388 0.000934 -0.008910 0.000000 0.066901 0.000000
# 6 0.000000 0.000000 0.000000 -0.008314 0.000000 0.053447
#
#
# Mechanical properties :
#
#
# Convention : Reuss Voigt Hill
#
# Bulk Modulus (GPa) = 26.60866 43.46536 35.03701
# Shear Modulus (GPa) = 22.96899 32.63740 27.80320
#
# Velocity S-wave (km/s) = 3.16310 3.77051 3.48008
# Velocity P-wave (km/s) = 4.99309 6.15541 5.60446
#
# Compressibility (1/GPa) = 0.03758175
#
# Stress axis : x y z
#
# Youngs Moduli (GPa) = 67.17286 65.36052 107.62335
#
# Poissons Ratio (x) = 0.05561 0.08747
# Poissons Ratio (y) = 0.05715 -0.07697
# Poissons Ratio (z) = 0.05459 -0.04675
#
# Static dielectric constant tensor:
#      x y z
#    x 1.902470 0.000000 -0.034060 
#    y 0.000000 1.867790 0.000000 
#    z -0.034060 0.000000 1.974930 
# 
# From -- ./inp_files/54503.got.cif
#   From: 2010.05.17/outbox.cif.g08.bks.cpg/sg11_28_cif.got.tgz:54503.got - 2010.06.03 12:22:45.
