data_PCOD9159775
_publ_section_title
;
Structure prediction by ZEFSAII (Michael W. Deem and Ramdas Pophale) SiO2 
 PCOD9159775
Probable space group: P 21/M
;
_chemical_formula_sum "Si O2"
_cell_formula_units_Z 28
_cell_length_a 19.651944
_cell_length_b 8.646438
_cell_length_c 15.277110
_cell_angle_alpha 90.000000
_cell_angle_beta 142.560689
_cell_angle_gamma 90.000000
_cell_volume 1578.086928
_symmetry_space_group_name_H-M "P 21/M"
_symmetry_group_IT_number 11
_symmetry_cell_setting 'monoclinic'
loop_
_space_group_symop_operation_xyz
x,y,z
-x,1/2+y,-z
-x,-y,-z
x,1/2-y,z
loop_
_atom_site_type_symbol
_atom_site_label
_atom_site_fract_x
_atom_site_fract_y
_atom_site_fract_z
Si Si1 0.967856 0.936298 0.561377
Si Si2 0.260141 0.934072 0.280746
Si Si3 0.586795 0.936548 0.407108
Si Si4 0.769367 0.928160 0.469736
Si Si5 0.932724 0.572044 0.807364
Si Si6 0.657802 0.934343 0.819664
Si Si7 0.110929 0.065647 0.866121
O O1 0.964300 0.750000 0.556267
O O2 0.846474 0.996331 0.472091
O O3 0.056148 0.988136 0.725375
O O4 0.000000 0.000000 0.500000
O O5 0.261976 0.750000 0.273752
O O6 0.349080 0.987799 0.445345
O O7 0.137884 0.988323 0.189459
O O8 0.298102 0.013060 0.230062
O O9 0.599294 0.750000 0.426144
O O10 0.653127 0.992825 0.387795
O O11 0.458017 0.982572 0.277042
O O12 0.747703 0.750000 0.423268
O O13 0.849664 0.928200 0.637680
O O14 0.954550 0.750000 0.853290
O O15 0.043252 0.491853 0.882770
O O16 0.640257 0.750000 0.801196
O O17 0.758827 0.971533 0.988952
O O18 0.097556 0.250000 0.846328
#
# Coordination Sequence:
#
# PCOD9159775 Si02
#       7
#     4   4   4   4   4   4   4
#     4  10  19  34  58  85 110 132 160 203 255 312
#     4  11  21  33  51  74 100 135 181 224 261 303
#     4  10  19  34  54  74 100 136 179 220 258 301
#     4   7  14  29  50  75 100 128 160 201 250 296
#     4   9  17  32  52  73 101 134 170 215 262 306
#     4  11  23  36  49  70 103 140 177 219 263 306
#     4  10  21  36  53  75 104 137 172 210 259 316
#
# _framework density 17.743003000000002
#
# number of rings (size 3 to 8) (size 9 to 14) (size 15 to 20)
#    0.000    2.286    0.000    5.571    0.000    2.857 
#    0.000    2.143    0.000    0.857    0.000    0.000 
#    0.000    0.000    0.000    0.000    0.000    0.000 
#
# Total GULP energy -156203.859498 kJ/mol
# GULP energy per Si atom -5578.709268 kJ/mol
# Density = 1.770262 g / cm^3
# Si number density = 17.743003 Si / 1000 Ang^3
#
#
#
# Elastic Constant Matrix: (Units=GPa)
#
#
# Indices 1 2 3 4 5 6 
#
# 1 116.6426 0.6980 41.0695 0.0000 -1.3456 0.0000
# 2 0.6980 30.0307 12.9620 0.0000 -0.0192 0.0000
# 3 41.0695 12.9620 58.1335 0.0000 9.2252 0.0000
# 4 0.0000 0.0000 0.0000 18.8965 0.0000 2.9407
# 5 -1.3456 -0.0192 9.2252 0.0000 16.0647 0.0000
# 6 0.0000 0.0000 0.0000 2.9407 0.0000 29.4012
#
#
#
# Elastic Compliance Matrix: (Units=1/GPa)
#
#
# Indices 1 2 3 4 5 6 
#
# 1 0.012504 0.004461 -0.010997 0.000000 0.007368 0.000000
# 2 0.004461 0.038842 -0.013070 0.000000 0.007925 0.000000
# 3 -0.010997 -0.013070 0.030845 0.000000 -0.018649 0.000000
# 4 0.000000 0.000000 0.000000 0.053757 0.000000 -0.005377
# 5 0.007368 0.007925 -0.018649 0.000000 0.073584 0.000000
# 6 0.000000 0.000000 0.000000 -0.005377 0.000000 0.034550
#
#
# Mechanical properties :
#
#
# Convention : Reuss Voigt Hill
#
# Bulk Modulus (GPa) = 23.26779 34.91842 29.09310
# Shear Modulus (GPa) = 16.80002 22.87764 19.83883
#
# Velocity S-wave (km/s) = 3.08044 3.59470 3.34746
# Velocity P-wave (km/s) = 5.07882 6.07882 5.60118
#
# Compressibility (1/GPa) = 0.04297787
#
# Stress axis : x y z
#
# Youngs Moduli (GPa) = 79.97699 25.74547 32.42063
#
# Poissons Ratio (x) = -0.11484 0.35654
# Poissons Ratio (y) = -0.35676 0.42372
# Poissons Ratio (z) = 0.87952 0.33648
#
# Static dielectric constant tensor:
#      x y z
#    x 1.620640 0.000000 0.021910 
#    y 0.000000 1.609330 0.000000 
#    z 0.021910 0.000000 1.607190 
# 
# From -- ./inp_files/53274.got.cif
#   From: 2010.05.17/outbox.cif.g08.bks.cpg/sg11_27_cif.got.tgz:53274.got - 2010.06.03 12:22:45.
