data_PCOD9159013
_publ_section_title
;
Structure prediction by ZEFSAII (Michael W. Deem and Ramdas Pophale) SiO2 
 PCOD9159013
Probable space group: P 21/M
;
_chemical_formula_sum "Si O2"
_cell_formula_units_Z 32
_cell_length_a 14.694944
_cell_length_b 14.093340
_cell_length_c 7.844068
_cell_angle_alpha 90.000000
_cell_angle_beta 84.752444
_cell_angle_gamma 90.000000
_cell_volume 1617.704477
_symmetry_space_group_name_H-M "P 21/M"
_symmetry_group_IT_number 11
_symmetry_cell_setting 'monoclinic'
loop_
_space_group_symop_operation_xyz
x,y,z
-x,1/2+y,-z
-x,-y,-z
x,1/2-y,z
loop_
_atom_site_type_symbol
_atom_site_label
_atom_site_fract_x
_atom_site_fract_y
_atom_site_fract_z
Si Si1 0.520305 0.549942 0.722824
Si Si2 0.353619 0.941294 0.525842
Si Si3 0.987736 0.357624 0.177104
Si Si4 0.963915 0.643416 0.222258
Si Si5 0.279494 0.643366 0.201846
Si Si6 0.170586 0.507285 0.678293
Si Si7 0.484920 0.640291 0.077943
Si Si8 0.881215 0.013174 0.700913
O O1 0.610819 0.528926 0.597595
O O2 0.442863 0.591094 0.612450
O O3 0.490517 0.443757 0.793676
O O4 0.529291 0.612597 0.889940
O O5 0.311574 0.868956 0.394560
O O6 0.276397 0.969393 0.673818
O O7 0.994830 0.250000 0.236877
O O8 0.894669 0.406901 0.253859
O O9 0.072309 0.422329 0.222715
O O10 0.990912 0.358078 0.971920
O O11 0.949599 0.750000 0.281727
O O12 0.870349 0.585062 0.225744
O O13 0.034943 0.587642 0.329029
O O14 0.243824 0.750000 0.181022
O O15 0.373903 0.631438 0.082570
O O16 0.201257 0.565476 0.185936
O O17 0.155319 0.490871 0.479494
O O18 0.503670 0.750000 0.122989
#
# Coordination Sequence:
#
# PCOD9159013 Si02
#       8
#     4   4   4   4   4   4   4   4
#     4   9  18  35  55  75 106 136 166 214 262 308
#     4   9  19  34  52  75 103 136 168 209 264 307
#     4  10  21  35  52  75 104 138 175 215 256 304
#     4  10  20  34  50  70 100 136 172 211 258 306
#     4   9  18  32  52  81 110 135 171 215 257 302
#     4  10  20  33  52  75  99 131 173 215 255 305
#     4   9  18  33  55  80 104 136 174 211 256 309
#     4  10  19  32  53  77 105 138 169 210 259 304
#
# _framework density 19.781116000000001
#
# number of rings (size 3 to 8) (size 9 to 14) (size 15 to 20)
#    0.000    2.500    0.000    3.375    0.000    6.500 
#    0.000    4.375    0.000   15.000    0.000    0.000 
#    0.000    0.000    0.000    0.000    0.000    0.000 
#
# Total GULP energy -178425.799479 kJ/mol
# GULP energy per Si atom -5575.806234 kJ/mol
# Density = 1.973609 g / cm^3
# Si number density = 19.781116 Si / 1000 Ang^3
#
#
#
# Elastic Constant Matrix: (Units=GPa)
#
#
# Indices 1 2 3 4 5 6 
#
# 1 55.8440 20.2983 5.4885 0.0000 -11.4018 0.0000
# 2 20.2983 105.3918 -1.1336 0.0000 1.7555 0.0000
# 3 5.4885 -1.1336 36.1440 0.0000 -9.1637 0.0000
# 4 0.0000 0.0000 0.0000 30.8233 0.0000 -32.0908
# 5 -11.4018 1.7555 -9.1637 0.0000 19.4176 0.0000
# 6 0.0000 0.0000 0.0000 -32.0908 0.0000 110.2287
#
#
#
# Elastic Compliance Matrix: (Units=1/GPa)
#
#
# Indices 1 2 3 4 5 6 
#
# 1 0.022309 -0.004522 -0.000119 0.000000 0.013452 0.000000
# 2 -0.004522 0.010420 0.000115 0.000000 -0.003543 0.000000
# 3 -0.000119 0.000115 0.031429 0.000000 0.014752 0.000000
# 4 0.000000 0.000000 0.000000 0.046553 0.000000 0.013553
# 5 0.013452 -0.003543 0.014752 0.000000 0.066681 0.000000
# 6 0.000000 0.000000 0.000000 0.013553 0.000000 0.013018
#
#
# Mechanical properties :
#
#
# Convention : Reuss Voigt Hill
#
# Bulk Modulus (GPa) = 18.14684 27.40960 22.77822
# Shear Modulus (GPa) = 22.95375 43.60901 33.28138
#
# Velocity S-wave (km/s) = 3.41014 4.70039 4.10626
# Velocity P-wave (km/s) = 4.96982 6.58367 5.83283
#
# Compressibility (1/GPa) = 0.05510602
#
# Stress axis : x y z
#
# Youngs Moduli (GPa) = 44.82506 95.97300 31.81793
#
# Poissons Ratio (x) = 0.43399 0.00378
# Poissons Ratio (y) = 0.20270 -0.00367
# Poissons Ratio (z) = 0.00533 -0.01106
#
# Static dielectric constant tensor:
#      x y z
#    x 1.711860 0.000000 -0.015820 
#    y 0.000000 1.698010 0.000000 
#    z -0.015820 0.000000 1.731490 
# 
# From -- ./inp_files/21855.got.cif
#   From: 2010.05.17/outbox.cif.g08.bks.cpg/sg11_11_cif.got.tgz:21855.got - 2010.06.03 12:22:45.
