data_PCOD9159302
_publ_section_title
;
Structure prediction by ZEFSAII (Michael W. Deem and Ramdas Pophale) SiO2 
 PCOD9159302
Probable space group: P 21/M
;
_chemical_formula_sum "Si O2"
_cell_formula_units_Z 32
_cell_length_a 18.072122
_cell_length_b 7.709852
_cell_length_c 24.931758
_cell_angle_alpha 90.000000
_cell_angle_beta 152.871644
_cell_angle_gamma 90.000000
_cell_volume 1584.014135
_symmetry_space_group_name_H-M "P 21/M"
_symmetry_group_IT_number 11
_symmetry_cell_setting 'monoclinic'
loop_
_space_group_symop_operation_xyz
x,y,z
-x,1/2+y,-z
-x,-y,-z
x,1/2-y,z
loop_
_atom_site_type_symbol
_atom_site_label
_atom_site_fract_x
_atom_site_fract_y
_atom_site_fract_z
Si Si1 0.532314 0.452835 0.958862
Si Si2 0.169145 0.543542 0.138944
Si Si3 0.907800 0.540199 0.187266
Si Si4 0.986691 0.537317 0.121189
Si Si5 0.658062 0.952636 0.851991
Si Si6 0.047376 0.950360 0.387993
Si Si7 0.785191 0.051347 0.302644
Si Si8 0.296737 0.535823 0.634490
O O1 0.502696 0.250000 0.932904
O O2 0.401117 0.547274 0.837253
O O3 0.500000 0.500000 0.000000
O O4 0.718045 0.492914 0.064939
O O5 0.191558 0.750000 0.153805
O O6 0.305298 0.467330 0.187891
O O7 0.132971 0.482701 0.176199
O O8 0.000000 0.500000 0.000000
O O9 0.913073 0.750000 0.192098
O O10 0.990237 0.482963 0.185065
O O11 0.992444 0.471803 0.295917
O O12 0.985376 0.750000 0.118579
O O13 0.814905 0.476132 0.984703
O O14 0.652628 0.750000 0.862622
O O15 0.482505 0.025130 0.752921
O O16 0.089127 0.750000 0.404212
O O17 0.196424 0.024603 0.518155
O O18 0.894382 0.955457 0.329585
O O19 0.841597 0.250000 0.339191
O O20 0.788362 0.981573 0.365072
O O21 0.295926 0.750000 0.634283
#
# Coordination Sequence:
#
# PCOD9159302 Si02
#       8
#     4   4   4   4   4   4   4   4
#     4  12  23  35  51  73 101 130 164 204 251 300
#     4   9  16  28  47  72 101 127 157 195 245 303
#     4  10  19  33  53  74 100 133 168 205 248 297
#     4   8  15  28  48  73  98 129 160 192 243 307
#     4   9  16  30  50  70  97 129 165 202 245 298
#     4  10  20  34  52  73  98 130 174 215 247 293
#     4  11  21  35  54  72  98 132 168 209 259 302
#     4   9  19  34  52  74  99 133 171 210 251 299
#
# _framework density 20.201840000000001
#
# number of rings (size 3 to 8) (size 9 to 14) (size 15 to 20)
#    0.000    2.250    1.250    3.750    0.000    2.000 
#    0.000    8.125    0.000    0.750    0.000    0.000 
#    0.000    0.000    0.000    0.000    0.000    0.500 
#
# Total GULP energy -178562.976292 kJ/mol
# GULP energy per Si atom -5580.093009 kJ/mol
# Density = 2.015586 g / cm^3
# Si number density = 20.201840 Si / 1000 Ang^3
#
#
#
# Elastic Constant Matrix: (Units=GPa)
#
#
# Indices 1 2 3 4 5 6 
#
# 1 116.0235 -7.8187 19.7961 0.0000 -17.3872 0.0000
# 2 -7.8187 42.4977 -3.0047 0.0000 -0.3212 0.0000
# 3 19.7961 -3.0047 60.4486 0.0000 -12.9161 0.0000
# 4 0.0000 0.0000 0.0000 3.8816 0.0000 4.1433
# 5 -17.3872 -0.3212 -12.9161 0.0000 14.0105 0.0000
# 6 0.0000 0.0000 0.0000 4.1433 0.0000 17.4803
#
#
#
# Elastic Compliance Matrix: (Units=1/GPa)
#
#
# Indices 1 2 3 4 5 6 
#
# 1 0.010793 0.002033 -0.000699 0.000000 0.012796 0.000000
# 2 0.002033 0.024043 0.001477 0.000000 0.004436 0.000000
# 3 -0.000699 0.001477 0.020756 0.000000 0.018300 0.000000
# 4 0.000000 0.000000 0.000000 0.344880 0.000000 -0.081746
# 5 0.012796 0.004436 0.018300 0.000000 0.104228 0.000000
# 6 0.000000 0.000000 0.000000 -0.081746 0.000000 0.076583
#
#
# Mechanical properties :
#
#
# Convention : Reuss Voigt Hill
#
# Bulk Modulus (GPa) = 16.33649 26.32391 21.33020
# Shear Modulus (GPa) = 8.38835 21.07429 14.73132
#
# Velocity S-wave (km/s) = 2.03992 3.23334 2.70331
# Velocity P-wave (km/s) = 3.69494 5.19597 4.50836
#
# Compressibility (1/GPa) = 0.06121265
#
# Stress axis : x y z
#
# Youngs Moduli (GPa) = 92.65389 41.59276 48.17953
#
# Poissons Ratio (x) = -0.08456 0.03369
# Poissons Ratio (y) = -0.18836 -0.07117
# Poissons Ratio (z) = 0.06480 -0.06144
#
# Static dielectric constant tensor:
#      x y z
#    x 1.733270 0.000000 -0.018920 
#    y 0.000000 1.757770 0.000000 
#    z -0.018920 0.000000 1.694470 
# 
# From -- ./inp_files/69469.got.cif
#   From: 2010.05.17/outbox.cif.g08.bks.cpg/sg11_35_cif.got.tgz:69469.got - 2010.06.03 12:22:45.
