data_PCOD9159097
_publ_section_title
;
Structure prediction by ZEFSAII (Michael W. Deem and Ramdas Pophale) SiO2 
 PCOD9159097
Probable space group: P 21/M
;
_chemical_formula_sum "Si O2"
_cell_formula_units_Z 32
_cell_length_a 23.705542
_cell_length_b 8.672643
_cell_length_c 11.954712
_cell_angle_alpha 90.000000
_cell_angle_beta 134.542110
_cell_angle_gamma 90.000000
_cell_volume 1751.735917
_symmetry_space_group_name_H-M "P 21/M"
_symmetry_group_IT_number 11
_symmetry_cell_setting 'monoclinic'
loop_
_space_group_symop_operation_xyz
x,y,z
-x,1/2+y,-z
-x,-y,-z
x,1/2-y,z
loop_
_atom_site_type_symbol
_atom_site_label
_atom_site_fract_x
_atom_site_fract_y
_atom_site_fract_z
Si Si1 0.938669 0.933766 0.073513
Si Si2 0.111575 0.564231 0.230439
Si Si3 0.736406 0.063507 0.411933
Si Si4 0.182800 0.565744 0.931756
Si Si5 0.396418 0.562051 0.603921
Si Si6 0.658637 0.435960 0.717250
Si Si7 0.731920 0.934498 0.157928
Si Si8 0.573551 0.563944 0.807927
O O1 0.934126 0.750000 0.074448
O O2 0.030474 0.977476 0.182103
O O3 0.897107 0.006751 0.122960
O O4 0.893720 0.990730 0.899389
O O5 0.112841 0.750000 0.218043
O O6 0.188429 0.519280 0.407404
O O7 0.735895 0.250000 0.404150
O O8 0.657245 0.012064 0.367002
O O9 0.742183 0.996566 0.296489
O O10 0.182483 0.750000 0.925668
O O11 0.203629 0.498391 0.839646
O O12 0.255947 0.517252 0.114762
O O13 0.395805 0.750000 0.603893
O O14 0.357459 0.513911 0.431754
O O15 0.487726 0.512308 0.730977
O O16 0.655341 0.250000 0.714857
O O17 0.593943 0.500188 0.713602
O O18 0.734745 0.750000 0.161337
O O19 0.646079 0.983455 0.988900
O O20 0.573165 0.750000 0.801571
#
# Coordination Sequence:
#
# PCOD9159097 Si02
#       8
#     4   4   4   4   4   4   4   4
#     4  10  19  32  54  83 110 133 161 201 250 300
#     4   9  19  35  54  78 108 138 166 200 245 299
#     4  10  20  36  55  72  96 134 176 211 246 295
#     4  10  19  33  54  77 101 134 174 208 246 300
#     4   9  17  30  50  74  99 130 166 204 249 299
#     4   9  17  30  50  75 101 129 164 205 246 296
#     4  10  21  36  51  71 101 133 169 215 259 296
#     4   9  18  32  49  71 101 133 163 203 254 299
#
# _framework density 18.267593999999999
#
# number of rings (size 3 to 8) (size 9 to 14) (size 15 to 20)
#    0.000    2.500    0.000    2.250    0.000    4.500 
#    0.000    1.875    0.000    0.000    0.000    0.000 
#    0.000    0.000    0.000    0.000    0.000    0.000 
#
# Total GULP energy -178579.447607 kJ/mol
# GULP energy per Si atom -5580.607738 kJ/mol
# Density = 1.822602 g / cm^3
# Si number density = 18.267594 Si / 1000 Ang^3
#
#
#
# Elastic Constant Matrix: (Units=GPa)
#
#
# Indices 1 2 3 4 5 6 
#
# 1 150.3308 28.3559 35.5166 0.0000 -8.2364 0.0000
# 2 28.3559 12.9724 12.1047 0.0000 -2.5715 0.0000
# 3 35.5166 12.1047 26.3046 0.0000 -10.3625 0.0000
# 4 0.0000 0.0000 0.0000 17.6911 0.0000 -6.3579
# 5 -8.2364 -2.5715 -10.3625 0.0000 18.7690 0.0000
# 6 0.0000 0.0000 0.0000 -6.3579 0.0000 31.0286
#
#
#
# Elastic Compliance Matrix: (Units=1/GPa)
#
#
# Indices 1 2 3 4 5 6 
#
# 1 0.012115 -0.019099 -0.008314 0.000000 -0.001890 0.000000
# 2 -0.019099 0.171480 -0.060280 0.000000 -0.018168 0.000000
# 3 -0.008314 -0.060280 0.092383 0.000000 0.039098 0.000000
# 4 0.000000 0.000000 0.000000 0.061019 0.000000 0.012503
# 5 -0.001890 -0.018168 0.039098 0.000000 0.071547 0.000000
# 6 0.000000 0.000000 0.000000 0.012503 0.000000 0.034790
#
#
# Mechanical properties :
#
#
# Convention : Reuss Voigt Hill
#
# Bulk Modulus (GPa) = 9.94106 37.95134 23.94620
# Shear Modulus (GPa) = 7.66575 21.07311 14.36943
#
# Velocity S-wave (km/s) = 2.05073 3.40012 2.80770
# Velocity P-wave (km/s) = 3.32581 6.01953 4.86291
#
# Compressibility (1/GPa) = 0.10059292
#
# Stress axis : x y z
#
# Youngs Moduli (GPa) = 82.54146 5.83157 10.82448
#
# Poissons Ratio (x) = 0.11138 0.08999
# Poissons Ratio (y) = 1.57646 0.65250
# Poissons Ratio (z) = 0.68623 0.35153
#
# Static dielectric constant tensor:
#      x y z
#    x 1.619030 0.000000 0.023740 
#    y 0.000000 1.612910 0.000000 
#    z 0.023740 0.000000 1.617790 
# 
# From -- ./inp_files/42880.got.cif
#   From: 2010.05.17/outbox.cif.g08.bks.cpg/sg11_22_cif.got.tgz:42880.got - 2010.06.03 12:22:45.
