data_PCOD9159842
_publ_section_title
;
Structure prediction by ZEFSAII (Michael W. Deem and Ramdas Pophale) SiO2 
 PCOD9159842
Probable space group: P 21/M
;
_chemical_formula_sum "Si O2"
_cell_formula_units_Z 24
_cell_length_a 8.651639
_cell_length_b 18.765541
_cell_length_c 16.053692
_cell_angle_alpha 90.000000
_cell_angle_beta 146.318929
_cell_angle_gamma 90.000000
_cell_volume 1445.407883
_symmetry_space_group_name_H-M "P 21/M"
_symmetry_group_IT_number 11
_symmetry_cell_setting 'monoclinic'
loop_
_space_group_symop_operation_xyz
x,y,z
-x,1/2+y,-z
-x,-y,-z
x,1/2-y,z
loop_
_atom_site_type_symbol
_atom_site_label
_atom_site_fract_x
_atom_site_fract_y
_atom_site_fract_z
Si Si1 0.803570 0.167639 0.048966
Si Si2 0.702694 0.417891 0.674292
Si Si3 0.747095 0.443628 0.886698
Si Si4 0.145129 0.072900 0.329413
Si Si5 0.438745 0.535770 0.880360
Si Si6 0.738220 0.833378 0.078987
O O1 0.870766 0.250000 0.072479
O O2 0.017127 0.127880 0.206150
O O3 0.820601 0.127624 0.969487
O O4 0.492259 0.161910 0.950133
O O5 0.664585 0.423324 0.756435
O O6 0.785364 0.497953 0.683608
O O7 0.416745 0.400177 0.498927
O O8 0.955051 0.364400 0.764550
O O9 0.523282 0.482774 0.845351
O O10 0.000000 0.500000 0.000000
O O11 0.883769 0.055192 0.270890
O O12 0.500000 0.500000 0.000000
O O13 0.616854 0.608875 0.958822
O O14 0.749380 0.750000 0.059151
#
# Coordination Sequence:
#
# PCOD9159842 Si02
#       6
#     4   4   4   4   4   4
#     4  10  20  36  58  78 104 148 190 221 271 335
#     4  11  21  33  54  85 111 136 180 231 277 320
#     4  12  19  33  57  84 108 141 184 239 270 312
#     4  10  20  36  55  79 109 146 180 218 276 334
#     4  11  17  36  58  76 107 146 184 227 262 332
#     4  10  19  34  55  79 105 145 184 220 272 332
#
# _framework density 16.604310000000002
#
# number of rings (size 3 to 8) (size 9 to 14) (size 15 to 20)
#    0.000    1.333    8.333    0.000    0.000    2.000 
#    0.000    0.000    0.000    0.000    0.000    0.000 
#    0.000    0.000    0.000    0.000    0.000    0.000 
#
# Total GULP energy -133760.081479 kJ/mol
# GULP energy per Si atom -5573.336728 kJ/mol
# Density = 1.656652 g / cm^3
# Si number density = 16.604310 Si / 1000 Ang^3
#
#
#
# Elastic Constant Matrix: (Units=GPa)
#
#
# Indices 1 2 3 4 5 6 
#
# 1 49.4869 29.8949 53.4382 0.0000 -6.8947 0.0000
# 2 29.8949 121.2536 50.1158 0.0000 -0.7244 0.0000
# 3 53.4382 50.1158 134.3276 0.0000 10.5610 0.0000
# 4 0.0000 0.0000 0.0000 14.8898 0.0000 3.6885
# 5 -6.8947 -0.7244 10.5610 0.0000 22.9228 0.0000
# 6 0.0000 0.0000 0.0000 3.6885 0.0000 25.5972
#
#
#
# Elastic Compliance Matrix: (Units=1/GPa)
#
#
# Indices 1 2 3 4 5 6 
#
# 1 0.045282 -0.003395 -0.018479 0.000000 0.022026 0.000000
# 2 -0.003395 0.010100 -0.002451 0.000000 0.000427 0.000000
# 3 -0.018479 -0.002451 0.016761 0.000000 -0.013358 0.000000
# 4 0.000000 0.000000 0.000000 0.069646 0.000000 -0.010036
# 5 0.022026 0.000427 -0.013358 0.000000 0.056417 0.000000
# 6 0.000000 0.000000 0.000000 -0.010036 0.000000 0.040513
#
#
# Mechanical properties :
#
#
# Convention : Reuss Voigt Hill
#
# Bulk Modulus (GPa) = 42.56820 63.55176 53.05998
# Shear Modulus (GPa) = 16.93774 24.12326 20.53050
#
# Velocity S-wave (km/s) = 3.19734 3.81574 3.52014
# Velocity P-wave (km/s) = 6.27081 7.60069 6.96755
#
# Compressibility (1/GPa) = 0.02349171
#
# Stress axis : x y z
#
# Youngs Moduli (GPa) = 22.08405 99.01160 59.66402
#
# Poissons Ratio (x) = 0.33613 1.10254
# Poissons Ratio (y) = 0.07497 0.14625
# Poissons Ratio (z) = 0.40809 0.24269
#
# Static dielectric constant tensor:
#      x y z
#    x 1.580820 0.000000 0.026790 
#    y 0.000000 1.568650 0.000000 
#    z 0.026790 0.000000 1.558910 
# 
# From -- ./inp_files/58365.got.cif
#   From: 2010.05.17/outbox.cif.g08.bks.cpg/sg11_30_cif.got.tgz:58365.got - 2010.06.03 12:22:45.
