data_PCOD9159768
_publ_section_title
;
Structure prediction by ZEFSAII (Michael W. Deem and Ramdas Pophale) SiO2 
 PCOD9159768
Probable space group: P 21/M
;
_chemical_formula_sum "Si O2"
_cell_formula_units_Z 26
_cell_length_a 20.820664
_cell_length_b 12.702424
_cell_length_c 5.043662
_cell_angle_alpha 90.000000
_cell_angle_beta 113.349463
_cell_angle_gamma 90.000000
_cell_volume 1224.670633
_symmetry_space_group_name_H-M "P 21/M"
_symmetry_group_IT_number 11
_symmetry_cell_setting 'monoclinic'
loop_
_space_group_symop_operation_xyz
x,y,z
-x,1/2+y,-z
-x,-y,-z
x,1/2-y,z
loop_
_atom_site_type_symbol
_atom_site_label
_atom_site_fract_x
_atom_site_fract_y
_atom_site_fract_z
Si Si1 0.101769 0.445856 0.155900
Si Si2 0.759663 0.134300 0.043675
Si Si3 0.592868 0.507586 0.423022
Si Si4 0.081488 0.581164 0.621302
Si Si5 0.259188 0.000749 0.487724
Si Si6 0.550027 0.374686 0.845734
Si Si7 0.978298 0.750000 0.716147
O O1 0.077764 0.540115 0.314714
O O2 0.186143 0.438057 0.333604
O O3 0.063393 0.341901 0.184132
O O4 0.086432 0.482504 0.832137
O O5 0.730401 0.250000 0.049704
O O6 0.746927 0.098252 0.723185
O O7 0.843185 0.135737 0.222380
O O8 0.735119 0.045592 0.208793
O O9 0.668721 0.554659 0.480198
O O10 0.590849 0.440538 0.688828
O O11 0.531489 0.593668 0.328210
O O12 0.573371 0.423259 0.163403
O O13 0.022072 0.658695 0.621935
O O14 0.559599 0.250000 0.845086
#
# Coordination Sequence:
#
# PCOD9159768 Si02
#       7
#     4   4   4   4   4   4   2
#     4  10  24  39  57  87 114 145 196 234 277 344
#     4  10  19  34  53  80 109 148 188 230 283 340
#     4  10  21  37  57  84 117 150 181 233 279 324
#     4  10  22  39  57  83 112 146 190 240 288 325
#     4  10  21  36  54  79 120 144 181 235 277 328
#     4  10  21  37  59  87 113 145 193 225 271 338
#     4  12  22  40  64  82 112 156 188 240 280 340
#
# _framework density 21.230195999999999
#
# number of rings (size 3 to 8) (size 9 to 14) (size 15 to 20)
#    0.000    1.846    0.769    2.769    0.000    6.154 
#    1.385    0.000    0.000    0.000    0.000    0.000 
#    0.000    0.000    0.000    0.000    0.000    0.000 
#
# Total GULP energy -144825.888570 kJ/mol
# GULP energy per Si atom -5570.226483 kJ/mol
# Density = 2.118188 g / cm^3
# Si number density = 21.230196 Si / 1000 Ang^3
#
#
#
# Elastic Constant Matrix: (Units=GPa)
#
#
# Indices 1 2 3 4 5 6 
#
# 1 144.4889 29.3926 7.4144 0.0000 1.0121 0.0000
# 2 29.3926 54.6250 6.9633 0.0000 6.6308 0.0000
# 3 7.4144 6.9633 79.7127 0.0000 -11.7206 0.0000
# 4 0.0000 0.0000 0.0000 1.9700 0.0000 -2.6274
# 5 1.0121 6.6308 -11.7206 0.0000 29.4790 0.0000
# 6 0.0000 0.0000 0.0000 -2.6274 0.0000 -1.1031
#
#
#
# Elastic Compliance Matrix: (Units=1/GPa)
#
#
# Indices 1 2 3 4 5 6 
#
# 1 0.007791 -0.004227 -0.000271 0.000000 0.000576 0.000000
# 2 -0.004227 0.021560 -0.002317 0.000000 -0.005626 0.000000
# 3 -0.000271 -0.002317 0.013649 0.000000 0.005957 0.000000
# 4 0.000000 0.000000 0.000000 0.121533 0.000000 -0.289475
# 5 0.000576 -0.005626 0.005957 0.000000 0.037537 0.000000
# 6 0.000000 0.000000 0.000000 -0.289475 0.000000 -0.217043
#
#
# Mechanical properties :
#
#
# Convention : Reuss Voigt Hill
#
# Bulk Modulus (GPa) = 34.05058 40.70744 37.37901
# Shear Modulus (GPa) = 592.03454 21.73960 306.88707
#
# Velocity S-wave (km/s) = 16.71735 3.20346 12.03603
# Velocity P-wave (km/s) = 19.71547 5.73575 14.51893
#
# Compressibility (1/GPa) = 0.02936808
#
# Stress axis : x y z
#
# Youngs Moduli (GPa) = 128.35706 46.38302 73.26779
#
# Poissons Ratio (x) = 0.19608 0.01983
# Poissons Ratio (y) = 0.54262 0.16978
# Poissons Ratio (z) = 0.03475 0.10748
#
# Static dielectric constant tensor:
#      x y z
#    x 1.824490 0.000000 0.048860 
#    y 0.000000 1.676320 0.000000 
#    z 0.048860 0.000000 1.759710 
# 
# From -- ./inp_files/8655.got.cif
#   From: 2010.05.17/outbox.cif.g08.bks.cpg/sg11_5_cif.got.tgz:8655.got - 2010.06.03 12:22:45.
