data_PCOD9159129
_publ_section_title
;
Structure prediction by ZEFSAII (Michael W. Deem and Ramdas Pophale) SiO2 
 PCOD9159129
Probable space group: P 21/M
;
_chemical_formula_sum "Si O2"
_cell_formula_units_Z 32
_cell_length_a 12.633540
_cell_length_b 8.662273
_cell_length_c 29.955054
_cell_angle_alpha 90.000000
_cell_angle_beta 146.210934
_cell_angle_gamma 90.000000
_cell_volume 1823.093081
_symmetry_space_group_name_H-M "P 21/M"
_symmetry_group_IT_number 11
_symmetry_cell_setting 'monoclinic'
loop_
_space_group_symop_operation_xyz
x,y,z
-x,1/2+y,-z
-x,-y,-z
x,1/2-y,z
loop_
_atom_site_type_symbol
_atom_site_label
_atom_site_fract_x
_atom_site_fract_y
_atom_site_fract_z
Si Si1 0.414364 0.565469 0.776589
Si Si2 0.819603 0.936102 0.491477
Si Si3 0.182800 0.063844 0.039078
Si Si4 0.682979 0.934423 0.539258
Si Si5 0.757167 0.934112 0.369409
Si Si6 0.692884 0.563653 0.013193
Si Si7 0.269016 0.063763 0.874329
Si Si8 0.070502 0.435075 0.715593
O O1 0.396850 0.750000 0.774627
O O2 0.619835 0.518277 0.867617
O O3 0.381366 0.515697 0.714019
O O4 0.246257 0.488663 0.746462
O O5 0.848229 0.750000 0.502271
O O6 0.699073 0.980220 0.492638
O O7 0.729555 0.975010 0.411872
O O8 0.026993 0.014157 0.566311
O O9 0.174568 0.250000 0.036760
O O10 0.196998 0.012186 0.992396
O O11 0.000000 0.000000 0.000000
O O12 0.676226 0.750000 0.538542
O O13 0.500000 0.000000 0.500000
O O14 0.876279 0.991861 0.630162
O O15 0.741490 0.750000 0.358984
O O16 0.685787 0.750000 0.009848
O O17 0.775587 0.516185 0.090392
O O18 0.476705 0.503077 0.935679
O O19 0.282338 0.250000 0.878136
O O20 0.122262 0.017919 0.784441
O O21 0.055308 0.250000 0.708108
#
# Coordination Sequence:
#
# PCOD9159129 Si02
#       8
#     4   4   4   4   4   4   4   4
#     4  11  21  35  54  81 112 144 181 228 276 322
#     4   9  19  35  54  79 111 144 179 223 274 321
#     4  10  22  37  55  77 108 147 184 223 271 326
#     4  11  23  39  58  80 111 149 184 224 274 328
#     4  10  19  32  55  84 109 139 181 227 272 322
#     4   9  17  33  53  77 108 143 178 217 271 323
#     4   9  18  31  53  82 109 136 175 226 270 315
#     4  11  21  34  55  85 112 140 182 229 272 324
#
# _framework density 17.552586999999999
#
# number of rings (size 3 to 8) (size 9 to 14) (size 15 to 20)
#    0.000    2.000    2.500    1.500    0.000    3.000 
#    0.000    1.250    0.000    6.000    0.000    0.000 
#    0.000    0.000    0.000    0.000    0.000    0.000 
#
# Total GULP energy -178561.269341 kJ/mol
# GULP energy per Si atom -5580.039667 kJ/mol
# Density = 1.751264 g / cm^3
# Si number density = 17.552587 Si / 1000 Ang^3
#
#
#
# Elastic Constant Matrix: (Units=GPa)
#
#
# Indices 1 2 3 4 5 6 
#
# 1 175.4473 34.1606 86.5729 0.0000 -11.1365 0.0000
# 2 34.1606 21.3021 24.8766 0.0000 -3.3644 0.0000
# 3 86.5729 24.8766 103.0221 0.0000 -7.8072 0.0000
# 4 0.0000 0.0000 0.0000 26.7321 0.0000 2.7060
# 5 -11.1365 -3.3644 -7.8072 0.0000 30.1567 0.0000
# 6 0.0000 0.0000 0.0000 2.7060 0.0000 26.4954
#
#
#
# Elastic Compliance Matrix: (Units=1/GPa)
#
#
# Indices 1 2 3 4 5 6 
#
# 1 0.011008 -0.009422 -0.006882 0.000000 0.001232 0.000000
# 2 -0.009422 0.073762 -0.009725 0.000000 0.002232 0.000000
# 3 -0.006882 -0.009725 0.017915 0.000000 0.001011 0.000000
# 4 0.000000 0.000000 0.000000 0.037799 0.000000 -0.003860
# 5 0.001232 0.002232 0.001011 0.000000 0.034126 0.000000
# 6 0.000000 0.000000 0.000000 -0.003860 0.000000 0.038137
#
#
# Mechanical properties :
#
#
# Convention : Reuss Voigt Hill
#
# Bulk Modulus (GPa) = 19.75200 65.66576 42.70888
# Shear Modulus (GPa) = 17.75065 26.95427 22.35246
#
# Velocity S-wave (km/s) = 3.18352 3.92296 3.57242
# Velocity P-wave (km/s) = 4.97901 7.61653 6.43437
#
# Compressibility (1/GPa) = 0.05062779
#
# Stress axis : x y z
#
# Youngs Moduli (GPa) = 90.83986 13.55718 55.81927
#
# Poissons Ratio (x) = 0.12773 0.38417
# Poissons Ratio (y) = 0.85585 0.54283
# Poissons Ratio (z) = 0.62519 0.13184
#
# Static dielectric constant tensor:
#      x y z
#    x 1.609310 0.000000 -0.045930 
#    y 0.000000 1.593690 0.000000 
#    z -0.045930 0.000000 1.577890 
# 
# From -- ./inp_files/64406.got.cif
#   From: 2010.05.17/outbox.cif.g08.bks.cpg/sg11_33_cif.got.tgz:64406.got - 2010.06.03 12:22:45.
