data_PCOD9159187
_publ_section_title
;
Structure prediction by ZEFSAII (Michael W. Deem and Ramdas Pophale) SiO2 
 PCOD9159187
Probable space group: P 21/M
;
_chemical_formula_sum "Si O2"
_cell_formula_units_Z 32
_cell_length_a 15.987739
_cell_length_b 8.931594
_cell_length_c 21.711558
_cell_angle_alpha 90.000000
_cell_angle_beta 42.101058
_cell_angle_gamma 90.000000
_cell_volume 2078.581879
_symmetry_space_group_name_H-M "P 21/M"
_symmetry_group_IT_number 11
_symmetry_cell_setting 'monoclinic'
loop_
_space_group_symop_operation_xyz
x,y,z
-x,1/2+y,-z
-x,-y,-z
x,1/2-y,z
loop_
_atom_site_type_symbol
_atom_site_label
_atom_site_fract_x
_atom_site_fract_y
_atom_site_fract_z
Si Si1 0.062287 0.929874 0.609672
Si Si2 0.900467 0.428826 0.601394
Si Si3 0.115686 0.930630 0.721430
Si Si4 0.708842 0.070450 0.606566
Si Si5 0.553951 0.070630 0.283428
Si Si6 0.601630 0.430050 0.399492
Si Si7 0.198126 0.428881 0.900420
Si Si8 0.002685 0.928773 0.096111
O O1 0.050543 0.750000 0.611416
O O2 0.081007 0.970889 0.670478
O O3 0.185735 0.970550 0.502154
O O4 0.941742 0.004399 0.644017
O O5 0.914168 0.250000 0.594485
O O6 0.768496 0.463055 0.641092
O O7 0.000000 0.500000 0.500000
O O8 0.107921 0.750000 0.731472
O O9 0.258746 0.974852 0.657275
O O10 0.029275 0.005573 0.819920
O O11 0.690722 0.250000 0.612011
O O12 0.580318 0.987761 0.664405
O O13 0.560325 0.250000 0.275824
O O14 0.574989 0.027078 0.343487
O O15 0.666399 0.998625 0.183506
O O16 0.500000 0.500000 0.500000
O O17 0.594476 0.250000 0.407684
O O18 0.205034 0.250000 0.902208
O O19 0.113266 0.464709 0.886500
O O20 0.123288 0.497908 0.998624
O O21 0.015859 0.750000 0.090887
#
# Coordination Sequence:
#
# PCOD9159187 Si02
#       8
#     4   4   4   4   4   4   4   4
#     4   9  18  31  49  71  97 131 166 201 241 286
#     4   9  17  30  48  68  94 126 161 204 247 287
#     4  10  19  33  49  68  98 132 162 197 242 289
#     4   9  18  32  48  68  97 131 164 198 243 290
#     4  11  21  32  48  71  96 126 164 204 239 280
#     4  10  21  33  45  63  94 132 166 196 230 275
#     4  10  20  34  52  70  93 126 159 200 249 291
#     4  10  20  33  51  73  94 121 161 206 244 284
#
# _framework density 15.395111
#
# number of rings (size 3 to 8) (size 9 to 14) (size 15 to 20)
#    0.000    2.250    1.250    3.000    0.000    6.500 
#    0.000    0.000    0.000    0.000    0.000    0.875 
#    0.000    0.000    0.000    0.000    0.000    0.000 
#
# Total GULP energy -178474.450274 kJ/mol
# GULP energy per Si atom -5577.326571 kJ/mol
# Density = 1.536007 g / cm^3
# Si number density = 15.395111 Si / 1000 Ang^3
#
#
#
# Elastic Constant Matrix: (Units=GPa)
#
#
# Indices 1 2 3 4 5 6 
#
# 1 140.7066 50.6063 70.7554 0.0000 3.6749 0.0000
# 2 50.6063 35.2398 42.4730 0.0000 0.3389 0.0000
# 3 70.7554 42.4730 115.5147 0.0000 5.4816 0.0000
# 4 0.0000 0.0000 0.0000 28.5543 0.0000 -0.8724
# 5 3.6749 0.3389 5.4816 0.0000 7.6617 0.0000
# 6 0.0000 0.0000 0.0000 -0.8724 0.0000 26.5886
#
#
#
# Elastic Compliance Matrix: (Units=1/GPa)
#
#
# Indices 1 2 3 4 5 6 
#
# 1 0.015210 -0.019493 -0.001909 0.000000 -0.005068 0.000000
# 2 -0.019493 0.076949 -0.017220 0.000000 0.018266 0.000000
# 3 -0.001909 -0.017220 0.016643 0.000000 -0.010230 0.000000
# 4 0.000000 0.000000 0.000000 0.035056 0.000000 0.001150
# 5 -0.005068 0.018266 -0.010230 0.000000 0.139462 0.000000
# 6 0.000000 0.000000 0.000000 0.001150 0.000000 0.037648
#
#
# Mechanical properties :
#
#
# Convention : Reuss Voigt Hill
#
# Bulk Modulus (GPa) = 31.68707 68.79228 50.23967
# Shear Modulus (GPa) = 12.23300 21.06934 16.65117
#
# Velocity S-wave (km/s) = 2.82193 3.70344 3.29232
# Velocity P-wave (km/s) = 5.58972 7.94158 6.86708
#
# Compressibility (1/GPa) = 0.03155861
#
# Stress axis : x y z
#
# Youngs Moduli (GPa) = 65.74605 12.99564 60.08587
#
# Poissons Ratio (x) = 0.25333 0.11468
# Poissons Ratio (y) = 1.28161 1.03466
# Poissons Ratio (z) = 0.12548 0.22378
#
# Static dielectric constant tensor:
#      x y z
#    x 1.523420 0.000000 0.006830 
#    y 0.000000 1.517070 0.000000 
#    z 0.006830 0.000000 1.482790 
# 
# From -- ./inp_files/54245.got.cif
#   From: 2010.05.17/outbox.cif.g08.bks.cpg/sg11_28_cif.got.tgz:54245.got - 2010.06.03 12:22:45.
