data_PCOD9159409
_publ_section_title
;
Structure prediction by ZEFSAII (Michael W. Deem and Ramdas Pophale) SiO2 
 PCOD9159409
Probable space group: P 21/M
;
_chemical_formula_sum "Si O2"
_cell_formula_units_Z 24
_cell_length_a 9.105315
_cell_length_b 9.290056
_cell_length_c 20.061081
_cell_angle_alpha 90.000000
_cell_angle_beta 130.280312
_cell_angle_gamma 90.000000
_cell_volume 1294.582896
_symmetry_space_group_name_H-M "P 21/M"
_symmetry_group_IT_number 11
_symmetry_cell_setting 'monoclinic'
loop_
_space_group_symop_operation_xyz
x,y,z
-x,1/2+y,-z
-x,-y,-z
x,1/2-y,z
loop_
_atom_site_type_symbol
_atom_site_label
_atom_site_fract_x
_atom_site_fract_y
_atom_site_fract_z
Si Si1 0.008924 0.085686 0.756585
Si Si2 0.604262 0.074000 0.092574
Si Si3 0.499432 0.411735 0.205542
Si Si4 0.910710 0.504166 0.366419
Si Si5 0.630252 0.923381 0.690863
Si Si6 0.270310 0.094184 0.549595
O O1 0.008716 0.250000 0.781681
O O2 0.810939 0.003330 0.712609
O O3 0.181529 0.991149 0.838421
O O4 0.044345 0.089146 0.687461
O O5 0.607195 0.250000 0.090156
O O6 0.498388 0.027167 0.130799
O O7 0.500000 0.000000 0.000000
O O8 0.425585 0.250000 0.177994
O O9 0.725024 0.409266 0.292543
O O10 0.393420 0.475476 0.238754
O O11 0.838004 0.587647 0.410686
O O12 0.104419 0.425692 0.446371
O O13 0.648121 0.750000 0.694383
O O14 0.432391 0.972065 0.597221
O O15 0.364752 0.250000 0.569850
#
# Coordination Sequence:
#
# PCOD9159409 Si02
#       6
#     4   4   4   4   4   4
#     4  11  22  37  56  79 108 140 176 218 266 316
#     4  10  20  37  61  87 110 134 169 213 262 316
#     4   8  16  33  55  77 105 140 176 215 261 312
#     4   9  19  32  52  78 107 139 179 225 268 310
#     4  10  21  36  53  76 108 145 180 218 265 313
#     4  10  19  33  54  78 105 140 184 226 265 312
#
# _framework density 18.538789999999999
#
# number of rings (size 3 to 8) (size 9 to 14) (size 15 to 20)
#    0.000    2.333    0.000    2.500    0.000    7.333 
#    0.000    3.333    0.000    0.000    0.000    0.000 
#    0.000    0.000    0.000    0.000    0.000    0.000 
#
# Total GULP energy -133646.239822 kJ/mol
# GULP energy per Si atom -5568.593326 kJ/mol
# Density = 1.849660 g / cm^3
# Si number density = 18.538790 Si / 1000 Ang^3
#
#
#
# Elastic Constant Matrix: (Units=GPa)
#
#
# Indices 1 2 3 4 5 6 
#
# 1 74.5248 29.6672 26.5290 0.0000 13.0669 0.0000
# 2 29.6672 104.3247 27.0546 0.0000 3.7140 0.0000
# 3 26.5290 27.0546 102.0258 0.0000 -9.9571 0.0000
# 4 0.0000 0.0000 0.0000 15.5568 0.0000 6.0864
# 5 13.0669 3.7140 -9.9571 0.0000 18.2204 0.0000
# 6 0.0000 0.0000 0.0000 6.0864 0.0000 11.3323
#
#
#
# Elastic Compliance Matrix: (Units=1/GPa)
#
#
# Indices 1 2 3 4 5 6 
#
# 1 0.019835 -0.003528 -0.005852 0.000000 -0.016703 0.000000
# 2 -0.003528 0.011175 -0.002135 0.000000 -0.000914 0.000000
# 3 -0.005852 -0.002135 0.013037 0.000000 0.011756 0.000000
# 4 0.000000 0.000000 0.000000 0.081381 0.000000 -0.043708
# 5 -0.016703 -0.000914 0.011756 0.000000 0.073473 0.000000
# 6 0.000000 0.000000 0.000000 -0.043708 0.000000 0.111719
#
#
# Mechanical properties :
#
#
# Convention : Reuss Voigt Hill
#
# Bulk Modulus (GPa) = 47.58366 49.70852 48.64609
# Shear Modulus (GPa) = 14.67758 22.19688 18.43723
#
# Velocity S-wave (km/s) = 2.81681 3.46399 3.15702
# Velocity P-wave (km/s) = 6.02512 6.54755 6.29176
#
# Compressibility (1/GPa) = 0.02101562
#
# Stress axis : x y z
#
# Youngs Moduli (GPa) = 50.41646 89.48502 76.70675
#
# Poissons Ratio (x) = 0.31572 0.44889
# Poissons Ratio (y) = 0.17788 0.16378
# Poissons Ratio (z) = 0.29504 0.19107
#
# Static dielectric constant tensor:
#      x y z
#    x 1.649610 0.000000 -0.027170 
#    y 0.000000 1.656140 0.000000 
#    z -0.027170 0.000000 1.629160 
# 
# From -- ./inp_files/25932.got.cif
#   From: 2010.05.17/outbox.cif.g08.bks.cpg/sg11_13_cif.got.tgz:25932.got - 2010.06.03 12:22:45.
