data_PCOD9159841
_publ_section_title
;
Structure prediction by ZEFSAII (Michael W. Deem and Ramdas Pophale) SiO2 
 PCOD9159841
Probable space group: P 21/M
;
_chemical_formula_sum "Si O2"
_cell_formula_units_Z 32
_cell_length_a 33.167855
_cell_length_b 7.790084
_cell_length_c 14.042516
_cell_angle_alpha 90.000000
_cell_angle_beta 155.048908
_cell_angle_gamma 90.000000
_cell_volume 1530.582781
_symmetry_space_group_name_H-M "P 21/M"
_symmetry_group_IT_number 11
_symmetry_cell_setting 'monoclinic'
loop_
_space_group_symop_operation_xyz
x,y,z
-x,1/2+y,-z
-x,-y,-z
x,1/2-y,z
loop_
_atom_site_type_symbol
_atom_site_label
_atom_site_fract_x
_atom_site_fract_y
_atom_site_fract_z
Si Si1 0.021500 0.956338 0.437160
Si Si2 0.146093 0.460946 0.062672
Si Si3 0.769977 0.039151 0.183379
Si Si4 0.645517 0.545870 0.556111
Si Si5 0.272589 0.954908 0.694230
Si Si6 0.604654 0.045363 0.685660
Si Si7 0.105687 0.045715 0.191011
Si Si8 0.523090 0.457232 0.940885
O O1 0.023088 0.750000 0.432456
O O2 0.125984 0.018319 0.629127
O O3 0.000000 0.000000 0.500000
O O4 0.937636 0.018495 0.187726
O O5 0.145636 0.250000 0.060970
O O6 0.249847 0.520256 0.248750
O O7 0.125870 0.518535 0.127224
O O8 0.770007 0.250000 0.183455
O O9 0.749851 0.980382 0.247825
O O10 0.686672 0.981928 0.933393
O O11 0.648919 0.750000 0.546657
O O12 0.622280 0.518688 0.616752
O O13 0.560518 0.476928 0.307626
O O14 0.283210 0.750000 0.726134
O O15 0.185793 0.985725 0.436488
O O16 0.372746 0.022808 0.867636
O O17 0.611975 0.250000 0.698632
O O18 0.500000 0.000000 0.500000
O O19 0.112017 0.250000 0.200361
O O20 0.000000 0.000000 0.000000
O O21 0.525060 0.250000 0.937140
O O22 0.500000 0.500000 0.000000
#
# Coordination Sequence:
#
# PCOD9159841 Si02
#       8
#     4   4   4   4   4   4   4   4
#     4  10  19  34  55  79 105 138 175 216 263 317
#     4   9  19  35  57  80 108 145 181 217 269 329
#     4   9  19  36  57  77 106 146 184 219 270 331
#     4  10  20  37  58  82 111 146 185 229 279 333
#     4  10  20  37  58  80 107 145 187 228 273 327
#     4  11  22  37  57  82 110 146 187 231 280 334
#     4  11  22  38  59  84 112 146 185 228 276 331
#     4  10  21  36  57  82 113 150 187 230 284 340
#
# _framework density 20.907069
#
# number of rings (size 3 to 8) (size 9 to 14) (size 15 to 20)
#    0.000    2.000    0.000    3.750    0.000    6.000 
#    0.000    7.500    0.000    0.000    0.000    0.000 
#    0.000    0.000    0.000    0.000    0.000    0.000 
#
# Total GULP energy -178867.738423 kJ/mol
# GULP energy per Si atom -5589.616826 kJ/mol
# Density = 2.085948 g / cm^3
# Si number density = 20.907069 Si / 1000 Ang^3
#
#
#
# Elastic Constant Matrix: (Units=GPa)
#
#
# Indices 1 2 3 4 5 6 
#
# 1 235.2799 -6.8270 149.6839 0.0000 6.1348 0.0000
# 2 -6.8270 22.5178 -0.1075 0.0000 3.9371 0.0000
# 3 149.6839 -0.1075 249.4091 0.0000 3.7760 0.0000
# 4 0.0000 0.0000 0.0000 18.3187 0.0000 -5.7778
# 5 6.1348 3.9371 3.7760 0.0000 48.5391 0.0000
# 6 0.0000 0.0000 0.0000 -5.7778 0.0000 28.7395
#
#
#
# Elastic Compliance Matrix: (Units=1/GPa)
#
#
# Indices 1 2 3 4 5 6 
#
# 1 0.006999 0.002231 -0.004188 0.000000 -0.000740 0.000000
# 2 0.002231 0.045761 -0.001260 0.000000 -0.003896 0.000000
# 3 -0.004188 -0.001260 0.006521 0.000000 0.000124 0.000000
# 4 0.000000 0.000000 0.000000 0.058285 0.000000 0.011718
# 5 -0.000740 -0.003896 0.000124 0.000000 0.021002 0.000000
# 6 0.000000 0.000000 0.000000 0.011718 0.000000 0.037151
#
#
# Mechanical properties :
#
#
# Convention : Reuss Voigt Hill
#
# Bulk Modulus (GPa) = 18.92300 88.07839 53.50070
# Shear Modulus (GPa) = 25.02907 43.41664 34.22285
#
# Velocity S-wave (km/s) = 3.46375 4.56197 4.05026
# Velocity P-wave (km/s) = 5.00674 8.36473 6.89334
#
# Compressibility (1/GPa) = 0.05284574
#
# Stress axis : x y z
#
# Youngs Moduli (GPa) = 142.88161 21.85267 153.35970
#
# Poissons Ratio (x) = -0.04876 0.64230
# Poissons Ratio (y) = -0.31881 0.19329
# Poissons Ratio (z) = 0.59842 0.02754
#
# Static dielectric constant tensor:
#      x y z
#    x 1.533650 0.000000 -0.055940 
#    y 0.000000 1.785070 0.000000 
#    z -0.055940 0.000000 1.688510 
# 
# From -- ./inp_files/45372.got.cif
#   From: 2010.05.17/outbox.cif.g08.bks.cpg/sg11_23_cif.got.tgz:45372.got - 2010.06.03 12:22:45.
