data_PCOD9159094
_publ_section_title
;
Structure prediction by ZEFSAII (Michael W. Deem and Ramdas Pophale) SiO2 
 PCOD9159094
Probable space group: P 21/M
;
_chemical_formula_sum "Si O2"
_cell_formula_units_Z 28
_cell_length_a 9.145130
_cell_length_b 13.890468
_cell_length_c 17.088523
_cell_angle_alpha 90.000000
_cell_angle_beta 148.947202
_cell_angle_gamma 90.000000
_cell_volume 1119.736870
_symmetry_space_group_name_H-M "P 21/M"
_symmetry_group_IT_number 11
_symmetry_cell_setting 'monoclinic'
loop_
_space_group_symop_operation_xyz
x,y,z
-x,1/2+y,-z
-x,-y,-z
x,1/2-y,z
loop_
_atom_site_type_symbol
_atom_site_label
_atom_site_fract_x
_atom_site_fract_y
_atom_site_fract_z
Si Si1 0.613550 0.863298 0.364362
Si Si2 0.838927 0.909692 0.886468
Si Si3 0.946740 0.853423 0.099564
Si Si4 0.421576 0.865641 0.569042
Si Si5 0.760454 0.634723 0.258897
Si Si6 0.137086 0.134374 0.363550
Si Si7 0.240933 0.562522 0.935750
O O1 0.691220 0.750000 0.393237
O O2 0.284619 0.864054 0.239025
O O3 0.798451 0.903245 0.520477
O O4 0.666528 0.901424 0.302048
O O5 0.550418 0.917999 0.704714
O O6 0.056567 0.878989 0.917495
O O7 0.803562 0.848294 0.948064
O O8 0.000000 0.000000 0.000000
O O9 0.901669 0.750000 0.120079
O O10 0.846723 0.951624 0.092928
O O11 0.457268 0.750000 0.599092
O O12 0.093367 0.881919 0.401929
O O13 0.609701 0.892994 0.580118
O O14 0.711445 0.750000 0.231426
O O15 0.559164 0.583264 0.105131
O O16 0.136768 0.250000 0.366793
O O17 0.853967 0.100190 0.191626
#
# Coordination Sequence:
#
# PCOD9159094 Si02
#       7
#     4   4   4   4   4   4   4
#     4   9  18  32  55  84 116 155 197 244 297 355
#     4   9  17  31  53  82 108 142 193 241 281 337
#     4  10  19  32  54  82 114 149 200 253 292 344
#     4   9  18  32  55  85 120 156 191 237 299 359
#     4  10  19  33  57  89 122 153 193 245 301 358
#     4   9  18  34  57  85 117 155 200 241 291 359
#     4  10  19  32  57  85 110 153 204 245 291 349
#
# _framework density 25.005873999999999
#
# number of rings (size 3 to 8) (size 9 to 14) (size 15 to 20)
#    0.000    2.571    1.429    0.857    0.000    1.714 
#    0.000    2.857    3.143    0.857    0.000    4.000 
#    0.000    0.000    0.000    0.000    0.000    0.000 
#
# Total GULP energy -156689.542030 kJ/mol
# GULP energy per Si atom -5596.055073 kJ/mol
# Density = 2.494896 g / cm^3
# Si number density = 25.005874 Si / 1000 Ang^3
#
#
#
# Elastic Constant Matrix: (Units=GPa)
#
#
# Indices 1 2 3 4 5 6 
#
# 1 73.5058 8.4877 54.7963 0.0000 -7.3427 0.0000
# 2 8.4877 99.4763 16.1616 0.0000 5.0087 0.0000
# 3 54.7963 16.1616 191.6761 0.0000 2.3740 0.0000
# 4 0.0000 0.0000 0.0000 27.8357 0.0000 7.6642
# 5 -7.3427 5.0087 2.3740 0.0000 35.6322 0.0000
# 6 0.0000 0.0000 0.0000 7.6642 0.0000 18.5873
#
#
#
# Elastic Compliance Matrix: (Units=1/GPa)
#
#
# Indices 1 2 3 4 5 6 
#
# 1 0.017927 -0.000911 -0.005100 0.000000 0.004162 0.000000
# 2 -0.000911 0.010306 -0.000589 0.000000 -0.001597 0.000000
# 3 -0.005100 -0.000589 0.006742 0.000000 -0.001417 0.000000
# 4 0.000000 0.000000 0.000000 0.040526 0.000000 -0.016710
# 5 0.004162 -0.001597 -0.001417 0.000000 0.029241 0.000000
# 6 0.000000 0.000000 0.000000 -0.016710 0.000000 0.060690
#
#
# Mechanical properties :
#
#
# Convention : Reuss Voigt Hill
#
# Bulk Modulus (GPa) = 45.91966 58.17215 52.04590
# Shear Modulus (GPa) = 26.89755 35.42522 31.16139
#
# Velocity S-wave (km/s) = 3.28327 3.76796 3.53393
# Velocity P-wave (km/s) = 5.72508 6.49953 6.12456
#
# Compressibility (1/GPa) = 0.02177717
#
# Stress axis : x y z
#
# Youngs Moduli (GPa) = 55.78201 97.02674 148.31854
#
# Poissons Ratio (x) = 0.08835 0.75638
# Poissons Ratio (y) = 0.05080 0.08735
# Poissons Ratio (z) = 0.28447 0.05714
#
# Static dielectric constant tensor:
#      x y z
#    x 1.982830 0.000000 -0.006500 
#    y 0.000000 2.132690 0.000000 
#    z -0.006500 0.000000 1.937720 
# 
# From -- ./inp_files/47669.got.cif
#   From: 2010.05.17/outbox.cif.g08.bks.cpg/sg11_24_cif.got.tgz:47669.got - 2010.06.03 12:22:45.
