data_PCOD9159875
_publ_section_title
;
Structure prediction by ZEFSAII (Michael W. Deem and Ramdas Pophale) SiO2 
 PCOD9159875
Probable space group: P 21/M
;
_chemical_formula_sum "Si O2"
_cell_formula_units_Z 32
_cell_length_a 24.862286
_cell_length_b 11.727049
_cell_length_c 12.164733
_cell_angle_alpha 90.000000
_cell_angle_beta 152.515590
_cell_angle_gamma 90.000000
_cell_volume 1636.857605
_symmetry_space_group_name_H-M "P 21/M"
_symmetry_group_IT_number 11
_symmetry_cell_setting 'monoclinic'
loop_
_space_group_symop_operation_xyz
x,y,z
-x,1/2+y,-z
-x,-y,-z
x,1/2-y,z
loop_
_atom_site_type_symbol
_atom_site_label
_atom_site_fract_x
_atom_site_fract_y
_atom_site_fract_z
Si Si1 0.004994 0.122948 0.570119
Si Si2 0.656784 0.619777 0.459319
Si Si3 0.600403 0.377696 0.632942
Si Si4 0.806708 0.959227 0.933076
Si Si5 0.447779 0.970997 0.221504
Si Si6 0.232950 0.622242 0.725065
Si Si7 0.816201 0.026416 0.598818
Si Si8 0.039108 0.618299 0.937555
O O1 0.999732 0.250000 0.504228
O O2 0.893294 0.120046 0.447846
O O3 0.000000 0.000000 0.500000
O O4 0.123356 0.116888 0.854926
O O5 0.649150 0.750000 0.409062
O O6 0.747275 0.608828 0.725503
O O7 0.535125 0.576565 0.288081
O O8 0.708557 0.538373 0.459721
O O9 0.642342 0.250000 0.691588
O O10 0.705264 0.466629 0.805725
O O11 0.552224 0.393128 0.668596
O O12 0.500916 0.411835 0.364982
O O13 0.899364 0.045413 0.045976
O O14 0.318971 0.966878 0.939185
O O15 0.281803 0.750000 0.831198
O O16 0.220352 0.596471 0.573975
O O17 0.879848 0.101555 0.807540
O O18 0.913762 0.934856 0.738439
O O19 0.030478 0.750000 0.893151
#
# Coordination Sequence:
#
# PCOD9159875 Si02
#       8
#     4   4   4   4   4   4   4   4
#     4  11  24  41  60  89 126 164 203 249 307 370
#     4  10  20  36  58  83 113 149 195 251 297 347
#     4  10  20  38  63  88 117 153 201 257 303 356
#     4  10  20  36  60  88 114 151 199 245 303 365
#     4  10  22  38  59  85 114 154 204 240 296 360
#     4  11  22  40  61  83 121 162 200 244 300 365
#     4  10  21  35  54  85 114 153 201 238 301 359
#     4  10  19  34  55  82 117 151 195 249 300 358
#
# _framework density 19.549655000000001
#
# number of rings (size 3 to 8) (size 9 to 14) (size 15 to 20)
#    0.000    1.750    1.250    3.375    0.000    2.500 
#    0.000    6.875    0.000    0.000    0.000    0.000 
#    0.000    0.000    0.000    0.000    0.000    0.000 
#
# Total GULP energy -178623.348629 kJ/mol
# GULP energy per Si atom -5581.979645 kJ/mol
# Density = 1.950516 g / cm^3
# Si number density = 19.549655 Si / 1000 Ang^3
#
#
#
# Elastic Constant Matrix: (Units=GPa)
#
#
# Indices 1 2 3 4 5 6 
#
# 1 85.5399 27.8910 8.0503 0.0000 14.4295 0.0000
# 2 27.8910 86.6214 7.3532 0.0000 4.5960 0.0000
# 3 8.0503 7.3532 55.8246 0.0000 5.3582 0.0000
# 4 0.0000 0.0000 0.0000 13.0499 0.0000 -1.2923
# 5 14.4295 4.5960 5.3582 0.0000 24.0081 0.0000
# 6 0.0000 0.0000 0.0000 -1.2923 0.0000 11.4066
#
#
#
# Elastic Compliance Matrix: (Units=1/GPa)
#
#
# Indices 1 2 3 4 5 6 
#
# 1 0.014422 -0.004168 -0.000792 0.000000 -0.007693 0.000000
# 2 -0.004168 0.012968 -0.001134 0.000000 0.000276 0.000000
# 3 -0.000792 -0.001134 0.018507 0.000000 -0.003437 0.000000
# 4 0.000000 0.000000 0.000000 0.077498 0.000000 0.008780
# 5 -0.007693 0.000276 -0.003437 0.000000 0.046991 0.000000
# 6 0.000000 0.000000 0.000000 0.008780 0.000000 0.088664
#
#
# Mechanical properties :
#
#
# Convention : Reuss Voigt Hill
#
# Bulk Modulus (GPa) = 29.66595 34.95276 32.30936
# Shear Modulus (GPa) = 17.70077 22.00567 19.85322
#
# Velocity S-wave (km/s) = 3.01229 3.35868 3.19019
# Velocity P-wave (km/s) = 5.22553 5.74097 5.48930
#
# Compressibility (1/GPa) = 0.03370868
#
# Stress axis : x y z
#
# Youngs Moduli (GPa) = 69.33936 77.11168 54.03442
#
# Poissons Ratio (x) = 0.32142 0.04281
# Poissons Ratio (y) = 0.28902 0.06125
# Poissons Ratio (z) = 0.05494 0.08741
#
# Static dielectric constant tensor:
#      x y z
#    x 1.670190 0.000000 -0.006470 
#    y 0.000000 1.690790 0.000000 
#    z -0.006470 0.000000 1.681450 
# 
# From -- ./inp_files/44237.got.cif
#   From: 2010.05.17/outbox.cif.g08.bks.cpg/sg11_23_cif.got.tgz:44237.got - 2010.06.03 12:22:45.
