data_PCOD9159915
_publ_section_title
;
Structure prediction by ZEFSAII (Michael W. Deem and Ramdas Pophale) SiO2 
 PCOD9159915
Probable space group: P 21/M
;
_chemical_formula_sum "Si O2"
_cell_formula_units_Z 32
_cell_length_a 25.997902
_cell_length_b 8.942572
_cell_length_c 20.883024
_cell_angle_alpha 90.000000
_cell_angle_beta 22.628343
_cell_angle_gamma 90.000000
_cell_volume 1867.991886
_symmetry_space_group_name_H-M "P 21/M"
_symmetry_group_IT_number 11
_symmetry_cell_setting 'monoclinic'
loop_
_space_group_symop_operation_xyz
x,y,z
-x,1/2+y,-z
-x,-y,-z
x,1/2-y,z
loop_
_atom_site_type_symbol
_atom_site_label
_atom_site_fract_x
_atom_site_fract_y
_atom_site_fract_z
Si Si1 0.618521 0.069777 0.153978
Si Si2 0.341011 0.569870 0.520191
Si Si3 0.879407 0.429018 0.330570
Si Si4 0.402782 0.570923 0.966547
Si Si5 0.283647 0.428815 0.368945
Si Si6 0.643378 0.571262 0.852463
Si Si7 0.830737 0.069649 0.018441
Si Si8 0.356543 0.930172 0.648638
O O1 0.604752 0.250000 0.171692
O O2 0.642323 0.027345 0.052722
O O3 0.480089 0.999846 0.337055
O O4 0.737203 0.027715 0.065657
O O5 0.352005 0.750000 0.504457
O O6 0.221946 0.523648 0.609752
O O7 0.317172 0.527949 0.621541
O O8 0.886248 0.250000 0.323092
O O9 0.815055 0.486873 0.470517
O O10 0.024965 0.496736 0.152430
O O11 0.391305 0.750000 0.987157
O O12 0.561744 0.535097 0.790242
O O13 0.324851 0.492911 0.114233
O O14 0.267891 0.250000 0.395091
O O15 0.266839 0.464739 0.312815
O O16 0.630714 0.750000 0.869817
O O17 0.500000 0.500000 0.000000
O O18 0.844214 0.250000 0.003011
O O19 0.751443 0.025031 0.173948
O O20 0.368811 0.750000 0.637531
O O21 0.500000 0.000000 0.500000
#
# Coordination Sequence:
#
# PCOD9159915 Si02
#       8
#     4   4   4   4   4   4   4   4
#     4  10  19  34  56  81 106 139 182 220 263 320
#     4  10  21  35  54  82 110 137 175 224 270 314
#     4  11  23  36  52  78 111 144 178 220 269 317
#     4   9  17  29  49  78 108 135 172 221 265 313
#     4   9  17  31  51  74 104 141 177 216 261 314
#     4   9  17  28  45  73 107 140 174 215 264 313
#     4  10  22  38  56  78 106 143 182 219 265 322
#     4  10  20  36  58  81 107 138 176 221 269 319
#
# _framework density 17.130696
#
# number of rings (size 3 to 8) (size 9 to 14) (size 15 to 20)
#    0.000    2.250    2.500    1.500    0.000    5.000 
#    0.000    0.000    0.000    0.750    0.000    0.000 
#    0.000    0.000    0.000    0.000    0.000    0.000 
#
# Total GULP energy -178463.531367 kJ/mol
# GULP energy per Si atom -5576.985355 kJ/mol
# Density = 1.709171 g / cm^3
# Si number density = 17.130696 Si / 1000 Ang^3
#
#
#
# Elastic Constant Matrix: (Units=GPa)
#
#
# Indices 1 2 3 4 5 6 
#
# 1 156.3249 42.3669 93.2095 0.0000 25.6479 0.0000
# 2 42.3669 22.3181 43.4895 0.0000 7.1529 0.0000
# 3 93.2095 43.4895 129.1154 0.0000 11.6413 0.0000
# 4 0.0000 0.0000 0.0000 29.8586 0.0000 2.4821
# 5 25.6479 7.1529 11.6413 0.0000 33.6892 0.0000
# 6 0.0000 0.0000 0.0000 2.4821 0.0000 21.4670
#
#
#
# Elastic Compliance Matrix: (Units=1/GPa)
#
#
# Indices 1 2 3 4 5 6 
#
# 1 0.014652 -0.018469 -0.003824 0.000000 -0.005912 0.000000
# 2 -0.018469 0.159340 -0.039794 0.000000 -0.006019 0.000000
# 3 -0.003824 -0.039794 0.023621 0.000000 0.003198 0.000000
# 4 0.000000 0.000000 0.000000 0.033816 0.000000 -0.003910
# 5 -0.005912 -0.006019 0.003198 0.000000 0.034357 0.000000
# 6 0.000000 0.000000 0.000000 -0.003910 0.000000 0.047035
#
#
# Mechanical properties :
#
#
# Convention : Reuss Voigt Hill
#
# Bulk Modulus (GPa) = 13.61673 73.98779 43.80226
# Shear Modulus (GPa) = 10.83483 25.58247 18.20865
#
# Velocity S-wave (km/s) = 2.51764 3.86861 3.26379
# Velocity P-wave (km/s) = 4.05183 7.95228 6.31095
#
# Compressibility (1/GPa) = 0.07343909
#
# Stress axis : x y z
#
# Youngs Moduli (GPa) = 68.24879 6.27590 42.33555
#
# Poissons Ratio (x) = 0.11591 0.16188
# Poissons Ratio (y) = 1.26048 1.68471
# Poissons Ratio (z) = 0.26097 0.24974
#
# Static dielectric constant tensor:
#      x y z
#    x 1.609220 0.000000 0.024690 
#    y 0.000000 1.571990 0.000000 
#    z 0.024690 0.000000 1.544190 
# 
# From -- ./inp_files/66929.got.cif
#   From: 2010.05.17/outbox.cif.g08.bks.cpg/sg11_34_cif.got.tgz:66929.got - 2010.06.03 12:22:45.
