data_PCOD9159511
_publ_section_title
;
Structure prediction by ZEFSAII (Michael W. Deem and Ramdas Pophale) SiO2 
 PCOD9159511
Probable space group: P 21/M
;
_chemical_formula_sum "Si O2"
_cell_formula_units_Z 28
_cell_length_a 15.461316
_cell_length_b 8.935591
_cell_length_c 20.383284
_cell_angle_alpha 90.000000
_cell_angle_beta 146.945459
_cell_angle_gamma 90.000000
_cell_volume 1535.990738
_symmetry_space_group_name_H-M "P 21/M"
_symmetry_group_IT_number 11
_symmetry_cell_setting 'monoclinic'
loop_
_space_group_symop_operation_xyz
x,y,z
-x,1/2+y,-z
-x,-y,-z
x,1/2-y,z
loop_
_atom_site_type_symbol
_atom_site_label
_atom_site_fract_x
_atom_site_fract_y
_atom_site_fract_z
Si Si1 0.547783 0.568025 0.600902
Si Si2 0.380646 0.924582 0.019762
Si Si3 0.036174 0.924133 0.453402
Si Si4 0.590452 0.919247 0.831539
Si Si5 0.841642 0.920387 0.873413
Si Si6 0.715864 0.921559 0.167593
Si Si7 0.657530 0.927387 0.412396
O O1 0.500000 0.500000 0.500000
O O2 0.543857 0.750000 0.596986
O O3 0.724964 0.522753 0.740364
O O4 0.423219 0.508444 0.576343
O O5 0.363856 0.750000 0.024229
O O6 0.563304 0.956120 0.115464
O O7 0.340619 0.024591 0.056438
O O8 0.282747 0.970307 0.893562
O O9 0.080961 0.750000 0.491203
O O10 0.874302 0.929781 0.309602
O O11 0.172371 0.007935 0.499325
O O12 0.000000 0.000000 0.500000
O O13 0.527257 0.750000 0.796652
O O14 0.723580 0.919165 0.860393
O O15 0.455006 0.031244 0.720704
O O16 0.885012 0.750000 0.883688
O O17 0.000000 0.000000 0.000000
O O18 0.692927 0.750000 0.129579
O O19 0.662102 0.750000 0.425980
#
# Coordination Sequence:
#
# PCOD9159511 Si02
#       7
#     4   4   4   4   4   4   4
#     4  10  21  40  63  89 118 155 197 242 296 358
#     4  10  19  33  55  81 106 140 184 228 276 330
#     4  11  22  37  57  82 114 152 192 236 284 337
#     4  10  20  36  57  81 110 145 184 227 277 337
#     4   9  20  37  58  85 115 145 186 234 284 343
#     4   9  20  36  52  74 108 145 183 226 274 328
#     4  11  22  37  58  85 115 149 192 239 285 342
#
# _framework density 18.229275999999999
#
# number of rings (size 3 to 8) (size 9 to 14) (size 15 to 20)
#    0.000    2.000    0.000    4.714    0.000    6.286 
#    2.571    0.000    0.000    0.000    0.000    0.000 
#    0.000    0.000    0.000    0.000    0.000    0.000 
#
# Total GULP energy -156195.480572 kJ/mol
# GULP energy per Si atom -5578.410020 kJ/mol
# Density = 1.818779 g / cm^3
# Si number density = 18.229276 Si / 1000 Ang^3
#
#
#
# Elastic Constant Matrix: (Units=GPa)
#
#
# Indices 1 2 3 4 5 6 
#
# 1 60.8927 36.0041 36.1359 0.0000 -17.6582 0.0000
# 2 36.0041 95.1102 44.5618 0.0000 -5.8863 0.0000
# 3 36.1359 44.5618 99.2687 0.0000 -4.6098 0.0000
# 4 0.0000 0.0000 0.0000 32.1692 0.0000 -2.5692
# 5 -17.6582 -5.8863 -4.6098 0.0000 21.6887 0.0000
# 6 0.0000 0.0000 0.0000 -2.5692 0.0000 30.5724
#
#
#
# Elastic Compliance Matrix: (Units=1/GPa)
#
#
# Indices 1 2 3 4 5 6 
#
# 1 0.031259 -0.007116 -0.007163 0.000000 0.021997 0.000000
# 2 -0.007116 0.015056 -0.004290 0.000000 -0.002619 0.000000
# 3 -0.007163 -0.004290 0.014424 0.000000 -0.003931 0.000000
# 4 0.000000 0.000000 0.000000 0.031296 0.000000 0.002630
# 5 0.021997 -0.002619 -0.003931 0.000000 0.062470 0.000000
# 6 0.000000 0.000000 0.000000 0.002630 0.000000 0.032930
#
#
# Mechanical properties :
#
#
# Convention : Reuss Voigt Hill
#
# Bulk Modulus (GPa) = 42.36982 54.29724 48.33353
# Shear Modulus (GPa) = 21.51090 26.12404 23.81747
#
# Velocity S-wave (km/s) = 3.43887 3.78971 3.61855
# Velocity P-wave (km/s) = 6.24988 6.99997 6.63553
#
# Compressibility (1/GPa) = 0.02360171
#
# Stress axis : x y z
#
# Youngs Moduli (GPa) = 31.99028 66.42049 69.32665
#
# Poissons Ratio (x) = 0.47263 0.49661
# Poissons Ratio (y) = 0.22763 0.29740
# Poissons Ratio (z) = 0.22916 0.28493
#
# Static dielectric constant tensor:
#      x y z
#    x 1.605890 0.000000 0.002960 
#    y 0.000000 1.740320 0.000000 
#    z 0.002960 0.000000 1.652160 
# 
# From -- ./inp_files/53297.got.cif
#   From: 2010.05.17/outbox.cif.g08.bks.cpg/sg11_27_cif.got.tgz:53297.got - 2010.06.03 12:22:45.
