data_PCOD9159909
_publ_section_title
;
Structure prediction by ZEFSAII (Michael W. Deem and Ramdas Pophale) SiO2 
 PCOD9159909
Probable space group: P 21/M
;
_chemical_formula_sum "Si O2"
_cell_formula_units_Z 20
_cell_length_a 14.636934
_cell_length_b 9.892696
_cell_length_c 9.602972
_cell_angle_alpha 90.000000
_cell_angle_beta 142.028750
_cell_angle_gamma 90.000000
_cell_volume 855.526268
_symmetry_space_group_name_H-M "P 21/M"
_symmetry_group_IT_number 11
_symmetry_cell_setting 'monoclinic'
loop_
_space_group_symop_operation_xyz
x,y,z
-x,1/2+y,-z
-x,-y,-z
x,1/2-y,z
loop_
_atom_site_type_symbol
_atom_site_label
_atom_site_fract_x
_atom_site_fract_y
_atom_site_fract_z
Si Si1 0.484638 0.964839 0.225062
Si Si2 0.667093 0.609332 0.174085
Si Si3 0.826893 0.097897 0.209370
Si Si4 0.779658 0.592090 0.696134
Si Si5 0.997894 0.408755 0.779340
O O1 0.565851 0.896583 0.188470
O O2 0.608899 0.955972 0.491173
O O3 0.326121 0.898462 0.065948
O O4 0.432581 0.102549 0.086718
O O5 0.752908 0.750000 0.276651
O O6 0.763426 0.473983 0.272215
O O7 0.880669 0.250000 0.290040
O O8 0.937780 0.992898 0.272445
O O9 0.785081 0.750000 0.657831
O O10 0.866799 0.493402 0.695500
O O11 0.866918 0.587240 0.945710
O O12 0.963934 0.250000 0.713857
#
# Coordination Sequence:
#
# PCOD9159909 Si02
#       5
#     4   4   4   4   4
#     4   9  20  32  60  82 108 137 176 216 266 318
#     4   9  18  33  55  82 111 137 172 220 264 311
#     4  10  19  34  56  80 109 142 175 216 266 315
#     4  10  20  38  58  77 105 143 179 217 265 318
#     4  10  22  37  54  78 109 141 179 221 263 311
#
# _framework density 23.377423
#
# number of rings (size 3 to 8) (size 9 to 14) (size 15 to 20)
#    1.200    1.200    0.000    3.000    0.000    2.400 
#    0.000    1.000    0.000    0.000    0.000    0.000 
#    0.000    0.000    0.000    0.000    0.000    0.000 
#
# Total GULP energy -111440.589751 kJ/mol
# GULP energy per Si atom -5572.029488 kJ/mol
# Density = 2.332421 g / cm^3
# Si number density = 23.377423 Si / 1000 Ang^3
#
#
#
# Elastic Constant Matrix: (Units=GPa)
#
#
# Indices 1 2 3 4 5 6 
#
# 1 66.5328 60.7232 3.8736 0.0000 12.9617 0.0000
# 2 60.7232 184.3289 3.9657 0.0000 3.8267 0.0000
# 3 3.8736 3.9657 122.3563 0.0000 20.2502 0.0000
# 4 0.0000 0.0000 0.0000 2.2367 0.0000 18.6410
# 5 12.9617 3.8267 20.2502 0.0000 34.7376 0.0000
# 6 0.0000 0.0000 0.0000 18.6410 0.0000 -5.6448
#
#
#
# Elastic Compliance Matrix: (Units=1/GPa)
#
#
# Indices 1 2 3 4 5 6 
#
# 1 0.023576 -0.007610 0.000905 0.000000 -0.008486 0.000000
# 2 -0.007610 0.007895 -0.000377 0.000000 0.002190 0.000000
# 3 0.000905 -0.000377 0.009082 0.000000 -0.005590 0.000000
# 4 0.000000 0.000000 0.000000 0.015675 0.000000 0.051764
# 5 -0.008486 0.002190 -0.005590 0.000000 0.034971 0.000000
# 6 0.000000 0.000000 0.000000 0.051764 0.000000 -0.006211
#
#
# Mechanical properties :
#
#
# Convention : Reuss Voigt Hill
#
# Bulk Modulus (GPa) = 37.89701 56.70476 47.30088
# Shear Modulus (GPa) = 46.31831 26.57627 36.44729
#
# Velocity S-wave (km/s) = 4.45604 3.37536 3.95280
# Velocity P-wave (km/s) = 6.53614 6.28487 6.41174
#
# Compressibility (1/GPa) = 0.02638731
#
# Stress axis : x y z
#
# Youngs Moduli (GPa) = 42.41561 126.66750 110.11257
#
# Poissons Ratio (x) = 0.96394 -0.09962
# Poissons Ratio (y) = 0.32278 0.04155
# Poissons Ratio (z) = -0.03838 0.04780
#
# Static dielectric constant tensor:
#      x y z
#    x 1.845110 0.000000 -0.020500 
#    y 0.000000 1.851130 0.000000 
#    z -0.020500 0.000000 2.021980 
# 
# From -- ./inp_files/40838.got.cif
#   From: 2010.05.17/outbox.cif.g08.bks.cpg/sg11_21_cif.got.tgz:40838.got - 2010.06.03 12:22:45.
