data_PCOD9159191
_publ_section_title
;
Structure prediction by ZEFSAII (Michael W. Deem and Ramdas Pophale) SiO2 
 PCOD9159191
Probable space group: P 21/M
;
_chemical_formula_sum "Si O2"
_cell_formula_units_Z 32
_cell_length_a 14.644282
_cell_length_b 8.898764
_cell_length_c 28.589516
_cell_angle_alpha 90.000000
_cell_angle_beta 150.439450
_cell_angle_gamma 90.000000
_cell_volume 1838.034299
_symmetry_space_group_name_H-M "P 21/M"
_symmetry_group_IT_number 11
_symmetry_cell_setting 'monoclinic'
loop_
_space_group_symop_operation_xyz
x,y,z
-x,1/2+y,-z
-x,-y,-z
x,1/2-y,z
loop_
_atom_site_type_symbol
_atom_site_label
_atom_site_fract_x
_atom_site_fract_y
_atom_site_fract_z
Si Si1 0.306138 0.422436 0.561048
Si Si2 0.972250 0.569040 0.645397
Si Si3 0.195442 0.927849 0.599809
Si Si4 0.746577 0.568401 0.922276
Si Si5 0.132222 0.070602 0.125960
Si Si6 0.283738 0.924509 0.287606
Si Si7 0.702281 0.068556 0.601719
Si Si8 0.343186 0.567005 0.766206
O O1 0.281916 0.250000 0.566311
O O2 0.323317 0.527680 0.613363
O O3 0.493198 0.430210 0.614948
O O4 0.134572 0.460261 0.451193
O O5 0.964036 0.750000 0.648966
O O6 0.186136 0.521821 0.733511
O O7 0.854454 0.487712 0.632646
O O8 0.175914 0.750000 0.594099
O O9 0.272085 0.981922 0.683402
O O10 0.000000 0.000000 0.500000
O O11 0.760414 0.750000 0.931291
O O12 0.748467 0.529591 0.867486
O O13 0.557222 0.520379 0.863485
O O14 0.928679 0.495793 0.025427
O O15 0.124257 0.250000 0.124053
O O16 0.208174 0.009930 0.208805
O O17 0.227887 0.750000 0.258070
O O18 0.235203 0.978043 0.318022
O O19 0.686900 0.250000 0.594047
O O20 0.500000 0.000000 0.500000
O O21 0.342792 0.750000 0.766398
#
# Coordination Sequence:
#
# PCOD9159191 Si02
#       8
#     4   4   4   4   4   4   4   4
#     4  10  19  33  49  71 104 140 175 214 259 311
#     4  10  19  35  53  73 105 142 178 219 263 313
#     4  11  20  31  46  70 104 141 178 214 252 306
#     4   9  18  35  57  80 108 143 177 213 265 324
#     4  10  20  34  55  84 111 136 176 225 266 314
#     4  10  21  36  54  75 106 142 174 217 273 322
#     4  11  22  37  55  78 106 141 184 226 271 319
#     4   9  18  33  53  73 103 144 180 213 260 320
#
# _framework density 17.409903
#
# number of rings (size 3 to 8) (size 9 to 14) (size 15 to 20)
#    0.000    2.000    2.500    1.875    0.000    3.500 
#    0.000    1.875    0.000    0.750    0.000    0.000 
#    0.000    0.000    0.000    0.000    0.000    0.000 
#
# Total GULP energy -178457.048473 kJ/mol
# GULP energy per Si atom -5576.782765 kJ/mol
# Density = 1.737028 g / cm^3
# Si number density = 17.409903 Si / 1000 Ang^3
#
#
#
# Elastic Constant Matrix: (Units=GPa)
#
#
# Indices 1 2 3 4 5 6 
#
# 1 118.0753 31.5353 43.8536 0.0000 12.0699 0.0000
# 2 31.5353 28.7541 23.1326 0.0000 -0.9766 0.0000
# 3 43.8536 23.1326 74.7036 0.0000 7.4334 0.0000
# 4 0.0000 0.0000 0.0000 23.8495 0.0000 -1.0551
# 5 12.0699 -0.9766 7.4334 0.0000 28.1536 0.0000
# 6 0.0000 0.0000 0.0000 -1.0551 0.0000 29.1155
#
#
#
# Elastic Compliance Matrix: (Units=1/GPa)
#
#
# Indices 1 2 3 4 5 6 
#
# 1 0.013632 -0.012139 -0.003718 0.000000 -0.005284 0.000000
# 2 -0.012139 0.057982 -0.011858 0.000000 0.010346 0.000000
# 3 -0.003718 -0.011858 0.019639 0.000000 -0.004003 0.000000
# 4 0.000000 0.000000 0.000000 0.041997 0.000000 0.001522
# 5 -0.005284 0.010346 -0.004003 0.000000 0.039200 0.000000
# 6 0.000000 0.000000 0.000000 0.001522 0.000000 0.034401
#
#
# Mechanical properties :
#
#
# Convention : Reuss Voigt Hill
#
# Bulk Modulus (GPa) = 27.91485 46.50843 37.21164
# Shear Modulus (GPa) = 18.23331 24.42448 21.32890
#
# Velocity S-wave (km/s) = 3.23970 3.74960 3.50394
# Velocity P-wave (km/s) = 5.48297 6.74669 6.14739
#
# Compressibility (1/GPa) = 0.03582322
#
# Stress axis : x y z
#
# Youngs Moduli (GPa) = 73.35549 17.24663 50.91926
#
# Poissons Ratio (x) = 0.20936 0.18931
# Poissons Ratio (y) = 0.89049 0.60380
# Poissons Ratio (z) = 0.27272 0.20451
#
# Static dielectric constant tensor:
#      x y z
#    x 1.631430 0.000000 0.018770 
#    y 0.000000 1.591430 0.000000 
#    z 0.018770 0.000000 1.579060 
# 
# From -- ./inp_files/71646.got.cif
#   From: 2010.05.17/outbox.cif.g08.bks.cpg/sg11_36_cif.got.tgz:71646.got - 2010.06.03 12:22:45.
