data_PCOD9159344
_publ_section_title
;
Structure prediction by ZEFSAII (Michael W. Deem and Ramdas Pophale) SiO2 
 PCOD9159344
Probable space group: P 21/M
;
_chemical_formula_sum "Si O2"
_cell_formula_units_Z 28
_cell_length_a 19.317939
_cell_length_b 8.618063
_cell_length_c 23.840910
_cell_angle_alpha 90.000000
_cell_angle_beta 23.724901
_cell_angle_gamma 90.000000
_cell_volume 1596.954845
_symmetry_space_group_name_H-M "P 21/M"
_symmetry_group_IT_number 11
_symmetry_cell_setting 'monoclinic'
loop_
_space_group_symop_operation_xyz
x,y,z
-x,1/2+y,-z
-x,-y,-z
x,1/2-y,z
loop_
_atom_site_type_symbol
_atom_site_label
_atom_site_fract_x
_atom_site_fract_y
_atom_site_fract_z
Si Si1 0.565938 0.936550 0.711309
Si Si2 0.187021 0.063780 0.374279
Si Si3 0.115132 0.561583 0.730581
Si Si4 0.569195 0.436066 0.583748
Si Si5 0.729834 0.936872 0.988964
Si Si6 0.351504 0.936329 0.651347
Si Si7 0.502049 0.063634 0.061069
O O1 0.558857 0.750000 0.715995
O O2 0.730023 0.984521 0.627726
O O3 0.575290 0.000165 0.641813
O O4 0.399310 0.999517 0.867839
O O5 0.178477 0.250000 0.380603
O O6 0.326772 0.017631 0.223585
O O7 0.000000 0.000000 0.500000
O O8 0.114643 0.750000 0.729442
O O9 0.261940 0.512171 0.577161
O O10 0.178285 0.518225 0.746451
O O11 0.924593 0.509537 0.856157
O O12 0.567630 0.250000 0.585451
O O13 0.401417 0.494887 0.674347
O O14 0.725407 0.750000 0.992798
O O15 0.656676 0.996947 0.984037
O O16 0.359865 0.750000 0.647766
O O17 0.500000 0.000000 0.500000
O O18 0.512313 0.250000 0.053337
O O19 0.500000 0.000000 0.000000
#
# Coordination Sequence:
#
# PCOD9159344 Si02
#       7
#     4   4   4   4   4   4   4
#     4  10  21  37  52  74 106 138 169 208 253 303
#     4   9  20  36  54  75 102 132 168 209 253 301
#     4   8  17  32  52  77 104 131 168 212 255 300
#     4  10  19  33  53  78 103 134 173 214 255 300
#     4  10  19  35  56  77 102 136 170 207 254 305
#     4   9  16  30  50  74 104 136 167 209 256 301
#     4  10  21  37  54  77 105 135 169 209 252 300
#
# _framework density 17.533370999999999
#
# number of rings (size 3 to 8) (size 9 to 14) (size 15 to 20)
#    0.000    2.571    0.000    3.857    0.000    4.571 
#    0.000   13.571    0.000    0.000    0.000    0.000 
#    0.000    0.000    0.000    0.000    0.000    0.000 
#
# Total GULP energy -156094.438704 kJ/mol
# GULP energy per Si atom -5574.801382 kJ/mol
# Density = 1.749346 g / cm^3
# Si number density = 17.533371 Si / 1000 Ang^3
#
#
#
# Elastic Constant Matrix: (Units=GPa)
#
#
# Indices 1 2 3 4 5 6 
#
# 1 209.7582 49.8926 97.9546 0.0000 -12.9853 0.0000
# 2 49.8926 55.6468 29.3018 0.0000 -4.9918 0.0000
# 3 97.9546 29.3018 91.0130 0.0000 -29.5655 0.0000
# 4 0.0000 0.0000 0.0000 23.3402 0.0000 -0.7249
# 5 -12.9853 -4.9918 -29.5655 0.0000 30.0056 0.0000
# 6 0.0000 0.0000 0.0000 -0.7249 0.0000 34.3843
#
#
#
# Elastic Compliance Matrix: (Units=1/GPa)
#
#
# Indices 1 2 3 4 5 6 
#
# 1 0.012122 -0.003801 -0.015184 0.000000 -0.010348 0.000000
# 2 -0.003801 0.023312 -0.003955 0.000000 -0.001663 0.000000
# 3 -0.015184 -0.003955 0.038614 0.000000 0.030818 0.000000
# 4 0.000000 0.000000 0.000000 0.042873 0.000000 0.000904
# 5 -0.010348 -0.001663 0.030818 0.000000 0.058939 0.000000
# 6 0.000000 0.000000 0.000000 0.000904 0.000000 0.029102
#
#
# Mechanical properties :
#
#
# Convention : Reuss Voigt Hill
#
# Bulk Modulus (GPa) = 35.50097 78.96844 57.23471
# Shear Modulus (GPa) = 19.21390 29.49728 24.35559
#
# Velocity S-wave (km/s) = 3.31395 4.10610 3.73111
# Velocity P-wave (km/s) = 5.91055 8.22294 7.16070
#
# Compressibility (1/GPa) = 0.02816824
#
# Stress axis : x y z
#
# Youngs Moduli (GPa) = 82.49786 42.89695 25.89758
#
# Poissons Ratio (x) = 0.16306 0.39322
# Poissons Ratio (y) = 0.31358 0.10241
# Poissons Ratio (z) = 1.25262 0.16964
#
# Static dielectric constant tensor:
#      x y z
#    x 1.587760 0.000000 -0.028860 
#    y 0.000000 1.593540 0.000000 
#    z -0.028860 0.000000 1.573360 
# 
# From -- ./inp_files/65386.got.cif
#   From: 2010.05.17/outbox.cif.g08.bks.cpg/sg11_33_cif.got.tgz:65386.got - 2010.06.03 12:22:45.
