data_PCOD9159085
_publ_section_title
;
Structure prediction by ZEFSAII (Michael W. Deem and Ramdas Pophale) SiO2 
 PCOD9159085
Probable space group: P 21/M
;
_chemical_formula_sum "Si O2"
_cell_formula_units_Z 28
_cell_length_a 12.368093
_cell_length_b 8.397752
_cell_length_c 15.449798
_cell_angle_alpha 90.000000
_cell_angle_beta 118.760339
_cell_angle_gamma 90.000000
_cell_volume 1406.727086
_symmetry_space_group_name_H-M "P 21/M"
_symmetry_group_IT_number 11
_symmetry_cell_setting 'monoclinic'
loop_
_space_group_symop_operation_xyz
x,y,z
-x,1/2+y,-z
-x,-y,-z
x,1/2-y,z
loop_
_atom_site_type_symbol
_atom_site_label
_atom_site_fract_x
_atom_site_fract_y
_atom_site_fract_z
Si Si1 0.018250 0.443761 0.281808
Si Si2 0.624671 0.563354 0.315994
Si Si3 0.124004 0.057075 0.498566
Si Si4 0.361830 0.065125 0.195039
Si Si5 0.608165 0.064275 0.981041
Si Si6 0.748498 0.063105 0.202113
Si Si7 0.083273 0.056183 0.113133
O O1 0.013935 0.250000 0.277129
O O2 0.114901 0.488008 0.393505
O O3 0.037217 0.496149 0.190570
O O4 0.886252 0.497063 0.267910
O O5 0.622468 0.750000 0.330455
O O6 0.746945 0.497206 0.411088
O O7 0.488245 0.500885 0.284559
O O8 0.653718 0.529126 0.226127
O O9 0.123231 0.250000 0.503781
O O10 0.000000 0.000000 0.500000
O O11 0.357986 0.250000 0.215124
O O12 0.225742 0.998646 0.162700
O O13 0.376427 0.038087 0.098069
O O14 0.589940 0.250000 0.951005
O O15 0.723406 0.052923 0.090349
O O16 0.500000 0.000000 0.000000
O O17 0.737223 0.250000 0.221095
O O18 0.082354 0.250000 0.110144
O O19 0.000000 0.000000 0.000000
#
# Coordination Sequence:
#
# PCOD9159085 Si02
#       7
#     4   4   4   4   4   4   4
#     4   9  18  36  60  83 111 150 192 233 287 348
#     4  11  22  34  53  83 116 149 187 236 290 340
#     4  10  20  35  58  87 117 151 190 237 291 349
#     4  11  23  38  56  80 114 156 197 238 290 347
#     4  11  21  32  51  81 113 146 187 232 285 348
#     4  10  19  32  54  80 110 147 183 227 287 349
#     4  10  22  41  64  87 113 152 198 242 287 344
#
# _framework density 19.904358999999999
#
# number of rings (size 3 to 8) (size 9 to 14) (size 15 to 20)
#    0.000    1.714    2.857    2.143    0.000    3.429 
#    0.000    2.143    0.000    0.000    0.000    0.000 
#    0.000    0.000    0.000    0.000    0.000    0.000 
#
# Total GULP energy -156143.832499 kJ/mol
# GULP energy per Si atom -5576.565446 kJ/mol
# Density = 1.985906 g / cm^3
# Si number density = 19.904359 Si / 1000 Ang^3
#
#
#
# Elastic Constant Matrix: (Units=GPa)
#
#
# Indices 1 2 3 4 5 6 
#
# 1 109.3115 10.6554 43.8818 0.0000 20.7214 0.0000
# 2 10.6554 15.0598 15.8124 0.0000 13.1375 0.0000
# 3 43.8818 15.8124 115.9265 0.0000 17.7702 0.0000
# 4 0.0000 0.0000 0.0000 21.9880 0.0000 5.0319
# 5 20.7214 13.1375 17.7702 0.0000 37.3064 0.0000
# 6 0.0000 0.0000 0.0000 5.0319 0.0000 18.0599
#
#
#
# Elastic Compliance Matrix: (Units=1/GPa)
#
#
# Indices 1 2 3 4 5 6 
#
# 1 0.011491 -0.000401 -0.003601 0.000000 -0.004526 0.000000
# 2 -0.000401 0.104356 -0.009152 0.000000 -0.032167 0.000000
# 3 -0.003601 -0.009152 0.011259 0.000000 -0.000140 0.000000
# 4 0.000000 0.000000 0.000000 0.048577 0.000000 -0.013535
# 5 -0.004526 -0.032167 -0.000140 0.000000 0.040713 0.000000
# 6 0.000000 0.000000 0.000000 -0.013535 0.000000 0.059142
#
#
# Mechanical properties :
#
#
# Convention : Reuss Voigt Hill
#
# Bulk Modulus (GPa) = 9.92079 42.33298 26.12689
# Shear Modulus (GPa) = 14.90559 26.80073 20.85316
#
# Velocity S-wave (km/s) = 2.73950 3.67342 3.24028
# Velocity P-wave (km/s) = 3.87318 6.26948 5.21094
#
# Compressibility (1/GPa) = 0.10079843
#
# Stress axis : x y z
#
# Youngs Moduli (GPa) = 87.02585 9.58261 88.81735
#
# Poissons Ratio (x) = 0.00384 0.31985
# Poissons Ratio (y) = 0.03489 0.81281
# Poissons Ratio (z) = 0.31340 0.08770
#
# Static dielectric constant tensor:
#      x y z
#    x 1.539380 0.000000 0.482650 
#    y 0.000000 1.703560 0.000000 
#    z 0.482650 0.000000 0.699450 
# 
# From -- ./inp_files/49480.got.cif
#   From: 2010.05.17/outbox.cif.g08.bks.cpg/sg11_25_cif.got.tgz:49480.got - 2010.06.03 12:22:45.
