data_PCOD9159061
_publ_section_title
;
Structure prediction by ZEFSAII (Michael W. Deem and Ramdas Pophale) SiO2 
 PCOD9159061
Probable space group: P 21/M
;
_chemical_formula_sum "Si O2"
_cell_formula_units_Z 28
_cell_length_a 9.455121
_cell_length_b 30.622279
_cell_length_c 5.149148
_cell_angle_alpha 90.000000
_cell_angle_beta 122.677186
_cell_angle_gamma 90.000000
_cell_volume 1254.904360
_symmetry_space_group_name_H-M "P 21/M"
_symmetry_group_IT_number 11
_symmetry_cell_setting 'monoclinic'
loop_
_space_group_symop_operation_xyz
x,y,z
-x,1/2+y,-z
-x,-y,-z
x,1/2-y,z
loop_
_atom_site_type_symbol
_atom_site_label
_atom_site_fract_x
_atom_site_fract_y
_atom_site_fract_z
Si Si1 0.904306 0.610198 0.807625
Si Si2 0.463646 0.591905 0.106815
Si Si3 0.415637 0.140303 0.267956
Si Si4 0.958999 0.039114 0.761753
Si Si5 0.839231 0.351121 0.285260
Si Si6 0.714062 0.301434 0.654348
Si Si7 0.740996 0.530553 0.353418
O O1 0.777499 0.640333 0.839611
O O2 0.800485 0.567332 0.619128
O O3 0.050399 0.586623 0.119660
O O4 0.979628 0.634651 0.636404
O O5 0.493344 0.607631 0.433010
O O6 0.274795 0.605049 0.844885
O O7 0.547036 0.544748 0.138454
O O8 0.566515 0.622547 0.005802
O O9 0.521695 0.184321 0.406012
O O10 0.122884 0.039848 0.738966
O O11 0.788668 0.018885 0.473896
O O12 0.000000 0.000000 0.000000
O O13 0.765343 0.319264 0.987988
O O14 0.819764 0.326946 0.538329
O O15 0.737445 0.250000 0.659907
#
# Coordination Sequence:
#
# PCOD9159061 Si02
#       7
#     4   4   4   4   4   4   4
#     4  10  19  32  53  82 109 136 184 230 264 316
#     4   9  17  33  50  78 104 142 181 216 255 324
#     4   9  18  32  56  76  99 135 179 217 255 310
#     4   9  17  29  49  77 105 145 186 227 271 299
#     4  10  22  34  59  83 110 141 173 218 279 322
#     4  10  21  40  57  77 106 142 173 209 268 340
#     4   9  17  30  52  73 107 147 187 224 263 313
#
# _framework density 22.312457999999999
#
# number of rings (size 3 to 8) (size 9 to 14) (size 15 to 20)
#    0.000    2.571    1.429    0.429    2.000    0.000 
#    0.000    2.143    0.000    7.714    0.000    0.000 
#    0.000    0.000    0.000    0.000    0.000    0.000 
#
# Total GULP energy -156143.739381 kJ/mol
# GULP energy per Si atom -5576.562121 kJ/mol
# Density = 2.226167 g / cm^3
# Si number density = 22.312458 Si / 1000 Ang^3
#
#
#
# Elastic Constant Matrix: (Units=GPa)
#
#
# Indices 1 2 3 4 5 6 
#
# 1 81.2931 7.9682 3.6913 0.0000 -5.1220 0.0000
# 2 7.9682 111.5800 28.3288 0.0000 3.3717 0.0000
# 3 3.6913 28.3288 63.1655 0.0000 -7.5536 0.0000
# 4 0.0000 0.0000 0.0000 24.0739 0.0000 -3.4147
# 5 -5.1220 3.3717 -7.5536 0.0000 25.9276 0.0000
# 6 0.0000 0.0000 0.0000 -3.4147 0.0000 24.8514
#
#
#
# Elastic Compliance Matrix: (Units=1/GPa)
#
#
# Indices 1 2 3 4 5 6 
#
# 1 0.012561 -0.000981 0.000018 0.000000 0.002614 0.000000
# 2 -0.000981 0.010381 -0.004955 0.000000 -0.002987 0.000000
# 3 0.000018 -0.004955 0.018785 0.000000 0.006121 0.000000
# 4 0.000000 0.000000 0.000000 0.042364 0.000000 0.005821
# 5 0.002614 -0.002987 0.006121 0.000000 0.041257 0.000000
# 6 0.000000 0.000000 0.000000 0.005821 0.000000 0.041039
#
#
# Mechanical properties :
#
#
# Convention : Reuss Voigt Hill
#
# Bulk Modulus (GPa) = 33.45489 37.33503 35.39496
# Shear Modulus (GPa) = 26.56941 29.37394 27.97168
#
# Velocity S-wave (km/s) = 3.45452 3.63227 3.54451
# Velocity P-wave (km/s) = 5.56219 5.86177 5.71395
#
# Compressibility (1/GPa) = 0.02989100
#
# Stress axis : x y z
#
# Youngs Moduli (GPa) = 79.61039 96.33332 53.23466
#
# Poissons Ratio (x) = 0.09447 -0.00098
# Poissons Ratio (y) = 0.07807 0.26380
# Poissons Ratio (z) = -0.00147 0.47738
#
# Static dielectric constant tensor:
#      x y z
#    x 1.845810 0.000000 0.062430 
#    y 0.000000 1.788250 0.000000 
#    z 0.062430 0.000000 2.000560 
# 
# From -- ./inp_files/3188.got.cif
#   From: 2010.05.17/outbox.cif.g08.bks.cpg/sg11_2_cif.got.tgz:3188.got - 2010.06.03 12:22:45.
