data_PCOD9159542
_publ_section_title
;
Structure prediction by ZEFSAII (Michael W. Deem and Ramdas Pophale) SiO2 
 PCOD9159542
Probable space group: P 21/M
;
_chemical_formula_sum "Si O2"
_cell_formula_units_Z 32
_cell_length_a 11.445332
_cell_length_b 15.444298
_cell_length_c 14.480974
_cell_angle_alpha 90.000000
_cell_angle_beta 136.268831
_cell_angle_gamma 90.000000
_cell_volume 1769.479649
_symmetry_space_group_name_H-M "P 21/M"
_symmetry_group_IT_number 11
_symmetry_cell_setting 'monoclinic'
loop_
_space_group_symop_operation_xyz
x,y,z
-x,1/2+y,-z
-x,-y,-z
x,1/2-y,z
loop_
_atom_site_type_symbol
_atom_site_label
_atom_site_fract_x
_atom_site_fract_y
_atom_site_fract_z
Si Si1 0.448000 0.523208 0.673552
Si Si2 0.384864 0.149277 0.745559
Si Si3 0.184098 0.982261 0.368441
Si Si4 0.239289 0.849414 0.024327
Si Si5 0.980262 0.145991 0.271257
Si Si6 0.041930 0.349174 0.653669
Si Si7 0.183309 0.976702 0.147841
Si Si8 0.230148 0.651145 0.665703
O O1 0.396391 0.425765 0.675661
O O2 0.354118 0.541033 0.522475
O O3 0.650445 0.533458 0.783469
O O4 0.368677 0.585971 0.705526
O O5 0.366412 0.250000 0.701866
O O6 0.567542 0.142894 0.898277
O O7 0.230601 0.132417 0.726448
O O8 0.136993 0.081320 0.367066
O O9 0.189137 0.971207 0.261402
O O10 0.037078 0.919446 0.323433
O O11 0.196928 0.750000 0.007014
O O12 0.224110 0.889071 0.116383
O O13 0.112662 0.884344 0.875491
O O14 0.017227 0.250000 0.291211
O O15 0.851964 0.130923 0.282584
O O16 0.034372 0.250000 0.685134
O O17 0.924381 0.352432 0.495371
O O18 0.000000 0.000000 0.000000
O O19 0.293953 0.750000 0.704204
#
# Coordination Sequence:
#
# PCOD9159542 Si02
#       8
#     4   4   4   4   4   4   4   4
#     4  10  21  36  56  82 107 141 181 225 269 318
#     4   9  17  32  54  81 112 140 173 219 270 323
#     4  11  21  35  57  81 109 142 183 223 267 314
#     4   9  19  36  55  75 106 144 183 223 265 318
#     4  10  19  33  55  83 111 141 175 218 271 327
#     4   9  18  33  54  82 112 140 172 216 268 325
#     4  11  22  40  55  74 105 145 186 226 266 310
#     4   9  18  34  55  80 112 141 170 215 272 326
#
# _framework density 18.084413000000001
#
# number of rings (size 3 to 8) (size 9 to 14) (size 15 to 20)
#    0.000    2.250    1.250    1.875    0.000    4.000 
#    2.250    3.125    0.000    3.000    0.000    0.000 
#    0.000    0.000    0.000    0.000    0.000    0.000 
#
# Total GULP energy -178168.350859 kJ/mol
# GULP energy per Si atom -5567.760964 kJ/mol
# Density = 1.804325 g / cm^3
# Si number density = 18.084413 Si / 1000 Ang^3
#
#
#
# Elastic Constant Matrix: (Units=GPa)
#
#
# Indices 1 2 3 4 5 6 
#
# 1 71.4916 29.5865 25.7299 0.0000 3.9875 0.0000
# 2 29.5865 41.5101 19.2602 0.0000 2.6186 0.0000
# 3 25.7299 19.2602 55.2043 0.0000 4.5129 0.0000
# 4 0.0000 0.0000 0.0000 20.3215 0.0000 -1.4535
# 5 3.9875 2.6186 4.5129 0.0000 32.5510 0.0000
# 6 0.0000 0.0000 0.0000 -1.4535 0.0000 16.7968
#
#
#
# Elastic Compliance Matrix: (Units=1/GPa)
#
#
# Indices 1 2 3 4 5 6 
#
# 1 0.021168 -0.012515 -0.005432 0.000000 -0.000833 0.000000
# 2 -0.012515 0.036170 -0.006750 0.000000 -0.000441 0.000000
# 3 -0.005432 -0.006750 0.023165 0.000000 -0.002003 0.000000
# 4 0.000000 0.000000 0.000000 0.049515 0.000000 0.004285
# 5 -0.000833 -0.000441 -0.002003 0.000000 0.031136 0.000000
# 6 0.000000 0.000000 0.000000 0.004285 0.000000 0.059906
#
#
# Mechanical properties :
#
#
# Convention : Reuss Voigt Hill
#
# Bulk Modulus (GPa) = 32.14444 35.26214 33.70329
# Shear Modulus (GPa) = 17.80463 20.17582 18.99023
#
# Velocity S-wave (km/s) = 3.14112 3.34375 3.24402
# Velocity P-wave (km/s) = 5.56496 5.86929 5.71915
#
# Compressibility (1/GPa) = 0.03110958
#
# Stress axis : x y z
#
# Youngs Moduli (GPa) = 47.24053 27.64684 43.16834
#
# Poissons Ratio (x) = 0.34600 0.23448
# Poissons Ratio (y) = 0.59121 0.29141
# Poissons Ratio (z) = 0.25660 0.18663
#
# Static dielectric constant tensor:
#      x y z
#    x 1.613810 0.000000 0.016950 
#    y 0.000000 1.641970 0.000000 
#    z 0.016950 0.000000 1.654990 
# 
# From -- ./inp_files/50388.got.cif
#   From: 2010.05.17/outbox.cif.g08.bks.cpg/sg11_26_cif.got.tgz:50388.got - 2010.06.03 12:22:45.
