data_PCOD9159195
_publ_section_title
;
Structure prediction by ZEFSAII (Michael W. Deem and Ramdas Pophale) SiO2 
 PCOD9159195
Probable space group: P 21/M
;
_chemical_formula_sum "Si O2"
_cell_formula_units_Z 32
_cell_length_a 14.996379
_cell_length_b 8.497131
_cell_length_c 17.388181
_cell_angle_alpha 90.000000
_cell_angle_beta 63.775380
_cell_angle_gamma 90.000000
_cell_volume 1987.643604
_symmetry_space_group_name_H-M "P 21/M"
_symmetry_group_IT_number 11
_symmetry_cell_setting 'monoclinic'
loop_
_space_group_symop_operation_xyz
x,y,z
-x,1/2+y,-z
-x,-y,-z
x,1/2-y,z
loop_
_atom_site_type_symbol
_atom_site_label
_atom_site_fract_x
_atom_site_fract_y
_atom_site_fract_z
Si Si1 0.014502 0.561499 0.582325
Si Si2 0.766594 0.440268 0.450335
Si Si3 0.439547 0.938371 0.910802
Si Si4 0.183129 0.938763 0.269961
Si Si5 0.448209 0.059644 0.744346
Si Si6 0.651024 0.561811 0.899642
Si Si7 0.674347 0.059080 0.647498
Si Si8 0.593663 0.561724 0.413341
O O1 0.016504 0.750000 0.576023
O O2 0.119368 0.510385 0.580027
O O3 0.000000 0.500000 0.500000
O O4 0.924887 0.507400 0.671239
O O5 0.764616 0.250000 0.444772
O O6 0.711585 0.487481 0.549919
O O7 0.698357 0.509683 0.409574
O O8 0.438013 0.750000 0.915576
O O9 0.553911 0.990827 0.886441
O O10 0.404690 0.993738 0.840153
O O11 0.373585 0.007882 0.004705
O O12 0.176661 0.750000 0.273548
O O13 0.250606 0.994885 0.316006
O O14 0.247077 0.991610 0.172261
O O15 0.443911 0.250000 0.749106
O O16 0.562921 0.006259 0.702959
O O17 0.410751 0.009968 0.674378
O O18 0.655945 0.750000 0.893887
O O19 0.674216 0.250000 0.649554
O O20 0.500000 0.500000 0.500000
O O21 0.585221 0.750000 0.417308
#
# Coordination Sequence:
#
# PCOD9159195 Si02
#       8
#     4   4   4   4   4   4   4   4
#     4  11  22  35  52  75 103 137 176 216 260 308
#     4  10  20  37  52  69 101 139 175 216 259 298
#     4  10  20  32  49  75 102 132 171 211 252 303
#     4  11  20  33  52  74 102 138 175 213 256 303
#     4  10  19  33  50  70 101 138 171 208 256 304
#     4  10  20  33  49  73 104 136 169 208 255 306
#     4   9  16  29  48  69  99 136 170 206 253 297
#     4  11  22  34  51  75 102 136 176 215 257 305
#
# _framework density 16.099467000000001
#
# number of rings (size 3 to 8) (size 9 to 14) (size 15 to 20)
#    0.000    1.750    3.750    1.875    0.000    3.000 
#    0.000    0.000    0.000    0.000    0.000    0.875 
#    0.000    0.000    0.000    0.000    0.000    0.000 
#
# Total GULP energy -178463.376654 kJ/mol
# GULP energy per Si atom -5576.980520 kJ/mol
# Density = 1.606282 g / cm^3
# Si number density = 16.099467 Si / 1000 Ang^3
#
#
#
# Elastic Constant Matrix: (Units=GPa)
#
#
# Indices 1 2 3 4 5 6 
#
# 1 97.6700 21.8692 55.9478 0.0000 10.6730 0.0000
# 2 21.8692 33.2289 21.2131 0.0000 1.8282 0.0000
# 3 55.9478 21.2131 118.6300 0.0000 8.4577 0.0000
# 4 0.0000 0.0000 0.0000 26.4299 0.0000 -0.0928
# 5 10.6730 1.8282 8.4577 0.0000 23.7810 0.0000
# 6 0.0000 0.0000 0.0000 -0.0928 0.0000 22.6411
#
#
#
# Elastic Compliance Matrix: (Units=1/GPa)
#
#
# Indices 1 2 3 4 5 6 
#
# 1 0.015469 -0.006188 -0.005877 0.000000 -0.004377 0.000000
# 2 -0.006188 0.036453 -0.003692 0.000000 0.001288 0.000000
# 3 -0.005877 -0.003692 0.011956 0.000000 -0.001331 0.000000
# 4 0.000000 0.000000 0.000000 0.037836 0.000000 0.000155
# 5 -0.004377 0.001288 -0.001331 0.000000 0.044389 0.000000
# 6 0.000000 0.000000 0.000000 0.000155 0.000000 0.044168
#
#
# Mechanical properties :
#
#
# Convention : Reuss Voigt Hill
#
# Bulk Modulus (GPa) = 30.89804 49.73214 40.31509
# Shear Modulus (GPa) = 21.49863 24.60364 23.05113
#
# Velocity S-wave (km/s) = 3.65823 3.91350 3.78801
# Velocity P-wave (km/s) = 6.08910 7.16786 6.65039
#
# Compressibility (1/GPa) = 0.03236451
#
# Stress axis : x y z
#
# Youngs Moduli (GPa) = 64.64652 27.43263 83.63880
#
# Poissons Ratio (x) = 0.16976 0.49152
# Poissons Ratio (y) = 0.40004 0.30878
# Poissons Ratio (z) = 0.37991 0.10128
#
# Static dielectric constant tensor:
#      x y z
#    x 1.543790 0.000000 0.006650 
#    y 0.000000 1.550750 0.000000 
#    z 0.006650 0.000000 1.543260 
# 
# From -- ./inp_files/51691.got.cif
#   From: 2010.05.17/outbox.cif.g08.bks.cpg/sg11_26_cif.got.tgz:51691.got - 2010.06.03 12:22:45.
