data_PCOD9159362
_publ_section_title
;
Structure prediction by ZEFSAII (Michael W. Deem and Ramdas Pophale) SiO2 
 PCOD9159362
Probable space group: P 21/M
;
_chemical_formula_sum "Si O2"
_cell_formula_units_Z 28
_cell_length_a 12.264416
_cell_length_b 12.381206
_cell_length_c 10.252164
_cell_angle_alpha 90.000000
_cell_angle_beta 65.517906
_cell_angle_gamma 90.000000
_cell_volume 1416.805075
_symmetry_space_group_name_H-M "P 21/M"
_symmetry_group_IT_number 11
_symmetry_cell_setting 'monoclinic'
loop_
_space_group_symop_operation_xyz
x,y,z
-x,1/2+y,-z
-x,-y,-z
x,1/2-y,z
loop_
_atom_site_type_symbol
_atom_site_label
_atom_site_fract_x
_atom_site_fract_y
_atom_site_fract_z
Si Si1 0.293262 0.619888 0.526352
Si Si2 0.352537 0.926444 0.210295
Si Si3 0.015419 0.870825 0.608848
Si Si4 0.474009 0.370699 0.094987
Si Si5 0.670418 0.378728 0.206086
Si Si6 0.947851 0.122485 0.989679
Si Si7 0.914090 0.410052 0.714972
O O1 0.303141 0.750000 0.519257
O O2 0.356293 0.579120 0.364329
O O3 0.150624 0.597500 0.585429
O O4 0.340556 0.577596 0.641280
O O5 0.224719 0.878642 0.231876
O O6 0.363436 0.049668 0.158611
O O7 0.459882 0.872140 0.077230
O O8 0.990797 0.750000 0.665811
O O9 0.018639 0.873548 0.449603
O O10 0.926712 0.960381 0.705548
O O11 0.440571 0.250000 0.146320
O O12 0.573618 0.415403 0.148114
O O13 0.651640 0.250000 0.223610
O O14 0.806848 0.391611 0.091729
O O15 0.978313 0.250000 0.022965
O O16 0.964414 0.129252 0.825980
O O17 0.000000 0.000000 0.000000
#
# Coordination Sequence:
#
# PCOD9159362 Si02
#       7
#     4   4   4   4   4   4   4
#     4   9  17  31  52  77 102 135 178 223 269 325
#     4  10  20  33  54  78 102 137 181 229 276 318
#     4   9  18  31  51  80 111 140 180 230 280 337
#     4  10  20  35  53  76 105 139 184 229 273 328
#     4   9  18  33  54  77 106 143 182 224 270 328
#     4  11  22  36  57  82 112 150 191 232 281 339
#     4  10  19  33  53  79 109 145 185 229 283 337
#
# _framework density 19.762775000000001
#
# number of rings (size 3 to 8) (size 9 to 14) (size 15 to 20)
#    0.000    2.286    1.429    1.714    0.000    4.000 
#    0.000    0.000    0.000    0.857    0.000    0.000 
#    0.000    0.000    0.000    0.000    0.000    0.000 
#
# Total GULP energy -155879.837807 kJ/mol
# GULP energy per Si atom -5567.137065 kJ/mol
# Density = 1.971779 g / cm^3
# Si number density = 19.762775 Si / 1000 Ang^3
#
#
#
# Elastic Constant Matrix: (Units=GPa)
#
#
# Indices 1 2 3 4 5 6 
#
# 1 24.2661 25.6929 15.2978 0.0000 1.0745 0.0000
# 2 25.6929 103.6423 15.7151 0.0000 -0.1774 0.0000
# 3 15.2978 15.7151 81.6841 0.0000 13.6457 0.0000
# 4 0.0000 0.0000 0.0000 4.1501 0.0000 8.9289
# 5 1.0745 -0.1774 13.6457 0.0000 24.8440 0.0000
# 6 0.0000 0.0000 0.0000 8.9289 0.0000 14.4764
#
#
#
# Elastic Compliance Matrix: (Units=1/GPa)
#
#
# Indices 1 2 3 4 5 6 
#
# 1 0.061631 -0.013870 -0.009262 0.000000 0.002323 0.000000
# 2 -0.013870 0.013094 -0.000041 0.000000 0.000716 0.000000
# 3 -0.009262 -0.000041 0.015324 0.000000 -0.008017 0.000000
# 4 0.000000 0.000000 0.000000 -0.736846 0.000000 0.454478
# 5 0.002323 0.000716 -0.008017 0.000000 0.044559 0.000000
# 6 0.000000 0.000000 0.000000 0.454478 0.000000 -0.211239
#
#
# Mechanical properties :
#
#
# Convention : Reuss Voigt Hill
#
# Bulk Modulus (GPa) = 22.88150 35.88931 29.38541
# Shear Modulus (GPa) = -6.64397 18.88653 6.12128
#
# Velocity S-wave (km/s) = -1.83553 3.09473 1.76185
# Velocity P-wave (km/s) = 2.66665 5.56501 4.36350
#
# Compressibility (1/GPa) = 0.04370343
#
# Stress axis : x y z
#
# Youngs Moduli (GPa) = 16.22549 76.36837 65.25711
#
# Poissons Ratio (x) = 1.05923 0.60441
# Poissons Ratio (y) = 0.22505 0.00269
# Poissons Ratio (z) = 0.15028 0.00315
#
# Static dielectric constant tensor:
#      x y z
#    x 1.701180 0.000000 0.049300 
#    y 0.000000 1.753880 0.000000 
#    z 0.049300 0.000000 1.713650 
# 
# From -- ./inp_files/21411.got.cif
#   From: 2010.05.17/outbox.cif.g08.bks.cpg/sg11_11_cif.got.tgz:21411.got - 2010.06.03 12:22:45.
