data_PCOD9159407
_publ_section_title
;
Structure prediction by ZEFSAII (Michael W. Deem and Ramdas Pophale) SiO2 
 PCOD9159407
Probable space group: P 21/M
;
_chemical_formula_sum "Si O2"
_cell_formula_units_Z 28
_cell_length_a 14.449668
_cell_length_b 12.218040
_cell_length_c 9.608111
_cell_angle_alpha 90.000000
_cell_angle_beta 56.087979
_cell_angle_gamma 90.000000
_cell_volume 1407.734328
_symmetry_space_group_name_H-M "P 21/M"
_symmetry_group_IT_number 11
_symmetry_cell_setting 'monoclinic'
loop_
_space_group_symop_operation_xyz
x,y,z
-x,1/2+y,-z
-x,-y,-z
x,1/2-y,z
loop_
_atom_site_type_symbol
_atom_site_label
_atom_site_fract_x
_atom_site_fract_y
_atom_site_fract_z
Si Si1 0.960580 0.626030 0.499417
Si Si2 0.172125 0.372050 0.776718
Si Si3 0.570093 0.127165 0.382517
Si Si4 0.062290 0.628587 0.108118
Si Si5 0.277758 0.024887 0.935794
Si Si6 0.642907 0.526703 0.544393
Si Si7 0.303080 0.123001 0.214860
O O1 0.998251 0.750000 0.526191
O O2 0.829140 0.624774 0.640568
O O3 0.000000 0.500000 0.500000
O O4 0.998506 0.632803 0.308419
O O5 0.181474 0.250000 0.710523
O O6 0.238409 0.379804 0.865160
O O7 0.233540 0.454176 0.620294
O O8 0.041495 0.396112 0.906626
O O9 0.607174 0.250000 0.330917
O O10 0.631021 0.046920 0.222314
O O11 0.439393 0.113926 0.460411
O O12 0.598807 0.085599 0.513937
O O13 0.104820 0.750000 0.037032
O O14 0.166003 0.548856 0.036673
O O15 0.316027 0.069155 0.052344
O O16 0.642149 0.550968 0.708134
O O17 0.341945 0.250000 0.186101
#
# Coordination Sequence:
#
# PCOD9159407 Si02
#       7
#     4   4   4   4   4   4   4
#     4  10  19  34  56  82 115 154 198 240 286 345
#     4  10  19  34  56  81 106 148 196 241 280 327
#     4  10  22  41  61  84 113 149 189 236 291 348
#     4  10  19  33  54  77 109 152 194 234 283 341
#     4  11  22  34  54  83 123 149 182 232 294 353
#     4  10  21  39  64  83 107 146 195 243 279 338
#     4  11  21  36  59  87 116 150 195 244 287 341
#
# _framework density 19.890117
#
# number of rings (size 3 to 8) (size 9 to 14) (size 15 to 20)
#    0.000    1.714    2.857    2.571    0.000    0.571 
#    0.000    2.857    0.000    0.857    0.000    0.000 
#    0.000    0.000    0.000    0.000    0.000    0.000 
#
# Total GULP energy -155892.796390 kJ/mol
# GULP energy per Si atom -5567.599871 kJ/mol
# Density = 1.984485 g / cm^3
# Si number density = 19.890117 Si / 1000 Ang^3
#
#
#
# Elastic Constant Matrix: (Units=GPa)
#
#
# Indices 1 2 3 4 5 6 
#
# 1 60.5273 28.1900 23.9446 0.0000 14.4605 0.0000
# 2 28.1900 99.8013 23.8509 0.0000 5.1110 0.0000
# 3 23.9446 23.8509 69.2140 0.0000 17.5081 0.0000
# 4 0.0000 0.0000 0.0000 13.0811 0.0000 1.2470
# 5 14.4605 5.1110 17.5081 0.0000 35.0053 0.0000
# 6 0.0000 0.0000 0.0000 1.2470 0.0000 19.1367
#
#
#
# Elastic Compliance Matrix: (Units=1/GPa)
#
#
# Indices 1 2 3 4 5 6 
#
# 1 0.021987 -0.004849 -0.004370 0.000000 -0.006189 0.000000
# 2 -0.004849 0.011992 -0.002883 0.000000 0.001694 0.000000
# 3 -0.004370 -0.002883 0.018764 0.000000 -0.007159 0.000000
# 4 0.000000 0.000000 0.000000 0.076924 0.000000 -0.005013
# 5 -0.006189 0.001694 -0.007159 0.000000 0.034457 0.000000
# 6 0.000000 0.000000 0.000000 -0.005013 0.000000 0.052582
#
#
# Mechanical properties :
#
#
# Convention : Reuss Voigt Hill
#
# Bulk Modulus (GPa) = 35.04060 42.39042 38.71551
# Shear Modulus (GPa) = 19.96608 23.68176 21.82392
#
# Velocity S-wave (km/s) = 3.17175 3.45429 3.31603
# Velocity P-wave (km/s) = 5.57393 6.10476 5.84537
#
# Compressibility (1/GPa) = 0.02853832
#
# Stress axis : x y z
#
# Youngs Moduli (GPa) = 45.48070 83.38921 53.29303
#
# Poissons Ratio (x) = 0.40438 0.23288
# Poissons Ratio (y) = 0.22055 0.15367
# Poissons Ratio (z) = 0.19875 0.24044
#
# Static dielectric constant tensor:
#      x y z
#    x 1.749070 0.000000 -0.001720 
#    y 0.000000 1.746320 0.000000 
#    z -0.001720 0.000000 1.702740 
# 
# From -- ./inp_files/21170.got.cif
#   From: 2010.05.17/outbox.cif.g08.bks.cpg/sg11_11_cif.got.tgz:21170.got - 2010.06.03 12:22:45.
