data_PCOD9159568
_publ_section_title
;
Structure prediction by ZEFSAII (Michael W. Deem and Ramdas Pophale) SiO2 
 PCOD9159568
Probable space group: P 21/M
;
_chemical_formula_sum "Si O2"
_cell_formula_units_Z 32
_cell_length_a 9.060782
_cell_length_b 15.240777
_cell_length_c 24.319190
_cell_angle_alpha 90.000000
_cell_angle_beta 29.490701
_cell_angle_gamma 90.000000
_cell_volume 1653.240797
_symmetry_space_group_name_H-M "P 21/M"
_symmetry_group_IT_number 11
_symmetry_cell_setting 'monoclinic'
loop_
_space_group_symop_operation_xyz
x,y,z
-x,1/2+y,-z
-x,-y,-z
x,1/2-y,z
loop_
_atom_site_type_symbol
_atom_site_label
_atom_site_fract_x
_atom_site_fract_y
_atom_site_fract_z
Si Si1 0.729814 0.147715 0.325088
Si Si2 0.256864 0.926270 0.564676
Si Si3 0.679504 0.479269 0.576266
Si Si4 0.138305 0.653201 0.984574
Si Si5 0.404123 0.344727 0.926227
Si Si6 0.398234 0.005381 0.197387
Si Si7 0.775914 0.930625 0.911431
Si Si8 0.253155 0.440252 0.808400
O O1 0.690823 0.250000 0.319376
O O2 0.708505 0.145659 0.398544
O O3 0.049910 0.109057 0.198068
O O4 0.487345 0.073415 0.383204
O O5 0.286660 0.919826 0.489318
O O6 0.500000 0.000000 0.500000
O O7 0.925126 0.961223 0.683058
O O8 0.472059 0.426983 0.686542
O O9 0.000000 0.500000 0.500000
O O10 0.271294 0.750000 0.940112
O O11 0.385078 0.578827 0.898057
O O12 0.899713 0.645604 0.011692
O O13 0.950244 0.637179 0.101181
O O14 0.533469 0.250000 0.870710
O O15 0.613932 0.424084 0.840229
O O16 0.330089 0.353457 0.014059
O O17 0.552887 0.972449 0.203008
O O18 0.030459 0.983081 0.862165
O O19 0.500000 0.000000 0.000000
#
# Coordination Sequence:
#
# PCOD9159568 Si02
#       8
#     4   4   4   4   4   4   4   4
#     4  10  23  40  60  92 129 164 214 271 324 381
#     4  10  22  40  62  86 119 164 211 255 319 384
#     4  10  20  40  68  90 116 168 223 266 321 384
#     4  10  20  34  57  91 126 156 195 250 317 381
#     4  10  19  33  55  87 119 155 199 243 303 379
#     4  11  18  36  61  87 125 158 202 260 317 380
#     4  11  20  35  57  83 124 165 200 251 311 380
#     4  10  19  36  60  87 120 158 205 257 316 369
#
# _framework density 19.355920999999999
#
# number of rings (size 3 to 8) (size 9 to 14) (size 15 to 20)
#    0.000    1.750    3.750    1.875    0.000    0.500 
#    0.000    5.000    0.000    0.000    0.000    0.000 
#    0.000    0.000    0.000    0.000    0.000    0.000 
#
# Total GULP energy -178293.524946 kJ/mol
# GULP energy per Si atom -5571.672655 kJ/mol
# Density = 1.931187 g / cm^3
# Si number density = 19.355921 Si / 1000 Ang^3
#
#
#
# Elastic Constant Matrix: (Units=GPa)
#
#
# Indices 1 2 3 4 5 6 
#
# 1 64.9032 11.1482 35.2078 0.0000 23.7391 0.0000
# 2 11.1482 93.0683 38.6071 0.0000 14.0438 0.0000
# 3 35.2078 38.6071 122.9488 0.0000 26.5698 0.0000
# 4 0.0000 0.0000 0.0000 5.8617 0.0000 6.9960
# 5 23.7391 14.0438 26.5698 0.0000 36.1991 0.0000
# 6 0.0000 0.0000 0.0000 6.9960 0.0000 14.9304
#
#
#
# Elastic Compliance Matrix: (Units=1/GPa)
#
#
# Indices 1 2 3 4 5 6 
#
# 1 0.021659 0.000794 -0.003940 0.000000 -0.011619 0.000000
# 2 0.000794 0.012548 -0.003569 0.000000 -0.002769 0.000000
# 3 -0.003940 -0.003569 0.011321 0.000000 -0.004340 0.000000
# 4 0.000000 0.000000 0.000000 0.387072 0.000000 -0.181373
# 5 -0.011619 -0.002769 -0.004340 0.000000 0.039505 0.000000
# 6 0.000000 0.000000 0.000000 -0.181373 0.000000 0.151964
#
#
# Mechanical properties :
#
#
# Convention : Reuss Voigt Hill
#
# Bulk Modulus (GPa) = 31.15712 50.09405 40.62558
# Shear Modulus (GPa) = 7.71368 24.46204 16.08786
#
# Velocity S-wave (km/s) = 1.99846 3.55886 2.88611
# Velocity P-wave (km/s) = 4.63217 6.54400 5.66926
#
# Compressibility (1/GPa) = 0.03209539
#
# Stress axis : x y z
#
# Youngs Moduli (GPa) = 46.17083 79.69323 88.33480
#
# Poissons Ratio (x) = -0.06324 0.34808
# Poissons Ratio (y) = -0.03664 0.31528
# Poissons Ratio (z) = 0.18193 0.28443
#
# Static dielectric constant tensor:
#      x y z
#    x 1.723740 0.000000 0.028850 
#    y 0.000000 1.664490 0.000000 
#    z 0.028850 0.000000 1.673020 
# 
# From -- ./inp_files/68142.got.cif
#   From: 2010.05.17/outbox.cif.g08.bks.cpg/sg11_35_cif.got.tgz:68142.got - 2010.06.03 12:22:45.
