data_PCOD9159324
_publ_section_title
;
Structure prediction by ZEFSAII (Michael W. Deem and Ramdas Pophale) SiO2 
 PCOD9159324
Probable space group: P 21/M
;
_chemical_formula_sum "Si O2"
_cell_formula_units_Z 32
_cell_length_a 23.062293
_cell_length_b 8.564618
_cell_length_c 14.648505
_cell_angle_alpha 90.000000
_cell_angle_beta 142.716364
_cell_angle_gamma 90.000000
_cell_volume 1752.690478
_symmetry_space_group_name_H-M "P 21/M"
_symmetry_group_IT_number 11
_symmetry_cell_setting 'monoclinic'
loop_
_space_group_symop_operation_xyz
x,y,z
-x,1/2+y,-z
-x,-y,-z
x,1/2-y,z
loop_
_atom_site_type_symbol
_atom_site_label
_atom_site_fract_x
_atom_site_fract_y
_atom_site_fract_z
Si Si1 0.087256 0.561296 0.947947
Si Si2 0.327174 0.562699 0.940882
Si Si3 0.869745 0.561790 0.654570
Si Si4 0.392564 0.937295 0.362883
Si Si5 0.472072 0.437581 0.865391
Si Si6 0.747806 0.935296 0.967059
Si Si7 0.729029 0.938998 0.328306
Si Si8 0.774373 0.438033 0.713768
O O1 0.088134 0.750000 0.945455
O O2 0.978053 0.505990 0.806400
O O3 0.152325 0.498311 0.947592
O O4 0.142488 0.515549 0.109890
O O5 0.323027 0.750000 0.942224
O O6 0.288031 0.511391 0.792609
O O7 0.439700 0.511345 0.087290
O O8 0.270246 0.488110 0.952474
O O9 0.871414 0.750000 0.657037
O O10 0.824221 0.512694 0.500953
O O11 0.801681 0.507791 0.651186
O O12 0.394468 0.750000 0.364056
O O13 0.326334 0.986636 0.366367
O O14 0.500000 0.000000 0.500000
O O15 0.335102 0.994462 0.201785
O O16 0.474615 0.250000 0.868645
O O17 0.361294 0.483398 0.719281
O O18 0.500000 0.500000 0.000000
O O19 0.745297 0.750000 0.956688
O O20 0.728140 0.750000 0.317181
O O21 0.774084 0.250000 0.707172
#
# Coordination Sequence:
#
# PCOD9159324 Si02
#       8
#     4   4   4   4   4   4   4   4
#     4   9  19  37  55  75 104 137 175 223 270 318
#     4  10  19  33  53  76 103 141 180 216 261 315
#     4  10  20  33  54  80 106 137 174 219 274 323
#     4  10  21  38  57  82 115 147 178 218 262 308
#     4   8  15  28  47  69  96 129 164 201 248 302
#     4  11  22  36  56  80 104 139 182 222 265 317
#     4   9  18  33  50  75 107 135 170 218 262 311
#     4   9  19  34  53  77 107 139 174 215 261 314
#
# _framework density 18.257643999999999
#
# number of rings (size 3 to 8) (size 9 to 14) (size 15 to 20)
#    0.000    2.500    0.000    3.000    0.000    5.000 
#    0.000    1.875    0.000    0.000    0.000    0.000 
#    0.000    0.000    0.000    0.000    0.000    0.000 
#
# Total GULP energy -178397.401471 kJ/mol
# GULP energy per Si atom -5574.918796 kJ/mol
# Density = 1.821609 g / cm^3
# Si number density = 18.257644 Si / 1000 Ang^3
#
#
#
# Elastic Constant Matrix: (Units=GPa)
#
#
# Indices 1 2 3 4 5 6 
#
# 1 108.0804 16.3892 54.2889 0.0000 -1.5628 0.0000
# 2 16.3892 22.4376 20.0497 0.0000 2.7259 0.0000
# 3 54.2889 20.0497 96.6407 0.0000 19.2152 0.0000
# 4 0.0000 0.0000 0.0000 21.0878 0.0000 -1.1159
# 5 -1.5628 2.7259 19.2152 0.0000 19.9901 0.0000
# 6 0.0000 0.0000 0.0000 -1.1159 0.0000 28.8513
#
#
#
# Elastic Compliance Matrix: (Units=1/GPa)
#
#
# Indices 1 2 3 4 5 6 
#
# 1 0.014884 -0.003408 -0.009863 0.000000 0.011109 0.000000
# 2 -0.003408 0.055787 -0.010006 0.000000 0.001745 0.000000
# 3 -0.009863 -0.010006 0.022063 0.000000 -0.020614 0.000000
# 4 0.000000 0.000000 0.000000 0.047518 0.000000 0.001838
# 5 0.011109 0.001745 -0.020614 0.000000 0.070471 0.000000
# 6 0.000000 0.000000 0.000000 0.001838 0.000000 0.034732
#
#
# Mechanical properties :
#
#
# Convention : Reuss Voigt Hill
#
# Bulk Modulus (GPa) = 21.65478 45.40159 33.52818
# Shear Modulus (GPa) = 16.26536 23.08122 19.67329
#
# Velocity S-wave (km/s) = 2.98800 3.55941 3.28615
# Velocity P-wave (km/s) = 4.87756 6.46635 5.72731
#
# Compressibility (1/GPa) = 0.04617919
#
# Stress axis : x y z
#
# Youngs Moduli (GPa) = 67.18634 17.92535 45.32489
#
# Poissons Ratio (x) = 0.06109 0.44704
# Poissons Ratio (y) = 0.22898 0.45353
# Poissons Ratio (z) = 0.66266 0.17937
#
# Static dielectric constant tensor:
#      x y z
#    x 1.617860 0.000000 0.027350 
#    y 0.000000 1.613430 0.000000 
#    z 0.027350 0.000000 1.638990 
# 
# From -- ./inp_files/54321.got.cif
#   From: 2010.05.17/outbox.cif.g08.bks.cpg/sg11_28_cif.got.tgz:54321.got - 2010.06.03 12:22:45.
