data_PCOD9159950
_publ_section_title
;
Structure prediction by ZEFSAII (Michael W. Deem and Ramdas Pophale) SiO2 
 PCOD9159950
Probable space group: P 21/M
;
_chemical_formula_sum "Si O2"
_cell_formula_units_Z 28
_cell_length_a 10.486042
_cell_length_b 8.922630
_cell_length_c 30.760656
_cell_angle_alpha 90.000000
_cell_angle_beta 33.728714
_cell_angle_gamma 90.000000
_cell_volume 1598.076155
_symmetry_space_group_name_H-M "P 21/M"
_symmetry_group_IT_number 11
_symmetry_cell_setting 'monoclinic'
loop_
_space_group_symop_operation_xyz
x,y,z
-x,1/2+y,-z
-x,-y,-z
x,1/2-y,z
loop_
_atom_site_type_symbol
_atom_site_label
_atom_site_fract_x
_atom_site_fract_y
_atom_site_fract_z
Si Si1 0.149056 0.930510 0.233901
Si Si2 0.912158 0.928159 0.093060
Si Si3 0.143036 0.930458 0.337858
Si Si4 0.664677 0.929353 0.071374
Si Si5 0.372094 0.069310 0.494823
Si Si6 0.307072 0.930709 0.675753
Si Si7 0.590129 0.429685 0.254789
O O1 0.130812 0.750000 0.236675
O O2 0.141502 0.971008 0.287176
O O3 0.398677 0.973732 0.144642
O O4 0.936956 0.003317 0.269340
O O5 0.913917 0.750000 0.098917
O O6 0.757320 0.960169 0.093993
O O7 0.795353 0.007878 0.166824
O O8 0.164533 0.987990 0.009774
O O9 0.170864 0.750000 0.332424
O O10 0.895994 0.972174 0.427734
O O11 0.354019 0.006578 0.302300
O O12 0.682373 0.750000 0.059953
O O13 0.383232 0.250000 0.495207
O O14 0.504150 0.023255 0.413656
O O15 0.500000 0.000000 0.500000
O O16 0.293457 0.750000 0.678714
O O17 0.375532 0.976351 0.704936
O O18 0.587519 0.250000 0.253395
#
# Coordination Sequence:
#
# PCOD9159950 Si02
#       7
#     4   4   4   4   4   4   4
#     4  10  19  35  58  85 112 144 186 230 277 330
#     4  10  19  34  56  83 113 144 183 229 278 329
#     4  10  20  36  58  84 112 144 187 235 277 326
#     4   9  18  33  54  83 114 140 179 231 278 327
#     4  10  20  36  58  83 113 145 184 234 280 325
#     4  10  23  39  55  81 116 150 186 230 278 332
#     4  11  23  38  55  80 116 153 187 226 278 332
#
# _framework density 17.521066999999999
#
# number of rings (size 3 to 8) (size 9 to 14) (size 15 to 20)
#    0.000    2.000    2.857    0.857    0.000    4.000 
#    0.000    0.714    0.000    0.000    0.000    0.000 
#    0.000    0.000    0.000    0.000    0.000    0.000 
#
# Total GULP energy -156318.326412 kJ/mol
# GULP energy per Si atom -5582.797372 kJ/mol
# Density = 1.748119 g / cm^3
# Si number density = 17.521067 Si / 1000 Ang^3
#
#
#
# Elastic Constant Matrix: (Units=GPa)
#
#
# Indices 1 2 3 4 5 6 
#
# 1 126.2115 38.9229 82.4509 0.0000 4.6244 0.0000
# 2 38.9229 22.9286 44.3347 0.0000 3.7100 0.0000
# 3 82.4509 44.3347 164.4794 0.0000 -2.2227 0.0000
# 4 0.0000 0.0000 0.0000 26.5586 0.0000 -6.8974
# 5 4.6244 3.7100 -2.2227 0.0000 28.3816 0.0000
# 6 0.0000 0.0000 0.0000 -6.8974 0.0000 28.6494
#
#
#
# Elastic Compliance Matrix: (Units=1/GPa)
#
#
# Indices 1 2 3 4 5 6 
#
# 1 0.016819 -0.025785 -0.001474 0.000000 0.000515 0.000000
# 2 -0.025785 0.136396 -0.024049 0.000000 -0.015511 0.000000
# 3 -0.001474 -0.024049 0.013361 0.000000 0.004430 0.000000
# 4 0.000000 0.000000 0.000000 0.040164 0.000000 0.009670
# 5 0.000515 -0.015511 0.004430 0.000000 0.037525 0.000000
# 6 0.000000 0.000000 0.000000 0.009670 0.000000 0.037233
#
#
# Mechanical properties :
#
#
# Convention : Reuss Voigt Hill
#
# Bulk Modulus (GPa) = 15.63471 71.67073 43.65272
# Shear Modulus (GPa) = 12.33250 26.57865 19.45558
#
# Velocity S-wave (km/s) = 2.65593 3.89903 3.33590
# Velocity P-wave (km/s) = 4.28346 7.82715 6.30921
#
# Compressibility (1/GPa) = 0.06396025
#
# Stress axis : x y z
#
# Youngs Moduli (GPa) = 59.45592 7.33160 74.84514
#
# Poissons Ratio (x) = 0.18904 0.11033
# Poissons Ratio (y) = 1.53305 1.79996
# Poissons Ratio (z) = 0.08764 0.17632
#
# Static dielectric constant tensor:
#      x y z
#    x 1.561170 0.000000 0.002560 
#    y 0.000000 1.588160 0.000000 
#    z 0.002560 0.000000 1.595950 
# 
# From -- ./inp_files/28302.got.cif
#   From: 2010.05.17/outbox.cif.g08.bks.cpg/sg11_15_cif.got.tgz:28302.got - 2010.06.03 12:22:45.
