data_PCOD9159710
_publ_section_title
;
Structure prediction by ZEFSAII (Michael W. Deem and Ramdas Pophale) SiO2 
 PCOD9159710
Probable space group: P 21/M
;
_chemical_formula_sum "Si O2"
_cell_formula_units_Z 32
_cell_length_a 18.556279
_cell_length_b 14.825904
_cell_length_c 11.991014
_cell_angle_alpha 90.000000
_cell_angle_beta 26.284942
_cell_angle_gamma 90.000000
_cell_volume 1460.866343
_symmetry_space_group_name_H-M "P 21/M"
_symmetry_group_IT_number 11
_symmetry_cell_setting 'monoclinic'
loop_
_space_group_symop_operation_xyz
x,y,z
-x,1/2+y,-z
-x,-y,-z
x,1/2-y,z
loop_
_atom_site_type_symbol
_atom_site_label
_atom_site_fract_x
_atom_site_fract_y
_atom_site_fract_z
Si Si1 0.862650 0.855174 0.159880
Si Si2 0.760172 0.148871 0.332247
Si Si3 0.855219 0.922685 0.413840
Si Si4 0.230823 0.986981 0.864305
Si Si5 0.927213 0.146209 0.538900
Si Si6 0.684446 0.111343 0.682790
Si Si7 0.236133 0.014463 0.098716
Si Si8 0.654678 0.851166 0.875525
O O1 0.845656 0.750000 0.158677
O O2 0.811162 0.876801 0.357846
O O3 0.779462 0.918296 0.184981
O O4 0.054827 0.879640 0.894135
O O5 0.767156 0.250000 0.277397
O O6 0.696998 0.082963 0.324855
O O7 0.676854 0.148496 0.567556
O O8 0.740365 0.008742 0.591636
O O9 0.814137 0.861911 0.577358
O O10 0.044102 0.952647 0.147378
O O11 0.309827 0.995520 0.875537
O O12 0.956041 0.250000 0.535637
O O13 0.821216 0.151178 0.573143
O O14 0.088659 0.087388 0.289639
O O15 0.829511 0.079367 0.758252
O O16 0.506071 0.132953 0.976196
O O17 0.345544 0.067565 0.035510
O O18 0.652371 0.750000 0.925811
#
# Coordination Sequence:
#
# PCOD9159710 Si02
#       8
#     4   4   4   4   4   4   4   4
#     4  10  19  33  59  91 118 151 195 251 301 343
#     4  10  19  33  59  89 115 150 198 250 299 345
#     4  11  19  38  62  86 122 153 195 252 301 351
#     4  11  20  37  58  87 121 154 198 245 292 354
#     4  11  22  39  62  87 118 158 205 251 294 354
#     4  12  21  41  65  88 121 155 202 253 301 352
#     4  11  23  39  58  87 122 163 199 241 302 355
#     4  12  26  40  59  91 126 161 198 246 305 363
#
# _framework density 21.904810000000001
#
# number of rings (size 3 to 8) (size 9 to 14) (size 15 to 20)
#    0.000    1.000    5.000    3.750    0.000    3.000 
#    0.000    0.625    0.000    0.000    0.000    0.000 
#    0.000    0.000    0.000    0.000    0.000    0.000 
#
# Total GULP energy -178784.062495 kJ/mol
# GULP energy per Si atom -5587.001953 kJ/mol
# Density = 2.185495 g / cm^3
# Si number density = 21.904810 Si / 1000 Ang^3
#
#
#
# Elastic Constant Matrix: (Units=GPa)
#
#
# Indices 1 2 3 4 5 6 
#
# 1 73.5845 23.4296 21.4557 0.0000 20.2757 0.0000
# 2 23.4296 106.1305 17.5131 0.0000 8.7494 0.0000
# 3 21.4557 17.5131 32.3870 0.0000 2.2377 0.0000
# 4 0.0000 0.0000 0.0000 21.1327 0.0000 6.7292
# 5 20.2757 8.7494 2.2377 0.0000 34.4089 0.0000
# 6 0.0000 0.0000 0.0000 6.7292 0.0000 8.4534
#
#
#
# Elastic Compliance Matrix: (Units=1/GPa)
#
#
# Indices 1 2 3 4 5 6 
#
# 1 0.020645 -0.001671 -0.012016 0.000000 -0.010959 0.000000
# 2 -0.001671 0.010662 -0.004559 0.000000 -0.001430 0.000000
# 3 -0.012016 -0.004559 0.040917 0.000000 0.005579 0.000000
# 4 0.000000 0.000000 0.000000 0.063388 0.000000 -0.050459
# 5 -0.010959 -0.001430 0.005579 0.000000 0.035521 0.000000
# 6 0.000000 0.000000 0.000000 -0.050459 0.000000 0.158464
#
#
# Mechanical properties :
#
#
# Convention : Reuss Voigt Hill
#
# Bulk Modulus (GPa) = 27.98735 37.43322 32.71028
# Shear Modulus (GPa) = 13.22755 22.77925 18.00340
#
# Velocity S-wave (km/s) = 2.46003 3.22828 2.86998
# Velocity P-wave (km/s) = 4.56876 5.56973 5.09389
#
# Compressibility (1/GPa) = 0.03573043
#
# Stress axis : x y z
#
# Youngs Moduli (GPa) = 48.43722 93.79528 24.43983
#
# Poissons Ratio (x) = 0.15677 0.29367
# Poissons Ratio (y) = 0.08096 0.11142
# Poissons Ratio (z) = 0.58203 0.42762
#
# Static dielectric constant tensor:
#      x y z
#    x 1.818900 0.000000 0.020870 
#    y 0.000000 1.796090 0.000000 
#    z 0.020870 0.000000 1.834120 
# 
# From -- ./inp_files/41659.got.cif
#   From: 2010.05.17/outbox.cif.g08.bks.cpg/sg11_21_cif.got.tgz:41659.got - 2010.06.03 12:22:45.
