data_PCOD9159199
_publ_section_title
;
Structure prediction by ZEFSAII (Michael W. Deem and Ramdas Pophale) SiO2 
 PCOD9159199
Probable space group: P 21/M
;
_chemical_formula_sum "Si O2"
_cell_formula_units_Z 32
_cell_length_a 14.967047
_cell_length_b 13.859819
_cell_length_c 11.910533
_cell_angle_alpha 90.000000
_cell_angle_beta 140.966620
_cell_angle_gamma 90.000000
_cell_volume 1555.997678
_symmetry_space_group_name_H-M "P 21/M"
_symmetry_group_IT_number 11
_symmetry_cell_setting 'monoclinic'
loop_
_space_group_symop_operation_xyz
x,y,z
-x,1/2+y,-z
-x,-y,-z
x,1/2-y,z
loop_
_atom_site_type_symbol
_atom_site_label
_atom_site_fract_x
_atom_site_fract_y
_atom_site_fract_z
Si Si1 0.167423 0.363551 0.358451
Si Si2 0.099527 0.512907 0.878540
Si Si3 0.298816 0.638907 0.233673
Si Si4 0.519951 0.640860 0.256361
Si Si5 0.328344 0.994291 0.914388
Si Si6 0.780002 0.636157 0.854443
Si Si7 0.433070 0.635921 0.834472
Si Si8 0.460979 0.634235 0.599477
O O1 0.127900 0.250000 0.334742
O O2 0.316004 0.379044 0.565641
O O3 0.189498 0.378975 0.246645
O O4 0.049209 0.436548 0.285465
O O5 0.185789 0.583141 0.048411
O O6 0.186594 0.499308 0.848539
O O7 0.104910 0.414265 0.953865
O O8 0.250431 0.750000 0.198424
O O9 0.444268 0.639173 0.303897
O O10 0.343940 0.596687 0.398025
O O11 0.501561 0.750000 0.194767
O O12 0.436739 0.567527 0.097619
O O13 0.410014 0.095583 0.978549
O O14 0.324690 0.931030 0.798047
O O15 0.779919 0.750000 0.875148
O O16 0.621505 0.598670 0.732608
O O17 0.417996 0.750000 0.841577
O O18 0.421841 0.620002 0.690099
O O19 0.466005 0.750000 0.583929
#
# Coordination Sequence:
#
# PCOD9159199 Si02
#       8
#     4   4   4   4   4   4   4   4
#     4  10  20  34  52  77 111 148 176 208 264 324
#     4  11  21  32  53  84 111 136 173 223 272 308
#     4   9  17  30  50  80 112 136 168 216 264 313
#     4   9  17  32  53  77 109 141 172 212 260 316
#     4  10  21  34  55  85 106 132 179 228 264 309
#     4  10  19  33  50  72 107 147 182 209 250 319
#     4  10  20  35  54  78 108 140 177 221 268 312
#     4   9  16  30  51  74 101 140 177 210 252 305
#
# _framework density 20.565583
#
# number of rings (size 3 to 8) (size 9 to 14) (size 15 to 20)
#    0.000    2.250    2.500    1.125    0.000    3.000 
#    0.000    0.000    0.000    3.750    3.250    1.750 
#    0.000    0.000    0.000    0.000    0.000    0.000 
#
# Total GULP energy -178778.964326 kJ/mol
# GULP energy per Si atom -5586.842635 kJ/mol
# Density = 2.051878 g / cm^3
# Si number density = 20.565583 Si / 1000 Ang^3
#
#
#
# Elastic Constant Matrix: (Units=GPa)
#
#
# Indices 1 2 3 4 5 6 
#
# 1 48.2425 4.9379 2.3565 0.0000 -13.2725 0.0000
# 2 4.9379 61.3852 -3.7387 0.0000 4.2176 0.0000
# 3 2.3565 -3.7387 14.9127 0.0000 4.3786 0.0000
# 4 0.0000 0.0000 0.0000 22.4944 0.0000 0.4191
# 5 -13.2725 4.2176 4.3786 0.0000 24.6868 0.0000
# 6 0.0000 0.0000 0.0000 0.4191 0.0000 25.9053
#
#
#
# Elastic Compliance Matrix: (Units=1/GPa)
#
#
# Indices 1 2 3 4 5 6 
#
# 1 0.026138 -0.003839 -0.009928 0.000000 0.016469 0.000000
# 2 -0.003839 0.017444 0.006816 0.000000 -0.006253 0.000000
# 3 -0.009928 0.006816 0.076213 0.000000 -0.020020 0.000000
# 4 0.000000 0.000000 0.000000 0.044469 0.000000 -0.000719
# 5 0.016469 -0.006253 -0.020020 0.000000 0.053981 0.000000
# 6 0.000000 0.000000 0.000000 -0.000719 0.000000 0.038614
#
#
# Mechanical properties :
#
#
# Convention : Reuss Voigt Hill
#
# Bulk Modulus (GPa) = 9.44356 14.62796 12.03576
# Shear Modulus (GPa) = 16.33676 22.68293 19.50984
#
# Velocity S-wave (km/s) = 2.82152 3.32468 3.08338
# Velocity P-wave (km/s) = 3.90084 4.67614 4.30597
#
# Compressibility (1/GPa) = 0.10589228
#
# Stress axis : x y z
#
# Youngs Moduli (GPa) = 38.25908 57.32592 13.12114
#
# Poissons Ratio (x) = 0.22006 0.13027
# Poissons Ratio (y) = 0.14687 -0.08943
# Poissons Ratio (z) = 0.37985 -0.39073
#
# Static dielectric constant tensor:
#      x y z
#    x 1.746590 0.000000 -0.014800 
#    y 0.000000 1.797530 0.000000 
#    z -0.014800 0.000000 1.724090 
# 
# From -- ./inp_files/22239.got.cif
#   From: 2010.05.17/outbox.cif.g08.bks.cpg/sg11_12_cif.got.tgz:22239.got - 2010.06.03 12:22:45.
