data_PCOD9159467
_publ_section_title
;
Structure prediction by ZEFSAII (Michael W. Deem and Ramdas Pophale) SiO2 
 PCOD9159467
Probable space group: P 21/M
;
_chemical_formula_sum "Si O2"
_cell_formula_units_Z 32
_cell_length_a 28.743481
_cell_length_b 8.718312
_cell_length_c 22.298583
_cell_angle_alpha 90.000000
_cell_angle_beta 161.138500
_cell_angle_gamma 90.000000
_cell_volume 1806.467078
_symmetry_space_group_name_H-M "P 21/M"
_symmetry_group_IT_number 11
_symmetry_cell_setting 'monoclinic'
loop_
_space_group_symop_operation_xyz
x,y,z
-x,1/2+y,-z
-x,-y,-z
x,1/2-y,z
loop_
_atom_site_type_symbol
_atom_site_label
_atom_site_fract_x
_atom_site_fract_y
_atom_site_fract_z
Si Si1 0.660724 0.431719 0.196859
Si Si2 0.455554 0.933574 0.636353
Si Si3 0.839678 0.932949 0.304566
Si Si4 0.392804 0.566970 0.065024
Si Si5 0.690908 0.567081 0.359368
Si Si6 0.587379 0.064622 0.550900
Si Si7 0.828621 0.565847 0.650850
Si Si8 0.082148 0.565498 0.042889
O O1 0.654545 0.250000 0.179978
O O2 0.755298 0.506676 0.260156
O O3 0.719404 0.474341 0.334082
O O4 0.500000 0.500000 0.000000
O O5 0.466313 0.750000 0.653401
O O6 0.472694 0.980917 0.587933
O O7 0.564248 0.008116 0.816671
O O8 0.295878 0.984096 0.462701
O O9 0.844748 0.750000 0.311290
O O10 0.000000 0.000000 0.500000
O O11 0.746149 0.990040 0.133739
O O12 0.375846 0.750000 0.045229
O O13 0.531724 0.532721 0.192007
O O14 0.695766 0.750000 0.352913
O O15 0.799707 0.530668 0.546136
O O16 0.585415 0.250000 0.550649
O O17 0.753565 0.012641 0.758244
O O18 0.500000 0.000000 0.500000
O O19 0.807381 0.750000 0.631599
O O20 0.984602 0.525043 0.866491
O O21 0.084219 0.750000 0.050157
O O22 0.000000 0.500000 0.000000
#
# Coordination Sequence:
#
# PCOD9159467 Si02
#       8
#     4   4   4   4   4   4   4   4
#     4  12  23  37  59  87 117 153 195 241 292 345
#     4  10  19  33  54  82 114 146 188 238 288 341
#     4  12  25  42  63  88 120 157 196 242 293 350
#     4  10  20  36  59  86 116 151 194 237 286 346
#     4   9  18  33  54  83 116 148 188 239 290 346
#     4  10  22  37  54  80 114 152 194 239 285 343
#     4   9  18  32  54  81 112 146 186 235 291 345
#     4  10  19  34  55  82 110 142 184 234 286 338
#
# _framework density 17.714133
#
# number of rings (size 3 to 8) (size 9 to 14) (size 15 to 20)
#    0.000    1.750    2.500    3.750    0.000    3.500 
#    0.000    1.250    0.000    4.500    0.000    0.000 
#    0.000    0.000    0.000    0.000    0.000    0.000 
#
# Total GULP energy -178682.820587 kJ/mol
# GULP energy per Si atom -5583.838143 kJ/mol
# Density = 1.767382 g / cm^3
# Si number density = 17.714133 Si / 1000 Ang^3
#
#
#
# Elastic Constant Matrix: (Units=GPa)
#
#
# Indices 1 2 3 4 5 6 
#
# 1 132.4041 50.7233 83.3853 0.0000 -10.9991 0.0000
# 2 50.7233 76.2233 56.5961 0.0000 -8.4838 0.0000
# 3 83.3853 56.5961 149.9552 0.0000 -12.4418 0.0000
# 4 0.0000 0.0000 0.0000 25.3496 0.0000 -1.5989
# 5 -10.9991 -8.4838 -12.4418 0.0000 29.4186 0.0000
# 6 0.0000 0.0000 0.0000 -1.5989 0.0000 31.1016
#
#
#
# Elastic Compliance Matrix: (Units=1/GPa)
#
#
# Indices 1 2 3 4 5 6 
#
# 1 0.012656 -0.004356 -0.005291 0.000000 0.001238 0.000000
# 2 -0.004356 0.019896 -0.004919 0.000000 0.002029 0.000000
# 3 -0.005291 -0.004919 0.011592 0.000000 0.001506 0.000000
# 4 0.000000 0.000000 0.000000 0.039577 0.000000 0.002035
# 5 0.001238 0.002029 0.001506 0.000000 0.035677 0.000000
# 6 0.000000 0.000000 0.000000 0.002035 0.000000 0.032257
#
#
# Mechanical properties :
#
#
# Convention : Reuss Voigt Hill
#
# Bulk Modulus (GPa) = 66.60737 82.22134 74.41435
# Shear Modulus (GPa) = 26.91196 28.36583 27.63890
#
# Velocity S-wave (km/s) = 3.90197 4.00598 3.95432
# Velocity P-wave (km/s) = 7.61468 8.24097 7.93401
#
# Compressibility (1/GPa) = 0.01501335
#
# Stress axis : x y z
#
# Youngs Moduli (GPa) = 79.01136 50.26170 86.26472
#
# Poissons Ratio (x) = 0.21893 0.45644
# Poissons Ratio (y) = 0.34416 0.42431
# Poissons Ratio (z) = 0.41806 0.24722
#
# Static dielectric constant tensor:
#      x y z
#    x 1.585720 0.000000 -0.032770 
#    y 0.000000 1.593900 0.000000 
#    z -0.032770 0.000000 1.612450 
# 
# From -- ./inp_files/67299.got.cif
#   From: 2010.05.17/outbox.cif.g08.bks.cpg/sg11_34_cif.got.tgz:67299.got - 2010.06.03 12:22:45.
