data_PCOD9159516
_publ_section_title
;
Structure prediction by ZEFSAII (Michael W. Deem and Ramdas Pophale) SiO2 
 PCOD9159516
Probable space group: P 21/M
;
_chemical_formula_sum "Si O2"
_cell_formula_units_Z 32
_cell_length_a 22.676892
_cell_length_b 8.838708
_cell_length_c 28.885282
_cell_angle_alpha 90.000000
_cell_angle_beta 161.367052
_cell_angle_gamma 90.000000
_cell_volume 1849.803510
_symmetry_space_group_name_H-M "P 21/M"
_symmetry_group_IT_number 11
_symmetry_cell_setting 'monoclinic'
loop_
_space_group_symop_operation_xyz
x,y,z
-x,1/2+y,-z
-x,-y,-z
x,1/2-y,z
loop_
_atom_site_type_symbol
_atom_site_label
_atom_site_fract_x
_atom_site_fract_y
_atom_site_fract_z
Si Si1 0.547510 0.068494 0.606621
Si Si2 0.771568 0.431064 0.221369
Si Si3 0.816929 0.068090 0.887338
Si Si4 0.574189 0.430199 0.982328
Si Si5 0.189272 0.432740 0.015436
Si Si6 0.490082 0.068925 0.163003
Si Si7 0.221424 0.931593 0.312734
Si Si8 0.896448 0.569009 0.467464
O O1 0.533542 0.250000 0.595119
O O2 0.644297 0.024168 0.726350
O O3 0.683793 0.023016 0.665673
O O4 0.349222 0.999496 0.447719
O O5 0.740612 0.250000 0.203902
O O6 0.619085 0.516464 0.138699
O O7 0.973255 0.464948 0.391401
O O8 0.728380 0.467839 0.135792
O O9 0.831345 0.250000 0.898026
O O10 0.795211 0.006510 0.922765
O O11 0.000000 0.000000 0.000000
O O12 0.570879 0.250000 0.973241
O O13 0.592689 0.511186 0.947121
O O14 0.186759 0.250000 0.018901
O O15 0.355161 0.473613 0.104639
O O16 0.991505 0.477777 0.846624
O O17 0.505833 0.250000 0.173129
O O18 0.692817 0.998547 0.319471
O O19 0.229358 0.750000 0.321356
O O20 0.885327 0.750000 0.453895
O O21 0.000000 0.500000 0.500000
#
# Coordination Sequence:
#
# PCOD9159516 Si02
#       8
#     4   4   4   4   4   4   4   4
#     4   9  18  32  52  81 111 136 174 225 274 322
#     4   9  19  34  54  81 110 139 177 228 280 324
#     4  11  21  35  57  84 114 146 184 231 280 331
#     4  10  19  33  55  81 108 140 180 226 275 331
#     4  10  22  40  57  78 111 150 190 232 278 333
#     4  11  23  38  56  79 113 152 188 230 281 333
#     4   9  17  33  54  77 107 140 179 224 272 324
#     4  11  21  35  57  84 114 146 186 231 280 333
#
# _framework density 17.299135
#
# number of rings (size 3 to 8) (size 9 to 14) (size 15 to 20)
#    0.000    2.000    2.500    1.500    0.000    3.500 
#    0.000    1.250    0.000    6.000    0.000    0.000 
#    0.000    0.000    0.000    0.000    0.000    0.000 
#
# Total GULP energy -178579.266120 kJ/mol
# GULP energy per Si atom -5580.602066 kJ/mol
# Density = 1.725976 g / cm^3
# Si number density = 17.299135 Si / 1000 Ang^3
#
#
#
# Elastic Constant Matrix: (Units=GPa)
#
#
# Indices 1 2 3 4 5 6 
#
# 1 132.7462 50.1703 93.7148 0.0000 -8.5125 0.0000
# 2 50.1703 38.2178 51.4547 0.0000 -3.9987 0.0000
# 3 93.7148 51.4547 167.0390 0.0000 -13.7067 0.0000
# 4 0.0000 0.0000 0.0000 28.5389 0.0000 -3.7590
# 5 -8.5125 -3.9987 -13.7067 0.0000 27.5201 0.0000
# 6 0.0000 0.0000 0.0000 -3.7590 0.0000 26.2536
#
#
#
# Elastic Compliance Matrix: (Units=1/GPa)
#
#
# Indices 1 2 3 4 5 6 
#
# 1 0.016711 -0.015922 -0.004417 0.000000 0.000656 0.000000
# 2 -0.015922 0.059881 -0.009595 0.000000 -0.001003 0.000000
# 3 -0.004417 -0.009595 0.011671 0.000000 0.003052 0.000000
# 4 0.000000 0.000000 0.000000 0.035713 0.000000 0.005114
# 5 0.000656 -0.001003 0.003052 0.000000 0.037914 0.000000
# 6 0.000000 0.000000 0.000000 0.005114 0.000000 0.038822
#
#
# Mechanical properties :
#
#
# Convention : Reuss Voigt Hill
#
# Bulk Modulus (GPa) = 35.21816 80.96473 58.09144
# Shear Modulus (GPa) = 18.51533 25.97339 22.24436
#
# Velocity S-wave (km/s) = 3.27510 3.87903 3.58979
# Velocity P-wave (km/s) = 5.89103 8.18333 7.12990
#
# Compressibility (1/GPa) = 0.02839444
#
# Stress axis : x y z
#
# Youngs Moduli (GPa) = 59.84033 16.69982 85.68220
#
# Poissons Ratio (x) = 0.26589 0.37848
# Poissons Ratio (y) = 0.95277 0.82215
# Poissons Ratio (z) = 0.26433 0.16024
#
# Static dielectric constant tensor:
#      x y z
#    x 1.564560 0.000000 -0.020160 
#    y 0.000000 1.581780 0.000000 
#    z -0.020160 0.000000 1.589550 
# 
# From -- ./inp_files/72163.got.cif
#   From: 2010.05.17/outbox.cif.g08.bks.cpg/sg11_37_cif.got.tgz:72163.got - 2010.06.03 12:22:45.
