data_PCOD9159036
_publ_section_title
;
Structure prediction by ZEFSAII (Michael W. Deem and Ramdas Pophale) SiO2 
 PCOD9159036
Probable space group: P 21/M
;
_chemical_formula_sum "Si O2"
_cell_formula_units_Z 32
_cell_length_a 23.259988
_cell_length_b 7.526929
_cell_length_c 15.489808
_cell_angle_alpha 90.000000
_cell_angle_beta 147.947047
_cell_angle_gamma 90.000000
_cell_volume 1439.211847
_symmetry_space_group_name_H-M "P 21/M"
_symmetry_group_IT_number 11
_symmetry_cell_setting 'monoclinic'
loop_
_space_group_symop_operation_xyz
x,y,z
-x,1/2+y,-z
-x,-y,-z
x,1/2-y,z
loop_
_atom_site_type_symbol
_atom_site_label
_atom_site_fract_x
_atom_site_fract_y
_atom_site_fract_z
Si Si1 0.013023 0.967149 0.742826
Si Si2 0.656380 0.035421 0.054559
Si Si3 0.700189 0.539347 0.561237
Si Si4 0.254363 0.532172 0.015380
Si Si5 0.627270 0.459877 0.660898
Si Si6 0.217221 0.458748 0.617941
Si Si7 0.583599 0.967213 0.245720
Si Si8 0.060315 0.037396 0.165351
O O1 0.014932 0.750000 0.742099
O O2 0.902589 0.028520 0.555754
O O3 0.001465 0.024109 0.827979
O O4 0.128806 0.024197 0.853887
O O5 0.654600 0.250000 0.051825
O O6 0.684197 0.976410 0.993132
O O7 0.746673 0.979575 0.237788
O O8 0.536989 0.972190 0.931317
O O9 0.705672 0.750000 0.554589
O O10 0.674561 0.514199 0.628660
O O11 0.610868 0.477861 0.378882
O O12 0.817701 0.465589 0.685526
O O13 0.256595 0.750000 0.019030
O O14 0.311894 0.468950 0.176726
O O15 0.500000 0.500000 0.500000
O O16 0.640593 0.250000 0.682009
O O17 0.211936 0.250000 0.589457
O O18 0.316915 0.530536 0.687030
O O19 0.581566 0.750000 0.238331
O O20 0.067358 0.250000 0.182931
O O21 0.000000 0.000000 0.000000
#
# Coordination Sequence:
#
# PCOD9159036 Si02
#       8
#     4   4   4   4   4   4   4   4
#     4   9  17  33  55  77 104 141 183 219 259 322
#     4  10  20  34  53  76 103 138 177 224 275 323
#     4  10  19  34  56  81 107 141 183 224 270 324
#     4   9  19  35  54  76 106 145 184 218 263 326
#     4  11  22  37  57  82 111 146 184 224 269 323
#     4  10  19  34  56  79 102 136 180 225 269 322
#     4   9  17  33  55  77 105 141 181 218 269 335
#     4  10  19  32  53  79 107 141 180 223 269 321
#
# _framework density 22.234390999999999
#
# number of rings (size 3 to 8) (size 9 to 14) (size 15 to 20)
#    0.000    2.250    1.250    2.250    0.000    4.000 
#    0.000    4.375    0.000    2.250    0.000    0.000 
#    0.000    0.000    0.000    0.000    0.000    0.000 
#
# Total GULP energy -178753.730581 kJ/mol
# GULP energy per Si atom -5586.054081 kJ/mol
# Density = 2.218378 g / cm^3
# Si number density = 22.234391 Si / 1000 Ang^3
#
#
#
# Elastic Constant Matrix: (Units=GPa)
#
#
# Indices 1 2 3 4 5 6 
#
# 1 76.8281 -7.8084 21.6898 0.0000 8.6542 0.0000
# 2 -7.8084 50.1311 -6.0310 0.0000 4.7142 0.0000
# 3 21.6898 -6.0310 131.0899 0.0000 4.9716 0.0000
# 4 0.0000 0.0000 0.0000 16.5067 0.0000 -6.5116
# 5 8.6542 4.7142 4.9716 0.0000 42.1951 0.0000
# 6 0.0000 0.0000 0.0000 -6.5116 0.0000 5.0336
#
#
#
# Elastic Compliance Matrix: (Units=1/GPa)
#
#
# Indices 1 2 3 4 5 6 
#
# 1 0.014171 0.002224 -0.002132 0.000000 -0.002904 0.000000
# 2 0.002224 0.020644 0.000690 0.000000 -0.002844 0.000000
# 3 -0.002132 0.000690 0.008035 0.000000 -0.000586 0.000000
# 4 0.000000 0.000000 0.000000 0.123718 0.000000 0.160047
# 5 -0.002904 -0.002844 -0.000586 0.000000 0.024682 0.000000
# 6 0.000000 0.000000 0.000000 0.160047 0.000000 0.405711
#
#
# Mechanical properties :
#
#
# Convention : Reuss Voigt Hill
#
# Bulk Modulus (GPa) = 22.51582 30.41666 26.46624
# Shear Modulus (GPa) = 8.19399 29.42697 18.81048
#
# Velocity S-wave (km/s) = 1.92179 3.64193 2.91178
# Velocity P-wave (km/s) = 3.88239 5.60308 4.82014
#
# Compressibility (1/GPa) = 0.04441321
#
# Stress axis : x y z
#
# Youngs Moduli (GPa) = 70.56588 48.43909 124.45350
#
# Poissons Ratio (x) = -0.10772 0.26537
# Poissons Ratio (y) = -0.15693 -0.08583
# Poissons Ratio (z) = 0.15047 -0.03341
#
# Static dielectric constant tensor:
#      x y z
#    x 1.786320 0.000000 0.006040 
#    y 0.000000 1.879540 0.000000 
#    z 0.006040 0.000000 1.810200 
# 
# From -- ./inp_files/55716.got.cif
#   From: 2010.05.17/outbox.cif.g08.bks.cpg/sg11_28_cif.got.tgz:55716.got - 2010.06.03 12:22:45.
