data_PCOD9159391
_publ_section_title
;
Structure prediction by ZEFSAII (Michael W. Deem and Ramdas Pophale) SiO2 
 PCOD9159391
Probable space group: P 21/M
;
_chemical_formula_sum "Si O2"
_cell_formula_units_Z 24
_cell_length_a 9.354384
_cell_length_b 13.882481
_cell_length_c 7.931253
_cell_angle_alpha 90.000000
_cell_angle_beta 86.210937
_cell_angle_gamma 90.000000
_cell_volume 1027.717430
_symmetry_space_group_name_H-M "P 21/M"
_symmetry_group_IT_number 11
_symmetry_cell_setting 'monoclinic'
loop_
_space_group_symop_operation_xyz
x,y,z
-x,1/2+y,-z
-x,-y,-z
x,1/2-y,z
loop_
_atom_site_type_symbol
_atom_site_label
_atom_site_fract_x
_atom_site_fract_y
_atom_site_fract_z
Si Si1 0.289147 0.856439 0.813060
Si Si2 0.901435 0.141229 0.829802
Si Si3 0.382039 0.358545 0.478355
Si Si4 0.357816 0.565009 0.338678
Si Si5 0.552771 0.863559 0.019900
Si Si6 0.791240 0.937273 0.204817
O O1 0.267282 0.750000 0.739516
O O2 0.244993 0.955157 0.729208
O O3 0.191336 0.859451 0.991017
O O4 0.454089 0.865318 0.861554
O O5 0.952536 0.250000 0.800330
O O6 0.793773 0.112105 0.689601
O O7 0.041083 0.076098 0.828133
O O8 0.369152 0.250000 0.411737
O O9 0.339831 0.452029 0.374130
O O10 0.544143 0.381791 0.528928
O O11 0.279631 0.367495 0.650991
O O12 0.454592 0.582922 0.165373
O O13 0.565643 0.750000 0.059833
O O14 0.706574 0.913075 0.036975
#
# Coordination Sequence:
#
# PCOD9159391 Si02
#       6
#     4   4   4   4   4   4
#     4   9  19  34  50  71 102 136 167 201 243 292
#     4  10  19  33  54  76 100 131 165 201 246 298
#     4  10  20  35  54  74  99 129 166 208 244 289
#     4   9  18  34  54  73  96 132 165 199 248 295
#     4   9  17  33  55  75  98 129 167 207 244 289
#     4  11  19  31  51  77 102 130 167 204 246 290
#
# _framework density 23.352722
#
# number of rings (size 3 to 8) (size 9 to 14) (size 15 to 20)
#    0.000    2.333    0.000    6.000    0.000    0.667 
#    0.000   10.000    0.000   12.000    0.000    0.000 
#    0.000    0.000    0.000    0.000    0.000    0.000 
#
# Total GULP energy -134184.415375 kJ/mol
# GULP energy per Si atom -5591.017307 kJ/mol
# Density = 2.329957 g / cm^3
# Si number density = 23.352722 Si / 1000 Ang^3
#
#
#
# Elastic Constant Matrix: (Units=GPa)
#
#
# Indices 1 2 3 4 5 6 
#
# 1 101.6306 -6.0962 3.6600 0.0000 -0.1409 0.0000
# 2 -6.0962 152.1118 11.7710 0.0000 -8.6194 0.0000
# 3 3.6600 11.7710 38.2717 0.0000 -4.4107 0.0000
# 4 0.0000 0.0000 0.0000 40.6230 0.0000 0.1384
# 5 -0.1409 -8.6194 -4.4107 0.0000 19.7114 0.0000
# 6 0.0000 0.0000 0.0000 0.1384 0.0000 33.8572
#
#
#
# Elastic Compliance Matrix: (Units=1/GPa)
#
#
# Indices 1 2 3 4 5 6 
#
# 1 0.009908 0.000484 -0.001092 0.000000 0.000038 0.000000
# 2 0.000484 0.006885 -0.001865 0.000000 0.002597 0.000000
# 3 -0.001092 -0.001865 0.027419 0.000000 0.005312 0.000000
# 4 0.000000 0.000000 0.000000 0.024617 0.000000 -0.000101
# 5 0.000038 0.002597 0.005312 0.000000 0.053057 0.000000
# 6 0.000000 0.000000 0.000000 -0.000101 0.000000 0.029536
#
#
# Mechanical properties :
#
#
# Convention : Reuss Voigt Hill
#
# Bulk Modulus (GPa) = 25.46701 34.52043 29.99372
# Shear Modulus (GPa) = 29.50619 37.68361 33.59490
#
# Velocity S-wave (km/s) = 3.55843 4.02141 3.79698
# Velocity P-wave (km/s) = 5.27374 6.03130 5.66520
#
# Compressibility (1/GPa) = 0.03926648
#
# Stress axis : x y z
#
# Youngs Moduli (GPa) = 100.92912 145.24465 36.47102
#
# Poissons Ratio (x) = -0.07026 0.03982
# Poissons Ratio (y) = -0.04882 0.06800
# Poissons Ratio (z) = 0.11020 0.27082
#
# Static dielectric constant tensor:
#      x y z
#    x 1.815640 0.000000 -0.009710 
#    y 0.000000 1.863150 0.000000 
#    z -0.009710 0.000000 2.018590 
# 
# From -- ./inp_files/31147.got.cif
#   From: 2010.05.17/outbox.cif.g08.bks.cpg/sg11_16_cif.got.tgz:31147.got - 2010.06.03 12:22:45.
