data_PCOD9159103
_publ_section_title
;
Structure prediction by ZEFSAII (Michael W. Deem and Ramdas Pophale) SiO2 
 PCOD9159103
Probable space group: P 21/M
;
_chemical_formula_sum "Si O2"
_cell_formula_units_Z 32
_cell_length_a 11.133570
_cell_length_b 21.543733
_cell_length_c 11.366938
_cell_angle_alpha 90.000000
_cell_angle_beta 42.134358
_cell_angle_gamma 90.000000
_cell_volume 1829.103125
_symmetry_space_group_name_H-M "P 21/M"
_symmetry_group_IT_number 11
_symmetry_cell_setting 'monoclinic'
loop_
_space_group_symop_operation_xyz
x,y,z
-x,1/2+y,-z
-x,-y,-z
x,1/2-y,z
loop_
_atom_site_type_symbol
_atom_site_label
_atom_site_fract_x
_atom_site_fract_y
_atom_site_fract_z
Si Si1 0.609144 0.951594 0.342671
Si Si2 0.505197 0.322593 0.647232
Si Si3 0.340854 0.498886 0.947309
Si Si4 0.731649 0.678278 0.943957
Si Si5 0.943062 0.931926 0.497049
Si Si6 0.423876 0.409232 0.107588
Si Si7 0.110397 0.880303 0.593878
Si Si8 0.929031 0.986917 0.262934
O O1 0.556758 0.879252 0.391850
O O2 0.810059 0.962301 0.243224
O O3 0.500000 0.000000 0.500000
O O4 0.576277 0.973651 0.232804
O O5 0.487055 0.250000 0.624126
O O6 0.715144 0.337844 0.517471
O O7 0.378134 0.331245 0.855115
O O8 0.406792 0.566037 0.944338
O O9 0.393119 0.453218 0.015852
O O10 0.130600 0.498803 0.080988
O O11 0.774968 0.750000 0.903738
O O12 0.599927 0.657439 0.933708
O O13 0.922780 0.643183 0.788469
O O14 0.743077 0.919896 0.685593
O O15 0.944226 0.936248 0.356551
O O16 0.068865 0.887921 0.484459
O O17 0.000000 0.000000 0.500000
O O18 0.145010 0.948580 0.625868
#
# Coordination Sequence:
#
# PCOD9159103 Si02
#       8
#     4   4   4   4   4   4   4   4
#     4  12  23  37  56  80 119 150 200 240 285 347
#     4  11  23  38  60  84 112 153 196 240 293 345
#     4  11  21  32  55  84 113 148 183 240 294 333
#     4  10  20  36  56  84 119 150 185 238 293 353
#     4   9  17  30  52  82 114 144 170 225 293 336
#     4  10  19  32  54  83 115 142 183 235 291 340
#     4  10  19  35  57  88 114 141 191 234 296 339
#     4  11  20  34  55  85 119 149 182 241 286 346
#
# _framework density 17.494913
#
# number of rings (size 3 to 8) (size 9 to 14) (size 15 to 20)
#    0.000    1.500    6.250    1.500    3.500    0.000 
#    0.000    0.000    0.000    8.250    0.000    0.000 
#    0.000    0.000    0.000    0.000    0.000    0.000 
#
# Total GULP energy -178211.394091 kJ/mol
# GULP energy per Si atom -5569.106065 kJ/mol
# Density = 1.745509 g / cm^3
# Si number density = 17.494913 Si / 1000 Ang^3
#
#
#
# Elastic Constant Matrix: (Units=GPa)
#
#
# Indices 1 2 3 4 5 6 
#
# 1 69.7310 37.8527 10.5480 0.0000 -15.4423 0.0000
# 2 37.8527 99.0863 30.0398 0.0000 -0.8827 0.0000
# 3 10.5480 30.0398 58.7540 0.0000 -5.1564 0.0000
# 4 0.0000 0.0000 0.0000 23.6468 0.0000 -1.8392
# 5 -15.4423 -0.8827 -5.1564 0.0000 12.8140 0.0000
# 6 0.0000 0.0000 0.0000 -1.8392 0.0000 23.6505
#
#
#
# Elastic Compliance Matrix: (Units=1/GPa)
#
#
# Indices 1 2 3 4 5 6 
#
# 1 0.027385 -0.011324 0.003837 0.000000 0.033766 0.000000
# 2 -0.011324 0.016662 -0.007860 0.000000 -0.015662 0.000000
# 3 0.003837 -0.007860 0.021467 0.000000 0.012720 0.000000
# 4 0.000000 0.000000 0.000000 0.042546 0.000000 0.003309
# 5 0.033766 -0.015662 0.012720 0.000000 0.122770 0.000000
# 6 0.000000 0.000000 0.000000 0.003309 0.000000 0.042540
#
#
# Mechanical properties :
#
#
# Convention : Reuss Voigt Hill
#
# Bulk Modulus (GPa) = 28.72064 42.71692 35.71878
# Shear Modulus (GPa) = 15.83927 21.96432 18.90179
#
# Velocity S-wave (km/s) = 3.01219 3.54710 3.29053
# Velocity P-wave (km/s) = 5.34321 6.42228 5.90744
#
# Compressibility (1/GPa) = 0.03481816
#
# Stress axis : x y z
#
# Youngs Moduli (GPa) = 36.51613 60.01802 46.58409
#
# Poissons Ratio (x) = 0.67964 -0.17873
# Poissons Ratio (y) = 0.41351 0.36617
# Poissons Ratio (z) = -0.14010 0.47176
#
# Static dielectric constant tensor:
#      x y z
#    x 1.606700 0.000000 -0.018500 
#    y 0.000000 1.626740 0.000000 
#    z -0.018500 0.000000 1.627140 
# 
# From -- ./inp_files/36346.got.cif
#   From: 2010.05.17/outbox.cif.g08.bks.cpg/sg11_19_cif.got.tgz:36346.got - 2010.06.03 12:22:45.
