data_PCOD9159184
_publ_section_title
;
Structure prediction by ZEFSAII (Michael W. Deem and Ramdas Pophale) SiO2 
 PCOD9159184
Probable space group: P 21/M
;
_chemical_formula_sum "Si O2"
_cell_formula_units_Z 32
_cell_length_a 21.579963
_cell_length_b 14.465295
_cell_length_c 15.045492
_cell_angle_alpha 90.000000
_cell_angle_beta 19.226348
_cell_angle_gamma 90.000000
_cell_volume 1546.597459
_symmetry_space_group_name_H-M "P 21/M"
_symmetry_group_IT_number 11
_symmetry_cell_setting 'monoclinic'
loop_
_space_group_symop_operation_xyz
x,y,z
-x,1/2+y,-z
-x,-y,-z
x,1/2-y,z
loop_
_atom_site_type_symbol
_atom_site_label
_atom_site_fract_x
_atom_site_fract_y
_atom_site_fract_z
Si Si1 0.029758 0.353192 0.789366
Si Si2 0.280385 0.854220 0.936960
Si Si3 0.877786 0.648004 0.816222
Si Si4 0.520343 0.976321 0.265193
Si Si5 0.043372 0.100437 0.482364
Si Si6 0.899257 0.095964 0.152489
Si Si7 0.455005 0.053621 0.969889
Si Si8 0.860659 0.434944 0.394391
O O1 0.109558 0.250000 0.655519
O O2 0.836324 0.364524 0.995953
O O3 0.138761 0.451943 0.623686
O O4 0.974990 0.347428 0.967105
O O5 0.352453 0.750000 0.846471
O O6 0.119641 0.870722 0.229791
O O7 0.440635 0.930176 0.734080
O O8 0.861696 0.750000 0.877321
O O9 0.948063 0.656548 0.620070
O O10 0.016109 0.585308 0.686757
O O11 0.680876 0.595616 0.075223
O O12 0.322317 0.927348 0.549702
O O13 0.548346 0.998248 0.121751
O O14 0.249476 0.100550 0.250287
O O15 0.000000 0.000000 0.500000
O O16 0.941752 0.116700 0.197797
O O17 0.000000 0.000000 0.000000
O O18 0.652153 0.106875 0.691064
O O19 0.500000 0.000000 0.000000
#
# Coordination Sequence:
#
# PCOD9159184 Si02
#       8
#     4   4   4   4   4   4   4   4
#     4  10  20  37  63  88 118 159 199 247 309 365
#     4  11  21  36  60  91 120 153 202 251 293 352
#     4  11  22  37  61  89 120 162 207 250 298 357
#     4  10  21  39  61  86 120 159 196 250 301 361
#     4  11  19  37  61  84 122 165 201 244 295 354
#     4   9  21  40  62  85 117 158 199 245 310 359
#     4  10  19  32  61  87 120 165 197 235 306 357
#     4  10  20  39  58  91 125 155 203 255 303 356
#
# _framework density 20.690580000000001
#
# number of rings (size 3 to 8) (size 9 to 14) (size 15 to 20)
#    0.000    1.750    3.750    1.875    0.000    1.500 
#    0.000   11.250    0.000    6.000    0.000    0.000 
#    0.000    0.000    0.000    0.000    0.000    0.000 
#
# Total GULP energy -178185.756936 kJ/mol
# GULP energy per Si atom -5568.304904 kJ/mol
# Density = 2.064349 g / cm^3
# Si number density = 20.690580 Si / 1000 Ang^3
#
#
#
# Elastic Constant Matrix: (Units=GPa)
#
#
# Indices 1 2 3 4 5 6 
#
# 1 91.3465 7.0278 19.5274 0.0000 -7.7567 0.0000
# 2 7.0278 104.1900 0.6181 0.0000 -6.2679 0.0000
# 3 19.5274 0.6181 48.1970 0.0000 -14.4827 0.0000
# 4 0.0000 0.0000 0.0000 -3.0138 0.0000 15.1462
# 5 -7.7567 -6.2679 -14.4827 0.0000 27.1538 0.0000
# 6 0.0000 0.0000 0.0000 15.1462 0.0000 8.1159
#
#
#
# Elastic Compliance Matrix: (Units=1/GPa)
#
#
# Indices 1 2 3 4 5 6 
#
# 1 0.012064 -0.000738 -0.004637 0.000000 0.000802 0.000000
# 2 -0.000738 0.009796 0.000940 0.000000 0.002552 0.000000
# 3 -0.004637 0.000940 0.026535 0.000000 0.013045 0.000000
# 4 0.000000 0.000000 0.000000 -0.031969 0.000000 0.059662
# 5 0.000802 0.002552 0.013045 0.000000 0.044603 0.000000
# 6 0.000000 0.000000 0.000000 0.059662 0.000000 0.011872
#
#
# Mechanical properties :
#
#
# Convention : Reuss Voigt Hill
#
# Bulk Modulus (GPa) = 25.30099 33.12002 29.21050
# Shear Modulus (GPa) = 52.66279 20.88852 36.77565
#
# Velocity S-wave (km/s) = 5.05052 3.18081 4.22051
# Velocity P-wave (km/s) = 6.80185 5.43435 6.15619
#
# Compressibility (1/GPa) = 0.03952414
#
# Stress axis : x y z
#
# Youngs Moduli (GPa) = 82.89457 102.08712 37.68644
#
# Poissons Ratio (x) = 0.07533 0.17475
# Poissons Ratio (y) = 0.06117 -0.03543
# Poissons Ratio (z) = 0.38438 -0.09597
#
# Static dielectric constant tensor:
#      x y z
#    x 1.783640 0.000000 0.042600 
#    y 0.000000 1.803900 0.000000 
#    z 0.042600 0.000000 1.751970 
# 
# From -- ./inp_files/54983.got.cif
#   From: 2010.05.17/outbox.cif.g08.bks.cpg/sg11_28_cif.got.tgz:54983.got - 2010.06.03 12:22:45.
