data_PCOD9159137
_publ_section_title
;
Structure prediction by ZEFSAII (Michael W. Deem and Ramdas Pophale) SiO2 
 PCOD9159137
Probable space group: P 21/M
;
_chemical_formula_sum "Si O2"
_cell_formula_units_Z 28
_cell_length_a 13.506620
_cell_length_b 9.513362
_cell_length_c 10.023201
_cell_angle_alpha 90.000000
_cell_angle_beta 72.979282
_cell_angle_gamma 90.000000
_cell_volume 1231.502836
_symmetry_space_group_name_H-M "P 21/M"
_symmetry_group_IT_number 11
_symmetry_cell_setting 'monoclinic'
loop_
_space_group_symop_operation_xyz
x,y,z
-x,1/2+y,-z
-x,-y,-z
x,1/2-y,z
loop_
_atom_site_type_symbol
_atom_site_label
_atom_site_fract_x
_atom_site_fract_y
_atom_site_fract_z
Si Si1 0.665670 0.474058 0.439600
Si Si2 0.342011 0.919970 0.973210
Si Si3 0.790506 0.584240 0.785066
Si Si4 0.141435 0.900947 0.482811
Si Si5 0.985658 0.086155 0.211694
Si Si6 0.198202 0.090027 0.829910
Si Si7 0.492654 0.091583 0.292786
O O1 0.762061 0.387890 0.454602
O O2 0.726603 0.592389 0.330604
O O3 0.599055 0.513863 0.595533
O O4 0.584887 0.407682 0.367500
O O5 0.338227 0.750000 0.983238
O O6 0.451760 0.962610 0.863126
O O7 0.258146 0.982502 0.902340
O O8 0.306897 0.996409 0.121985
O O9 0.769966 0.750000 0.787835
O O10 0.826494 0.521941 0.630275
O O11 0.891741 0.562080 0.839670
O O12 0.125221 0.750000 0.419356
O O13 0.046905 0.929105 0.619483
O O14 0.964632 0.250000 0.183362
O O15 0.912797 0.977186 0.162970
O O16 0.190284 0.250000 0.883285
O O17 0.458574 0.250000 0.280462
#
# Coordination Sequence:
#
# PCOD9159137 Si02
#       7
#     4   4   4   4   4   4   4
#     4   9  18  32  54  84 112 138 169 214 267 317
#     4  10  21  37  55  76 107 146 182 217 263 317
#     4  11  23  38  55  76 105 142 183 224 264 309
#     4  10  20  36  57  81 109 140 175 215 264 321
#     4   9  20  37  56  79 107 139 175 218 268 319
#     4  10  19  32  55  85 112 137 172 220 268 315
#     4   9  17  32  55  81 108 138 173 214 262 315
#
# _framework density 22.736447999999999
#
# number of rings (size 3 to 8) (size 9 to 14) (size 15 to 20)
#    0.000    2.286    0.000    2.571    0.000    8.000 
#    0.000    2.857    0.000    0.000    0.000    0.000 
#    0.000    0.000    0.000    0.000    0.000    0.000 
#
# Total GULP energy -156225.949086 kJ/mol
# GULP energy per Si atom -5579.498182 kJ/mol
# Density = 2.268470 g / cm^3
# Si number density = 22.736448 Si / 1000 Ang^3
#
#
#
# Elastic Constant Matrix: (Units=GPa)
#
#
# Indices 1 2 3 4 5 6 
#
# 1 76.7991 6.0016 15.0029 0.0000 -19.4975 0.0000
# 2 6.0016 91.4424 40.2329 0.0000 -12.6823 0.0000
# 3 15.0029 40.2329 120.7089 0.0000 -38.8531 0.0000
# 4 0.0000 0.0000 0.0000 18.6056 0.0000 14.9924
# 5 -19.4975 -12.6823 -38.8531 0.0000 37.9339 0.0000
# 6 0.0000 0.0000 0.0000 14.9924 0.0000 -16.7783
#
#
#
# Elastic Compliance Matrix: (Units=1/GPa)
#
#
# Indices 1 2 3 4 5 6 
#
# 1 0.015048 -0.000223 0.000999 0.000000 0.008683 0.000000
# 2 -0.000223 0.012819 -0.004330 0.000000 -0.000263 0.000000
# 3 0.000999 -0.004330 0.013878 0.000000 0.013280 0.000000
# 4 0.000000 0.000000 0.000000 0.031248 0.000000 0.027922
# 5 0.008683 -0.000263 0.013280 0.000000 0.044338 0.000000
# 6 0.000000 0.000000 0.000000 0.027922 0.000000 -0.034651
#
#
# Mechanical properties :
#
#
# Convention : Reuss Voigt Hill
#
# Bulk Modulus (GPa) = 28.87100 45.71392 37.29246
# Shear Modulus (GPa) = 49.34249 23.13312 36.23780
#
# Velocity S-wave (km/s) = 4.66359 3.19320 3.99660
# Velocity P-wave (km/s) = 6.45944 5.80905 6.14286
#
# Compressibility (1/GPa) = 0.03463684
#
# Stress axis : x y z
#
# Youngs Moduli (GPa) = 66.45564 78.00968 72.05721
#
# Poissons Ratio (x) = 0.01738 -0.07197
# Poissons Ratio (y) = 0.01481 0.31199
# Poissons Ratio (z) = -0.06637 0.33776
#
# Static dielectric constant tensor:
#      x y z
#    x 1.834700 0.000000 0.031220 
#    y 0.000000 4.447570 0.000000 
#    z 0.031220 0.000000 1.917860 
# 
# From -- ./inp_files/37882.got.cif
#   From: 2010.05.17/outbox.cif.g08.bks.cpg/sg11_19_cif.got.tgz:37882.got - 2010.06.03 12:22:45.
