data_PCOD9159626
_publ_section_title
;
Structure prediction by ZEFSAII (Michael W. Deem and Ramdas Pophale) SiO2 
 PCOD9159626
Probable space group: P 21/M
;
_chemical_formula_sum "Si O2"
_cell_formula_units_Z 32
_cell_length_a 16.604067
_cell_length_b 8.726548
_cell_length_c 12.536064
_cell_angle_alpha 90.000000
_cell_angle_beta 91.594962
_cell_angle_gamma 90.000000
_cell_volume 1815.724137
_symmetry_space_group_name_H-M "P 21/M"
_symmetry_group_IT_number 11
_symmetry_cell_setting 'monoclinic'
loop_
_space_group_symop_operation_xyz
x,y,z
-x,1/2+y,-z
-x,-y,-z
x,1/2-y,z
loop_
_atom_site_type_symbol
_atom_site_label
_atom_site_fract_x
_atom_site_fract_y
_atom_site_fract_z
Si Si1 0.381921 0.567916 0.766602
Si Si2 0.790072 0.936471 0.642393
Si Si3 0.766167 0.433060 0.079189
Si Si4 0.470045 0.932324 0.111557
Si Si5 0.878327 0.567431 0.258907
Si Si6 0.025759 0.434095 0.386365
Si Si7 0.706922 0.565702 0.859039
Si Si8 0.270541 0.433758 0.588016
O O1 0.395419 0.750000 0.768144
O O2 0.314782 0.531798 0.855013
O O3 0.463346 0.481393 0.799590
O O4 0.341807 0.515345 0.654642
O O5 0.789961 0.750000 0.640947
O O6 0.883244 0.983973 0.637078
O O7 0.748333 0.984826 0.750267
O O8 0.743056 0.984769 0.533779
O O9 0.772628 0.250000 0.072148
O O10 0.839926 0.500041 0.150002
O O11 0.755766 0.505924 0.963153
O O12 0.464602 0.750000 0.102469
O O13 0.383120 0.000685 0.135425
O O14 0.500000 0.000000 0.000000
O O15 0.887012 0.750000 0.250886
O O16 0.811988 0.536148 0.349285
O O17 0.961546 0.492307 0.297767
O O18 0.024160 0.250000 0.391705
O O19 0.000000 0.500000 0.500000
O O20 0.704099 0.750000 0.861603
O O21 0.283435 0.250000 0.591244
#
# Coordination Sequence:
#
# PCOD9159626 Si02
#       8
#     4   4   4   4   4   4   4   4
#     4  10  20  34  55  85 115 142 183 235 283 329
#     4   9  20  38  58  82 115 153 188 228 281 340
#     4  10  20  35  55  82 116 148 185 232 282 334
#     4  12  23  37  58  85 114 146 188 234 280 331
#     4  10  19  33  56  85 114 145 188 236 285 334
#     4  11  20  35  57  85 116 148 191 237 283 333
#     4  11  22  38  60  83 113 152 189 229 282 337
#     4   9  17  34  56  80 113 149 186 228 279 334
#
# _framework density 17.623823999999999
#
# number of rings (size 3 to 8) (size 9 to 14) (size 15 to 20)
#    0.000    1.750    2.500    3.000    0.000    1.500 
#    0.000    5.000    0.000    0.000    0.000    0.000 
#    0.000    0.000    0.000    0.000    0.000    0.000 
#
# Total GULP energy -178728.242658 kJ/mol
# GULP energy per Si atom -5585.257583 kJ/mol
# Density = 1.758371 g / cm^3
# Si number density = 17.623824 Si / 1000 Ang^3
#
#
#
# Elastic Constant Matrix: (Units=GPa)
#
#
# Indices 1 2 3 4 5 6 
#
# 1 115.2751 41.4105 87.4711 0.0000 9.7917 0.0000
# 2 41.4105 59.5396 51.4817 0.0000 4.3559 0.0000
# 3 87.4711 51.4817 164.8127 0.0000 12.7970 0.0000
# 4 0.0000 0.0000 0.0000 26.3005 0.0000 9.5095
# 5 9.7917 4.3559 12.7970 0.0000 30.2191 0.0000
# 6 0.0000 0.0000 0.0000 9.5095 0.0000 28.6340
#
#
#
# Elastic Compliance Matrix: (Units=1/GPa)
#
#
# Indices 1 2 3 4 5 6 
#
# 1 0.015625 -0.005052 -0.006595 0.000000 -0.001542 0.000000
# 2 -0.005052 0.024646 -0.005034 0.000000 0.000216 0.000000
# 3 -0.006595 -0.005034 0.011289 0.000000 -0.001918 0.000000
# 4 0.000000 0.000000 0.000000 0.043211 0.000000 -0.014350
# 5 -0.001542 0.000216 -0.001918 0.000000 0.034372 0.000000
# 6 0.000000 0.000000 0.000000 -0.014350 0.000000 0.039689
#
#
# Mechanical properties :
#
#
# Convention : Reuss Voigt Hill
#
# Bulk Modulus (GPa) = 54.95088 77.81709 66.38398
# Shear Modulus (GPa) = 24.00835 27.64833 25.82834
#
# Velocity S-wave (km/s) = 3.69489 3.96511 3.83238
# Velocity P-wave (km/s) = 7.03211 8.07547 7.57178
#
# Compressibility (1/GPa) = 0.01819807
#
# Stress axis : x y z
#
# Youngs Moduli (GPa) = 64.00030 40.57387 88.58247
#
# Poissons Ratio (x) = 0.20499 0.58418
# Poissons Ratio (y) = 0.32335 0.44593
# Poissons Ratio (z) = 0.42207 0.20425
#
# Static dielectric constant tensor:
#      x y z
#    x 1.581490 0.000000 0.007540 
#    y 0.000000 1.591420 0.000000 
#    z 0.007540 0.000000 1.592520 
# 
# From -- ./inp_files/38127.got.cif
#   From: 2010.05.17/outbox.cif.g08.bks.cpg/sg11_20_cif.got.tgz:38127.got - 2010.06.03 12:22:45.
