data_PCOD9159699
_publ_section_title
;
Structure prediction by ZEFSAII (Michael W. Deem and Ramdas Pophale) SiO2 
 PCOD9159699
Probable space group: P 21/M
;
_chemical_formula_sum "Si O2"
_cell_formula_units_Z 32
_cell_length_a 16.159257
_cell_length_b 8.923633
_cell_length_c 11.578147
_cell_angle_alpha 90.000000
_cell_angle_beta 89.039863
_cell_angle_gamma 90.000000
_cell_volume 1669.326036
_symmetry_space_group_name_H-M "P 21/M"
_symmetry_group_IT_number 11
_symmetry_cell_setting 'monoclinic'
loop_
_space_group_symop_operation_xyz
x,y,z
-x,1/2+y,-z
-x,-y,-z
x,1/2-y,z
loop_
_atom_site_type_symbol
_atom_site_label
_atom_site_fract_x
_atom_site_fract_y
_atom_site_fract_z
Si Si1 0.448927 0.426108 0.676773
Si Si2 0.925612 0.924941 0.068776
Si Si3 0.250118 0.074638 0.054769
Si Si4 0.222383 0.571777 0.300604
Si Si5 0.909193 0.069487 0.514356
Si Si6 0.674462 0.427670 0.162034
Si Si7 0.381139 0.926674 0.450973
Si Si8 0.830195 0.931508 0.291805
O O1 0.437543 0.250000 0.698441
O O2 0.412417 0.519596 0.783138
O O3 0.544476 0.453953 0.641528
O O4 0.399038 0.475645 0.563104
O O5 0.944793 0.750000 0.077223
O O6 0.902092 0.976690 0.198313
O O7 0.841189 0.942843 0.998562
O O8 0.000000 0.000000 0.000000
O O9 0.271518 0.250000 0.050799
O O10 0.244088 0.014815 0.184145
O O11 0.310360 0.983755 0.968472
O O12 0.221647 0.750000 0.276105
O O13 0.135578 0.531765 0.363290
O O14 0.294211 0.544237 0.392765
O O15 0.912355 0.250000 0.505522
O O16 0.852911 0.002957 0.413108
O O17 0.000000 0.000000 0.500000
O O18 0.684060 0.250000 0.169274
O O19 0.745154 0.506980 0.239276
O O20 0.385139 0.750000 0.483500
O O21 0.826654 0.750000 0.297445
#
# Coordination Sequence:
#
# PCOD9159699 Si02
#       8
#     4   4   4   4   4   4   4   4
#     4  10  19  33  58  89 120 150 187 240 289 336
#     4   9  20  35  54  79 106 137 178 231 282 332
#     4  10  22  39  57  82 111 146 191 238 286 340
#     4  10  22  40  59  80 112 152 192 234 283 343
#     4  11  24  39  57  83 115 153 193 235 285 341
#     4  11  21  36  59  85 114 151 190 232 283 342
#     4   9  19  36  58  87 119 152 192 236 288 344
#     4  10  21  38  57  82 112 143 187 237 285 336
#
# _framework density 19.169411
#
# number of rings (size 3 to 8) (size 9 to 14) (size 15 to 20)
#    0.000    2.000    0.000    4.125    1.750    6.000 
#    0.000    0.625    0.000    0.000    0.000    0.000 
#    0.000    0.000    0.000    0.000    0.000    0.000 
#
# Total GULP energy -178740.655742 kJ/mol
# GULP energy per Si atom -5585.645492 kJ/mol
# Density = 1.912578 g / cm^3
# Si number density = 19.169411 Si / 1000 Ang^3
#
#
#
# Elastic Constant Matrix: (Units=GPa)
#
#
# Indices 1 2 3 4 5 6 
#
# 1 54.0120 46.0847 36.4113 0.0000 -29.9306 0.0000
# 2 46.0847 49.8305 15.3158 0.0000 -10.7871 0.0000
# 3 36.4113 15.3158 56.1826 0.0000 -17.6078 0.0000
# 4 0.0000 0.0000 0.0000 35.9361 0.0000 -4.2764
# 5 -29.9306 -10.7871 -17.6078 0.0000 26.8094 0.0000
# 6 0.0000 0.0000 0.0000 -4.2764 0.0000 28.4777
#
#
#
# Elastic Compliance Matrix: (Units=1/GPa)
#
#
# Indices 1 2 3 4 5 6 
#
# 1 -0.133692 0.094103 0.032839 0.000000 -0.089824 0.000000
# 2 0.094103 -0.043496 -0.027311 0.000000 0.069621 0.000000
# 3 0.032839 -0.027311 0.015120 0.000000 0.035604 0.000000
# 4 0.000000 0.000000 0.000000 0.028333 0.000000 0.004255
# 5 -0.089824 0.069621 0.035604 0.000000 -0.011584 0.000000
# 6 0.000000 0.000000 0.000000 0.004255 0.000000 0.035754
#
#
# Mechanical properties :
#
#
# Convention : Reuss Voigt Hill
#
# Bulk Modulus (GPa) = 26.88402 39.51652 33.20027
# Shear Modulus (GPa) = -16.86738 22.39218 2.76240
#
# Velocity S-wave (km/s) = -2.96955 3.42149 1.20174
# Velocity P-wave (km/s) = 1.51567 6.02228 4.39119
#
# Compressibility (1/GPa) = 0.03719682
#
# Stress axis : x y z
#
# Youngs Moduli (GPa) = -7.47990 -22.99059 66.13832
#
# Poissons Ratio (x) = 2.16349 -2.17195
# Poissons Ratio (y) = 0.70388 1.80627
# Poissons Ratio (z) = 0.24564 -0.62789
#
# Static dielectric constant tensor:
#      x y z
#    x 1.670790 0.000000 -0.026480 
#    y 0.000000 1.649970 0.000000 
#    z -0.026480 0.000000 1.662900 
# 
# From -- ./inp_files/38128.got.cif
#   From: 2010.05.17/outbox.cif.g08.bks.cpg/sg11_20_cif.got.tgz:38128.got - 2010.06.03 12:22:45.
