data_PCOD9159669
_publ_section_title
;
Structure prediction by ZEFSAII (Michael W. Deem and Ramdas Pophale) SiO2 
 PCOD9159669
Probable space group: P 21/M
;
_chemical_formula_sum "Si O2"
_cell_formula_units_Z 32
_cell_length_a 29.621560
_cell_length_b 8.872371
_cell_length_c 12.460733
_cell_angle_alpha 90.000000
_cell_angle_beta 146.139206
_cell_angle_gamma 90.000000
_cell_volume 1824.670325
_symmetry_space_group_name_H-M "P 21/M"
_symmetry_group_IT_number 11
_symmetry_cell_setting 'monoclinic'
loop_
_space_group_symop_operation_xyz
x,y,z
-x,1/2+y,-z
-x,-y,-z
x,1/2-y,z
loop_
_atom_site_type_symbol
_atom_site_label
_atom_site_fract_x
_atom_site_fract_y
_atom_site_fract_z
Si Si1 0.020177 0.930257 0.703651
Si Si2 0.631124 0.570689 0.250756
Si Si3 0.457785 0.069083 0.312799
Si Si4 0.868876 0.570690 0.249244
Si Si5 0.520176 0.430257 0.203650
Si Si6 0.781047 0.430098 0.431285
Si Si7 0.718953 0.430098 0.068715
Si Si8 0.957785 0.569083 0.812798
O O1 0.032818 0.750000 0.720821
O O2 0.937504 0.964726 0.474743
O O3 0.006080 0.971801 0.799155
O O4 0.092470 0.014188 0.785605
O O5 0.643082 0.750000 0.275498
O O6 0.592470 0.514187 0.285605
O O7 0.713144 0.488424 0.379333
O O8 0.562496 0.535273 0.025257
O O9 0.455984 0.250000 0.316046
O O10 0.506080 0.028199 0.299155
O O11 0.500000 0.000000 0.500000
O O12 0.366920 0.007256 0.121657
O O13 0.856917 0.750000 0.224499
O O14 0.786857 0.488422 0.120668
O O15 0.532817 0.250000 0.220818
O O16 0.789303 0.250000 0.454784
O O17 0.750000 0.468295 0.249999
O O18 0.866920 0.507255 0.621656
O O19 0.710696 0.250000 0.045214
O O20 0.955983 0.750000 0.816044
O O21 0.000000 0.500000 0.000000
#
# Coordination Sequence:
#
# PCOD9159669 Si02
#       8
#     4   4   4   4   4   4   4   4
#     4   9  19  35  55  82 116 151 186 231 287 340
#     4  10  19  33  57  86 115 147 188 237 286 337
#     4  11  23  40  60  84 118 155 192 234 286 344
#     4  10  19  33  57  86 115 147 188 237 286 337
#     4   9  19  35  55  82 116 151 186 231 287 340
#     4  11  22  36  58  87 117 150 193 239 283 336
#     4  11  22  36  58  87 117 150 193 239 283 336
#     4  11  23  40  60  84 118 155 192 234 286 344
#
# _framework density 17.537413000000001
#
# number of rings (size 3 to 8) (size 9 to 14) (size 15 to 20)
#    0.000    1.750    2.500    2.250    0.000    4.000 
#    0.000    1.250    0.000    7.500    0.000    0.000 
#    0.000    0.000    0.000    0.000    0.000    0.000 
#
# Total GULP energy -178744.924108 kJ/mol
# GULP energy per Si atom -5585.778878 kJ/mol
# Density = 1.749750 g / cm^3
# Si number density = 17.537413 Si / 1000 Ang^3
#
#
#
# Elastic Constant Matrix: (Units=GPa)
#
#
# Indices 1 2 3 4 5 6 
#
# 1 172.8231 66.1318 82.5845 0.0000 -3.5736 0.0000
# 2 66.1318 57.6015 55.5490 0.0000 -2.1916 0.0000
# 3 82.5845 55.5490 107.4923 0.0000 -7.2020 0.0000
# 4 0.0000 0.0000 0.0000 30.3594 0.0000 3.2833
# 5 -3.5736 -2.1916 -7.2020 0.0000 25.3661 0.0000
# 6 0.0000 0.0000 0.0000 3.2833 0.0000 32.2076
#
#
#
# Elastic Compliance Matrix: (Units=1/GPa)
#
#
# Indices 1 2 3 4 5 6 
#
# 1 0.011072 -0.008970 -0.003892 0.000000 -0.000320 0.000000
# 2 -0.008970 0.041988 -0.014932 0.000000 -0.001876 0.000000
# 3 -0.003892 -0.014932 0.020272 0.000000 0.003917 0.000000
# 4 0.000000 0.000000 0.000000 0.033306 0.000000 -0.003395
# 5 -0.000320 -0.001876 0.003917 0.000000 0.040328 0.000000
# 6 0.000000 0.000000 0.000000 -0.003395 0.000000 0.031395
#
#
# Mechanical properties :
#
#
# Convention : Reuss Voigt Hill
#
# Bulk Modulus (GPa) = 56.36055 82.93861 69.64958
# Shear Modulus (GPa) = 20.84501 26.49672 23.67086
#
# Velocity S-wave (km/s) = 3.45135 3.89121 3.67786
# Velocity P-wave (km/s) = 6.93466 8.22093 7.60504
#
# Compressibility (1/GPa) = 0.01774291
#
# Stress axis : x y z
#
# Youngs Moduli (GPa) = 90.31600 23.81622 49.32801
#
# Poissons Ratio (x) = 0.21364 0.19201
# Poissons Ratio (y) = 0.81017 0.73657
# Poissons Ratio (z) = 0.35155 0.35563
#
# Static dielectric constant tensor:
#      x y z
#    x 1.586800 0.000000 -0.009760 
#    y 0.000000 1.579260 0.000000 
#    z -0.009760 0.000000 1.566780 
# 
# From -- ./inp_files/38107.got.cif
#   From: 2010.05.17/outbox.cif.g08.bks.cpg/sg11_20_cif.got.tgz:38107.got - 2010.06.03 12:22:45.
