data_PCOD9159627
_publ_section_title
;
Structure prediction by ZEFSAII (Michael W. Deem and Ramdas Pophale) SiO2 
 PCOD9159627
Probable space group: P 21/M
;
_chemical_formula_sum "Si O2"
_cell_formula_units_Z 32
_cell_length_a 11.369218
_cell_length_b 16.008928
_cell_length_c 13.447881
_cell_angle_alpha 90.000000
_cell_angle_beta 135.789154
_cell_angle_gamma 90.000000
_cell_volume 1706.738033
_symmetry_space_group_name_H-M "P 21/M"
_symmetry_group_IT_number 11
_symmetry_cell_setting 'monoclinic'
loop_
_space_group_symop_operation_xyz
x,y,z
-x,1/2+y,-z
-x,-y,-z
x,1/2-y,z
loop_
_atom_site_type_symbol
_atom_site_label
_atom_site_fract_x
_atom_site_fract_y
_atom_site_fract_z
Si Si1 0.699072 0.151832 0.786327
Si Si2 0.986766 0.658473 0.318148
Si Si3 0.328196 0.952203 0.777101
Si Si4 0.011201 0.153575 0.445477
Si Si5 0.691195 0.925314 0.045036
Si Si6 0.350369 0.433972 0.595228
Si Si7 0.210836 0.527570 0.341655
Si Si8 0.080395 0.541828 0.951540
O O1 0.715221 0.250000 0.773661
O O2 0.508801 0.127378 0.701363
O O3 0.739676 0.090894 0.717154
O O4 0.825566 0.124084 0.951980
O O5 0.062674 0.750000 0.347321
O O6 0.952008 0.649731 0.413811
O O7 0.107746 0.584944 0.356504
O O8 0.817271 0.648283 0.151138
O O9 0.159622 0.897667 0.675927
O O10 0.316916 0.017615 0.860919
O O11 0.346703 0.001893 0.685115
O O12 0.502337 0.902225 0.899719
O O13 0.988346 0.250000 0.403788
O O14 0.173176 0.114337 0.491311
O O15 0.780115 0.981403 0.013924
O O16 0.354456 0.483539 0.493329
O O17 0.078088 0.458844 0.219280
O O18 0.000000 0.500000 0.000000
#
# Coordination Sequence:
#
# PCOD9159627 Si02
#       8
#     4   4   4   4   4   4   4   4
#     4  11  23  40  61  89 118 151 196 253 301 347
#     4  10  19  33  56  85 116 150 191 244 293 342
#     4  11  21  36  59  80 117 157 198 238 292 357
#     4  11  22  36  55  86 120 154 193 244 301 345
#     4  10  20  36  57  85 111 155 202 238 287 359
#     4  12  21  39  60  87 117 159 199 243 295 360
#     4  10  21  38  64  85 115 155 204 237 293 360
#     4   9  19  37  59  86 114 151 194 240 286 352
#
# _framework density 18.749216000000001
#
# number of rings (size 3 to 8) (size 9 to 14) (size 15 to 20)
#    0.000    1.500    3.750    3.000    0.000    0.500 
#    0.000    3.125    0.000    0.000    0.000    0.000 
#    0.000    0.000    0.000    0.000    0.000    0.000 
#
# Total GULP energy -178505.239096 kJ/mol
# GULP energy per Si atom -5578.288722 kJ/mol
# Density = 1.870654 g / cm^3
# Si number density = 18.749216 Si / 1000 Ang^3
#
#
#
# Elastic Constant Matrix: (Units=GPa)
#
#
# Indices 1 2 3 4 5 6 
#
# 1 67.5088 17.3413 33.2333 0.0000 -1.9157 0.0000
# 2 17.3413 78.6504 52.7568 0.0000 0.2622 0.0000
# 3 33.2333 52.7568 90.8719 0.0000 7.8041 0.0000
# 4 0.0000 0.0000 0.0000 22.7195 0.0000 -1.1701
# 5 -1.9157 0.2622 7.8041 0.0000 31.5065 0.0000
# 6 0.0000 0.0000 0.0000 -1.1701 0.0000 20.5939
#
#
#
# Elastic Compliance Matrix: (Units=1/GPa)
#
#
# Indices 1 2 3 4 5 6 
#
# 1 0.018358 0.001011 -0.007557 0.000000 0.002980 0.000000
# 2 0.001011 0.021139 -0.012907 0.000000 0.003083 0.000000
# 3 -0.007557 -0.012907 0.021755 0.000000 -0.005741 0.000000
# 4 0.000000 0.000000 0.000000 0.044144 0.000000 0.002508
# 5 0.002980 0.003083 -0.005741 0.000000 0.033317 0.000000
# 6 0.000000 0.000000 0.000000 0.002508 0.000000 0.048701
#
#
# Mechanical properties :
#
#
# Convention : Reuss Voigt Hill
#
# Bulk Modulus (GPa) = 44.75036 49.29931 47.02483
# Shear Modulus (GPa) = 21.38885 23.87730 22.63308
#
# Velocity S-wave (km/s) = 3.38122 3.57250 3.47817
# Velocity P-wave (km/s) = 6.25805 6.58545 6.42383
#
# Compressibility (1/GPa) = 0.02234619
#
# Stress axis : x y z
#
# Youngs Moduli (GPa) = 54.47308 47.30591 45.96750
#
# Poissons Ratio (x) = -0.04784 0.34736
# Poissons Ratio (y) = -0.05509 0.59331
# Poissons Ratio (z) = 0.41164 0.61058
#
# Static dielectric constant tensor:
#      x y z
#    x 1.656200 0.000000 -0.001010 
#    y 0.000000 1.629150 0.000000 
#    z -0.001010 0.000000 1.676690 
# 
# From -- ./inp_files/50406.got.cif
#   From: 2010.05.17/outbox.cif.g08.bks.cpg/sg11_26_cif.got.tgz:50406.got - 2010.06.03 12:22:45.
