data_PCOD9159060
_publ_section_title
;
Structure prediction by ZEFSAII (Michael W. Deem and Ramdas Pophale) SiO2 
 PCOD9159060
Probable space group: P 21/M
;
_chemical_formula_sum "Si O2"
_cell_formula_units_Z 28
_cell_length_a 7.741530
_cell_length_b 33.493102
_cell_length_c 5.781709
_cell_angle_alpha 90.000000
_cell_angle_beta 118.482293
_cell_angle_gamma 90.000000
_cell_volume 1317.679394
_symmetry_space_group_name_H-M "P 21/M"
_symmetry_group_IT_number 11
_symmetry_cell_setting 'monoclinic'
loop_
_space_group_symop_operation_xyz
x,y,z
-x,1/2+y,-z
-x,-y,-z
x,1/2-y,z
loop_
_atom_site_type_symbol
_atom_site_label
_atom_site_fract_x
_atom_site_fract_y
_atom_site_fract_z
Si Si1 0.792866 0.405886 0.987974
Si Si2 1.000000 0.856733 0.250001
Si Si3 0.708813 0.795823 0.008735
Si Si4 0.708813 0.204177 0.508729
Si Si5 0.499999 0.343292 0.749997
Si Si6 0.500000 0.977142 0.250000
Si Si7 0.207133 0.094114 0.512023
O O1 1.000000 0.408618 0.249999
O O2 0.630560 0.374628 0.984690
O O3 0.688693 0.447980 0.885909
O O4 0.849936 0.385610 0.782151
O O5 0.849935 0.885610 0.282154
O O6 0.126312 0.825589 0.484260
O O7 0.873687 0.825589 0.015742
O O8 0.772166 0.750000 0.054205
O O9 0.499999 0.797769 0.750004
O O10 0.652777 0.814010 0.222114
O O11 0.772166 0.250000 0.554200
O O12 0.652774 0.185990 0.722107
O O13 0.369440 0.374628 0.515305
O O14 0.688694 0.947980 0.385909
O O15 0.500000 0.000000 0.500000
O O16 0.500000 0.000000 0.000000
#
# Coordination Sequence:
#
# PCOD9159060 Si02
#       7
#     4   4   4   4   4   4   4
#     4  10  22  40  65  89 121 165 204 255 314 380
#     4  10  21  36  58  88 118 158 212 256 304 380
#     4  10  19  32  53  81 119 162 205 261 312 359
#     4  10  19  32  53  81 119 162 205 261 312 359
#     4   9  19  36  53  86 118 162 212 256 305 374
#     4  11  28  48  69 100 133 162 205 260 319 390
#     4  10  22  40  65  89 121 165 204 255 314 380
#
# _framework density 21.249479000000001
#
# number of rings (size 3 to 8) (size 9 to 14) (size 15 to 20)
#    0.000    2.000    0.000    2.571    4.000    1.143 
#    5.143    0.000    0.000   13.714    0.000    0.000 
#    0.000    0.000    0.000    0.000    0.000    0.000 
#
# Total GULP energy -155878.949083 kJ/mol
# GULP energy per Si atom -5567.105324 kJ/mol
# Density = 2.120111 g / cm^3
# Si number density = 21.249479 Si / 1000 Ang^3
#
#
#
# Elastic Constant Matrix: (Units=GPa)
#
#
# Indices 1 2 3 4 5 6 
#
# 1 92.1746 59.0614 22.7216 0.0000 21.7917 0.0000
# 2 59.0614 163.4698 64.3379 0.0000 7.4259 0.0000
# 3 22.7216 64.3379 85.1872 0.0000 31.1057 0.0000
# 4 0.0000 0.0000 0.0000 29.6942 0.0000 10.6666
# 5 21.7917 7.4259 31.1057 0.0000 43.5709 0.0000
# 6 0.0000 0.0000 0.0000 10.6666 0.0000 57.0884
#
#
#
# Elastic Compliance Matrix: (Units=1/GPa)
#
#
# Indices 1 2 3 4 5 6 
#
# 1 0.017144 -0.007802 0.005363 0.000000 -0.011074 0.000000
# 2 -0.007802 0.012908 -0.011212 0.000000 0.009707 0.000000
# 3 0.005363 -0.011212 0.025778 0.000000 -0.019174 0.000000
# 4 0.000000 0.000000 0.000000 0.036100 0.000000 -0.006745
# 5 -0.011074 0.009707 -0.019174 0.000000 0.040524 0.000000
# 6 0.000000 0.000000 0.000000 -0.006745 0.000000 0.018777
#
#
# Mechanical properties :
#
#
# Convention : Reuss Voigt Hill
#
# Bulk Modulus (GPa) = 35.05330 70.34150 52.69740
# Shear Modulus (GPa) = 26.58984 39.05141 32.82062
#
# Velocity S-wave (km/s) = 3.54123 4.29156 3.93432
# Velocity P-wave (km/s) = 5.76648 7.59810 6.74476
#
# Compressibility (1/GPa) = 0.02852799
#
# Stress axis : x y z
#
# Youngs Moduli (GPa) = 58.32941 77.47098 38.79291
#
# Poissons Ratio (x) = 0.60442 -0.20805
# Poissons Ratio (y) = 0.45508 0.43495
# Poissons Ratio (z) = -0.31282 0.86862
#
# Static dielectric constant tensor:
#      x y z
#    x 1.878490 0.000000 0.013420 
#    y 0.000000 1.734790 0.000000 
#    z 0.013420 0.000000 1.841680 
# 
# From -- ./inp_files/3460.got.cif
#   From: 2010.05.17/outbox.cif.g08.bks.cpg/sg11_2_cif.got.tgz:3460.got - 2010.06.03 12:22:45.
