data_PCOD9159093
_publ_section_title
;
Structure prediction by ZEFSAII (Michael W. Deem and Ramdas Pophale) SiO2 
 PCOD9159093
Probable space group: P 21/M
;
_chemical_formula_sum "Si O2"
_cell_formula_units_Z 32
_cell_length_a 14.499158
_cell_length_b 13.366086
_cell_length_c 14.730182
_cell_angle_alpha 90.000000
_cell_angle_beta 142.951500
_cell_angle_gamma 90.000000
_cell_volume 1719.909499
_symmetry_space_group_name_H-M "P 21/M"
_symmetry_group_IT_number 11
_symmetry_cell_setting 'monoclinic'
loop_
_space_group_symop_operation_xyz
x,y,z
-x,1/2+y,-z
-x,-y,-z
x,1/2-y,z
loop_
_atom_site_type_symbol
_atom_site_label
_atom_site_fract_x
_atom_site_fract_y
_atom_site_fract_z
Si Si1 0.760338 0.007194 0.313506
Si Si2 0.985129 0.630064 0.379458
Si Si3 0.957038 0.488733 0.190886
Si Si4 0.571327 0.363536 0.655768
Si Si5 0.445055 0.358017 0.758558
Si Si6 0.828849 0.977975 0.896870
Si Si7 0.283799 0.863665 0.883629
Si Si8 0.761710 0.866329 0.678862
O O1 0.673141 0.072883 0.170796
O O2 0.877621 0.081951 0.454214
O O3 0.840330 0.918866 0.317825
O O4 0.663475 0.951496 0.313088
O O5 0.983999 0.750000 0.378135
O O6 0.992833 0.582497 0.284416
O O7 0.861627 0.412714 0.179898
O O8 0.109783 0.433936 0.271448
O O9 0.846228 0.519377 0.019383
O O10 0.611166 0.250000 0.657396
O O11 0.524790 0.359869 0.724518
O O12 0.714294 0.437889 0.767066
O O13 0.413382 0.394614 0.482698
O O14 0.363800 0.250000 0.702976
O O15 0.575300 0.363369 0.936822
O O16 0.782647 0.880150 0.803656
O O17 0.000000 0.000000 0.000000
O O18 0.246584 0.750000 0.829336
O O19 0.782487 0.750000 0.668940
#
# Coordination Sequence:
#
# PCOD9159093 Si02
#       8
#     4   4   4   4   4   4   4   4
#     4  10  20  34  53  79 111 150 189 233 278 324
#     4  10  21  36  54  77 111 150 192 233 276 330
#     4  10  20  36  57  84 111 152 187 232 282 325
#     4  10  20  36  58  84 112 144 181 226 279 332
#     4  10  19  32  55  82 111 146 184 228 277 330
#     4  10  21  36  57  83 109 143 180 226 279 333
#     4  10  19  32  54  82 113 147 189 233 276 326
#     4  10  21  36  58  85 113 144 183 231 279 334
#
# _framework density 18.605629
#
# number of rings (size 3 to 8) (size 9 to 14) (size 15 to 20)
#    0.000    2.000    1.250    2.625    0.000    2.500 
#    0.000    5.625    0.000    7.500    0.000    0.000 
#    0.000    0.000    0.000    0.000    0.000    0.000 
#
# Total GULP energy -178317.047580 kJ/mol
# GULP energy per Si atom -5572.407737 kJ/mol
# Density = 1.856328 g / cm^3
# Si number density = 18.605629 Si / 1000 Ang^3
#
#
#
# Elastic Constant Matrix: (Units=GPa)
#
#
# Indices 1 2 3 4 5 6 
#
# 1 87.8186 57.1707 63.4655 0.0000 0.1851 0.0000
# 2 57.1707 136.3246 62.8291 0.0000 -0.2679 0.0000
# 3 63.4655 62.8291 149.0964 0.0000 -8.1026 0.0000
# 4 0.0000 0.0000 0.0000 39.6274 0.0000 7.5805
# 5 0.1851 -0.2679 -8.1026 0.0000 21.6724 0.0000
# 6 0.0000 0.0000 0.0000 7.5805 0.0000 33.1540
#
#
#
# Elastic Compliance Matrix: (Units=1/GPa)
#
#
# Indices 1 2 3 4 5 6 
#
# 1 0.019225 -0.005253 -0.006106 0.000000 -0.002512 0.000000
# 2 -0.005253 0.010578 -0.002258 0.000000 -0.000668 0.000000
# 3 -0.006106 -0.002258 0.010472 0.000000 0.003939 0.000000
# 4 0.000000 0.000000 0.000000 0.026389 0.000000 -0.006034
# 5 -0.002512 -0.000668 0.003939 0.000000 0.047628 0.000000
# 6 0.000000 0.000000 0.000000 -0.006034 0.000000 0.031542
#
#
# Mechanical properties :
#
#
# Convention : Reuss Voigt Hill
#
# Bulk Modulus (GPa) = 76.68522 82.24112 79.46317
# Shear Modulus (GPa) = 28.18255 31.54238 29.86247
#
# Velocity S-wave (km/s) = 3.89618 4.12189 4.01062
# Velocity P-wave (km/s) = 7.84512 8.18239 8.01553
#
# Compressibility (1/GPa) = 0.01304032
#
# Stress axis : x y z
#
# Youngs Moduli (GPa) = 52.01478 94.53903 95.49436
#
# Poissons Ratio (x) = 0.49663 0.58313
# Poissons Ratio (y) = 0.27324 0.21559
# Poissons Ratio (z) = 0.31762 0.21344
#
# Static dielectric constant tensor:
#      x y z
#    x 1.642530 0.000000 -0.008990 
#    y 0.000000 1.646840 0.000000 
#    z -0.008990 0.000000 1.664100 
# 
# From -- ./inp_files/29242.got.cif
#   From: 2010.05.17/outbox.cif.g08.bks.cpg/sg11_15_cif.got.tgz:29242.got - 2010.06.03 12:22:45.
