data_PCOD9159468
_publ_section_title
;
Structure prediction by ZEFSAII (Michael W. Deem and Ramdas Pophale) SiO2 
 PCOD9159468
Probable space group: P 21/M
;
_chemical_formula_sum "Si O2"
_cell_formula_units_Z 32
_cell_length_a 23.922650
_cell_length_b 7.600327
_cell_length_c 13.392285
_cell_angle_alpha 90.000000
_cell_angle_beta 143.239274
_cell_angle_gamma 90.000000
_cell_volume 1457.276501
_symmetry_space_group_name_H-M "P 21/M"
_symmetry_group_IT_number 11
_symmetry_cell_setting 'monoclinic'
loop_
_space_group_symop_operation_xyz
x,y,z
-x,1/2+y,-z
-x,-y,-z
x,1/2-y,z
loop_
_atom_site_type_symbol
_atom_site_label
_atom_site_fract_x
_atom_site_fract_y
_atom_site_fract_z
Si Si1 0.940245 0.460566 0.012630
Si Si2 0.603197 0.038139 0.106984
Si Si3 0.717653 0.456056 0.455250
Si Si4 0.396819 0.961410 0.311404
Si Si5 0.730259 0.033397 0.689617
Si Si6 0.106335 0.040895 0.617123
Si Si7 0.687869 0.040160 0.018973
Si Si8 0.904867 0.963342 0.624268
O O1 0.933592 0.250000 0.011326
O O2 0.836203 0.528177 0.852710
O O3 0.000000 0.500000 0.000000
O O4 0.995864 0.522068 0.190001
O O5 0.613177 0.250000 0.116066
O O6 0.669447 0.965188 0.289146
O O7 0.636964 0.971235 0.047021
O O8 0.500000 0.000000 0.000000
O O9 0.692967 0.250000 0.421698
O O10 0.692919 0.527480 0.528497
O O11 0.827269 0.473455 0.591063
O O12 0.388608 0.750000 0.295078
O O13 0.328379 0.025635 0.300281
O O14 0.500000 0.000000 0.500000
O O15 0.362057 0.028356 0.153363
O O16 0.729722 0.250000 0.686795
O O17 0.111754 0.250000 0.621184
O O18 0.115574 0.971706 0.516500
O O19 0.199290 0.985318 0.811368
O O20 0.000000 0.000000 0.500000
O O21 0.674273 0.250000 0.998923
O O22 0.902631 0.750000 0.619902
#
# Coordination Sequence:
#
# PCOD9159468 Si02
#       8
#     4   4   4   4   4   4   4   4
#     4  10  19  33  54  82 114 149 186 225 276 340
#     4  10  22  37  58  87 115 148 189 240 298 349
#     4  10  19  35  58  83 112 148 189 234 285 346
#     4  10  23  42  64  85 114 157 200 247 296 348
#     4   9  19  35  57  82 111 152 193 228 282 346
#     4  11  24  40  61  88 119 160 201 244 297 355
#     4  10  22  42  64  88 120 156 199 249 300 355
#     4  10  21  35  55  84 116 150 189 235 287 341
#
# _framework density 21.958770000000001
#
# number of rings (size 3 to 8) (size 9 to 14) (size 15 to 20)
#    0.000    2.000    2.500    0.375    3.500    2.000 
#    0.000    1.250    0.000    0.000    0.000    0.000 
#    0.000    0.000    0.000    0.000    0.000    0.000 
#
# Total GULP energy -178597.294889 kJ/mol
# GULP energy per Si atom -5581.165465 kJ/mol
# Density = 2.190879 g / cm^3
# Si number density = 21.958770 Si / 1000 Ang^3
#
#
#
# Elastic Constant Matrix: (Units=GPa)
#
#
# Indices 1 2 3 4 5 6 
#
# 1 162.2308 2.7693 111.4904 0.0000 -13.6760 0.0000
# 2 2.7693 48.6216 1.8941 0.0000 -11.2624 0.0000
# 3 111.4904 1.8941 175.4810 0.0000 -24.0089 0.0000
# 4 0.0000 0.0000 0.0000 16.6021 0.0000 12.3481
# 5 -13.6760 -11.2624 -24.0089 0.0000 44.1104 0.0000
# 6 0.0000 0.0000 0.0000 12.3481 0.0000 14.3880
#
#
#
# Elastic Compliance Matrix: (Units=1/GPa)
#
#
# Indices 1 2 3 4 5 6 
#
# 1 0.010959 -0.000478 -0.007033 0.000000 -0.000552 0.000000
# 2 -0.000478 0.021934 0.000878 0.000000 0.005930 0.000000
# 3 -0.007033 0.000878 0.010686 0.000000 0.003860 0.000000
# 4 0.000000 0.000000 0.000000 0.166538 0.000000 -0.142927
# 5 -0.000552 0.005930 0.003860 0.000000 0.026114 0.000000
# 6 0.000000 0.000000 0.000000 -0.142927 0.000000 0.192166
#
#
# Mechanical properties :
#
#
# Convention : Reuss Voigt Hill
#
# Bulk Modulus (GPa) = 32.98970 68.73788 50.86379
# Shear Modulus (GPa) = 11.06765 33.03208 22.04987
#
# Velocity S-wave (km/s) = 2.24747 3.88271 3.17227
# Velocity P-wave (km/s) = 4.66808 7.17438 6.05238
#
# Compressibility (1/GPa) = 0.03031249
#
# Stress axis : x y z
#
# Youngs Moduli (GPa) = 91.24848 45.59209 93.58293
#
# Poissons Ratio (x) = 0.02180 0.65819
# Poissons Ratio (y) = 0.04363 -0.08220
# Poissons Ratio (z) = 0.64177 -0.04005
#
# Static dielectric constant tensor:
#      x y z
#    x 1.791600 0.000000 -0.009220 
#    y 0.000000 1.805960 0.000000 
#    z -0.009220 0.000000 1.849070 
# 
# From -- ./inp_files/56208.got.cif
#   From: 2010.05.17/outbox.cif.g08.bks.cpg/sg11_29_cif.got.tgz:56208.got - 2010.06.03 12:22:45.
