data_PCOD9159153
_publ_section_title
;
Structure prediction by ZEFSAII (Michael W. Deem and Ramdas Pophale) SiO2 
 PCOD9159153
Probable space group: P 21/M
;
_chemical_formula_sum "Si O2"
_cell_formula_units_Z 32
_cell_length_a 12.927081
_cell_length_b 9.099079
_cell_length_c 32.086623
_cell_angle_alpha 90.000000
_cell_angle_beta 27.415980
_cell_angle_gamma 90.000000
_cell_volume 1737.808532
_symmetry_space_group_name_H-M "P 21/M"
_symmetry_group_IT_number 11
_symmetry_cell_setting 'monoclinic'
loop_
_space_group_symop_operation_xyz
x,y,z
-x,1/2+y,-z
-x,-y,-z
x,1/2-y,z
loop_
_atom_site_type_symbol
_atom_site_label
_atom_site_fract_x
_atom_site_fract_y
_atom_site_fract_z
Si Si1 0.322527 0.419980 0.592681
Si Si2 0.149610 0.073188 0.221473
Si Si3 0.766089 0.425241 0.593992
Si Si4 0.093964 0.424064 0.147987
Si Si5 0.630205 0.919155 0.327729
Si Si6 0.071365 0.573790 0.071624
Si Si7 0.580155 0.073380 0.123628
Si Si8 0.417110 0.427344 0.787207
O O1 0.500000 0.500000 0.500000
O O2 0.296217 0.250000 0.589781
O O3 0.412713 0.424109 0.607801
O O4 0.079590 0.497390 0.681474
O O5 0.118553 0.250000 0.232659
O O6 0.196173 0.030747 0.156387
O O7 0.354468 0.037239 0.178620
O O8 0.799357 0.250000 0.584939
O O9 0.588749 0.452997 0.620452
O O10 0.635783 0.473572 0.682521
O O11 0.000000 0.500000 0.500000
O O12 0.118942 0.250000 0.134525
O O13 0.833274 0.471591 0.245680
O O14 0.168246 0.503292 0.079110
O O15 0.700629 0.750000 0.291927
O O16 0.085870 0.750000 0.070476
O O17 0.810980 0.533858 0.156375
O O18 0.213376 0.530630 0.980165
O O19 0.587426 0.250000 0.126689
O O20 0.587705 0.996543 0.165476
O O21 0.418910 0.250000 0.789682
#
# Coordination Sequence:
#
# PCOD9159153 Si02
#       8
#     4   4   4   4   4   4   4   4
#     4  10  20  34  57  83 107 144 188 229 278 336
#     4   9  20  38  54  78 116 148 183 233 283 329
#     4  10  21  37  56  80 109 142 180 227 280 330
#     4  10  19  32  56  84 109 140 182 232 275 323
#     4   9  18  36  56  74 104 144 181 220 276 334
#     4  10  20  37  59  82 112 150 188 229 282 340
#     4  10  22  38  58  82 113 154 191 227 279 340
#     4  10  21  38  58  80 113 148 185 238 285 327
#
# _framework density 18.413996000000001
#
# number of rings (size 3 to 8) (size 9 to 14) (size 15 to 20)
#    0.000    2.250    1.250    1.125    0.000    5.000 
#    0.000    3.750    0.000    0.000    0.000    0.000 
#    0.000    0.000    0.000    0.000    0.000    0.000 
#
# Total GULP energy -178567.618469 kJ/mol
# GULP energy per Si atom -5580.238077 kJ/mol
# Density = 1.837209 g / cm^3
# Si number density = 18.413996 Si / 1000 Ang^3
#
#
#
# Elastic Constant Matrix: (Units=GPa)
#
#
# Indices 1 2 3 4 5 6 
#
# 1 74.9623 28.0354 27.9982 0.0000 13.2047 0.0000
# 2 28.0354 24.2033 23.8331 0.0000 6.3767 0.0000
# 3 27.9982 23.8331 96.2679 0.0000 18.6896 0.0000
# 4 0.0000 0.0000 0.0000 28.9419 0.0000 8.1282
# 5 13.2047 6.3767 18.6896 0.0000 21.5195 0.0000
# 6 0.0000 0.0000 0.0000 8.1282 0.0000 28.1054
#
#
#
# Elastic Compliance Matrix: (Units=1/GPa)
#
#
# Indices 1 2 3 4 5 6 
#
# 1 0.024619 -0.027622 0.001230 0.000000 -0.007989 0.000000
# 2 -0.027622 0.086144 -0.013986 0.000000 0.003570 0.000000
# 3 0.001230 -0.013986 0.015437 0.000000 -0.010017 0.000000
# 4 0.000000 0.000000 0.000000 0.037606 0.000000 -0.010876
# 5 -0.007989 0.003570 -0.010017 0.000000 0.059014 0.000000
# 6 0.000000 0.000000 0.000000 -0.010876 0.000000 0.038726
#
#
# Mechanical properties :
#
#
# Convention : Reuss Voigt Hill
#
# Bulk Modulus (GPa) = 22.00605 39.46299 30.73452
# Shear Modulus (GPa) = 13.98787 23.41781 18.70284
#
# Velocity S-wave (km/s) = 2.75913 3.57001 3.19044
# Velocity P-wave (km/s) = 4.70394 6.20249 5.50445
#
# Compressibility (1/GPa) = 0.04544206
#
# Stress axis : x y z
#
# Youngs Moduli (GPa) = 40.61946 11.60842 64.77741
#
# Poissons Ratio (x) = 0.32065 -0.07964
# Poissons Ratio (y) = 1.12201 0.90600
# Poissons Ratio (z) = -0.04994 0.16236
#
# Static dielectric constant tensor:
#      x y z
#    x 1.625900 0.000000 0.013490 
#    y 0.000000 1.626960 0.000000 
#    z 0.013490 0.000000 1.624030 
# 
# From -- ./inp_files/38229.got.cif
#   From: 2010.05.17/outbox.cif.g08.bks.cpg/sg11_20_cif.got.tgz:38229.got - 2010.06.03 12:22:45.
