data_PCOD9159587
_publ_section_title
;
Structure prediction by ZEFSAII (Michael W. Deem and Ramdas Pophale) SiO2 
 PCOD9159587
Probable space group: P 21/M
;
_chemical_formula_sum "Si O2"
_cell_formula_units_Z 32
_cell_length_a 28.797659
_cell_length_b 8.592328
_cell_length_c 22.307801
_cell_angle_alpha 90.000000
_cell_angle_beta 18.832928
_cell_angle_gamma 90.000000
_cell_volume 1781.850845
_symmetry_space_group_name_H-M "P 21/M"
_symmetry_group_IT_number 11
_symmetry_cell_setting 'monoclinic'
loop_
_space_group_symop_operation_xyz
x,y,z
-x,1/2+y,-z
-x,-y,-z
x,1/2-y,z
loop_
_atom_site_type_symbol
_atom_site_label
_atom_site_fract_x
_atom_site_fract_y
_atom_site_fract_z
Si Si1 0.667536 0.438090 0.677264
Si Si2 0.169703 0.061870 0.404982
Si Si3 0.163775 0.937567 0.180912
Si Si4 0.655841 0.437207 0.292742
Si Si5 0.819297 0.061965 0.974841
Si Si6 0.949336 0.436242 0.998162
Si Si7 0.903523 0.435985 0.297790
Si Si8 0.662078 0.562257 0.919703
O O1 0.668639 0.250000 0.677753
O O2 0.751112 0.498974 0.633176
O O3 0.755243 0.485301 0.510559
O O4 0.502969 0.492054 0.879381
O O5 0.172886 0.250000 0.403209
O O6 0.251983 0.009476 0.244458
O O7 0.002846 0.013919 0.608282
O O8 0.168990 0.750000 0.178492
O O9 0.258457 0.007292 0.117818
O O10 0.213783 0.982492 0.052864
O O11 0.500000 0.500000 0.500000
O O12 0.651394 0.250000 0.300982
O O13 0.702789 0.481123 0.167652
O O14 0.788889 0.488831 0.172957
O O15 0.836993 0.250000 0.955302
O O16 0.968764 0.987121 0.813453
O O17 0.946911 0.250000 0.003196
O O18 0.057475 0.489114 0.813443
O O19 0.000000 0.500000 0.000000
O O20 0.904332 0.250000 0.290252
O O21 0.661306 0.750000 0.919689
#
# Coordination Sequence:
#
# PCOD9159587 Si02
#       8
#     4   4   4   4   4   4   4   4
#     4  10  21  36  54  79 111 142 178 224 270 320
#     4  10  20  35  58  80 102 139 184 225 269 324
#     4  10  20  35  55  79 106 139 182 227 268 318
#     4   9  19  35  56  81 110 141 174 218 265 314
#     4   9  18  35  56  78 108 140 181 227 263 308
#     4  10  21  38  59  84 113 144 179 222 266 314
#     4  10  19  33  56  82 108 142 183 221 263 317
#     4  10  22  37  51  77 113 143 175 223 277 323
#
# _framework density 17.958853999999999
#
# number of rings (size 3 to 8) (size 9 to 14) (size 15 to 20)
#    0.000    2.250    1.250    2.250    0.000    5.000 
#    2.250    0.000    0.000    0.000    0.000    0.000 
#    0.000    0.000    0.000    0.000    0.000    0.000 
#
# Total GULP energy -178567.022749 kJ/mol
# GULP energy per Si atom -5580.219461 kJ/mol
# Density = 1.791798 g / cm^3
# Si number density = 17.958854 Si / 1000 Ang^3
#
#
#
# Elastic Constant Matrix: (Units=GPa)
#
#
# Indices 1 2 3 4 5 6 
#
# 1 127.7721 18.4339 55.5891 0.0000 11.7528 0.0000
# 2 18.4339 10.0786 18.3309 0.0000 4.8708 0.0000
# 3 55.5891 18.3309 118.3700 0.0000 9.7499 0.0000
# 4 0.0000 0.0000 0.0000 20.9071 0.0000 -1.3664
# 5 11.7528 4.8708 9.7499 0.0000 26.8907 0.0000
# 6 0.0000 0.0000 0.0000 -1.3664 0.0000 32.7135
#
#
#
# Elastic Compliance Matrix: (Units=1/GPa)
#
#
# Indices 1 2 3 4 5 6 
#
# 1 0.011357 -0.014851 -0.002934 0.000000 -0.001210 0.000000
# 2 -0.014851 0.166331 -0.017355 0.000000 -0.017345 0.000000
# 3 -0.002934 -0.017355 0.012523 0.000000 -0.000115 0.000000
# 4 0.000000 0.000000 0.000000 0.047962 0.000000 0.002003
# 5 -0.001210 -0.017345 -0.000115 0.000000 0.040900 0.000000
# 6 0.000000 0.000000 0.000000 0.002003 0.000000 0.030652
#
#
# Mechanical properties :
#
#
# Convention : Reuss Voigt Hill
#
# Bulk Modulus (GPa) = 8.33816 48.99205 28.66510
# Shear Modulus (GPa) = 11.90532 27.02672 19.46602
#
# Velocity S-wave (km/s) = 2.57752 3.88354 3.29587
# Velocity P-wave (km/s) = 3.67575 6.88829 5.52086
#
# Compressibility (1/GPa) = 0.11993053
#
# Stress axis : x y z
#
# Youngs Moduli (GPa) = 88.05379 6.01212 79.85306
#
# Poissons Ratio (x) = 0.08928 0.23428
# Poissons Ratio (y) = 1.30767 1.38587
# Poissons Ratio (z) = 0.25834 0.10434
#
# Static dielectric constant tensor:
#      x y z
#    x 1.584800 0.000000 0.018150 
#    y 0.000000 1.605700 0.000000 
#    z 0.018150 0.000000 1.618760 
# 
# From -- ./inp_files/66935.got.cif
#   From: 2010.05.17/outbox.cif.g08.bks.cpg/sg11_34_cif.got.tgz:66935.got - 2010.06.03 12:22:45.
