data_PCOD9159753
_publ_section_title
;
Structure prediction by ZEFSAII (Michael W. Deem and Ramdas Pophale) SiO2 
 PCOD9159753
Probable space group: P 21/M
;
_chemical_formula_sum "Si O2"
_cell_formula_units_Z 28
_cell_length_a 9.359816
_cell_length_b 18.622558
_cell_length_c 12.653399
_cell_angle_alpha 90.000000
_cell_angle_beta 149.144644
_cell_angle_gamma 90.000000
_cell_volume 1131.157989
_symmetry_space_group_name_H-M "P 21/M"
_symmetry_group_IT_number 11
_symmetry_cell_setting 'monoclinic'
loop_
_space_group_symop_operation_xyz
x,y,z
-x,1/2+y,-z
-x,-y,-z
x,1/2-y,z
loop_
_atom_site_type_symbol
_atom_site_label
_atom_site_fract_x
_atom_site_fract_y
_atom_site_fract_z
Si Si1 0.544679 0.579849 0.986397
Si Si2 0.441704 0.957052 0.266279
Si Si3 0.226228 0.587621 0.557695
Si Si4 0.246708 0.166959 0.625478
Si Si5 0.018860 0.432122 0.888336
Si Si6 0.093740 0.831887 0.810358
Si Si7 0.270243 0.164124 0.224291
O O1 0.386092 0.591377 0.773883
O O2 0.385131 0.631090 0.965976
O O3 0.500000 0.500000 0.000000
O O4 0.867446 0.585838 0.155040
O O5 0.492340 0.880250 0.246723
O O6 0.299414 0.950535 0.290191
O O7 0.725714 0.003814 0.442524
O O8 0.212089 0.001874 0.053162
O O9 0.422840 0.632150 0.602628
O O10 0.933281 0.622109 0.403777
O O11 0.284368 0.250000 0.679966
O O12 0.072039 0.168557 0.405046
O O13 0.091293 0.366309 0.012551
O O14 0.147625 0.750000 0.875845
O O15 0.884894 0.861327 0.767550
O O16 0.287404 0.250000 0.234786
#
# Coordination Sequence:
#
# PCOD9159753 Si02
#       7
#     4   4   4   4   4   4   4
#     4   9  18  29  53  74 103 136 169 210 256 299
#     4   9  18  33  53  71 103 133 169 212 255 298
#     4   9  19  32  51  76 100 134 174 214 249 306
#     4  10  19  34  53  74 101 134 172 207 258 310
#     4   9  20  33  51  77 103 135 173 216 251 306
#     4   9  19  32  50  76 103 132 170 216 259 306
#     4   9  17  31  53  76 102 134 171 215 258 301
#
# _framework density 24.753395999999999
#
# number of rings (size 3 to 8) (size 9 to 14) (size 15 to 20)
#    0.000    3.143    0.000    0.857    8.000    4.000 
#    0.000    2.857    6.286    0.000    0.000    0.000 
#    0.000    0.000    0.000    0.000    0.000    0.000 
#
# Total GULP energy -156491.251232 kJ/mol
# GULP energy per Si atom -5588.973258 kJ/mol
# Density = 2.469706 g / cm^3
# Si number density = 24.753396 Si / 1000 Ang^3
#
#
#
# Elastic Constant Matrix: (Units=GPa)
#
#
# Indices 1 2 3 4 5 6 
#
# 1 245.2498 70.6439 41.1471 0.0000 40.7348 0.0000
# 2 70.6439 123.4556 10.7988 0.0000 32.2912 0.0000
# 3 41.1471 10.7988 70.2207 0.0000 24.3420 0.0000
# 4 0.0000 0.0000 0.0000 21.6326 0.0000 10.0647
# 5 40.7348 32.2912 24.3420 0.0000 47.0507 0.0000
# 6 0.0000 0.0000 0.0000 10.0647 0.0000 45.9439
#
#
#
# Elastic Compliance Matrix: (Units=1/GPa)
#
#
# Indices 1 2 3 4 5 6 
#
# 1 0.005461 -0.002427 -0.002151 0.000000 -0.001950 0.000000
# 2 -0.002427 0.011010 0.001974 0.000000 -0.006476 0.000000
# 3 -0.002151 0.001974 0.018305 0.000000 -0.008962 0.000000
# 4 0.000000 0.000000 0.000000 0.051473 0.000000 -0.011276
# 5 -0.001950 -0.006476 -0.008962 0.000000 0.032023 0.000000
# 6 0.000000 0.000000 0.000000 -0.011276 0.000000 0.024236
#
#
# Mechanical properties :
#
#
# Convention : Reuss Voigt Hill
#
# Bulk Modulus (GPa) = 33.82047 76.01173 54.91610
# Shear Modulus (GPa) = 31.73162 44.01454 37.87308
#
# Velocity S-wave (km/s) = 3.58426 4.22135 3.91578
# Velocity P-wave (km/s) = 5.55174 7.38471 6.53284
#
# Compressibility (1/GPa) = 0.02956789
#
# Stress axis : x y z
#
# Youngs Moduli (GPa) = 183.10716 90.82543 54.63136
#
# Poissons Ratio (x) = 0.22043 0.11751
# Poissons Ratio (y) = 0.44439 -0.10784
# Poissons Ratio (z) = 0.39387 -0.17929
#
# Static dielectric constant tensor:
#      x y z
#    x 1.980390 0.000000 -0.028430 
#    y 0.000000 1.911150 0.000000 
#    z -0.028430 0.000000 2.104330 
# 
# From -- ./inp_files/48039.got.cif
#   From: 2010.05.17/outbox.cif.g08.bks.cpg/sg11_25_cif.got.tgz:48039.got - 2010.06.03 12:22:45.
