data_PCOD9159567
_publ_section_title
;
Structure prediction by ZEFSAII (Michael W. Deem and Ramdas Pophale) SiO2 
 PCOD9159567
Probable space group: P 21/M
;
_chemical_formula_sum "Si O2"
_cell_formula_units_Z 32
_cell_length_a 12.002681
_cell_length_b 15.525879
_cell_length_c 18.370080
_cell_angle_alpha 90.000000
_cell_angle_beta 151.011463
_cell_angle_gamma 90.000000
_cell_volume 1659.051817
_symmetry_space_group_name_H-M "P 21/M"
_symmetry_group_IT_number 11
_symmetry_cell_setting 'monoclinic'
loop_
_space_group_symop_operation_xyz
x,y,z
-x,1/2+y,-z
-x,-y,-z
x,1/2-y,z
loop_
_atom_site_type_symbol
_atom_site_label
_atom_site_fract_x
_atom_site_fract_y
_atom_site_fract_z
Si Si1 0.111848 0.152775 0.078259
Si Si2 0.781063 0.351894 0.029579
Si Si3 0.774323 0.489342 0.152997
Si Si4 0.927591 0.535281 0.536253
Si Si5 0.530652 0.422606 0.384144
Si Si6 0.550330 0.649867 0.279371
Si Si7 0.904713 0.348713 0.703076
Si Si8 0.785717 0.080424 0.788475
O O1 0.067639 0.250000 0.025840
O O2 0.378041 0.138553 0.246757
O O3 0.973562 0.144797 0.075692
O O4 0.023060 0.082390 0.969661
O O5 0.762106 0.250000 0.040516
O O6 0.829560 0.416049 0.123899
O O7 0.551112 0.384575 0.855231
O O8 0.880703 0.462643 0.291930
O O9 0.902312 0.579249 0.205340
O O10 0.500000 0.500000 0.000000
O O11 0.720765 0.475596 0.448268
O O12 0.804630 0.624710 0.447335
O O13 0.000000 0.500000 0.500000
O O14 0.675991 0.371407 0.526440
O O15 0.341454 0.491662 0.305416
O O16 0.526695 0.750000 0.257158
O O17 0.385476 0.621958 0.250746
O O18 0.976657 0.250000 0.730737
O O19 0.832331 0.363434 0.744775
#
# Coordination Sequence:
#
# PCOD9159567 Si02
#       8
#     4   4   4   4   4   4   4   4
#     4  10  19  33  55  87 118 147 184 228 278 338
#     4   9  19  36  59  85 116 148 184 230 285 343
#     4  11  24  40  59  81 110 150 197 243 291 346
#     4  10  22  39  56  78 107 144 192 241 284 335
#     4  10  21  36  57  81 112 151 188 230 283 342
#     4   9  18  35  58  85 113 145 181 227 284 342
#     4  11  23  39  57  83 118 154 190 235 288 344
#     4  10  19  34  57  86 118 149 186 228 277 338
#
# _framework density 19.288125999999998
#
# number of rings (size 3 to 8) (size 9 to 14) (size 15 to 20)
#    0.000    2.000    0.000    4.500    0.000    6.000 
#    0.000    5.625    0.000    0.000    0.000    0.000 
#    0.000    0.000    0.000    0.000    0.000    0.000 
#
# Total GULP energy -178384.737365 kJ/mol
# GULP energy per Si atom -5574.523043 kJ/mol
# Density = 1.924423 g / cm^3
# Si number density = 19.288126 Si / 1000 Ang^3
#
#
#
# Elastic Constant Matrix: (Units=GPa)
#
#
# Indices 1 2 3 4 5 6 
#
# 1 36.4230 13.7436 43.7942 0.0000 -21.2089 0.0000
# 2 13.7436 94.9651 46.4592 0.0000 -9.8016 0.0000
# 3 43.7942 46.4592 149.9098 0.0000 -8.8484 0.0000
# 4 0.0000 0.0000 0.0000 22.8424 0.0000 -14.4248
# 5 -21.2089 -9.8016 -8.8484 0.0000 27.6493 0.0000
# 6 0.0000 0.0000 0.0000 -14.4248 0.0000 4.4000
#
#
#
# Elastic Compliance Matrix: (Units=1/GPa)
#
#
# Indices 1 2 3 4 5 6 
#
# 1 0.094650 0.005621 -0.025471 0.000000 0.066445 0.000000
# 2 0.005621 0.013036 -0.005254 0.000000 0.007251 0.000000
# 3 -0.025471 -0.005254 0.014756 0.000000 -0.016678 0.000000
# 4 0.000000 0.000000 0.000000 -0.040904 0.000000 -0.134098
# 5 0.066445 0.007251 -0.016678 0.000000 0.084368 0.000000
# 6 0.000000 0.000000 0.000000 -0.134098 0.000000 -0.212352
#
#
# Mechanical properties :
#
#
# Convention : Reuss Voigt Hill
#
# Bulk Modulus (GPa) = 13.84405 54.36576 34.10490
# Shear Modulus (GPa) = 179.59931 22.79840 101.19885
#
# Velocity S-wave (km/s) = 9.66002 3.44174 7.25126
# Velocity P-wave (km/s) = 11.47234 6.63637 9.37166
#
# Compressibility (1/GPa) = 0.07223322
#
# Stress axis : x y z
#
# Youngs Moduli (GPa) = 10.56523 76.71353 67.77132
#
# Poissons Ratio (x) = -0.43120 1.72620
# Poissons Ratio (y) = -0.05939 0.35607
# Poissons Ratio (z) = 0.26911 0.40305
#
# Static dielectric constant tensor:
#      x y z
#    x 1.654820 0.000000 0.002160 
#    y 0.000000 1.726410 0.000000 
#    z 0.002160 0.000000 1.755500 
# 
# From -- ./inp_files/59493.got.cif
#   From: 2010.05.17/outbox.cif.g08.bks.cpg/sg11_30_cif.got.tgz:59493.got - 2010.06.03 12:22:45.
