data_PCOD9159325
_publ_section_title
;
Structure prediction by ZEFSAII (Michael W. Deem and Ramdas Pophale) SiO2 
 PCOD9159325
Probable space group: P 21/M
;
_chemical_formula_sum "Si O2"
_cell_formula_units_Z 28
_cell_length_a 11.561244
_cell_length_b 11.059333
_cell_length_c 10.479802
_cell_angle_alpha 90.000000
_cell_angle_beta 117.739167
_cell_angle_gamma 90.000000
_cell_volume 1185.951627
_symmetry_space_group_name_H-M "P 21/M"
_symmetry_group_IT_number 11
_symmetry_cell_setting 'monoclinic'
loop_
_space_group_symop_operation_xyz
x,y,z
-x,1/2+y,-z
-x,-y,-z
x,1/2-y,z
loop_
_atom_site_type_symbol
_atom_site_label
_atom_site_fract_x
_atom_site_fract_y
_atom_site_fract_z
Si Si1 0.223283 0.117508 0.932083
Si Si2 0.643863 0.118839 0.667209
Si Si3 0.676905 0.115387 0.150847
Si Si4 0.915516 0.426938 0.718956
Si Si5 0.071769 0.625082 0.548560
Si Si6 0.077431 0.114512 0.101417
Si Si7 0.492138 0.612018 0.678254
O O1 0.273235 0.250000 0.916564
O O2 0.068760 0.109446 0.808178
O O3 0.308638 0.004254 0.928860
O O4 0.202358 0.119170 0.073604
O O5 0.596787 0.250000 0.689580
O O6 0.801674 0.117637 0.755279
O O7 0.598448 0.107019 0.495798
O O8 0.582380 0.004971 0.706341
O O9 0.651655 0.250000 0.080071
O O10 0.820444 0.121488 0.288261
O O11 0.582258 0.100424 0.224375
O O12 0.866828 0.376839 0.560351
O O13 0.908288 0.570578 0.745578
O O14 0.993757 0.750000 0.520930
O O15 0.000000 0.500000 0.500000
O O16 0.019966 0.250000 0.067049
O O17 0.000000 0.000000 0.000000
O O18 0.546604 0.750000 0.703682
#
# Coordination Sequence:
#
# PCOD9159325 Si02
#       7
#     4   4   4   4   4   4   4
#     4  10  20  35  55  79 108 141 177 220 268 316
#     4  10  19  33  53  76 105 142 182 220 263 318
#     4  10  20  34  53  76 108 145 178 215 266 323
#     4  11  20  33  55  80 110 144 177 217 271 322
#     4  11  21  33  49  76 113 147 177 215 265 323
#     4   9  21  38  55  78 109 144 183 227 271 319
#     4   9  19  35  51  73 107 144 179 219 267 316
#
# _framework density 23.609729999999999
#
# number of rings (size 3 to 8) (size 9 to 14) (size 15 to 20)
#    0.000    2.000    2.857    1.286    0.000    5.143 
#    0.000    0.000    0.000    0.857    0.000    0.000 
#    0.000    0.000    0.000    0.000    0.000    0.000 
#
# Total GULP energy -155896.839292 kJ/mol
# GULP energy per Si atom -5567.744260 kJ/mol
# Density = 2.355599 g / cm^3
# Si number density = 23.609730 Si / 1000 Ang^3
#
#
#
# Elastic Constant Matrix: (Units=GPa)
#
#
# Indices 1 2 3 4 5 6 
#
# 1 71.4559 80.7581 9.5152 0.0000 -6.1500 0.0000
# 2 80.7581 275.5810 39.4543 0.0000 -21.7249 0.0000
# 3 9.5152 39.4543 40.2073 0.0000 -0.2566 0.0000
# 4 0.0000 0.0000 0.0000 24.7749 0.0000 -4.4956
# 5 -6.1500 -21.7249 -0.2566 0.0000 31.3722 0.0000
# 6 0.0000 0.0000 0.0000 -4.4956 0.0000 21.8050
#
#
#
# Elastic Compliance Matrix: (Units=1/GPa)
#
#
# Indices 1 2 3 4 5 6 
#
# 1 0.020980 -0.006351 0.001265 0.000000 -0.000275 0.000000
# 2 -0.006351 0.006424 -0.004780 0.000000 0.003164 0.000000
# 3 0.001265 -0.004780 0.029244 0.000000 -0.002823 0.000000
# 4 0.000000 0.000000 0.000000 0.041932 0.000000 0.008645
# 5 -0.000275 0.003164 -0.002823 0.000000 0.033990 0.000000
# 6 0.000000 0.000000 0.000000 0.008645 0.000000 0.047644
#
#
# Mechanical properties :
#
#
# Convention : Reuss Voigt Hill
#
# Bulk Modulus (GPa) = 27.08825 71.85548 49.47187
# Shear Modulus (GPa) = 23.55704 32.75820 28.15762
#
# Velocity S-wave (km/s) = 3.16217 3.72894 3.45719
# Velocity P-wave (km/s) = 4.98304 7.00291 6.07748
#
# Compressibility (1/GPa) = 0.03691638
#
# Stress axis : x y z
#
# Youngs Moduli (GPa) = 47.66379 155.67484 34.19473
#
# Poissons Ratio (x) = 0.98869 -0.04326
# Poissons Ratio (y) = 0.30271 0.16346
# Poissons Ratio (z) = -0.06031 0.74415
#
# Static dielectric constant tensor:
#      x y z
#    x 1.936510 0.000000 -0.000180 
#    y 0.000000 1.940650 0.000000 
#    z -0.000180 0.000000 2.075640 
# 
# From -- ./inp_files/34341.got.cif
#   From: 2010.05.17/outbox.cif.g08.bks.cpg/sg11_18_cif.got.tgz:34341.got - 2010.06.03 12:22:45.
