data_PCOD9159641
_publ_section_title
;
Structure prediction by ZEFSAII (Michael W. Deem and Ramdas Pophale) SiO2 
 PCOD9159641
Probable space group: P 21/M
;
_chemical_formula_sum "Si O2"
_cell_formula_units_Z 24
_cell_length_a 4.915463
_cell_length_b 22.034574
_cell_length_c 10.889647
_cell_angle_alpha 90.000000
_cell_angle_beta 110.186126
_cell_angle_gamma 90.000000
_cell_volume 1107.012738
_symmetry_space_group_name_H-M "P 21/M"
_symmetry_group_IT_number 11
_symmetry_cell_setting 'monoclinic'
loop_
_space_group_symop_operation_xyz
x,y,z
-x,1/2+y,-z
-x,-y,-z
x,1/2-y,z
loop_
_atom_site_type_symbol
_atom_site_label
_atom_site_fract_x
_atom_site_fract_y
_atom_site_fract_z
Si Si1 0.941912 0.903238 0.250026
Si Si2 0.059042 0.142294 0.487197
Si Si3 0.241338 0.073153 0.142675
Si Si4 0.813316 0.980335 0.601043
Si Si5 0.660716 0.436596 0.909440
Si Si6 0.441346 0.181536 0.317381
O O1 0.652123 0.906307 0.123086
O O2 0.920315 0.855995 0.360262
O O3 0.215975 0.908081 0.200604
O O4 0.967396 0.967911 0.321473
O O5 0.780813 0.176984 0.396273
O O6 0.024984 0.070591 0.452063
O O7 0.310281 0.162533 0.431963
O O8 0.258120 0.052477 0.284666
O O9 0.377359 0.139511 0.187041
O O10 0.359310 0.010600 0.098164
O O11 0.910988 0.078573 0.045182
O O12 0.500000 0.000000 0.500000
O O13 0.345803 0.250000 0.277644
#
# Coordination Sequence:
#
# PCOD9159641 Si02
#       6
#     4   4   4   4   4   4
#     4  11  20  34  54  83 115 145 179 220 283 358
#     4  11  21  36  57  83 112 144 186 238 289 341
#     4   9  20  36  55  83 117 152 191 235 285 349
#     4  10  19  33  56  87 120 152 185 232 295 356
#     4  10  21  34  55  84 119 154 183 226 292 356
#     4  11  23  39  60  82 109 149 197 249 295 341
#
# _framework density 21.679969
#
# number of rings (size 3 to 8) (size 9 to 14) (size 15 to 20)
#    0.000    1.667    0.000    7.000    0.000    8.667 
#    0.000    0.000    0.000    6.000    0.000    0.000 
#    0.000    0.000    0.000    0.000    0.000    0.000 
#
# Total GULP energy -133614.176680 kJ/mol
# GULP energy per Si atom -5567.257362 kJ/mol
# Density = 2.163062 g / cm^3
# Si number density = 21.679969 Si / 1000 Ang^3
#
#
#
# Elastic Constant Matrix: (Units=GPa)
#
#
# Indices 1 2 3 4 5 6 
#
# 1 58.2547 -6.3045 -7.2501 0.0000 -7.5723 0.0000
# 2 -6.3045 49.7807 22.9843 0.0000 -3.3661 0.0000
# 3 -7.2501 22.9843 93.3531 0.0000 8.8108 0.0000
# 4 0.0000 0.0000 0.0000 6.2085 0.0000 -4.8062
# 5 -7.5723 -3.3661 8.8108 0.0000 26.1709 0.0000
# 6 0.0000 0.0000 0.0000 -4.8062 0.0000 10.1621
#
#
#
# Elastic Compliance Matrix: (Units=1/GPa)
#
#
# Indices 1 2 3 4 5 6 
#
# 1 0.018191 0.002554 0.000265 0.000000 0.005503 0.000000
# 2 0.002554 0.023662 -0.006181 0.000000 0.005863 0.000000
# 3 0.000265 -0.006181 0.012727 0.000000 -0.005003 0.000000
# 4 0.000000 0.000000 0.000000 0.254107 0.000000 0.120181
# 5 0.005503 0.005863 -0.005003 0.000000 0.042241 0.000000
# 6 0.000000 0.000000 0.000000 0.120181 0.000000 0.155244
#
#
# Mechanical properties :
#
#
# Convention : Reuss Voigt Hill
#
# Bulk Modulus (GPa) = 20.89695 24.47199 22.68447
# Shear Modulus (GPa) = 9.45453 21.30555 15.38004
#
# Velocity S-wave (km/s) = 2.09055 3.13825 2.66637
# Velocity P-wave (km/s) = 3.93535 4.94407 4.46827
#
# Compressibility (1/GPa) = 0.04785387
#
# Stress axis : x y z
#
# Youngs Moduli (GPa) = 54.97352 42.26243 78.57619
#
# Poissons Ratio (x) = -0.10792 -0.02080
# Poissons Ratio (y) = -0.14038 0.48566
# Poissons Ratio (z) = -0.01455 0.26121
#
# Static dielectric constant tensor:
#      x y z
#    x 1.911310 0.000000 -0.131400 
#    y 0.000000 1.864540 0.000000 
#    z -0.131400 0.000000 1.898040 
# 
# From -- ./inp_files/30219.got.cif
#   From: 2010.05.17/outbox.cif.g08.bks.cpg/sg11_16_cif.got.tgz:30219.got - 2010.06.03 12:22:45.
