data_PCOD9159879
_publ_section_title
;
Structure prediction by ZEFSAII (Michael W. Deem and Ramdas Pophale) SiO2 
 PCOD9159879
Probable space group: P 21/M
;
_chemical_formula_sum "Si O2"
_cell_formula_units_Z 24
_cell_length_a 8.594375
_cell_length_b 16.232522
_cell_length_c 11.514136
_cell_angle_alpha 90.000000
_cell_angle_beta 135.490996
_cell_angle_gamma 90.000000
_cell_volume 1126.063534
_symmetry_space_group_name_H-M "P 21/M"
_symmetry_group_IT_number 11
_symmetry_cell_setting 'monoclinic'
loop_
_space_group_symop_operation_xyz
x,y,z
-x,1/2+y,-z
-x,-y,-z
x,1/2-y,z
loop_
_atom_site_type_symbol
_atom_site_label
_atom_site_fract_x
_atom_site_fract_y
_atom_site_fract_z
Si Si1 0.192015 0.404726 0.635025
Si Si2 0.891228 0.410172 0.946483
Si Si3 0.509208 0.587981 0.437483
Si Si4 0.738514 0.095482 0.315122
Si Si5 0.437900 0.907193 0.011217
Si Si6 0.357502 0.340405 0.253980
O O1 0.319162 0.406194 0.578909
O O2 0.181988 0.501583 0.664538
O O3 0.949422 0.367076 0.492309
O O4 0.343744 0.366967 0.816734
O O5 0.734144 0.409801 0.975234
O O6 0.103067 0.352306 0.081158
O O7 0.732143 0.395582 0.750068
O O8 0.000000 0.500000 0.000000
O O9 0.500000 0.500000 0.500000
O O10 0.597151 0.647662 0.585431
O O11 0.673157 0.134719 0.158401
O O12 0.517007 0.095276 0.273490
O O13 0.500000 0.000000 0.000000
O O14 0.433780 0.250000 0.258667
#
# Coordination Sequence:
#
# PCOD9159879 Si02
#       6
#     4   4   4   4   4   4
#     4   9  18  33  58  89 114 149 206 258 299 352
#     4  11  21  37  67  93 122 162 209 261 310 376
#     4  11  20  38  65  93 121 159 210 263 308 370
#     4  10  19  34  55  83 122 159 198 253 305 368
#     4   9  18  32  55  90 117 147 200 258 307 356
#     4  12  26  41  58  92 132 168 207 260 327 380
#
# _framework density 21.313182999999999
#
# number of rings (size 3 to 8) (size 9 to 14) (size 15 to 20)
#    0.000    1.667    3.333    3.000    0.000    3.333 
#    0.000    3.333    0.000    2.000    0.000    0.000 
#    0.000    0.000    0.000    0.000    0.000    0.000 
#
# Total GULP energy -133800.396873 kJ/mol
# GULP energy per Si atom -5575.016536 kJ/mol
# Density = 2.126467 g / cm^3
# Si number density = 21.313183 Si / 1000 Ang^3
#
#
#
# Elastic Constant Matrix: (Units=GPa)
#
#
# Indices 1 2 3 4 5 6 
#
# 1 58.6781 -12.2892 70.1902 0.0000 6.3138 0.0000
# 2 -12.2892 27.3377 6.3055 0.0000 1.8480 0.0000
# 3 70.1902 6.3055 240.9552 0.0000 6.4914 0.0000
# 4 0.0000 0.0000 0.0000 5.1978 0.0000 -0.7701
# 5 6.3138 1.8480 6.4914 0.0000 40.3145 0.0000
# 6 0.0000 0.0000 0.0000 -0.7701 0.0000 2.4463
#
#
#
# Elastic Compliance Matrix: (Units=1/GPa)
#
#
# Indices 1 2 3 4 5 6 
#
# 1 0.033126 0.017491 -0.009989 0.000000 -0.004381 0.000000
# 2 0.017491 0.046133 -0.006199 0.000000 -0.003856 0.000000
# 3 -0.009989 -0.006199 0.007204 0.000000 0.000689 0.000000
# 4 0.000000 0.000000 0.000000 0.201804 0.000000 0.063530
# 5 -0.004381 -0.003856 0.000689 0.000000 0.025557 0.000000
# 6 0.000000 0.000000 0.000000 0.063530 0.000000 0.428774
#
#
# Mechanical properties :
#
#
# Convention : Reuss Voigt Hill
#
# Bulk Modulus (GPa) = 11.22718 50.59824 30.91271
# Shear Modulus (GPa) = 6.49620 27.10934 16.80277
#
# Velocity S-wave (km/s) = 1.74774 3.57031 2.81085
# Velocity P-wave (km/s) = 3.05809 6.38655 5.00699
#
# Compressibility (1/GPa) = 0.08906960
#
# Stress axis : x y z
#
# Youngs Moduli (GPa) = 30.18776 21.67653 138.81772
#
# Poissons Ratio (x) = -0.37915 1.38669
# Poissons Ratio (y) = -0.52803 0.86048
# Poissons Ratio (z) = 0.30155 0.13436
#
# Static dielectric constant tensor:
#      x y z
#    x 1.804830 0.000000 0.025410 
#    y 0.000000 1.670630 0.000000 
#    z 0.025410 0.000000 1.865610 
# 
# From -- ./inp_files/32737.got.cif
#   From: 2010.05.17/outbox.cif.g08.bks.cpg/sg11_17_cif.got.tgz:32737.got - 2010.06.03 12:22:45.
