data_PCOD9159370
_publ_section_title
;
Structure prediction by ZEFSAII (Michael W. Deem and Ramdas Pophale) SiO2 
 PCOD9159370
Probable space group: P 21/M
;
_chemical_formula_sum "Si O2"
_cell_formula_units_Z 28
_cell_length_a 9.591254
_cell_length_b 16.795862
_cell_length_c 10.875658
_cell_angle_alpha 90.000000
_cell_angle_beta 131.447652
_cell_angle_gamma 90.000000
_cell_volume 1313.227905
_symmetry_space_group_name_H-M "P 21/M"
_symmetry_group_IT_number 11
_symmetry_cell_setting 'monoclinic'
loop_
_space_group_symop_operation_xyz
x,y,z
-x,1/2+y,-z
-x,-y,-z
x,1/2-y,z
loop_
_atom_site_type_symbol
_atom_site_label
_atom_site_fract_x
_atom_site_fract_y
_atom_site_fract_z
Si Si1 0.816008 0.099044 0.250639
Si Si2 0.227546 0.837728 0.286789
Si Si3 0.310485 0.662460 0.069036
Si Si4 0.381820 0.470502 0.746657
Si Si5 0.826330 0.505407 0.627451
Si Si6 0.323410 0.336447 0.425395
Si Si7 0.878748 0.835783 0.423261
O O1 0.908922 0.143475 0.420428
O O2 0.633884 0.049580 0.181475
O O3 0.787029 0.156302 0.119024
O O4 0.975947 0.036952 0.304365
O O5 0.170374 0.750000 0.301043
O O6 0.183708 0.840213 0.115665
O O7 0.158250 0.918259 0.307715
O O8 0.454169 0.840394 0.428525
O O9 0.407310 0.750000 0.132566
O O10 0.436593 0.583513 0.150209
O O11 0.314936 0.496272 0.571264
O O12 0.226351 0.407337 0.702730
O O13 0.748181 0.578419 0.666792
O O14 0.279751 0.250000 0.340585
O O15 0.225249 0.333017 0.503188
O O16 0.861030 0.750000 0.354159
#
# Coordination Sequence:
#
# PCOD9159370 Si02
#       7
#     4   4   4   4   4   4   4
#     4  10  21  34  49  77 109 135 168 209 259 314
#     4  10  19  33  53  80 105 134 178 218 257 310
#     4  11  21  35  55  76  99 135 177 218 253 305
#     4  10  19  34  54  76 102 134 176 208 255 310
#     4  10  19  33  56  79 106 137 169 217 270 299
#     4   8  14  26  49  77 100 125 169 214 249 295
#     4   9  15  29  51  76  99 128 169 214 252 291
#
# _framework density 21.32151
#
# number of rings (size 3 to 8) (size 9 to 14) (size 15 to 20)
#    0.000    2.571    2.857    3.429    0.000    1.143 
#    0.000    4.286    0.000    0.000    0.000    1.000 
#    0.000    0.000    0.000    0.000    0.000    0.000 
#
# Total GULP energy -155925.942386 kJ/mol
# GULP energy per Si atom -5568.783657 kJ/mol
# Density = 2.127298 g / cm^3
# Si number density = 21.321510 Si / 1000 Ang^3
#
#
#
# Elastic Constant Matrix: (Units=GPa)
#
#
# Indices 1 2 3 4 5 6 
#
# 1 23.9699 17.3002 -5.6040 0.0000 0.7836 0.0000
# 2 17.3002 146.1907 2.4294 0.0000 -16.9675 0.0000
# 3 -5.6040 2.4294 11.3644 0.0000 -5.6137 0.0000
# 4 0.0000 0.0000 0.0000 14.8800 0.0000 -3.5984
# 5 0.7836 -16.9675 -5.6137 0.0000 12.3187 0.0000
# 6 0.0000 0.0000 0.0000 -3.5984 0.0000 18.4024
#
#
#
# Elastic Compliance Matrix: (Units=1/GPa)
#
#
# Indices 1 2 3 4 5 6 
#
# 1 0.053029 -0.006747 0.027533 0.000000 -0.000119 0.000000
# 2 -0.006747 0.009218 0.001531 0.000000 0.013823 0.000000
# 3 0.027533 0.001531 0.130883 0.000000 0.060002 0.000000
# 4 0.000000 0.000000 0.000000 0.070540 0.000000 0.013793
# 5 -0.000119 0.013823 0.060002 0.000000 0.127567 0.000000
# 6 0.000000 0.000000 0.000000 0.013793 0.000000 0.057038
#
#
# Mechanical properties :
#
#
# Convention : Reuss Voigt Hill
#
# Bulk Modulus (GPa) = 4.20584 23.30846 13.75715
# Shear Modulus (GPa) = 10.35421 20.28019 15.31720
#
# Velocity S-wave (km/s) = 2.20608 3.08744 2.68319
# Velocity P-wave (km/s) = 2.90962 4.86470 4.00819
#
# Compressibility (1/GPa) = 0.23776451
#
# Stress axis : x y z
#
# Youngs Moduli (GPa) = 18.85745 108.48680 7.64041
#
# Poissons Ratio (x) = 0.73194 -0.21037
# Poissons Ratio (y) = 0.12723 -0.01170
# Poissons Ratio (z) = -0.51921 -0.16607
#
# Static dielectric constant tensor:
#      x y z
#    x 1.800460 0.000000 0.000910 
#    y 0.000000 1.845580 0.000000 
#    z 0.000910 0.000000 1.808390 
# 
# From -- ./inp_files/35939.got.cif
#   From: 2010.05.17/outbox.cif.g08.bks.cpg/sg11_18_cif.got.tgz:35939.got - 2010.06.03 12:22:45.
