data_PCOD9159914
_publ_section_title
;
Structure prediction by ZEFSAII (Michael W. Deem and Ramdas Pophale) SiO2 
 PCOD9159914
Probable space group: P 21/M
;
_chemical_formula_sum "Si O2"
_cell_formula_units_Z 28
_cell_length_a 9.429726
_cell_length_b 8.585511
_cell_length_c 30.251690
_cell_angle_alpha 90.000000
_cell_angle_beta 39.008844
_cell_angle_gamma 90.000000
_cell_volume 1541.591964
_symmetry_space_group_name_H-M "P 21/M"
_symmetry_group_IT_number 11
_symmetry_cell_setting 'monoclinic'
loop_
_space_group_symop_operation_xyz
x,y,z
-x,1/2+y,-z
-x,-y,-z
x,1/2-y,z
loop_
_atom_site_type_symbol
_atom_site_label
_atom_site_fract_x
_atom_site_fract_y
_atom_site_fract_z
Si Si1 0.938828 0.062787 0.786869
Si Si2 0.416081 0.063309 0.066890
Si Si3 0.670010 0.561115 0.367208
Si Si4 0.999280 0.436496 0.632887
Si Si5 0.249725 0.937409 0.934440
Si Si6 0.632080 0.563573 0.780959
Si Si7 0.843069 0.437018 0.499207
O O1 0.919498 0.250000 0.789969
O O2 0.191988 0.019189 0.710682
O O3 0.826698 0.001623 0.858819
O O4 0.787453 0.988571 0.784605
O O5 0.406118 0.250000 0.068694
O O6 0.596344 0.014616 0.061003
O O7 0.500000 0.000000 0.000000
O O8 0.665438 0.750000 0.369657
O O9 0.414509 0.505887 0.431954
O O10 0.818963 0.512064 0.373643
O O11 0.005901 0.250000 0.628980
O O12 0.753076 0.488321 0.709643
O O13 0.065436 0.507424 0.570162
O O14 0.243523 0.750000 0.935914
O O15 0.382833 0.985318 0.857448
O O16 0.000000 0.000000 0.000000
O O17 0.637775 0.750000 0.775369
O O18 0.841952 0.250000 0.500714
O O19 0.000000 0.500000 0.500000
#
# Coordination Sequence:
#
# PCOD9159914 Si02
#       7
#     4   4   4   4   4   4   4
#     4   9  16  30  52  77 101 130 167 211 256 301
#     4  10  20  34  51  76 105 136 171 211 255 303
#     4   8  17  33  55  79 102 128 167 212 254 298
#     4  10  19  34  56  81 101 128 171 215 255 301
#     4   9  19  33  51  75 104 134 170 209 251 300
#     4   9  17  31  50  76 105 133 166 210 254 298
#     4  11  22  37  53  74 106 141 169 204 252 305
#
# _framework density 18.163042000000001
#
# number of rings (size 3 to 8) (size 9 to 14) (size 15 to 20)
#    0.000    2.571    0.000    4.286    0.000    3.429 
#    0.000    9.286    0.000    1.714    0.000    0.000 
#    0.000    0.000    0.000    0.000    0.000    0.000 
#
# Total GULP energy -156045.093753 kJ/mol
# GULP energy per Si atom -5573.039063 kJ/mol
# Density = 1.812170 g / cm^3
# Si number density = 18.163042 Si / 1000 Ang^3
#
#
#
# Elastic Constant Matrix: (Units=GPa)
#
#
# Indices 1 2 3 4 5 6 
#
# 1 61.8153 22.9950 76.8394 0.0000 1.2544 0.0000
# 2 22.9950 35.9396 31.7133 0.0000 -0.4474 0.0000
# 3 76.8394 31.7133 215.8356 0.0000 1.5350 0.0000
# 4 0.0000 0.0000 0.0000 32.8919 0.0000 4.0214
# 5 1.2544 -0.4474 1.5350 0.0000 26.0183 0.0000
# 6 0.0000 0.0000 0.0000 4.0214 0.0000 23.3172
#
#
#
# Elastic Compliance Matrix: (Units=1/GPa)
#
#
# Indices 1 2 3 4 5 6 
#
# 1 0.033284 -0.012481 -0.010007 0.000000 -0.001229 0.000000
# 2 -0.012481 0.036668 -0.000953 0.000000 0.001288 0.000000
# 3 -0.010007 -0.000953 0.008336 0.000000 -0.000026 0.000000
# 4 0.000000 0.000000 0.000000 0.031057 0.000000 -0.005356
# 5 -0.001229 0.001288 -0.000026 0.000000 0.038517 0.000000
# 6 0.000000 0.000000 0.000000 -0.005356 0.000000 0.043810
#
#
# Mechanical properties :
#
#
# Convention : Reuss Voigt Hill
#
# Bulk Modulus (GPa) = 31.84231 64.07621 47.95926
# Shear Modulus (GPa) = 20.07841 28.58166 24.33003
#
# Velocity S-wave (km/s) = 3.32844 3.97119 3.66394
# Velocity P-wave (km/s) = 5.68690 7.50880 6.66044
#
# Compressibility (1/GPa) = 0.03140475
#
# Stress axis : x y z
#
# Youngs Moduli (GPa) = 30.04449 27.27210 119.96274
#
# Poissons Ratio (x) = 0.34039 1.20044
# Poissons Ratio (y) = 0.37499 0.11438
# Poissons Ratio (z) = 0.30065 0.02600
#
# Static dielectric constant tensor:
#      x y z
#    x 1.636640 0.000000 0.010750 
#    y 0.000000 1.616590 0.000000 
#    z 0.010750 0.000000 1.679530 
# 
# From -- ./inp_files/72728.got.cif
#   From: 2010.05.17/outbox.cif.g08.bks.cpg/sg11_37_cif.got.tgz:72728.got - 2010.06.03 12:22:45.
