data_PCOD9159200
_publ_section_title
;
Structure prediction by ZEFSAII (Michael W. Deem and Ramdas Pophale) SiO2 
 PCOD9159200
Probable space group: P 21/M
;
_chemical_formula_sum "Si O2"
_cell_formula_units_Z 20
_cell_length_a 9.039859
_cell_length_b 11.880819
_cell_length_c 12.206709
_cell_angle_alpha 90.000000
_cell_angle_beta 144.006551
_cell_angle_gamma 90.000000
_cell_volume 770.472176
_symmetry_space_group_name_H-M "P 21/M"
_symmetry_group_IT_number 11
_symmetry_cell_setting 'monoclinic'
loop_
_space_group_symop_operation_xyz
x,y,z
-x,1/2+y,-z
-x,-y,-z
x,1/2-y,z
loop_
_atom_site_type_symbol
_atom_site_label
_atom_site_fract_x
_atom_site_fract_y
_atom_site_fract_z
Si Si1 0.234509 0.368740 0.547184
Si Si2 0.561687 0.873057 0.901663
Si Si3 0.292765 0.124073 0.265718
Si Si4 0.145135 0.448052 0.725080
Si Si5 0.723148 0.123587 0.710554
O O1 0.152069 0.250000 0.447244
O O2 0.150271 0.368888 0.622783
O O3 0.530046 0.375723 0.699263
O O4 0.103579 0.477668 0.419310
O O5 0.451253 0.750000 0.854141
O O6 0.630873 0.880497 0.816148
O O7 0.361449 0.964315 0.819466
O O8 0.791274 0.888823 0.123898
O O9 0.172273 0.250000 0.208228
O O10 0.534707 0.124735 0.492237
O O11 0.159878 0.003029 0.210019
O O12 0.845018 0.250000 0.786603
#
# Coordination Sequence:
#
# PCOD9159200 Si02
#       5
#     4   4   4   4   4
#     4  10  19  33  50  72  99 131 166 207 251 298
#     4  10  19  33  50  72  99 131 166 207 251 298
#     4   9  17  31  51  74 100 131 167 207 249 296
#     4  10  20  32  48  72 100 130 166 202 250 302
#     4   9  17  31  51  74 100 131 167 207 249 296
#
# _framework density 25.958106999999998
#
# number of rings (size 3 to 8) (size 9 to 14) (size 15 to 20)
#    0.000    2.400    2.000    1.200    0.000    0.000 
#    0.000    3.000    0.000    0.000    0.000    0.000 
#    0.000    0.000    0.000    0.000    0.000    0.000 
#
# Total GULP energy -111706.769128 kJ/mol
# GULP energy per Si atom -5585.338456 kJ/mol
# Density = 2.589903 g / cm^3
# Si number density = 25.958107 Si / 1000 Ang^3
#
#
#
# Elastic Constant Matrix: (Units=GPa)
#
#
# Indices 1 2 3 4 5 6 
#
# 1 83.2076 61.2843 4.9822 0.0000 -24.3933 0.0000
# 2 61.2843 242.6565 34.4319 0.0000 -9.8076 0.0000
# 3 4.9822 34.4319 73.8838 0.0000 -18.9849 0.0000
# 4 0.0000 0.0000 0.0000 -24.6176 0.0000 -1.3233
# 5 -24.3933 -9.8076 -18.9849 0.0000 31.9353 0.0000
# 6 0.0000 0.0000 0.0000 -1.3233 0.0000 28.5799
#
#
#
# Elastic Compliance Matrix: (Units=1/GPa)
#
#
# Indices 1 2 3 4 5 6 
#
# 1 0.020744 -0.005323 0.005587 0.000000 0.017531 0.000000
# 2 -0.005323 0.005779 -0.003450 0.000000 -0.004342 0.000000
# 3 0.005587 -0.003450 0.018401 0.000000 0.014147 0.000000
# 4 0.000000 0.000000 0.000000 -0.040521 0.000000 -0.001876
# 5 0.017531 -0.004342 0.014147 0.000000 0.051781 0.000000
# 6 0.000000 0.000000 0.000000 -0.001876 0.000000 0.034903
#
#
# Mechanical properties :
#
#
# Convention : Reuss Voigt Hill
#
# Bulk Modulus (GPa) = 25.93978 66.79388 46.36683
# Shear Modulus (GPa) = 45.32664 27.11617 36.22141
#
# Velocity S-wave (km/s) = 4.18322 3.23555 3.73953
# Velocity P-wave (km/s) = 5.77470 6.30442 6.04536
#
# Compressibility (1/GPa) = 0.03855083
#
# Stress axis : x y z
#
# Youngs Moduli (GPa) = 48.20759 173.02552 54.34486
#
# Poissons Ratio (x) = 0.92103 -0.30360
# Poissons Ratio (y) = 0.25661 0.18750
# Poissons Ratio (z) = -0.26932 0.59697
#
# Static dielectric constant tensor:
#      x y z
#    x 2.016320 0.000000 0.035780 
#    y 0.000000 2.036560 0.000000 
#    z 0.035780 0.000000 2.056390 
# 
# From -- ./inp_files/16328.got.cif
#   From: 2010.05.17/outbox.cif.g08.bks.cpg/sg11_9_cif.got.tgz:16328.got - 2010.06.03 12:22:45.
