data_PCOD9159967
_publ_section_title
;
Structure prediction by ZEFSAII (Michael W. Deem and Ramdas Pophale) SiO2 
 PCOD9159967
Probable space group: P 21/M
;
_chemical_formula_sum "Si O2"
_cell_formula_units_Z 28
_cell_length_a 22.170379
_cell_length_b 8.162998
_cell_length_c 19.657975
_cell_angle_alpha 90.000000
_cell_angle_beta 157.980828
_cell_angle_gamma 90.000000
_cell_volume 1333.817811
_symmetry_space_group_name_H-M "P 21/M"
_symmetry_group_IT_number 11
_symmetry_cell_setting 'monoclinic'
loop_
_space_group_symop_operation_xyz
x,y,z
-x,1/2+y,-z
-x,-y,-z
x,1/2-y,z
loop_
_atom_site_type_symbol
_atom_site_label
_atom_site_fract_x
_atom_site_fract_y
_atom_site_fract_z
Si Si1 0.452440 0.559666 0.733845
Si Si2 0.964002 0.054138 0.040881
Si Si3 0.742367 0.939885 0.588976
Si Si4 0.315415 0.948047 0.820608
Si Si5 0.849107 0.447188 0.489519
Si Si6 0.675464 0.054334 0.668551
Si Si7 0.790737 0.444532 0.141641
O O1 0.469758 0.750000 0.769407
O O2 0.386154 0.537266 0.588481
O O3 0.300133 0.492974 0.619161
O O4 0.627791 0.483266 0.929264
O O5 0.982831 0.250000 0.063444
O O6 0.777308 0.013294 0.843008
O O7 0.073975 0.990972 0.217342
O O8 0.000000 0.000000 0.000000
O O9 0.734325 0.750000 0.559421
O O10 0.715645 0.957697 0.641571
O O11 0.314746 0.750000 0.821269
O O12 0.201126 0.001444 0.639074
O O13 0.249765 0.009130 0.824467
O O14 0.500000 0.000000 0.000000
O O15 0.844375 0.250000 0.487427
O O16 0.032982 0.495825 0.697989
O O17 0.693819 0.250000 0.674977
O O18 0.500000 0.000000 0.500000
O O19 0.804008 0.250000 0.159165
#
# Coordination Sequence:
#
# PCOD9159967 Si02
#       7
#     4   4   4   4   4   4   4
#     4  11  23  41  62  84 119 163 202 245 299 363
#     4   8  16  31  53  77 103 136 176 222 272 324
#     4  10  20  37  59  83 112 149 191 239 291 347
#     4  10  20  36  60  89 118 154 199 250 307 359
#     4  10  22  40  61  86 119 159 201 248 304 363
#     4  10  19  34  56  85 117 149 187 236 289 344
#     4  11  23  38  61  91 120 155 201 253 304 358
#
# _framework density 20.992372
#
# number of rings (size 3 to 8) (size 9 to 14) (size 15 to 20)
#    0.000    2.000    1.429    2.143    0.000    3.429 
#    2.571    0.000    0.000    0.000    0.000    0.000 
#    0.000    0.000    0.000    0.000    0.000    0.000 
#
# Total GULP energy -155873.354482 kJ/mol
# GULP energy per Si atom -5566.905517 kJ/mol
# Density = 2.094459 g / cm^3
# Si number density = 20.992372 Si / 1000 Ang^3
#
#
#
# Elastic Constant Matrix: (Units=GPa)
#
#
# Indices 1 2 3 4 5 6 
#
# 1 16.7390 -2.7132 26.1112 0.0000 -4.9413 0.0000
# 2 -2.7132 26.7522 13.8479 0.0000 2.7830 0.0000
# 3 26.1112 13.8479 179.3036 0.0000 3.1086 0.0000
# 4 0.0000 0.0000 0.0000 26.5393 0.0000 6.4004
# 5 -4.9413 2.7830 3.1086 0.0000 29.0302 0.0000
# 6 0.0000 0.0000 0.0000 6.4004 0.0000 16.6941
#
#
#
# Elastic Compliance Matrix: (Units=1/GPa)
#
#
# Indices 1 2 3 4 5 6 
#
# 1 0.089120 0.014900 -0.014394 0.000000 0.015282 0.000000
# 2 0.014900 0.041769 -0.005380 0.000000 -0.000892 0.000000
# 3 -0.014394 -0.005380 0.008137 0.000000 -0.002806 0.000000
# 4 0.000000 0.000000 0.000000 0.041519 0.000000 -0.015918
# 5 0.015282 -0.000892 -0.002806 0.000000 0.037434 0.000000
# 6 0.000000 0.000000 0.000000 -0.015918 0.000000 0.066004
#
#
# Mechanical properties :
#
#
# Convention : Reuss Voigt Hill
#
# Bulk Modulus (GPa) = 7.73530 33.03182 20.38356
# Shear Modulus (GPa) = 14.84450 26.82265 20.83358
#
# Velocity S-wave (km/s) = 2.66209 3.57842 3.15371
# Velocity P-wave (km/s) = 3.62516 5.73086 4.79502
#
# Compressibility (1/GPa) = 0.12927755
#
# Stress axis : x y z
#
# Youngs Moduli (GPa) = 11.22081 23.94121 122.88939
#
# Poissons Ratio (x) = -0.35671 1.76885
# Poissons Ratio (y) = -0.16718 0.66116
# Poissons Ratio (z) = 0.16151 0.12881
#
# Static dielectric constant tensor:
#      x y z
#    x 1.881460 0.000000 0.109920 
#    y 0.000000 0.411910 0.000000 
#    z 0.109920 0.000000 1.952160 
# 
# From -- ./inp_files/66761.got.cif
#   From: 2010.05.17/outbox.cif.g08.bks.cpg/sg11_34_cif.got.tgz:66761.got - 2010.06.03 12:22:45.
