data_PCOD9159592
_publ_section_title
;
Structure prediction by ZEFSAII (Michael W. Deem and Ramdas Pophale) SiO2 
 PCOD9159592
Probable space group: P 21/M
;
_chemical_formula_sum "Si O2"
_cell_formula_units_Z 32
_cell_length_a 11.495378
_cell_length_b 9.457887
_cell_length_c 21.471433
_cell_angle_alpha 90.000000
_cell_angle_beta 51.895222
_cell_angle_gamma 90.000000
_cell_volume 1836.914243
_symmetry_space_group_name_H-M "P 21/M"
_symmetry_group_IT_number 11
_symmetry_cell_setting 'monoclinic'
loop_
_space_group_symop_operation_xyz
x,y,z
-x,1/2+y,-z
-x,-y,-z
x,1/2-y,z
loop_
_atom_site_type_symbol
_atom_site_label
_atom_site_fract_x
_atom_site_fract_y
_atom_site_fract_z
Si Si1 0.982213 0.419379 0.570581
Si Si2 0.150645 0.917033 0.937998
Si Si3 0.285326 0.081145 0.537642
Si Si4 0.332267 0.087763 0.124172
Si Si5 0.313835 0.581300 0.256964
Si Si6 0.555577 0.918843 0.388274
Si Si7 0.685095 0.091247 0.985397
Si Si8 0.624792 0.580429 0.222844
O O1 0.984939 0.250000 0.559212
O O2 0.120123 0.454500 0.570276
O O3 0.000000 0.500000 0.500000
O O4 0.825662 0.454563 0.653719
O O5 0.128244 0.750000 0.932645
O O6 0.246973 0.992249 0.852809
O O7 0.239954 0.929672 0.973128
O O8 0.000000 0.000000 0.000000
O O9 0.304523 0.250000 0.523245
O O10 0.326112 0.048872 0.596123
O O11 0.406031 0.000004 0.456145
O O12 0.287422 0.250000 0.145965
O O13 0.300568 0.999779 0.196438
O O14 0.267667 0.017900 0.083175
O O15 0.509553 0.082549 0.055225
O O16 0.311335 0.750000 0.246517
O O17 0.468769 0.548867 0.240077
O O18 0.527276 0.750000 0.398990
O O19 0.608757 0.953583 0.301278
O O20 0.717997 0.250000 0.951906
O O21 0.651521 0.750000 0.207978
#
# Coordination Sequence:
#
# PCOD9159592 Si02
#       8
#     4   4   4   4   4   4   4   4
#     4  10  21  36  54  80 113 149 184 225 275 326
#     4  11  23  40  59  81 111 144 181 226 275 329
#     4   9  18  34  55  80 111 145 184 226 271 322
#     4  10  19  33  56  83 108 138 180 225 269 322
#     4  10  20  34  53  78 111 147 184 227 277 330
#     4   9  18  34  57  82 109 145 186 226 269 320
#     4   9  19  36  56  79 107 141 177 218 273 327
#     4  10  20  35  56  80 107 143 186 228 272 326
#
# _framework density 17.420518999999999
#
# number of rings (size 3 to 8) (size 9 to 14) (size 15 to 20)
#    0.000    2.250    1.250    1.500    0.000    4.000 
#    2.250    0.000    0.000    0.000    0.000    0.000 
#    0.000    0.000    0.000    0.000    0.000    0.000 
#
# Total GULP energy -178513.525259 kJ/mol
# GULP energy per Si atom -5578.547664 kJ/mol
# Density = 1.738087 g / cm^3
# Si number density = 17.420519 Si / 1000 Ang^3
#
#
#
# Elastic Constant Matrix: (Units=GPa)
#
#
# Indices 1 2 3 4 5 6 
#
# 1 51.0367 36.9114 52.8955 0.0000 -6.3365 0.0000
# 2 36.9114 60.1698 74.1307 0.0000 5.2068 0.0000
# 3 52.8955 74.1307 144.0203 0.0000 11.2922 0.0000
# 4 0.0000 0.0000 0.0000 36.4986 0.0000 2.6808
# 5 -6.3365 5.2068 11.2922 0.0000 23.7862 0.0000
# 6 0.0000 0.0000 0.0000 2.6808 0.0000 22.2631
#
#
#
# Elastic Compliance Matrix: (Units=1/GPa)
#
#
# Indices 1 2 3 4 5 6 
#
# 1 0.043886 -0.018769 -0.007994 0.000000 0.019594 0.000000
# 2 -0.018769 0.053488 -0.020075 0.000000 -0.007178 0.000000
# 3 -0.007994 -0.020075 0.020810 0.000000 -0.007614 0.000000
# 4 0.000000 0.000000 0.000000 0.027643 0.000000 -0.003329
# 5 0.019594 -0.007178 -0.007614 0.000000 0.052447 0.000000
# 6 0.000000 0.000000 0.000000 -0.003329 0.000000 0.045318
#
#
# Mechanical properties :
#
#
# Convention : Reuss Voigt Hill
#
# Bulk Modulus (GPa) = 40.80421 64.78909 52.79665
# Shear Modulus (GPa) = 14.47445 22.59553 18.53499
#
# Velocity S-wave (km/s) = 2.88563 3.60538 3.26540
# Velocity P-wave (km/s) = 5.88017 7.38943 6.67758
#
# Compressibility (1/GPa) = 0.02450728
#
# Stress axis : x y z
#
# Youngs Moduli (GPa) = 22.78645 18.69582 48.05468
#
# Poissons Ratio (x) = 0.35090 0.38414
# Poissons Ratio (y) = 0.42768 0.96471
# Poissons Ratio (z) = 0.18215 0.37532
#
# Static dielectric constant tensor:
#      x y z
#    x 1.599540 0.000000 0.001200 
#    y 0.000000 1.591310 0.000000 
#    z 0.001200 0.000000 1.555670 
# 
# From -- ./inp_files/64382.got.cif
#   From: 2010.05.17/outbox.cif.g08.bks.cpg/sg11_33_cif.got.tgz:64382.got - 2010.06.03 12:22:45.
