data_PCOD9159419
_publ_section_title
;
Structure prediction by ZEFSAII (Michael W. Deem and Ramdas Pophale) SiO2 
 PCOD9159419
Probable space group: P 21/M
;
_chemical_formula_sum "Si O2"
_cell_formula_units_Z 32
_cell_length_a 14.428546
_cell_length_b 24.344512
_cell_length_c 9.145553
_cell_angle_alpha 90.000000
_cell_angle_beta 145.355694
_cell_angle_gamma 90.000000
_cell_volume 1826.202256
_symmetry_space_group_name_H-M "P 21/M"
_symmetry_group_IT_number 11
_symmetry_cell_setting 'monoclinic'
loop_
_space_group_symop_operation_xyz
x,y,z
-x,1/2+y,-z
-x,-y,-z
x,1/2-y,z
loop_
_atom_site_type_symbol
_atom_site_label
_atom_site_fract_x
_atom_site_fract_y
_atom_site_fract_z
Si Si1 0.996700 0.094960 0.158099
Si Si2 0.946366 0.987806 0.268282
Si Si3 0.874180 0.183926 0.233571
Si Si4 0.229856 0.137333 0.215937
Si Si5 0.689009 0.110740 0.555930
Si Si6 0.593418 0.960292 0.731972
Si Si7 0.436403 0.812440 0.349563
Si Si8 0.934785 0.363685 0.634382
O O1 0.144370 0.113038 0.247557
O O2 0.016552 0.036176 0.258981
O O3 0.965414 0.143378 0.236682
O O4 0.841229 0.088064 0.848205
O O5 0.000000 0.000000 0.500000
O O6 0.013871 0.927751 0.315270
O O7 0.749027 0.989224 0.005907
O O8 0.907666 0.250000 0.261386
O O9 0.912506 0.164264 0.447940
O O10 0.685261 0.173896 0.941926
O O11 0.321175 0.088224 0.249463
O O12 0.375220 0.178349 0.441899
O O13 0.085525 0.160639 0.925013
O O14 0.545736 0.066389 0.345871
O O15 0.612128 0.154005 0.569153
O O16 0.770329 0.136530 0.517735
O O17 0.500000 0.000000 0.500000
O O18 0.404571 0.750000 0.344460
#
# Coordination Sequence:
#
# PCOD9159419 Si02
#       8
#     4   4   4   4   4   4   4   4
#     4  10  19  36  57  81 110 145 182 219 272 324
#     4  11  21  34  54  80 118 146 176 224 269 327
#     4  10  21  38  57  77 107 143 180 225 275 324
#     4   9  21  34  56  83 107 138 183 226 262 323
#     4   9  19  35  57  81 107 144 186 221 262 331
#     4  10  19  33  54  78 109 146 179 213 267 314
#     4   9  19  38  58  77 106 143 182 226 271 320
#     4  10  21  36  55  84 112 141 182 224 275 321
#
# _framework density 17.522703
#
# number of rings (size 3 to 8) (size 9 to 14) (size 15 to 20)
#    0.000    2.250    2.500    0.000    1.750    3.000 
#    2.250    3.125    0.000    0.000    0.000    0.000 
#    0.000    0.000    0.000    0.000    0.000    0.000 
#
# Total GULP energy -178230.118486 kJ/mol
# GULP energy per Si atom -5569.691203 kJ/mol
# Density = 1.748282 g / cm^3
# Si number density = 17.522703 Si / 1000 Ang^3
#
#
#
# Elastic Constant Matrix: (Units=GPa)
#
#
# Indices 1 2 3 4 5 6 
#
# 1 70.9447 3.2214 35.8209 0.0000 10.8322 0.0000
# 2 3.2214 46.9447 22.1089 0.0000 -0.4032 0.0000
# 3 35.8209 22.1089 88.7642 0.0000 3.8203 0.0000
# 4 0.0000 0.0000 0.0000 27.1037 0.0000 0.2667
# 5 10.8322 -0.4032 3.8203 0.0000 27.4875 0.0000
# 6 0.0000 0.0000 0.0000 0.2667 0.0000 10.9417
#
#
#
# Elastic Compliance Matrix: (Units=1/GPa)
#
#
# Indices 1 2 3 4 5 6 
#
# 1 0.018987 0.002405 -0.007989 0.000000 -0.006337 0.000000
# 2 0.002405 0.024476 -0.007084 0.000000 0.000396 0.000000
# 3 -0.007989 -0.007084 0.016220 0.000000 0.000790 0.000000
# 4 0.000000 0.000000 0.000000 0.036904 0.000000 -0.000900
# 5 -0.006337 0.000396 0.000790 0.000000 0.038773 0.000000
# 6 0.000000 0.000000 0.000000 -0.000900 0.000000 0.091415
#
#
# Mechanical properties :
#
#
# Convention : Reuss Voigt Hill
#
# Bulk Modulus (GPa) = 29.11344 36.55065 32.83205
# Shear Modulus (GPa) = 18.97088 22.80673 20.88881
#
# Velocity S-wave (km/s) = 3.29393 3.61162 3.45643
# Velocity P-wave (km/s) = 5.57830 6.18838 5.89124
#
# Compressibility (1/GPa) = 0.03434840
#
# Stress axis : x y z
#
# Youngs Moduli (GPa) = 52.66640 40.85588 61.65191
#
# Poissons Ratio (x) = -0.09826 0.49252
# Poissons Ratio (y) = -0.12666 0.43674
# Poissons Ratio (z) = 0.42074 0.28942
#
# Static dielectric constant tensor:
#      x y z
#    x 1.592350 0.000000 0.015030 
#    y 0.000000 1.755670 0.000000 
#    z 0.015030 0.000000 1.621370 
# 
# From -- ./inp_files/15080.got.cif
#   From: 2010.05.17/outbox.cif.g08.bks.cpg/sg11_8_cif.got.tgz:15080.got - 2010.06.03 12:22:45.
