data_PCOD9159040
_publ_section_title
;
Structure prediction by ZEFSAII (Michael W. Deem and Ramdas Pophale) SiO2 
 PCOD9159040
Probable space group: P 21/M
;
_chemical_formula_sum "Si O2"
_cell_formula_units_Z 32
_cell_length_a 23.119316
_cell_length_b 9.124810
_cell_length_c 28.084471
_cell_angle_alpha 90.000000
_cell_angle_beta 162.267563
_cell_angle_gamma 90.000000
_cell_volume 1804.494347
_symmetry_space_group_name_H-M "P 21/M"
_symmetry_group_IT_number 11
_symmetry_cell_setting 'monoclinic'
loop_
_space_group_symop_operation_xyz
x,y,z
-x,1/2+y,-z
-x,-y,-z
x,1/2-y,z
loop_
_atom_site_type_symbol
_atom_site_label
_atom_site_fract_x
_atom_site_fract_y
_atom_site_fract_z
Si Si1 0.649852 0.925821 0.652700
Si Si2 0.401746 0.425531 0.778984
Si Si3 0.660584 0.081815 0.418165
Si Si4 0.082684 0.573124 0.463867
Si Si5 0.924521 0.076047 0.047263
Si Si6 0.597353 0.423909 0.713081
Si Si7 0.653454 0.925756 0.153841
Si Si8 0.325520 0.081713 0.075575
O O1 0.628268 0.750000 0.636060
O O2 0.500000 0.000000 0.500000
O O3 0.620706 0.990020 0.682454
O O4 0.862987 0.960258 0.801928
O O5 0.400418 0.250000 0.772782
O O6 0.223659 0.493765 0.610984
O O7 0.382670 0.464124 0.819400
O O8 0.590078 0.491565 0.902267
O O9 0.679269 0.250000 0.449439
O O10 0.846652 0.037339 0.534264
O O11 0.494655 0.079746 0.247776
O O12 0.586850 0.979177 0.402305
O O13 0.105347 0.750000 0.486867
O O14 0.866811 0.533286 0.305580
O O15 0.912434 0.250000 0.047271
O O16 0.778237 0.045443 0.889240
O O17 0.851654 0.990039 0.036366
O O18 0.588309 0.250000 0.697644
O O19 0.639075 0.750000 0.138456
O O20 0.500000 0.000000 0.000000
O O21 0.289880 0.250000 0.034663
#
# Coordination Sequence:
#
# PCOD9159040 Si02
#       8
#     4   4   4   4   4   4   4   4
#     4  11  23  38  54  75 106 141 176 215 258 305
#     4  10  19  32  53  80 107 136 172 214 261 311
#     4   8  15  29  50  76 104 132 165 210 258 302
#     4   9  18  34  55  79 105 134 173 218 261 308
#     4   9  19  35  56  81 107 135 170 215 261 305
#     4  10  19  33  55  81 106 134 170 211 258 311
#     4  10  22  37  52  74 105 140 177 217 261 310
#     4   9  17  30  52  80 107 136 170 210 257 308
#
# _framework density 17.733501
#
# number of rings (size 3 to 8) (size 9 to 14) (size 15 to 20)
#    0.000    2.500    0.000    3.000    0.000    6.000 
#    0.000    1.250    0.000    3.000    0.000    0.000 
#    0.000    0.000    0.000    0.000    0.000    0.000 
#
# Total GULP energy -178521.319626 kJ/mol
# GULP energy per Si atom -5578.791238 kJ/mol
# Density = 1.769314 g / cm^3
# Si number density = 17.733501 Si / 1000 Ang^3
#
#
#
# Elastic Constant Matrix: (Units=GPa)
#
#
# Indices 1 2 3 4 5 6 
#
# 1 149.9311 79.0300 102.0805 0.0000 43.5707 0.0000
# 2 79.0300 69.1299 61.1182 0.0000 15.6874 0.0000
# 3 102.0805 61.1182 76.1886 0.0000 11.4135 0.0000
# 4 0.0000 0.0000 0.0000 24.6485 0.0000 -0.5152
# 5 43.5707 15.6874 11.4135 0.0000 16.8117 0.0000
# 6 0.0000 0.0000 0.0000 -0.5152 0.0000 30.9375
#
#
#
# Elastic Compliance Matrix: (Units=1/GPa)
#
#
# Indices 1 2 3 4 5 6 
#
# 1 -0.018878 -0.016488 0.032157 0.000000 0.042481 0.000000
# 2 -0.016488 0.043482 -0.014597 0.000000 0.012068 0.000000
# 3 0.032157 -0.014597 -0.008689 0.000000 -0.063820 0.000000
# 4 0.000000 0.000000 0.000000 0.040585 0.000000 0.000676
# 5 0.042481 0.012068 -0.063820 0.000000 -0.018549 0.000000
# 6 0.000000 0.000000 0.000000 0.000676 0.000000 0.032334
#
#
# Mechanical properties :
#
#
# Convention : Reuss Voigt Hill
#
# Bulk Modulus (GPa) = 55.38016 86.63410 71.00713
# Shear Modulus (GPa) = 67.42032 18.01428 42.71730
#
# Velocity S-wave (km/s) = 6.17261 3.19067 4.91333
# Velocity P-wave (km/s) = 9.06082 7.90780 8.50387
#
# Compressibility (1/GPa) = 0.01805701
#
# Stress axis : x y z
#
# Youngs Moduli (GPa) = -52.97081 22.99798 -115.08879
#
# Poissons Ratio (x) = 0.37920 3.70089
# Poissons Ratio (y) = -0.87340 -1.68000
# Poissons Ratio (z) = 1.70337 0.33571
#
# Static dielectric constant tensor:
#      x y z
#    x 1.595150 0.000000 0.018220 
#    y 0.000000 1.594100 0.000000 
#    z 0.018220 0.000000 1.587730 
# 
# From -- ./inp_files/72155.got.cif
#   From: 2010.05.17/outbox.cif.g08.bks.cpg/sg11_37_cif.got.tgz:72155.got - 2010.06.03 12:22:45.
