data_PCOD9159047
_publ_section_title
;
Structure prediction by ZEFSAII (Michael W. Deem and Ramdas Pophale) SiO2 
 PCOD9159047
Probable space group: P 21/M
;
_chemical_formula_sum "Si O2"
_cell_formula_units_Z 28
_cell_length_a 15.369623
_cell_length_b 8.827429
_cell_length_c 12.755986
_cell_angle_alpha 90.000000
_cell_angle_beta 105.587657
_cell_angle_gamma 90.000000
_cell_volume 1667.006098
_symmetry_space_group_name_H-M "P 21/M"
_symmetry_group_IT_number 11
_symmetry_cell_setting 'monoclinic'
loop_
_space_group_symop_operation_xyz
x,y,z
-x,1/2+y,-z
-x,-y,-z
x,1/2-y,z
loop_
_atom_site_type_symbol
_atom_site_label
_atom_site_fract_x
_atom_site_fract_y
_atom_site_fract_z
Si Si1 0.783607 0.069007 0.306889
Si Si2 0.606352 0.569728 0.916131
Si Si3 0.089497 0.930889 0.251796
Si Si4 0.785464 0.068759 0.901655
Si Si5 0.882029 0.930719 0.136125
Si Si6 0.400892 0.568798 0.856365
Si Si7 0.908421 0.930171 0.518780
O O1 0.794488 0.250000 0.318377
O O2 0.678465 0.034501 0.250735
O O3 0.837366 0.009456 0.222478
O O4 0.826266 0.990828 0.421727
O O5 0.618560 0.750000 0.913804
O O6 0.682664 0.487555 0.873780
O O7 0.502640 0.532300 0.853709
O O8 0.617289 0.516610 0.040386
O O9 0.095637 0.750000 0.273468
O O10 0.163231 0.972727 0.188612
O O11 0.989206 0.960202 0.174319
O O12 0.100240 0.016544 0.364515
O O13 0.788807 0.250000 0.914273
O O14 0.837032 0.994538 0.016662
O O15 0.867615 0.750000 0.137898
O O16 0.397788 0.750000 0.877017
O O17 0.913953 0.750000 0.513790
O O18 0.000000 0.000000 0.500000
#
# Coordination Sequence:
#
# PCOD9159047 Si02
#       7
#     4   4   4   4   4   4   4
#     4  11  21  35  57  82 112 145 179 224 275 324
#     4  10  19  32  53  80 110 142 179 224 268 324
#     4  10  23  40  56  76 108 148 189 226 269 324
#     4  11  22  36  54  79 113 150 182 221 274 329
#     4  11  21  34  54  81 111 146 185 224 267 322
#     4   9  19  34  53  79 109 143 179 219 275 327
#     4  12  24  38  58  81 108 143 185 229 272 318
#
# _framework density 16.796579999999999
#
# number of rings (size 3 to 8) (size 9 to 14) (size 15 to 20)
#    0.000    1.429    2.857    3.429    0.000    2.857 
#    0.000    0.000    0.000    0.857    0.000    0.000 
#    0.000    0.000    0.000    0.000    0.000    0.000 
#
# Total GULP energy -156430.975030 kJ/mol
# GULP energy per Si atom -5586.820537 kJ/mol
# Density = 1.675835 g / cm^3
# Si number density = 16.796580 Si / 1000 Ang^3
#
#
#
# Elastic Constant Matrix: (Units=GPa)
#
#
# Indices 1 2 3 4 5 6 
#
# 1 131.8898 59.3970 67.3945 0.0000 5.1340 0.0000
# 2 59.3970 69.1276 46.5606 0.0000 1.5792 0.0000
# 3 67.3945 46.5606 81.6458 0.0000 0.9784 0.0000
# 4 0.0000 0.0000 0.0000 26.3037 0.0000 -0.5961
# 5 5.1340 1.5792 0.9784 0.0000 26.0850 0.0000
# 6 0.0000 0.0000 0.0000 -0.5961 0.0000 25.9566
#
#
#
# Elastic Compliance Matrix: (Units=1/GPa)
#
#
# Indices 1 2 3 4 5 6 
#
# 1 0.015296 -0.007478 -0.008335 0.000000 -0.002245 0.000000
# 2 -0.007478 0.027166 -0.009321 0.000000 0.000177 0.000000
# 3 -0.008335 -0.009321 0.024428 0.000000 0.001288 0.000000
# 4 0.000000 0.000000 0.000000 0.038037 0.000000 0.000873
# 5 -0.002245 0.000177 0.001288 0.000000 0.038719 0.000000
# 6 0.000000 0.000000 0.000000 0.000873 0.000000 0.038546
#
#
# Mechanical properties :
#
#
# Convention : Reuss Voigt Hill
#
# Bulk Modulus (GPa) = 60.16164 69.92971 65.04567
# Shear Modulus (GPa) = 21.00827 22.95648 21.98237
#
# Velocity S-wave (km/s) = 3.54043 3.70095 3.62158
# Velocity P-wave (km/s) = 7.25316 7.74509 7.50316
#
# Compressibility (1/GPa) = 0.01662189
#
# Stress axis : x y z
#
# Youngs Moduli (GPa) = 65.37563 36.81118 40.93589
#
# Poissons Ratio (x) = 0.27527 0.34120
# Poissons Ratio (y) = 0.48887 0.38158
# Poissons Ratio (z) = 0.54490 0.34313
#
# Static dielectric constant tensor:
#      x y z
#    x 1.573180 0.000000 0.019710 
#    y 0.000000 1.562630 0.000000 
#    z 0.019710 0.000000 1.532720 
# 
# From -- ./inp_files/37689.got.cif
#   From: 2010.05.17/outbox.cif.g08.bks.cpg/sg11_19_cif.got.tgz:37689.got - 2010.06.03 12:22:45.
