data_PCOD9159262
_publ_section_title
;
Structure prediction by ZEFSAII (Michael W. Deem and Ramdas Pophale) SiO2 
 PCOD9159262
Probable space group: P 21/M
;
_chemical_formula_sum "Si O2"
_cell_formula_units_Z 32
_cell_length_a 15.373708
_cell_length_b 8.710484
_cell_length_c 23.538902
_cell_angle_alpha 90.000000
_cell_angle_beta 140.662247
_cell_angle_gamma 90.000000
_cell_volume 1998.119453
_symmetry_space_group_name_H-M "P 21/M"
_symmetry_group_IT_number 11
_symmetry_cell_setting 'monoclinic'
loop_
_space_group_symop_operation_xyz
x,y,z
-x,1/2+y,-z
-x,-y,-z
x,1/2-y,z
loop_
_atom_site_type_symbol
_atom_site_label
_atom_site_fract_x
_atom_site_fract_y
_atom_site_fract_z
Si Si1 0.054118 0.432578 0.116632
Si Si2 0.784498 0.932629 0.579630
Si Si3 0.506908 0.433881 0.384621
Si Si4 0.206055 0.066438 0.618246
Si Si5 0.485312 0.933624 0.246614
Si Si6 0.762560 0.067276 0.692869
Si Si7 0.042947 0.932166 0.430091
Si Si8 0.203746 0.067141 0.072272
O O1 0.057512 0.250000 0.127931
O O2 0.121860 0.518671 0.203523
O O3 0.144676 0.465538 0.105869
O O4 0.901658 0.488329 0.024241
O O5 0.772923 0.750000 0.577769
O O6 0.647005 0.999698 0.481139
O O7 0.797505 0.005427 0.648252
O O8 0.909130 0.979558 0.601436
O O9 0.511423 0.250000 0.386242
O O10 0.487359 0.496049 0.310934
O O11 0.378946 0.490688 0.357365
O O12 0.192422 0.250000 0.600440
O O13 0.366280 0.032291 0.705648
O O14 0.108148 0.030237 0.621991
O O15 0.145342 0.979181 0.533033
O O16 0.470023 0.750000 0.243341
O O17 0.357010 0.002848 0.148347
O O18 0.746028 0.250000 0.683619
O O19 0.052474 0.750000 0.425202
O O20 0.201571 0.250000 0.063382
#
# Coordination Sequence:
#
# PCOD9159262 Si02
#       8
#     4   4   4   4   4   4   4   4
#     4  10  20  35  53  75 104 136 173 215 259 305
#     4  12  24  38  53  73 103 140 180 220 259 306
#     4  12  23  36  51  74 105 140 179 217 254 303
#     4   9  19  33  51  75 105 137 172 213 261 312
#     4  11  20  32  52  78 107 141 174 210 259 311
#     4  12  24  38  55  75 102 139 178 217 259 307
#     4  10  19  33  52  75 102 135 175 218 260 306
#     4  10  20  33  52  76 105 137 173 214 259 307
#
# _framework density 16.015059000000001
#
# number of rings (size 3 to 8) (size 9 to 14) (size 15 to 20)
#    0.000    1.250    2.500    5.250    0.000    2.000 
#    0.000    0.000    0.000    0.000    0.000    0.875 
#    0.000    0.000    0.000    0.000    0.000    0.000 
#
# Total GULP energy -178817.325571 kJ/mol
# GULP energy per Si atom -5588.041424 kJ/mol
# Density = 1.597861 g / cm^3
# Si number density = 16.015059 Si / 1000 Ang^3
#
#
#
# Elastic Constant Matrix: (Units=GPa)
#
#
# Indices 1 2 3 4 5 6 
#
# 1 78.8163 24.7604 32.7315 0.0000 10.2499 0.0000
# 2 24.7604 67.9481 25.7024 0.0000 5.6100 0.0000
# 3 32.7315 25.7024 49.2898 0.0000 9.9767 0.0000
# 4 0.0000 0.0000 0.0000 28.6491 0.0000 0.4010
# 5 10.2499 5.6100 9.9767 0.0000 23.8021 0.0000
# 6 0.0000 0.0000 0.0000 0.4010 0.0000 22.9366
#
#
#
# Elastic Compliance Matrix: (Units=1/GPa)
#
#
# Indices 1 2 3 4 5 6 
#
# 1 0.018047 -0.002523 -0.010070 0.000000 -0.002956 0.000000
# 2 -0.002523 0.018689 -0.008084 0.000000 0.000070 0.000000
# 3 -0.010070 -0.008084 0.032702 0.000000 -0.007465 0.000000
# 4 0.000000 0.000000 0.000000 0.034914 0.000000 -0.000610
# 5 -0.002956 0.000070 -0.007465 0.000000 0.046399 0.000000
# 6 0.000000 0.000000 0.000000 -0.000610 0.000000 0.043609
#
#
# Mechanical properties :
#
#
# Convention : Reuss Voigt Hill
#
# Bulk Modulus (GPa) = 35.60905 40.27142 37.94024
# Shear Modulus (GPa) = 20.40199 22.60155 21.50177
#
# Velocity S-wave (km/s) = 3.57308 3.76076 3.66812
# Velocity P-wave (km/s) = 6.26941 6.63765 6.45616
#
# Compressibility (1/GPa) = 0.02808275
#
# Stress axis : x y z
#
# Youngs Moduli (GPa) = 55.41148 53.50853 30.57925
#
# Poissons Ratio (x) = 0.13500 0.30794
# Poissons Ratio (y) = 0.13980 0.24720
# Poissons Ratio (z) = 0.55801 0.43256
#
# Static dielectric constant tensor:
#      x y z
#    x 1.535360 0.000000 0.016120 
#    y 0.000000 1.532660 0.000000 
#    z 0.016120 0.000000 1.512540 
# 
# From -- ./inp_files/65262.got.cif
#   From: 2010.05.17/outbox.cif.g08.bks.cpg/sg11_33_cif.got.tgz:65262.got - 2010.06.03 12:22:45.
