data_PCOD9159384
_publ_section_title
;
Structure prediction by ZEFSAII (Michael W. Deem and Ramdas Pophale) SiO2 
 PCOD9159384
Probable space group: P 21/M
;
_chemical_formula_sum "Si O2"
_cell_formula_units_Z 24
_cell_length_a 11.345584
_cell_length_b 19.562034
_cell_length_c 5.284525
_cell_angle_alpha 90.000000
_cell_angle_beta 103.358129
_cell_angle_gamma 90.000000
_cell_volume 1141.129945
_symmetry_space_group_name_H-M "P 21/M"
_symmetry_group_IT_number 11
_symmetry_cell_setting 'monoclinic'
loop_
_space_group_symop_operation_xyz
x,y,z
-x,1/2+y,-z
-x,-y,-z
x,1/2-y,z
loop_
_atom_site_type_symbol
_atom_site_label
_atom_site_fract_x
_atom_site_fract_y
_atom_site_fract_z
Si Si1 0.406264 0.095581 0.356993
Si Si2 0.850379 0.476148 0.638806
Si Si3 0.107892 0.064264 0.837205
Si Si4 0.273465 0.172784 0.673583
Si Si5 0.542658 0.173903 0.053785
Si Si6 0.389170 0.546428 0.204856
O O1 0.291132 0.131699 0.420989
O O2 0.499077 0.153277 0.311345
O O3 0.477548 0.057086 0.614192
O O4 0.384970 0.035194 0.140226
O O5 0.852554 0.509611 0.361834
O O6 0.719493 0.446852 0.647009
O O7 0.964445 0.425434 0.716936
O O8 0.877024 0.531063 0.878156
O O9 0.186153 0.130938 0.814448
O O10 0.232134 0.250000 0.613147
O O11 0.410454 0.175687 0.851830
O O12 0.595614 0.250000 0.060997
O O13 0.620014 0.109410 0.993317
#
# Coordination Sequence:
#
# PCOD9159384 Si02
#       6
#     4   4   4   4   4   4
#     4  10  19  33  53  82 110 144 189 235 284 342
#     4  10  21  37  61  82 116 143 193 239 288 327
#     4  10  21  38  57  87 111 150 187 241 285 339
#     4  10  20  34  54  81 115 148 188 236 292 345
#     4  10  21  34  51  78 115 151 185 232 294 348
#     4  10  20  32  55  83 106 149 187 239 275 346
#
# _framework density 21.031784999999999
#
# number of rings (size 3 to 8) (size 9 to 14) (size 15 to 20)
#    0.000    2.000    1.667    2.000    2.333    0.667 
#    0.000    0.833    0.000    0.000    0.000    0.000 
#    0.000    0.000    0.000    0.000    0.000    0.000 
#
# Total GULP energy -133718.866401 kJ/mol
# GULP energy per Si atom -5571.619433 kJ/mol
# Density = 2.098392 g / cm^3
# Si number density = 21.031785 Si / 1000 Ang^3
#
#
#
# Elastic Constant Matrix: (Units=GPa)
#
#
# Indices 1 2 3 4 5 6 
#
# 1 83.0917 29.3010 3.6589 0.0000 -15.6886 0.0000
# 2 29.3010 143.3549 23.7227 0.0000 -12.9955 0.0000
# 3 3.6589 23.7227 64.6140 0.0000 -10.8285 0.0000
# 4 0.0000 0.0000 0.0000 15.6058 0.0000 -3.4518
# 5 -15.6886 -12.9955 -10.8285 0.0000 28.3183 0.0000
# 6 0.0000 0.0000 0.0000 -3.4518 0.0000 22.2479
#
#
#
# Elastic Compliance Matrix: (Units=1/GPa)
#
#
# Indices 1 2 3 4 5 6 
#
# 1 0.014215 -0.002466 0.001315 0.000000 0.007246 0.000000
# 2 -0.002466 0.008028 -0.002585 0.000000 0.001329 0.000000
# 3 0.001315 -0.002585 0.017389 0.000000 0.006191 0.000000
# 4 0.000000 0.000000 0.000000 0.066356 0.000000 0.010295
# 5 0.007246 0.001329 0.006191 0.000000 0.042305 0.000000
# 6 0.000000 0.000000 0.000000 0.010295 0.000000 0.046545
#
#
# Mechanical properties :
#
#
# Convention : Reuss Voigt Hill
#
# Bulk Modulus (GPa) = 31.09548 44.93620 38.01584
# Shear Modulus (GPa) = 23.47087 28.85962 26.16524
#
# Velocity S-wave (km/s) = 3.34424 3.70833 3.53098
# Velocity P-wave (km/s) = 5.45243 6.30459 5.89393
#
# Compressibility (1/GPa) = 0.03215902
#
# Stress axis : x y z
#
# Youngs Moduli (GPa) = 70.34923 124.56337 57.50852
#
# Poissons Ratio (x) = 0.30719 -0.07562
# Poissons Ratio (y) = 0.17349 0.14866
# Poissons Ratio (z) = -0.09250 0.32200
#
# Static dielectric constant tensor:
#      x y z
#    x 1.792980 0.000000 0.024840 
#    y 0.000000 1.786310 0.000000 
#    z 0.024840 0.000000 1.871840 
# 
# From -- ./inp_files/4620.got.cif
#   From: 2010.05.17/outbox.cif.g08.bks.cpg/sg11_3_cif.got.tgz:4620.got - 2010.06.03 12:22:45.
