data_PCOD9159375
_publ_section_title
;
Structure prediction by ZEFSAII (Michael W. Deem and Ramdas Pophale) SiO2 
 PCOD9159375
Probable space group: P 21/M
;
_chemical_formula_sum "Si O2"
_cell_formula_units_Z 32
_cell_length_a 13.798843
_cell_length_b 17.096414
_cell_length_c 16.111507
_cell_angle_alpha 90.000000
_cell_angle_beta 26.176472
_cell_angle_gamma 90.000000
_cell_volume 1676.709048
_symmetry_space_group_name_H-M "P 21/M"
_symmetry_group_IT_number 11
_symmetry_cell_setting 'monoclinic'
loop_
_space_group_symop_operation_xyz
x,y,z
-x,1/2+y,-z
-x,-y,-z
x,1/2-y,z
loop_
_atom_site_type_symbol
_atom_site_label
_atom_site_fract_x
_atom_site_fract_y
_atom_site_fract_z
Si Si1 0.751673 0.844484 0.851756
Si Si2 0.106613 0.481879 0.008115
Si Si3 0.307932 0.442245 0.615479
Si Si4 0.572732 0.939326 0.658284
Si Si5 0.668272 0.659075 0.242549
Si Si6 0.225703 0.890711 0.506082
Si Si7 0.186361 0.344077 0.389778
Si Si8 0.290456 0.841289 0.269878
O O1 0.763633 0.750000 0.852015
O O2 0.754104 0.862002 0.751472
O O3 0.972008 0.878593 0.722798
O O4 0.524363 0.875517 0.064342
O O5 0.912521 0.505191 0.219401
O O6 0.318386 0.536196 0.859197
O O7 0.200940 0.394125 0.925223
O O8 0.000000 0.500000 0.000000
O O9 0.500000 0.500000 0.500000
O O10 0.376713 0.409541 0.473496
O O11 0.277450 0.375896 0.708543
O O12 0.651584 0.882324 0.669339
O O13 0.710413 0.019703 0.558536
O O14 0.717959 0.750000 0.196681
O O15 0.409003 0.643477 0.426739
O O16 0.260318 0.847179 0.391584
O O17 0.188074 0.250000 0.396352
O O18 0.934890 0.373445 0.595928
O O19 0.298920 0.750000 0.239707
#
# Coordination Sequence:
#
# PCOD9159375 Si02
#       8
#     4   4   4   4   4   4   4   4
#     4   9  18  34  56  79 113 150 181 223 282 331
#     4   9  19  37  59  75 110 147 181 225 288 333
#     4  11  20  40  61  78 113 158 188 225 294 343
#     4  11  22  36  58  82 110 149 188 233 281 340
#     4  10  20  36  59  86 116 145 190 242 279 335
#     4  10  19  33  53  80 114 143 181 228 283 332
#     4   9  20  38  56  78 110 146 186 231 277 329
#     4   9  18  34  54  77 111 150 181 226 281 330
#
# _framework density 19.085004999999999
#
# number of rings (size 3 to 8) (size 9 to 14) (size 15 to 20)
#    0.000    2.250    3.750    1.875    0.000    5.500 
#    0.000    4.375    0.000    0.000    0.000    0.000 
#    0.000    0.000    0.000    0.000    0.000    0.000 
#
# Total GULP energy -178479.536015 kJ/mol
# GULP energy per Si atom -5577.485500 kJ/mol
# Density = 1.904157 g / cm^3
# Si number density = 19.085005 Si / 1000 Ang^3
#
#
#
# Elastic Constant Matrix: (Units=GPa)
#
#
# Indices 1 2 3 4 5 6 
#
# 1 62.5080 23.0562 20.3349 0.0000 -20.1153 0.0000
# 2 23.0562 51.1900 25.5598 0.0000 -10.7081 0.0000
# 3 20.3349 25.5598 126.7122 0.0000 -23.2318 0.0000
# 4 0.0000 0.0000 0.0000 9.4842 0.0000 -4.2418
# 5 -20.1153 -10.7081 -23.2318 0.0000 24.6364 0.0000
# 6 0.0000 0.0000 0.0000 -4.2418 0.0000 34.3533
#
#
#
# Elastic Compliance Matrix: (Units=1/GPa)
#
#
# Indices 1 2 3 4 5 6 
#
# 1 0.024058 -0.007671 0.000818 0.000000 0.017080 0.000000
# 2 -0.007671 0.025043 -0.003595 0.000000 0.001231 0.000000
# 3 0.000818 -0.003595 0.010061 0.000000 0.008593 0.000000
# 4 0.000000 0.000000 0.000000 0.111602 0.000000 0.013780
# 5 0.017080 0.001231 0.008593 0.000000 0.063175 0.000000
# 6 0.000000 0.000000 0.000000 0.013780 0.000000 0.030811
#
#
# Mechanical properties :
#
#
# Convention : Reuss Voigt Hill
#
# Bulk Modulus (GPa) = 26.13287 42.03470 34.08379
# Shear Modulus (GPa) = 16.75604 25.12538 20.94071
#
# Velocity S-wave (km/s) = 2.96627 3.63229 3.31605
# Velocity P-wave (km/s) = 5.04522 6.29795 5.70607
#
# Compressibility (1/GPa) = 0.03826598
#
# Stress axis : x y z
#
# Youngs Moduli (GPa) = 41.56652 39.93176 99.39172
#
# Poissons Ratio (x) = 0.30633 -0.08131
# Poissons Ratio (y) = 0.31887 0.35727
# Poissons Ratio (z) = -0.03401 0.14354
#
# Static dielectric constant tensor:
#      x y z
#    x 1.667820 0.000000 0.004430 
#    y 0.000000 1.661570 0.000000 
#    z 0.004430 0.000000 1.704090 
# 
# From -- ./inp_files/50646.got.cif
#   From: 2010.05.17/outbox.cif.g08.bks.cpg/sg11_26_cif.got.tgz:50646.got - 2010.06.03 12:22:45.
