data_PCOD9159643
_publ_section_title
;
Structure prediction by ZEFSAII (Michael W. Deem and Ramdas Pophale) SiO2 
 PCOD9159643
Probable space group: P 21/M
;
_chemical_formula_sum "Si O2"
_cell_formula_units_Z 28
_cell_length_a 9.273570
_cell_length_b 19.100604
_cell_length_c 12.777765
_cell_angle_alpha 90.000000
_cell_angle_beta 31.947824
_cell_angle_gamma 90.000000
_cell_volume 1197.636728
_symmetry_space_group_name_H-M "P 21/M"
_symmetry_group_IT_number 11
_symmetry_cell_setting 'monoclinic'
loop_
_space_group_symop_operation_xyz
x,y,z
-x,1/2+y,-z
-x,-y,-z
x,1/2-y,z
loop_
_atom_site_type_symbol
_atom_site_label
_atom_site_fract_x
_atom_site_fract_y
_atom_site_fract_z
Si Si1 0.720414 0.451684 0.303220
Si Si2 0.348048 0.328578 0.771236
Si Si3 0.962437 0.830567 0.813464
Si Si4 0.284913 0.061935 0.426810
Si Si5 0.004129 0.581731 0.174117
Si Si6 0.169168 0.595814 0.427370
Si Si7 0.487838 0.584348 0.011704
O O1 0.500000 0.500000 0.500000
O O2 0.603542 0.438890 0.259409
O O3 0.987492 0.499902 0.149580
O O4 0.775744 0.377888 0.322295
O O5 0.348398 0.250000 0.729399
O O6 0.170344 0.376803 0.803891
O O7 0.656532 0.352630 0.607880
O O8 0.193777 0.329436 0.978153
O O9 0.004003 0.750000 0.757322
O O10 0.769453 0.874236 0.853579
O O11 0.152416 0.087312 0.617337
O O12 0.142428 0.102842 0.419887
O O13 0.203100 0.981084 0.457152
O O14 0.303970 0.605238 0.025040
O O15 0.326592 0.597526 0.219289
O O16 0.500000 0.500000 0.000000
#
# Coordination Sequence:
#
# PCOD9159643 Si02
#       7
#     4   4   4   4   4   4   4
#     4  10  19  34  58  83 114 148 200 245 284 353
#     4  10  21  36  55  84 119 152 194 248 309 362
#     4  10  22  39  58  82 121 159 189 243 316 367
#     4   9  18  33  55  81 115 148 194 245 284 339
#     4  10  19  33  57  87 114 147 199 248 280 343
#     4   9  18  33  55  82 113 153 192 239 301 341
#     4  10  19  33  56  89 114 148 202 245 288 355
#
# _framework density 23.379379
#
# number of rings (size 3 to 8) (size 9 to 14) (size 15 to 20)
#    0.000    2.286    2.857    0.000    0.000    2.286 
#    0.000    5.714    0.000    0.000    0.000    1.000 
#    0.000    0.000    0.000    0.000    0.000    0.000 
#
# Total GULP energy -156382.759429 kJ/mol
# GULP energy per Si atom -5585.098551 kJ/mol
# Density = 2.332617 g / cm^3
# Si number density = 23.379379 Si / 1000 Ang^3
#
#
#
# Elastic Constant Matrix: (Units=GPa)
#
#
# Indices 1 2 3 4 5 6 
#
# 1 221.9649 78.3817 34.4499 0.0000 -28.2015 0.0000
# 2 78.3817 139.4928 14.1888 0.0000 -24.0164 0.0000
# 3 34.4499 14.1888 65.4618 0.0000 -12.9874 0.0000
# 4 0.0000 0.0000 0.0000 25.7885 0.0000 -1.4787
# 5 -28.2015 -24.0164 -12.9874 0.0000 50.2888 0.0000
# 6 0.0000 0.0000 0.0000 -1.4787 0.0000 30.1575
#
#
#
# Elastic Compliance Matrix: (Units=1/GPa)
#
#
# Indices 1 2 3 4 5 6 
#
# 1 0.006077 -0.002939 -0.002280 0.000000 0.001415 0.000000
# 2 -0.002939 0.009296 0.000090 0.000000 0.002814 0.000000
# 3 -0.002280 0.000090 0.017087 0.000000 0.003177 0.000000
# 4 0.000000 0.000000 0.000000 0.038886 0.000000 0.001907
# 5 0.001415 0.002814 0.003177 0.000000 0.022844 0.000000
# 6 0.000000 0.000000 0.000000 0.001907 0.000000 0.033253
#
#
# Mechanical properties :
#
#
# Convention : Reuss Voigt Hill
#
# Bulk Modulus (GPa) = 45.04205 75.66226 60.35215
# Shear Modulus (GPa) = 34.45898 41.24021 37.84959
#
# Velocity S-wave (km/s) = 3.84331 4.20450 4.02796
# Velocity P-wave (km/s) = 6.24518 7.48355 6.89224
#
# Compressibility (1/GPa) = 0.02220148
#
# Stress axis : x y z
#
# Youngs Moduli (GPa) = 164.56167 107.57742 58.52462
#
# Poissons Ratio (x) = 0.31616 0.13344
# Poissons Ratio (y) = 0.48364 -0.00528
# Poissons Ratio (z) = 0.37522 -0.00970
#
# Static dielectric constant tensor:
#      x y z
#    x 1.908140 0.000000 -0.014540 
#    y 0.000000 1.827570 0.000000 
#    z -0.014540 0.000000 2.125290 
# 
# From -- ./inp_files/47995.got.cif
#   From: 2010.05.17/outbox.cif.g08.bks.cpg/sg11_24_cif.got.tgz:47995.got - 2010.06.03 12:22:45.
