data_PCOD9159988
_publ_section_title
;
Structure prediction by ZEFSAII (Michael W. Deem and Ramdas Pophale) SiO2 
 PCOD9159988
Probable space group: P 21/M
;
_chemical_formula_sum "Si O2"
_cell_formula_units_Z 24
_cell_length_a 9.072045
_cell_length_b 17.296823
_cell_length_c 9.060266
_cell_angle_alpha 90.000000
_cell_angle_beta 59.180543
_cell_angle_gamma 90.000000
_cell_volume 1220.948717
_symmetry_space_group_name_H-M "P 21/M"
_symmetry_group_IT_number 11
_symmetry_cell_setting 'monoclinic'
loop_
_space_group_symop_operation_xyz
x,y,z
-x,1/2+y,-z
-x,-y,-z
x,1/2-y,z
loop_
_atom_site_type_symbol
_atom_site_label
_atom_site_fract_x
_atom_site_fract_y
_atom_site_fract_z
Si Si1 0.803954 0.340863 0.662137
Si Si2 0.785233 0.159232 0.012197
Si Si3 0.922761 0.579050 0.977167
Si Si4 0.088367 0.070289 0.369423
Si Si5 0.571612 0.658783 0.162015
Si Si6 0.464163 0.423051 0.117463
O O1 0.779064 0.250000 0.680995
O O2 0.828583 0.365478 0.820293
O O3 0.971859 0.359555 0.484010
O O4 0.619803 0.369588 0.693325
O O5 0.740492 0.250000 0.037664
O O6 0.944436 0.143769 0.036301
O O7 0.626008 0.103295 0.130070
O O8 0.732938 0.606240 0.126259
O O9 0.919153 0.568201 0.803327
O O10 0.000000 0.500000 0.000000
O O11 0.290409 0.069979 0.298119
O O12 0.000000 0.000000 0.500000
O O13 0.597559 0.750000 0.182552
O O14 0.562431 0.645626 0.989221
O O15 0.500000 0.500000 0.000000
#
# Coordination Sequence:
#
# PCOD9159988 Si02
#       6
#     4   4   4   4   4   4
#     4   9  19  36  58  81 109 141 179 225 277 331
#     4  10  20  37  58  83 113 146 183 230 280 331
#     4  11  22  36  57  82 110 146 189 233 275 328
#     4  11  22  36  57  82 111 144 185 233 277 327
#     4   9  18  35  57  79 106 147 187 220 266 338
#     4  10  19  34  57  81 110 148 190 225 265 333
#
# _framework density 19.656846000000002
#
# number of rings (size 3 to 8) (size 9 to 14) (size 15 to 20)
#    0.000    2.000    0.000    7.000    0.000    4.000 
#    0.000    5.000    0.000    0.000    0.000    0.000 
#    0.000    0.000    0.000    0.000    0.000    0.000 
#
# Total GULP energy -133743.914685 kJ/mol
# GULP energy per Si atom -5572.663112 kJ/mol
# Density = 1.961211 g / cm^3
# Si number density = 19.656846 Si / 1000 Ang^3
#
#
#
# Elastic Constant Matrix: (Units=GPa)
#
#
# Indices 1 2 3 4 5 6 
#
# 1 96.9606 22.1969 26.5859 0.0000 -24.6275 0.0000
# 2 22.1969 69.6170 15.1935 0.0000 -9.3113 0.0000
# 3 26.5859 15.1935 81.7967 0.0000 -32.3534 0.0000
# 4 0.0000 0.0000 0.0000 28.7169 0.0000 -1.3495
# 5 -24.6275 -9.3113 -32.3534 0.0000 35.9366 0.0000
# 6 0.0000 0.0000 0.0000 -1.3495 0.0000 35.8552
#
#
#
# Elastic Compliance Matrix: (Units=1/GPa)
#
#
# Indices 1 2 3 4 5 6 
#
# 1 0.013122 -0.003016 -0.000710 0.000000 0.007572 0.000000
# 2 -0.003016 0.015771 -0.001787 0.000000 0.000411 0.000000
# 3 -0.000710 -0.001787 0.019277 0.000000 0.016406 0.000000
# 4 0.000000 0.000000 0.000000 0.034884 0.000000 0.001313
# 5 0.007572 0.000411 0.016406 0.000000 0.047892 0.000000
# 6 0.000000 0.000000 0.000000 0.001313 0.000000 0.027939
#
#
# Mechanical properties :
#
#
# Convention : Reuss Voigt Hill
#
# Bulk Modulus (GPa) = 26.92166 41.81409 34.36787
# Shear Modulus (GPa) = 27.42855 32.39494 29.91175
#
# Velocity S-wave (km/s) = 3.73952 4.06399 3.90512
# Velocity P-wave (km/s) = 5.68954 6.58328 6.15266
#
# Compressibility (1/GPa) = 0.03714482
#
# Stress axis : x y z
#
# Youngs Moduli (GPa) = 76.20917 63.40812 51.87559
#
# Poissons Ratio (x) = 0.19125 0.03681
# Poissons Ratio (y) = 0.22986 0.09268
# Poissons Ratio (z) = 0.05408 0.11328
#
# Static dielectric constant tensor:
#      x y z
#    x 1.747650 0.000000 -0.059990 
#    y 0.000000 1.814750 0.000000 
#    z -0.059990 0.000000 1.717480 
# 
# From -- ./inp_files/14110.got.cif
#   From: 2010.05.17/outbox.cif.g08.bks.cpg/sg11_8_cif.got.tgz:14110.got - 2010.06.03 12:22:45.
