data_PCOD9159807
_publ_section_title
;
Structure prediction by ZEFSAII (Michael W. Deem and Ramdas Pophale) SiO2 
 PCOD9159807
Probable space group: P 21/M
;
_chemical_formula_sum "Si O2"
_cell_formula_units_Z 32
_cell_length_a 12.930414
_cell_length_b 7.796749
_cell_length_c 32.542061
_cell_angle_alpha 90.000000
_cell_angle_beta 28.043785
_cell_angle_gamma 90.000000
_cell_volume 1542.424583
_symmetry_space_group_name_H-M "P 21/M"
_symmetry_group_IT_number 11
_symmetry_cell_setting 'monoclinic'
loop_
_space_group_symop_operation_xyz
x,y,z
-x,1/2+y,-z
-x,-y,-z
x,1/2-y,z
loop_
_atom_site_type_symbol
_atom_site_label
_atom_site_fract_x
_atom_site_fract_y
_atom_site_fract_z
Si Si1 0.869272 0.461248 0.176885
Si Si2 0.778952 0.454672 0.300621
Si Si3 0.885255 0.538499 0.673155
Si Si4 0.501431 0.051046 0.241853
Si Si5 0.611490 0.453882 0.504223
Si Si6 0.345350 0.058877 0.982828
Si Si7 0.807815 0.953617 0.793106
Si Si8 0.233285 0.945892 0.935304
O O1 0.876900 0.250000 0.170929
O O2 0.797599 0.515175 0.247401
O O3 0.684134 0.520904 0.209093
O O4 0.120893 0.519264 0.080105
O O5 0.810119 0.250000 0.287621
O O6 0.548554 0.486963 0.403462
O O7 0.978022 0.524733 0.258860
O O8 0.875886 0.750000 0.675599
O O9 0.737234 0.477495 0.686505
O O10 0.799155 0.483410 0.748795
O O11 0.138214 0.482355 0.581322
O O12 0.470139 0.250000 0.265720
O O13 0.610566 0.048851 0.158559
O O14 0.500000 0.500000 0.500000
O O15 0.624498 0.250000 0.501444
O O16 0.366740 0.250000 0.992606
O O17 0.588280 0.979052 0.897147
O O18 0.294365 0.061578 0.952061
O O19 0.837029 0.750000 0.778576
O O20 0.233365 0.750000 0.950801
O O21 0.000000 0.000000 0.000000
#
# Coordination Sequence:
#
# PCOD9159807 Si02
#       8
#     4   4   4   4   4   4   4   4
#     4   9  19  35  54  76 107 151 192 223 264 327
#     4  10  21  39  59  78 107 147 189 226 270 337
#     4   9  17  31  53  82 110 137 173 220 276 335
#     4   9  16  30  53  77 104 141 183 218 261 325
#     4  11  21  36  60  88 112 138 177 227 283 334
#     4  11  21  33  51  82 114 144 188 235 275 323
#     4  10  19  34  54  79 109 145 181 222 280 336
#     4  11  19  30  51  78 108 145 187 232 276 323
#
# _framework density 20.746556999999999
#
# number of rings (size 3 to 8) (size 9 to 14) (size 15 to 20)
#    0.000    2.000    3.750    1.125    0.000    1.000 
#    0.000    1.875    0.000    0.000    0.000    0.000 
#    0.000    0.000    0.000    0.000    0.000    0.000 
#
# Total GULP energy -178410.798939 kJ/mol
# GULP energy per Si atom -5575.337467 kJ/mol
# Density = 2.069934 g / cm^3
# Si number density = 20.746557 Si / 1000 Ang^3
#
#
#
# Elastic Constant Matrix: (Units=GPa)
#
#
# Indices 1 2 3 4 5 6 
#
# 1 69.5397 6.8418 71.2169 0.0000 -7.2494 0.0000
# 2 6.8418 23.3378 -2.4442 0.0000 2.9479 0.0000
# 3 71.2169 -2.4442 151.2430 0.0000 -12.2364 0.0000
# 4 0.0000 0.0000 0.0000 14.0788 0.0000 -0.1741
# 5 -7.2494 2.9479 -12.2364 0.0000 39.2679 0.0000
# 6 0.0000 0.0000 0.0000 -0.1741 0.0000 8.6180
#
#
#
# Elastic Compliance Matrix: (Units=1/GPa)
#
#
# Indices 1 2 3 4 5 6 
#
# 1 0.030205 -0.010590 -0.014237 0.000000 0.001935 0.000000
# 2 -0.010590 0.047002 0.005440 0.000000 -0.003789 0.000000
# 3 -0.014237 0.005440 0.013498 0.000000 0.001170 0.000000
# 4 0.000000 0.000000 0.000000 0.071047 0.000000 0.001436
# 5 0.001935 -0.003789 0.001170 0.000000 0.026472 0.000000
# 6 0.000000 0.000000 0.000000 0.001436 0.000000 0.116065
#
#
# Mechanical properties :
#
#
# Convention : Reuss Voigt Hill
#
# Bulk Modulus (GPa) = 19.25691 43.92771 31.59231
# Shear Modulus (GPa) = 13.87446 23.62667 18.75057
#
# Velocity S-wave (km/s) = 2.58884 3.37831 3.00957
# Velocity P-wave (km/s) = 4.27063 6.03629 5.22853
#
# Compressibility (1/GPa) = 0.05192941
#
# Stress axis : x y z
#
# Youngs Moduli (GPa) = 33.10765 21.27568 74.08290
#
# Poissons Ratio (x) = 0.22532 1.05474
# Poissons Ratio (y) = 0.35062 -0.40300
# Poissons Ratio (z) = 0.47136 -0.11574
#
# Static dielectric constant tensor:
#      x y z
#    x 1.747080 0.000000 -0.052500 
#    y 0.000000 1.785010 0.000000 
#    z -0.052500 0.000000 1.745230 
# 
# From -- ./inp_files/73089.got.cif
#   From: 2010.05.17/outbox.cif.g08.bks.cpg/sg11_37_cif.got.tgz:73089.got - 2010.06.03 12:22:45.
