data_PCOD9159250
_publ_section_title
;
Structure prediction by ZEFSAII (Michael W. Deem and Ramdas Pophale) SiO2 
 PCOD9159250
Probable space group: P 21/M
;
_chemical_formula_sum "Si O2"
_cell_formula_units_Z 32
_cell_length_a 23.127034
_cell_length_b 8.240351
_cell_length_c 21.611994
_cell_angle_alpha 90.000000
_cell_angle_beta 155.253077
_cell_angle_gamma 90.000000
_cell_volume 1724.134290
_symmetry_space_group_name_H-M "P 21/M"
_symmetry_group_IT_number 11
_symmetry_cell_setting 'monoclinic'
loop_
_space_group_symop_operation_xyz
x,y,z
-x,1/2+y,-z
-x,-y,-z
x,1/2-y,z
loop_
_atom_site_type_symbol
_atom_site_label
_atom_site_fract_x
_atom_site_fract_y
_atom_site_fract_z
Si Si1 0.194066 0.445317 0.065136
Si Si2 0.213361 0.559528 0.744901
Si Si3 0.431277 0.059070 0.047702
Si Si4 0.736685 0.559951 0.340264
Si Si5 0.757041 0.555741 0.023078
Si Si6 0.343941 0.445970 0.336813
Si Si7 0.927781 0.555713 0.866082
Si Si8 0.983557 0.446267 0.333888
O O1 0.203251 0.250000 0.074628
O O2 0.281831 0.503211 0.210101
O O3 0.248778 0.507647 0.052469
O O4 0.032371 0.488725 0.916503
O O5 0.193013 0.750000 0.712456
O O6 0.209419 0.464005 0.677318
O O7 0.102278 0.504039 0.688119
O O8 0.360207 0.532868 0.921506
O O9 0.400028 0.250000 0.009791
O O10 0.593691 0.032962 0.207645
O O11 0.358295 0.998617 0.039986
O O12 0.711159 0.750000 0.326208
O O13 0.858714 0.503052 0.504016
O O14 0.743739 0.750000 0.006809
O O15 0.902476 0.513469 0.196421
O O16 0.500000 0.500000 0.500000
O O17 0.342291 0.250000 0.334195
O O18 0.231658 0.497446 0.280113
O O19 0.929617 0.750000 0.864117
O O20 0.000000 0.500000 0.000000
O O21 0.978695 0.250000 0.327210
#
# Coordination Sequence:
#
# PCOD9159250 Si02
#       8
#     4   4   4   4   4   4   4   4
#     4   9  18  34  54  76  99 129 168 208 244 287
#     4  10  19  33  52  73  96 126 163 203 249 304
#     4  10  20  34  51  72  98 130 165 204 247 297
#     4  11  21  33  49  72 100 128 159 203 254 301
#     4   9  19  36  56  73  94 127 169 208 244 289
#     4   9  18  31  49  75 108 135 160 196 240 284
#     4   9  17  30  49  75 103 132 164 201 239 282
#     4   9  20  35  51  72  99 127 159 203 252 296
#
# _framework density 18.560037999999999
#
# number of rings (size 3 to 8) (size 9 to 14) (size 15 to 20)
#    0.000    2.500    0.000    3.000    0.000    5.000 
#    0.000    1.250    0.000    4.500    0.000    0.000 
#    0.000    0.000    0.000    0.000    0.000    0.000 
#
# Total GULP energy -178413.857584 kJ/mol
# GULP energy per Si atom -5575.433049 kJ/mol
# Density = 1.851779 g / cm^3
# Si number density = 18.560038 Si / 1000 Ang^3
#
#
#
# Elastic Constant Matrix: (Units=GPa)
#
#
# Indices 1 2 3 4 5 6 
#
# 1 54.3425 -0.9081 11.4675 0.0000 -13.6922 0.0000
# 2 -0.9081 8.7704 -4.4726 0.0000 -1.0230 0.0000
# 3 11.4675 -4.4726 93.7137 0.0000 2.5640 0.0000
# 4 0.0000 0.0000 0.0000 23.5633 0.0000 0.6678
# 5 -13.6922 -1.0230 2.5640 0.0000 13.2467 0.0000
# 6 0.0000 0.0000 0.0000 0.6678 0.0000 17.9539
#
#
#
# Elastic Compliance Matrix: (Units=1/GPa)
#
#
# Indices 1 2 3 4 5 6 
#
# 1 0.026422 0.004100 -0.003814 0.000000 0.028365 0.000000
# 2 0.004100 0.118347 0.004806 0.000000 0.012447 0.000000
# 3 -0.003814 0.004806 0.011526 0.000000 -0.005802 0.000000
# 4 0.000000 0.000000 0.000000 0.042484 0.000000 -0.001580
# 5 0.028365 0.012447 -0.005802 0.000000 0.106894 0.000000
# 6 0.000000 0.000000 0.000000 -0.001580 0.000000 0.055757
#
#
# Mechanical properties :
#
#
# Convention : Reuss Voigt Hill
#
# Bulk Modulus (GPa) = 6.00676 18.77780 12.39228
# Shear Modulus (GPa) = 12.29292 21.00211 16.64751
#
# Velocity S-wave (km/s) = 2.57637 3.36754 2.99817
# Velocity P-wave (km/s) = 3.47760 5.02591 4.32166
#
# Compressibility (1/GPa) = 0.16647919
#
# Stress axis : x y z
#
# Youngs Moduli (GPa) = 37.84710 8.44972 86.76364
#
# Poissons Ratio (x) = -0.03464 0.33088
# Poissons Ratio (y) = -0.15517 -0.41699
# Poissons Ratio (z) = 0.14433 -0.04061
#
# Static dielectric constant tensor:
#      x y z
#    x 1.661890 0.000000 0.021140 
#    y 0.000000 1.641150 0.000000 
#    z 0.021140 0.000000 1.644790 
# 
# From -- ./inp_files/70007.got.cif
#   From: 2010.05.17/outbox.cif.g08.bks.cpg/sg11_36_cif.got.tgz:70007.got - 2010.06.03 12:22:45.
