data_PCOD9159022
_publ_section_title
;
Structure prediction by ZEFSAII (Michael W. Deem and Ramdas Pophale) SiO2 
 PCOD9159022
Probable space group: P 21/M
;
_chemical_formula_sum "Si O2"
_cell_formula_units_Z 20
_cell_length_a 21.304382
_cell_length_b 7.805335
_cell_length_c 8.690331
_cell_angle_alpha 90.000000
_cell_angle_beta 52.323332
_cell_angle_gamma 90.000000
_cell_volume 1143.754018
_symmetry_space_group_name_H-M "P 21/M"
_symmetry_group_IT_number 11
_symmetry_cell_setting 'monoclinic'
loop_
_space_group_symop_operation_xyz
x,y,z
-x,1/2+y,-z
-x,-y,-z
x,1/2-y,z
loop_
_atom_site_type_symbol
_atom_site_label
_atom_site_fract_x
_atom_site_fract_y
_atom_site_fract_z
Si Si1 0.085496 0.945467 0.435813
Si Si2 0.382362 0.250000 0.364123
Si Si3 0.200817 0.250000 0.261889
Si Si4 0.085392 0.945338 0.808007
Si Si5 0.617590 0.750000 0.004094
Si Si6 0.517791 0.057897 0.645931
Si Si7 0.799598 0.750000 0.362220
O O1 0.103064 0.750000 0.363197
O O2 0.081799 0.951033 0.627370
O O3 0.151704 0.082188 0.286556
O O4 0.000000 0.000000 0.500000
O O5 0.383055 0.250000 0.178550
O O6 0.428087 0.417288 0.355347
O O7 0.291077 0.250000 0.554475
O O8 0.292112 0.250000 0.074776
O O9 0.201757 0.250000 0.448103
O O10 0.103010 0.750000 0.827890
O O11 0.151355 0.082077 0.759732
O O12 0.000000 0.000000 0.000000
O O13 0.566273 0.589032 0.142211
O O14 0.554111 0.250000 0.592603
O O15 0.500000 0.000000 0.500000
#
# Coordination Sequence:
#
# PCOD9159022 Si02
#       7
#     4   2   2   4   2   4   2
#     4  10  19  32  53  78 105 146 182 223 271 318
#     4  11  19  39  61  88 113 140 199 242 277 343
#     4   9  18  37  51  78 117 134 185 232 273 317
#     4  10  19  33  53  77 108 145 185 222 271 321
#     4   9  21  37  61  88 109 148 191 244 277 335
#     4  10  21  38  60  83 117 153 180 224 300 345
#     4   9  20  33  55  80 111 144 175 238 277 311
#
# _framework density 17.486277999999999
#
# number of rings (size 3 to 8) (size 9 to 14) (size 15 to 20)
#    0.600    1.600    3.000    0.600    0.000    0.800 
#    1.800    6.000    0.000    0.000    0.000    0.000 
#    0.000    0.000    0.000    0.000    0.000    0.000 
#
# Total GULP energy -111461.986493 kJ/mol
# GULP energy per Si atom -5573.099325 kJ/mol
# Density = 1.744648 g / cm^3
# Si number density = 17.486278 Si / 1000 Ang^3
#
#
#
# Elastic Constant Matrix: (Units=GPa)
#
#
# Indices 1 2 3 4 5 6 
#
# 1 111.4003 81.4629 49.3851 0.0000 -38.9344 0.0000
# 2 81.4629 193.0015 58.8044 0.0000 -35.5782 0.0000
# 3 49.3851 58.8044 79.4233 0.0000 -32.4531 0.0000
# 4 0.0000 0.0000 0.0000 26.4576 0.0000 -3.6294
# 5 -38.9344 -35.5782 -32.4531 0.0000 37.9192 0.0000
# 6 0.0000 0.0000 0.0000 -3.6294 0.0000 29.2685
#
#
#
# Elastic Compliance Matrix: (Units=1/GPa)
#
#
# Indices 1 2 3 4 5 6 
#
# 1 0.017429 -0.004369 -0.003022 0.000000 0.011210 0.000000
# 2 -0.004369 0.008037 -0.003054 0.000000 0.000441 0.000000
# 3 -0.003022 -0.003054 0.021978 0.000000 0.012842 0.000000
# 4 0.000000 0.000000 0.000000 0.038450 0.000000 0.004768
# 5 0.011210 0.000441 0.012842 0.000000 0.049287 0.000000
# 6 0.000000 0.000000 0.000000 0.004768 0.000000 0.034758
#
#
# Mechanical properties :
#
#
# Convention : Reuss Voigt Hill
#
# Bulk Modulus (GPa) = 37.65791 84.79223 61.22507
# Shear Modulus (GPa) = 25.03995 31.67391 28.35693
#
# Velocity S-wave (km/s) = 3.78825 4.26062 4.03136
# Velocity P-wave (km/s) = 6.38098 8.53228 7.53382
#
# Compressibility (1/GPa) = 0.02655485
#
# Stress axis : x y z
#
# Youngs Moduli (GPa) = 57.37413 124.41979 45.50028
#
# Poissons Ratio (x) = 0.54365 0.13750
# Poissons Ratio (y) = 0.25070 0.13894
# Poissons Ratio (z) = 0.17338 0.37992
#
# Static dielectric constant tensor:
#      x y z
#    x 1.569650 0.000000 0.010800 
#    y 0.000000 1.609560 0.000000 
#    z 0.010800 0.000000 1.592460 
# 
# From -- ./inp_files/25453.got.cif
#   From: 2010.05.17/outbox.cif.g08.bks.cpg/sg11_13_cif.got.tgz:25453.got - 2010.06.03 12:22:45.
