data_PCOD9159512
_publ_section_title
;
Structure prediction by ZEFSAII (Michael W. Deem and Ramdas Pophale) SiO2 
 PCOD9159512
Probable space group: P 21/M
;
_chemical_formula_sum "Si O2"
_cell_formula_units_Z 28
_cell_length_a 18.394969
_cell_length_b 7.500751
_cell_length_c 16.228844
_cell_angle_alpha 90.000000
_cell_angle_beta 35.217010
_cell_angle_gamma 90.000000
_cell_volume 1291.285970
_symmetry_space_group_name_H-M "P 21/M"
_symmetry_group_IT_number 11
_symmetry_cell_setting 'monoclinic'
loop_
_space_group_symop_operation_xyz
x,y,z
-x,1/2+y,-z
-x,-y,-z
x,1/2-y,z
loop_
_atom_site_type_symbol
_atom_site_label
_atom_site_fract_x
_atom_site_fract_y
_atom_site_fract_z
Si Si1 0.471196 0.451262 0.170475
Si Si2 0.669058 0.033935 0.118079
Si Si3 0.040800 0.038099 0.196855
Si Si4 0.059891 0.462961 0.356783
Si Si5 0.637752 0.036372 0.335075
Si Si6 0.666476 0.531221 0.848411
Si Si7 0.099416 0.535781 0.834690
O O1 0.437986 0.250000 0.226659
O O2 0.554247 0.533348 0.166561
O O3 0.352391 0.527449 0.229592
O O4 0.566806 0.451400 0.004432
O O5 0.663563 0.250000 0.120431
O O6 0.649914 0.972585 0.229528
O O7 0.809081 0.985349 0.957745
O O8 0.017953 0.250000 0.217892
O O9 0.007050 0.966954 0.319029
O O10 0.960910 0.964610 0.194184
O O11 0.063049 0.250000 0.345188
O O12 0.201975 0.526225 0.236259
O O13 0.000000 0.500000 0.500000
O O14 0.649778 0.250000 0.320571
O O15 0.760178 0.969698 0.272311
O O16 0.500000 0.000000 0.500000
O O17 0.659162 0.750000 0.857123
O O18 0.108393 0.750000 0.819574
O O19 0.000000 0.500000 0.000000
#
# Coordination Sequence:
#
# PCOD9159512 Si02
#       7
#     4   4   4   4   4   4   4
#     4   9  17  29  50  76 100 127 164 212 260 305
#     4  10  19  33  55  81 107 136 176 225 271 324
#     4  10  20  35  57  82 107 139 182 229 275 327
#     4  10  21  36  52  73 105 142 180 223 270 320
#     4  10  22  39  56  80 114 147 180 224 277 334
#     4   9  17  31  49  71 100 131 166 209 257 309
#     4  10  20  36  60  87 114 143 184 234 280 334
#
# _framework density 21.683810999999999
#
# number of rings (size 3 to 8) (size 9 to 14) (size 15 to 20)
#    0.000    2.286    2.857    0.000    0.000    2.286 
#    2.571    0.000    0.000    0.000    0.000    0.000 
#    0.000    0.000    0.000    0.000    0.000    0.000 
#
# Total GULP energy -156047.619972 kJ/mol
# GULP energy per Si atom -5573.129285 kJ/mol
# Density = 2.163446 g / cm^3
# Si number density = 21.683811 Si / 1000 Ang^3
#
#
#
# Elastic Constant Matrix: (Units=GPa)
#
#
# Indices 1 2 3 4 5 6 
#
# 1 233.3309 13.8370 57.3797 0.0000 31.3436 0.0000
# 2 13.8370 62.2716 -7.7658 0.0000 0.6114 0.0000
# 3 57.3797 -7.7658 85.1102 0.0000 19.6986 0.0000
# 4 0.0000 0.0000 0.0000 23.6379 0.0000 -0.6961
# 5 31.3436 0.6114 19.6986 0.0000 31.1541 0.0000
# 6 0.0000 0.0000 0.0000 -0.6961 0.0000 9.1793
#
#
#
# Elastic Compliance Matrix: (Units=1/GPa)
#
#
# Indices 1 2 3 4 5 6 
#
# 1 0.005636 -0.001602 -0.003094 0.000000 -0.003683 0.000000
# 2 -0.001602 0.016757 0.002708 0.000000 -0.000430 0.000000
# 3 -0.003094 0.002708 0.015667 0.000000 -0.006847 0.000000
# 4 0.000000 0.000000 0.000000 0.042400 0.000000 0.003215
# 5 -0.003683 -0.000430 -0.006847 0.000000 0.040142 0.000000
# 6 0.000000 0.000000 0.000000 0.003215 0.000000 0.109184
#
#
# Mechanical properties :
#
#
# Convention : Reuss Voigt Hill
#
# Bulk Modulus (GPa) = 29.33803 56.40161 42.86982
# Shear Modulus (GPa) = 20.39805 33.94506 27.17155
#
# Velocity S-wave (km/s) = 3.07042 3.96088 3.54373
# Velocity P-wave (km/s) = 5.11168 6.85459 6.04627
#
# Compressibility (1/GPa) = 0.03408546
#
# Stress axis : x y z
#
# Youngs Moduli (GPa) = 177.42216 59.67781 63.82860
#
# Poissons Ratio (x) = 0.09561 0.19746
# Poissons Ratio (y) = 0.28424 -0.17288
# Poissons Ratio (z) = 0.54888 -0.16163
#
# Static dielectric constant tensor:
#      x y z
#    x 1.878740 0.000000 -0.026680 
#    y 0.000000 1.794530 0.000000 
#    z -0.026680 0.000000 1.808960 
# 
# From -- ./inp_files/53203.got.cif
#   From: 2010.05.17/outbox.cif.g08.bks.cpg/sg11_27_cif.got.tgz:53203.got - 2010.06.03 12:22:45.
