data_PCOD9159607
_publ_section_title
;
Structure prediction by ZEFSAII (Michael W. Deem and Ramdas Pophale) SiO2 
 PCOD9159607
Probable space group: P 21/M
;
_chemical_formula_sum "Si O2"
_cell_formula_units_Z 24
_cell_length_a 7.938252
_cell_length_b 10.259098
_cell_length_c 13.068558
_cell_angle_alpha 90.000000
_cell_angle_beta 98.032824
_cell_angle_gamma 90.000000
_cell_volume 1053.851615
_symmetry_space_group_name_H-M "P 21/M"
_symmetry_group_IT_number 11
_symmetry_cell_setting 'monoclinic'
loop_
_space_group_symop_operation_xyz
x,y,z
-x,1/2+y,-z
-x,-y,-z
x,1/2-y,z
loop_
_atom_site_type_symbol
_atom_site_label
_atom_site_fract_x
_atom_site_fract_y
_atom_site_fract_z
Si Si1 0.226018 0.250000 0.033367
Si Si2 0.243208 0.750000 0.046747
Si Si3 0.002789 0.593586 0.344632
Si Si4 0.758028 0.404018 0.454724
Si Si5 0.375956 0.250000 0.826674
Si Si6 0.845633 0.997792 0.843030
Si Si7 0.386905 0.750000 0.847545
Si Si8 0.535053 0.491175 0.278841
O O1 0.143918 0.374560 0.081688
O O2 0.423567 0.250000 0.087454
O O3 0.243510 0.250000 0.910872
O O4 0.438119 0.750000 0.103643
O O5 0.159707 0.623417 0.086180
O O6 0.252968 0.750000 0.926590
O O7 0.962950 0.750000 0.334171
O O8 0.181949 0.586938 0.422882
O O9 0.022787 0.526821 0.236137
O O10 0.878269 0.503937 0.401707
O O11 0.781737 0.250000 0.431146
O O12 0.574704 0.451619 0.398812
O O13 0.381177 0.124263 0.754477
O O14 0.661671 0.990031 0.770331
O O15 0.376604 0.622457 0.779001
#
# Coordination Sequence:
#
# PCOD9159607 Si02
#       8
#     2   2   4   4   2   4   2   4
#     4   9  18  30  50  83 116 142 175 219 264 321
#     4   9  16  30  52  79 110 144 181 219 268 321
#     4  10  22  40  59  79 106 143 184 225 274 329
#     4  10  22  40  59  79 106 143 184 225 274 329
#     4   9  18  30  50  83 116 142 175 219 264 321
#     4  10  19  33  56  84 111 142 180 225 271 314
#     4   9  16  30  52  79 110 144 181 219 268 321
#     4  10  19  33  56  84 111 142 180 225 271 314
#
# _framework density 22.773606000000001
#
# number of rings (size 3 to 8) (size 9 to 14) (size 15 to 20)
#    0.000    2.333    1.667    1.000    2.333    4.667 
#    0.000    0.000    0.000    6.000    0.000    0.000 
#    0.000    0.000    0.000    0.000    0.000    0.000 
#
# Total GULP energy -134027.472872 kJ/mol
# GULP energy per Si atom -5584.478036 kJ/mol
# Density = 2.272177 g / cm^3
# Si number density = 22.773606 Si / 1000 Ang^3
#
#
#
# Elastic Constant Matrix: (Units=GPa)
#
#
# Indices 1 2 3 4 5 6 
#
# 1 61.3354 12.3618 16.2837 0.0000 14.9161 0.0000
# 2 12.3618 171.7942 29.0856 0.0000 -12.3920 0.0000
# 3 16.2837 29.0856 72.5407 0.0000 -4.9242 0.0000
# 4 0.0000 0.0000 0.0000 33.1978 0.0000 11.2603
# 5 14.9161 -12.3920 -4.9242 0.0000 45.5275 0.0000
# 6 0.0000 0.0000 0.0000 11.2603 0.0000 20.5111
#
#
#
# Elastic Compliance Matrix: (Units=1/GPa)
#
#
# Indices 1 2 3 4 5 6 
#
# 1 0.019446 -0.001174 -0.004381 0.000000 -0.007164 0.000000
# 2 -0.001174 0.006411 -0.002178 0.000000 0.001894 0.000000
# 3 -0.004381 -0.002178 0.015815 0.000000 0.002553 0.000000
# 4 0.000000 0.000000 0.000000 0.037015 0.000000 -0.020321
# 5 -0.007164 0.001894 0.002553 0.000000 0.025104 0.000000
# 6 0.000000 0.000000 0.000000 -0.020321 0.000000 0.059910
#
#
# Mechanical properties :
#
#
# Convention : Reuss Voigt Hill
#
# Bulk Modulus (GPa) = 38.15989 46.79251 42.47620
# Shear Modulus (GPa) = 26.60960 36.37655 31.49308
#
# Velocity S-wave (km/s) = 3.42195 4.00097 3.72274
# Velocity P-wave (km/s) = 5.69259 6.47574 6.09675
#
# Compressibility (1/GPa) = 0.02620553
#
# Stress axis : x y z
#
# Youngs Moduli (GPa) = 51.42496 155.98573 63.22948
#
# Poissons Ratio (x) = 0.18319 0.27698
# Poissons Ratio (y) = 0.06039 0.13773
# Poissons Ratio (z) = 0.22527 0.33978
#
# Static dielectric constant tensor:
#      x y z
#    x 1.908570 0.000000 0.068750 
#    y 0.000000 1.829910 0.000000 
#    z 0.068750 0.000000 1.829060 
# 
# From -- ./inp_files/44835.got.cif
#   From: 2010.05.17/outbox.cif.g08.bks.cpg/sg11_23_cif.got.tgz:44835.got - 2010.06.03 12:22:45.
