data_PCOD9159482
_publ_section_title
;
Structure prediction by ZEFSAII (Michael W. Deem and Ramdas Pophale) SiO2 
 PCOD9159482
Probable space group: P 21/M
;
_chemical_formula_sum "Si O2"
_cell_formula_units_Z 32
_cell_length_a 29.015750
_cell_length_b 7.988184
_cell_length_c 22.425091
_cell_angle_alpha 90.000000
_cell_angle_beta 161.297740
_cell_angle_gamma 90.000000
_cell_volume 1666.663008
_symmetry_space_group_name_H-M "P 21/M"
_symmetry_group_IT_number 11
_symmetry_cell_setting 'monoclinic'
loop_
_space_group_symop_operation_xyz
x,y,z
-x,1/2+y,-z
-x,-y,-z
x,1/2-y,z
loop_
_atom_site_type_symbol
_atom_site_label
_atom_site_fract_x
_atom_site_fract_y
_atom_site_fract_z
Si Si1 0.109512 0.444949 0.814373
Si Si2 0.162569 0.952621 0.323409
Si Si3 0.334492 0.548247 0.418757
Si Si4 0.662684 0.955823 0.813671
Si Si5 0.660346 0.450252 0.214152
Si Si6 0.165688 0.451647 0.093259
Si Si7 0.947265 0.452100 0.500687
Si Si8 0.171307 0.444374 0.466019
O O1 0.141879 0.250000 0.843120
O O2 0.054721 0.517132 0.684354
O O3 0.971201 0.455902 0.688396
O O4 0.244720 0.515341 0.016028
O O5 0.162054 0.750000 0.322116
O O6 0.260198 0.012172 0.388463
O O7 0.213178 0.008592 0.450497
O O8 0.998428 0.011247 0.112750
O O9 0.339247 0.750000 0.427362
O O10 0.498171 0.488614 0.613230
O O11 0.240603 0.501447 0.246451
O O12 0.664923 0.750000 0.816863
O O13 0.742191 0.010049 0.850651
O O14 0.667607 0.250000 0.225797
O O15 0.786163 0.507486 0.322332
O O16 0.707456 0.518305 0.336423
O O17 0.500000 0.500000 0.000000
O O18 0.161980 0.250000 0.086265
O O19 0.946950 0.250000 0.503659
O O20 0.000000 0.500000 0.500000
O O21 0.133410 0.250000 0.422290
#
# Coordination Sequence:
#
# PCOD9159482 Si02
#       8
#     4   4   4   4   4   4   4   4
#     4   9  17  35  58  77 105 145 186 221 265 321
#     4  10  20  36  54  75 106 144 183 220 269 326
#     4  10  21  34  51  78 108 137 176 226 272 325
#     4   9  17  33  55  76 103 137 177 221 266 322
#     4  10  21  39  61  86 116 150 187 228 273 326
#     4  10  19  33  55  74 100 143 179 219 273 325
#     4   9  19  34  56  83 114 147 181 225 270 322
#     4  11  21  34  57  85 110 140 184 230 270 319
#
# _framework density 19.200042
#
# number of rings (size 3 to 8) (size 9 to 14) (size 15 to 20)
#    0.000    2.250    1.250    3.000    0.000    3.500 
#    2.250    0.625    0.000    0.000    0.000    0.000 
#    0.000    0.000    0.000    0.000    0.000    0.000 
#
# Total GULP energy -178590.548159 kJ/mol
# GULP energy per Si atom -5580.954630 kJ/mol
# Density = 1.915634 g / cm^3
# Si number density = 19.200042 Si / 1000 Ang^3
#
#
#
# Elastic Constant Matrix: (Units=GPa)
#
#
# Indices 1 2 3 4 5 6 
#
# 1 159.0218 3.9251 68.2826 0.0000 -8.3133 0.0000
# 2 3.9251 16.1562 1.0715 0.0000 1.3766 0.0000
# 3 68.2826 1.0715 111.8616 0.0000 -7.3767 0.0000
# 4 0.0000 0.0000 0.0000 17.3312 0.0000 -7.5209
# 5 -8.3133 1.3766 -7.3767 0.0000 27.3451 0.0000
# 6 0.0000 0.0000 0.0000 -7.5209 0.0000 19.8408
#
#
#
# Elastic Compliance Matrix: (Units=1/GPa)
#
#
# Indices 1 2 3 4 5 6 
#
# 1 0.008617 -0.001864 -0.005155 0.000000 0.001323 0.000000
# 2 -0.001864 0.062639 0.000298 0.000000 -0.003640 0.000000
# 3 -0.005155 0.000298 0.012196 0.000000 0.001708 0.000000
# 4 0.000000 0.000000 0.000000 0.069059 0.000000 0.026178
# 5 0.001323 -0.003640 0.001708 0.000000 0.037616 0.000000
# 6 0.000000 0.000000 0.000000 0.026178 0.000000 0.060324
#
#
# Mechanical properties :
#
#
# Convention : Reuss Voigt Hill
#
# Bulk Modulus (GPa) = 14.28373 48.17757 31.23065
# Shear Modulus (GPa) = 17.40760 27.15410 22.28085
#
# Velocity S-wave (km/s) = 3.01432 3.76476 3.41025
# Velocity P-wave (km/s) = 4.42384 6.63663 5.63982
#
# Compressibility (1/GPa) = 0.07000975
#
# Stress axis : x y z
#
# Youngs Moduli (GPa) = 116.04796 15.96446 81.99349
#
# Poissons Ratio (x) = 0.02976 0.42267
# Poissons Ratio (y) = 0.21636 -0.02444
# Poissons Ratio (z) = 0.59822 -0.00476
#
# Static dielectric constant tensor:
#      x y z
#    x 1.671830 0.000000 0.017190 
#    y 0.000000 1.694010 0.000000 
#    z 0.017190 0.000000 1.672580 
# 
# From -- ./inp_files/66948.got.cif
#   From: 2010.05.17/outbox.cif.g08.bks.cpg/sg11_34_cif.got.tgz:66948.got - 2010.06.03 12:22:45.
