data_PCOD9159740
_publ_section_title
;
Structure prediction by ZEFSAII (Michael W. Deem and Ramdas Pophale) SiO2 
 PCOD9159740
Probable space group: P 21/M
;
_chemical_formula_sum "Si O2"
_cell_formula_units_Z 28
_cell_length_a 13.099683
_cell_length_b 13.382325
_cell_length_c 9.885908
_cell_angle_alpha 90.000000
_cell_angle_beta 116.613683
_cell_angle_gamma 90.000000
_cell_volume 1549.420901
_symmetry_space_group_name_H-M "P 21/M"
_symmetry_group_IT_number 11
_symmetry_cell_setting 'monoclinic'
loop_
_space_group_symop_operation_xyz
x,y,z
-x,1/2+y,-z
-x,-y,-z
x,1/2-y,z
loop_
_atom_site_type_symbol
_atom_site_label
_atom_site_fract_x
_atom_site_fract_y
_atom_site_fract_z
Si Si1 0.804576 0.630490 0.157123
Si Si2 0.575221 0.034631 0.416516
Si Si3 0.984400 0.128506 0.901890
Si Si4 0.749012 0.869151 0.432143
Si Si5 0.721735 0.367296 0.721314
Si Si6 0.349873 0.452678 0.158931
Si Si7 0.150227 0.369468 0.229656
O O1 0.790208 0.750000 0.125228
O O2 0.798784 0.613039 0.313075
O O3 0.924322 0.600432 0.159209
O O4 0.704484 0.574158 0.016660
O O5 0.666006 0.107034 0.542928
O O6 0.480920 0.078573 0.258640
O O7 0.500000 0.000000 0.500000
O O8 0.640603 0.940288 0.392294
O O9 0.981495 0.250000 0.900109
O O10 0.854094 0.099029 0.801127
O O11 0.040570 0.096566 0.078292
O O12 0.721929 0.750000 0.427497
O O13 0.835632 0.896160 0.605346
O O14 0.713570 0.250000 0.741832
O O15 0.661256 0.431430 0.803552
O O16 0.265520 0.400262 0.218365
O O17 0.145971 0.250000 0.222555
#
# Coordination Sequence:
#
# PCOD9159740 Si02
#       7
#     4   4   4   4   4   4   4
#     4   9  19  34  55  80 103 132 166 210 264 308
#     4  10  20  34  50  77 104 132 173 215 252 293
#     4   8  16  32  52  75 103 132 168 212 255 303
#     4  10  19  34  54  79 105 131 168 211 262 310
#     4  10  20  33  52  76 104 139 175 209 252 301
#     4  10  19  34  52  78 104 135 170 218 249 298
#     4   9  16  29  53  78 100 128 168 214 255 295
#
# _framework density 18.071266999999999
#
# number of rings (size 3 to 8) (size 9 to 14) (size 15 to 20)
#    0.000    2.571    2.857    1.286    0.000    6.286 
#    0.000    0.714    0.000    0.857    0.000    0.000 
#    0.000    0.000    0.000    0.000    0.000    0.000 
#
# Total GULP energy -156003.563394 kJ/mol
# GULP energy per Si atom -5571.555836 kJ/mol
# Density = 1.803014 g / cm^3
# Si number density = 18.071267 Si / 1000 Ang^3
#
#
#
# Elastic Constant Matrix: (Units=GPa)
#
#
# Indices 1 2 3 4 5 6 
#
# 1 69.2881 19.3930 63.3010 0.0000 17.2282 0.0000
# 2 19.3930 53.5744 37.3047 0.0000 2.8033 0.0000
# 3 63.3010 37.3047 146.3506 0.0000 11.5303 0.0000
# 4 0.0000 0.0000 0.0000 24.6543 0.0000 0.3915
# 5 17.2282 2.8033 11.5303 0.0000 39.4427 0.0000
# 6 0.0000 0.0000 0.0000 0.3915 0.0000 23.2465
#
#
#
# Elastic Compliance Matrix: (Units=1/GPa)
#
#
# Indices 1 2 3 4 5 6 
#
# 1 0.026474 -0.001983 -0.010282 0.000000 -0.008417 0.000000
# 2 -0.001983 0.022842 -0.005021 0.000000 0.000710 0.000000
# 3 -0.010282 -0.005021 0.012465 0.000000 0.001204 0.000000
# 4 0.000000 0.000000 0.000000 0.040572 0.000000 -0.000683
# 5 -0.008417 0.000710 0.001204 0.000000 0.028627 0.000000
# 6 0.000000 0.000000 0.000000 -0.000683 0.000000 0.043029
#
#
# Mechanical properties :
#
#
# Convention : Reuss Voigt Hill
#
# Bulk Modulus (GPa) = 36.75181 56.57895 46.66538
# Shear Modulus (GPa) = 22.97254 27.41632 25.19443
#
# Velocity S-wave (km/s) = 3.56928 3.89925 3.73791
# Velocity P-wave (km/s) = 6.11291 7.18672 6.67146
#
# Compressibility (1/GPa) = 0.02720954
#
# Stress axis : x y z
#
# Youngs Moduli (GPa) = 37.77274 43.77848 80.22336
#
# Poissons Ratio (x) = 0.08682 0.82488
# Poissons Ratio (y) = 0.07491 0.40278
# Poissons Ratio (z) = 0.38839 0.21980
#
# Static dielectric constant tensor:
#      x y z
#    x 1.609340 0.000000 0.040350 
#    y 0.000000 1.670390 0.000000 
#    z 0.040350 0.000000 1.651670 
# 
# From -- ./inp_files/21941.got.cif
#   From: 2010.05.17/outbox.cif.g08.bks.cpg/sg11_11_cif.got.tgz:21941.got - 2010.06.03 12:22:45.
