data_PCOD9159415
_publ_section_title
;
Structure prediction by ZEFSAII (Michael W. Deem and Ramdas Pophale) SiO2 
 PCOD9159415
Probable space group: P 21/M
;
_chemical_formula_sum "Si O2"
_cell_formula_units_Z 32
_cell_length_a 14.372671
_cell_length_b 15.193951
_cell_length_c 9.257335
_cell_angle_alpha 90.000000
_cell_angle_beta 40.263722
_cell_angle_gamma 90.000000
_cell_volume 1306.570590
_symmetry_space_group_name_H-M "P 21/M"
_symmetry_group_IT_number 11
_symmetry_cell_setting 'monoclinic'
loop_
_space_group_symop_operation_xyz
x,y,z
-x,1/2+y,-z
-x,-y,-z
x,1/2-y,z
loop_
_atom_site_type_symbol
_atom_site_label
_atom_site_fract_x
_atom_site_fract_y
_atom_site_fract_z
Si Si1 0.468980 0.657987 0.242528
Si Si2 0.808538 0.855111 0.507888
Si Si3 0.354684 0.479995 0.080841
Si Si4 0.304466 0.092097 0.676511
Si Si5 0.991636 0.644095 0.843603
Si Si6 0.208751 0.648656 0.328126
Si Si7 0.915145 0.351527 0.953181
Si Si8 0.622160 0.111673 0.359651
O O1 0.551968 0.750000 0.138894
O O2 0.358733 0.655790 0.240734
O O3 0.364160 0.656911 0.502114
O O4 0.574235 0.574633 0.134071
O O5 0.792004 0.750000 0.548899
O O6 0.731048 0.908940 0.723527
O O7 0.747927 0.883233 0.422482
O O8 0.975213 0.884426 0.296947
O O9 0.254581 0.564551 0.176555
O O10 0.500000 0.500000 0.000000
O O11 0.461715 0.135177 0.503376
O O12 0.342816 0.990249 0.654162
O O13 0.176138 0.117978 0.938428
O O14 0.998628 0.750000 0.834498
O O15 0.083407 0.620142 0.591625
O O16 0.058820 0.609059 0.916739
O O17 0.177563 0.750000 0.312616
O O18 0.958035 0.250000 0.918679
O O19 0.749814 0.355523 0.109347
#
# Coordination Sequence:
#
# PCOD9159415 Si02
#       8
#     4   4   4   4   4   4   4   4
#     4  10  19  33  54  78 107 144 188 232 266 318
#     4  10  21  36  54  84 114 144 183 227 278 327
#     4  10  20  33  53  81 110 142 182 231 278 317
#     4  10  22  33  50  79 117 146 176 224 279 339
#     4   9  17  31  50  77 107 139 178 222 273 331
#     4   9  17  30  51  79 106 137 182 229 273 325
#     4   9  18  31  52  78 106 139 181 226 271 324
#     4  11  21  34  51  82 112 146 185 220 278 333
#
# _framework density 24.491596999999999
#
# number of rings (size 3 to 8) (size 9 to 14) (size 15 to 20)
#    0.000    2.250    1.250    3.375    1.750    3.500 
#    0.000    0.000    0.000    0.750    6.500    0.000 
#    0.000    0.000    0.000    0.000    0.000    0.000 
#
# Total GULP energy -178539.235657 kJ/mol
# GULP energy per Si atom -5579.351114 kJ/mol
# Density = 2.443585 g / cm^3
# Si number density = 24.491597 Si / 1000 Ang^3
#
#
#
# Elastic Constant Matrix: (Units=GPa)
#
#
# Indices 1 2 3 4 5 6 
#
# 1 27.2423 14.1372 22.1589 0.0000 -10.9085 0.0000
# 2 14.1372 96.4161 56.2778 0.0000 3.7192 0.0000
# 3 22.1589 56.2778 175.2525 0.0000 -20.7559 0.0000
# 4 0.0000 0.0000 0.0000 43.5976 0.0000 -9.5904
# 5 -10.9085 3.7192 -20.7559 0.0000 31.8640 0.0000
# 6 0.0000 0.0000 0.0000 -9.5904 0.0000 2.7475
#
#
#
# Elastic Compliance Matrix: (Units=1/GPa)
#
#
# Indices 1 2 3 4 5 6 
#
# 1 0.048119 -0.006409 -0.002152 0.000000 0.015819 0.000000
# 2 -0.006409 0.014245 -0.004574 0.000000 -0.006836 0.000000
# 3 -0.002152 -0.004574 0.008043 0.000000 0.005036 0.000000
# 4 0.000000 0.000000 0.000000 0.098797 0.000000 0.344854
# 5 0.015819 -0.006836 0.005036 0.000000 0.040878 0.000000
# 6 0.000000 0.000000 0.000000 0.344854 0.000000 1.567689
#
#
# Mechanical properties :
#
#
# Convention : Reuss Voigt Hill
#
# Bulk Modulus (GPa) = 22.65705 53.78430 38.22067
# Shear Modulus (GPa) = 2.74914 29.39762 16.07338
#
# Velocity S-wave (km/s) = 1.06062 3.46831 2.56458
# Velocity P-wave (km/s) = 3.28191 6.16822 4.94054
#
# Compressibility (1/GPa) = 0.04413638
#
# Stress axis : x y z
#
# Youngs Moduli (GPa) = 20.78180 70.20107 124.32620
#
# Poissons Ratio (x) = 0.44995 0.26760
# Poissons Ratio (y) = 0.13320 0.56861
# Poissons Ratio (z) = 0.04473 0.32107
#
# Static dielectric constant tensor:
#      x y z
#    x 1.998460 0.000000 0.014470 
#    y 0.000000 2.009090 0.000000 
#    z 0.014470 0.000000 2.009490 
# 
# From -- ./inp_files/41619.got.cif
#   From: 2010.05.17/outbox.cif.g08.bks.cpg/sg11_21_cif.got.tgz:41619.got - 2010.06.03 12:22:45.
