data_PCOD9159193
_publ_section_title
;
Structure prediction by ZEFSAII (Michael W. Deem and Ramdas Pophale) SiO2 
 PCOD9159193
Probable space group: P 21/M
;
_chemical_formula_sum "Si O2"
_cell_formula_units_Z 32
_cell_length_a 16.839396
_cell_length_b 7.735624
_cell_length_c 22.424259
_cell_angle_alpha 90.000000
_cell_angle_beta 33.300314
_cell_angle_gamma 90.000000
_cell_volume 1603.740072
_symmetry_space_group_name_H-M "P 21/M"
_symmetry_group_IT_number 11
_symmetry_cell_setting 'monoclinic'
loop_
_space_group_symop_operation_xyz
x,y,z
-x,1/2+y,-z
-x,-y,-z
x,1/2-y,z
loop_
_atom_site_type_symbol
_atom_site_label
_atom_site_fract_x
_atom_site_fract_y
_atom_site_fract_z
Si Si1 0.980320 0.956346 0.211582
Si Si2 0.295289 0.449785 0.687862
Si Si3 0.894842 0.547638 0.389113
Si Si4 0.732113 0.553257 0.039274
Si Si5 0.450494 0.537016 0.269130
Si Si6 0.563964 0.460330 0.584417
Si Si7 0.831831 0.042488 0.106152
Si Si8 0.128560 0.552545 0.462494
O O1 0.958557 0.750000 0.228092
O O2 0.834988 0.027428 0.270081
O O3 0.985349 0.021320 0.276285
O O4 0.130226 0.980972 0.082507
O O5 0.314228 0.250000 0.657844
O O6 0.455551 0.524324 0.600552
O O7 0.232574 0.459168 0.794252
O O8 0.924782 0.750000 0.378711
O O9 0.727367 0.523697 0.475230
O O10 0.914469 0.463556 0.441129
O O11 0.718887 0.750000 0.027228
O O12 0.570215 0.476124 0.146247
O O13 0.773310 0.541606 0.082880
O O14 0.454629 0.750000 0.266470
O O15 0.480164 0.487289 0.319999
O O16 0.288703 0.471035 0.356679
O O17 0.564187 0.250000 0.582817
O O18 0.809043 0.250000 0.120358
O O19 0.000000 0.000000 0.000000
O O20 0.155229 0.750000 0.431600
O O21 0.000000 0.500000 0.500000
#
# Coordination Sequence:
#
# PCOD9159193 Si02
#       8
#     4   4   4   4   4   4   4   4
#     4  10  22  36  50  72 107 150 189 229 270 310
#     4  10  19  33  50  69 100 144 189 234 282 317
#     4  10  21  37  54  78 111 144 180 220 266 322
#     4  11  20  33  53  76 103 142 185 223 267 321
#     4   8  16  31  52  80 110 136 166 211 271 319
#     4   9  17  32  52  73 102 142 185 231 280 319
#     4  12  22  31  45  70 101 139 187 239 279 314
#     4  10  20  38  64  91 112 135 164 207 268 326
#
# _framework density 19.953358000000001
#
# number of rings (size 3 to 8) (size 9 to 14) (size 15 to 20)
#    0.000    2.000    2.500    3.000    0.000    2.000 
#    0.000    1.875    0.000    0.750    0.000    0.000 
#    0.000    0.000    0.000    0.000    0.000    0.000 
#
# Total GULP energy -178343.179634 kJ/mol
# GULP energy per Si atom -5573.224364 kJ/mol
# Density = 1.990794 g / cm^3
# Si number density = 19.953358 Si / 1000 Ang^3
#
#
#
# Elastic Constant Matrix: (Units=GPa)
#
#
# Indices 1 2 3 4 5 6 
#
# 1 104.7387 -3.0256 57.8359 0.0000 -17.8232 0.0000
# 2 -3.0256 40.0812 -11.5944 0.0000 -7.2501 0.0000
# 3 57.8359 -11.5944 67.3446 0.0000 0.1503 0.0000
# 4 0.0000 0.0000 0.0000 20.5530 0.0000 -2.6921
# 5 -17.8232 -7.2501 0.1503 0.0000 20.9107 0.0000
# 6 0.0000 0.0000 0.0000 -2.6921 0.0000 17.1626
#
#
#
# Elastic Compliance Matrix: (Units=1/GPa)
#
#
# Indices 1 2 3 4 5 6 
#
# 1 0.025226 -0.000517 -0.021801 0.000000 0.021479 0.000000
# 2 -0.000517 0.028109 0.005263 0.000000 0.009267 0.000000
# 3 -0.021801 0.005263 0.034516 0.000000 -0.017006 0.000000
# 4 0.000000 0.000000 0.000000 0.049675 0.000000 0.007792
# 5 0.021479 0.009267 -0.017006 0.000000 0.069465 0.000000
# 6 0.000000 0.000000 0.000000 0.007792 0.000000 0.059488
#
#
# Mechanical properties :
#
#
# Convention : Reuss Voigt Hill
#
# Bulk Modulus (GPa) = 18.60807 33.17735 25.89271
# Shear Modulus (GPa) = 15.69836 22.98852 19.34344
#
# Velocity S-wave (km/s) = 2.80795 3.39796 3.11695
# Velocity P-wave (km/s) = 4.45633 5.66201 5.09496
#
# Compressibility (1/GPa) = 0.05374012
#
# Stress axis : x y z
#
# Youngs Moduli (GPa) = 39.64143 35.57575 28.97206
#
# Poissons Ratio (x) = 0.01839 0.63163
# Poissons Ratio (y) = 0.02050 -0.15247
# Poissons Ratio (z) = 0.86423 -0.18723
#
# Static dielectric constant tensor:
#      x y z
#    x 1.715120 0.000000 -0.061260 
#    y 0.000000 1.737650 0.000000 
#    z -0.061260 0.000000 1.826160 
# 
# From -- ./inp_files/69439.got.cif
#   From: 2010.05.17/outbox.cif.g08.bks.cpg/sg11_35_cif.got.tgz:69439.got - 2010.06.03 12:22:45.
