data_PCOD9159686
_publ_section_title
;
Structure prediction by ZEFSAII (Michael W. Deem and Ramdas Pophale) SiO2 
 PCOD9159686
Probable space group: P 21/M
;
_chemical_formula_sum "Si O2"
_cell_formula_units_Z 32
_cell_length_a 20.021534
_cell_length_b 18.222347
_cell_length_c 5.450814
_cell_angle_alpha 90.000000
_cell_angle_beta 124.647775
_cell_angle_gamma 90.000000
_cell_volume 1636.005563
_symmetry_space_group_name_H-M "P 21/M"
_symmetry_group_IT_number 11
_symmetry_cell_setting 'monoclinic'
loop_
_space_group_symop_operation_xyz
x,y,z
-x,1/2+y,-z
-x,-y,-z
x,1/2-y,z
loop_
_atom_site_type_symbol
_atom_site_label
_atom_site_fract_x
_atom_site_fract_y
_atom_site_fract_z
Si Si1 0.847657 0.333485 0.261694
Si Si2 0.366117 0.991443 0.134414
Si Si3 0.309823 0.632712 0.340286
Si Si4 0.509155 0.167517 0.235399
Si Si5 0.776901 0.465053 0.450188
Si Si6 0.927582 0.939979 0.870813
Si Si7 0.013256 0.410929 0.506069
Si Si8 0.476038 0.080922 0.677128
O O1 0.859743 0.250000 0.385089
O O2 0.822088 0.398645 0.397779
O O3 0.929239 0.366421 0.311922
O O4 0.772597 0.328251 0.914465
O O5 0.338638 0.910927 0.160912
O O6 0.448208 0.976494 0.152270
O O7 0.395866 0.036393 0.432597
O O8 0.283876 0.016733 0.834080
O O9 0.392733 0.670249 0.597334
O O10 0.281508 0.574968 0.481961
O O11 0.477687 0.250000 0.174718
O O12 0.491135 0.130087 0.461942
O O13 0.474302 0.124973 0.926153
O O14 0.845225 0.514195 0.717988
O O15 0.933316 0.898693 0.623634
O O16 0.944970 0.892721 0.147775
O O17 0.000000 0.000000 0.000000
O O18 0.000000 0.500000 0.500000
#
# Coordination Sequence:
#
# PCOD9159686 Si02
#       8
#     4   4   4   4   4   4   4   4
#     4  11  23  35  52  82 120 154 187 229 285 349
#     4   9  21  34  56  81 113 145 188 243 286 330
#     4  10  21  35  52  82 118 153 182 225 280 359
#     4  11  22  37  56  80 114 157 191 223 280 348
#     4  11  20  35  55  85 114 150 184 231 290 344
#     4  10  19  33  58  76 108 143 186 234 266 321
#     4  10  19  37  54  77 107 151 188 234 266 315
#     4  10  21  38  56  80 114 148 191 240 280 325
#
# _framework density 19.559835
#
# number of rings (size 3 to 8) (size 9 to 14) (size 15 to 20)
#    0.000    1.750    3.750    2.250    3.500    2.500 
#    0.000    0.000    0.000    0.000    0.000    5.250 
#    0.000    0.000    0.000    0.000    0.000    0.000 
#
# Total GULP energy -178197.627405 kJ/mol
# GULP energy per Si atom -5568.675856 kJ/mol
# Density = 1.951532 g / cm^3
# Si number density = 19.559835 Si / 1000 Ang^3
#
#
#
# Elastic Constant Matrix: (Units=GPa)
#
#
# Indices 1 2 3 4 5 6 
#
# 1 50.3869 23.1257 16.1645 0.0000 -13.2481 0.0000
# 2 23.1257 66.6587 34.1582 0.0000 8.6554 0.0000
# 3 16.1645 34.1582 99.2281 0.0000 -1.5983 0.0000
# 4 0.0000 0.0000 0.0000 -149.4336 0.0000 -81.7198
# 5 -13.2481 8.6554 -1.5983 0.0000 37.5056 0.0000
# 6 0.0000 0.0000 0.0000 -81.7198 0.0000 -26.5857
#
#
#
# Elastic Compliance Matrix: (Units=1/GPa)
#
#
# Indices 1 2 3 4 5 6 
#
# 1 0.028512 -0.011240 -0.000572 0.000000 0.012641 0.000000
# 2 -0.011240 0.023428 -0.006389 0.000000 -0.009649 0.000000
# 3 -0.000572 -0.006389 0.012399 0.000000 0.001801 0.000000
# 4 0.000000 0.000000 0.000000 0.009827 0.000000 -0.030207
# 5 0.012641 -0.009649 0.001801 0.000000 0.033431 0.000000
# 6 0.000000 0.000000 0.000000 -0.030207 0.000000 0.055237
#
#
# Mechanical properties :
#
#
# Convention : Reuss Voigt Hill
#
# Bulk Modulus (GPa) = 35.79408 40.35227 38.07318
# Shear Modulus (GPa) = 23.97503 -18.18105 2.89699
#
# Velocity S-wave (km/s) = 3.50484 -3.05209 1.21832
# Velocity P-wave (km/s) = 5.89220 2.87308 4.63533
#
# Compressibility (1/GPa) = 0.02793758
#
# Stress axis : x y z
#
# Youngs Moduli (GPa) = 35.07262 42.68345 80.64892
#
# Poissons Ratio (x) = 0.47976 0.04612
# Poissons Ratio (y) = 0.39422 0.51529
# Poissons Ratio (z) = 0.02006 0.27272
#
# Static dielectric constant tensor:
#      x y z
#    x 1.731770 0.000000 -0.027430 
#    y 0.000000 1.681100 0.000000 
#    z -0.027430 0.000000 1.767000 
# 
# From -- ./inp_files/9155.got.cif
#   From: 2010.05.17/outbox.cif.g08.bks.cpg/sg11_5_cif.got.tgz:9155.got - 2010.06.03 12:22:45.
