data_PCOD9159534
_publ_section_title
;
Structure prediction by ZEFSAII (Michael W. Deem and Ramdas Pophale) SiO2 
 PCOD9159534
Probable space group: P 21/M
;
_chemical_formula_sum "Si O2"
_cell_formula_units_Z 26
_cell_length_a 20.796644
_cell_length_b 9.563172
_cell_length_c 7.208158
_cell_angle_alpha 90.000000
_cell_angle_beta 52.341139
_cell_angle_gamma 90.000000
_cell_volume 1134.905099
_symmetry_space_group_name_H-M "P 21/M"
_symmetry_group_IT_number 11
_symmetry_cell_setting 'monoclinic'
loop_
_space_group_symop_operation_xyz
x,y,z
-x,1/2+y,-z
-x,-y,-z
x,1/2-y,z
loop_
_atom_site_type_symbol
_atom_site_label
_atom_site_fract_x
_atom_site_fract_y
_atom_site_fract_z
Si Si1 0.254207 0.089909 0.027160
Si Si2 0.000403 0.750000 0.913451
Si Si3 0.402524 0.910863 0.853633
Si Si4 0.556637 0.411196 0.662786
Si Si5 0.889984 0.523982 0.235113
Si Si6 0.924372 0.593504 0.586093
Si Si7 0.707293 0.589133 0.477114
O O1 0.252329 0.250000 0.101527
O O2 0.162403 0.035295 0.197377
O O3 0.280961 0.095914 0.766736
O O4 0.318519 0.994948 0.020378
O O5 0.069459 0.627101 0.832125
O O6 0.930519 0.625082 0.012428
O O7 0.397353 0.750000 0.922821
O O8 0.421810 0.908502 0.596829
O O9 0.476066 0.995163 0.816753
O O10 0.544347 0.250000 0.740433
O O11 0.630894 0.487029 0.636009
O O12 0.917168 0.598294 0.377286
O O13 0.792832 0.530009 0.398848
O O14 0.939557 0.750000 0.628477
O O15 0.000000 0.500000 0.500000
O O16 0.693871 0.750000 0.563488
#
# Coordination Sequence:
#
# PCOD9159534 Si02
#       7
#     4   2   4   4   4   4   4
#     4   9  20  34  53  79 112 150 185 226 278 334
#     4  10  24  38  64  82 108 148 196 234 288 334
#     4   9  16  30  49  76 110 144 181 226 277 327
#     4   9  17  28  49  79 110 142 181 228 277 328
#     4  11  23  41  60  84 112 149 188 242 284 339
#     4  11  25  40  58  84 116 153 191 234 284 339
#     4  10  19  33  55  82 112 146 186 232 280 332
#
# _framework density 22.909403999999999
#
# number of rings (size 3 to 8) (size 9 to 14) (size 15 to 20)
#    0.000    2.154    1.538    0.923    6.462    4.308 
#    0.000    0.000    0.000    0.923    0.000    0.000 
#    0.000    0.000    0.000    0.000    0.000    0.000 
#
# Total GULP energy -144975.138931 kJ/mol
# GULP energy per Si atom -5575.966882 kJ/mol
# Density = 2.285726 g / cm^3
# Si number density = 22.909404 Si / 1000 Ang^3
#
#
#
# Elastic Constant Matrix: (Units=GPa)
#
#
# Indices 1 2 3 4 5 6 
#
# 1 163.1871 76.4621 52.2986 0.0000 -57.8356 0.0000
# 2 76.4621 175.3245 57.9649 0.0000 -60.0862 0.0000
# 3 52.2986 57.9649 65.9445 0.0000 -28.8972 0.0000
# 4 0.0000 0.0000 0.0000 43.7838 0.0000 -13.2285
# 5 -57.8356 -60.0862 -28.8972 0.0000 67.2708 0.0000
# 6 0.0000 0.0000 0.0000 -13.2285 0.0000 -0.1798
#
#
#
# Elastic Compliance Matrix: (Units=1/GPa)
#
#
# Indices 1 2 3 4 5 6 
#
# 1 0.010131 -0.000823 -0.004702 0.000000 0.005955 0.000000
# 2 -0.000823 0.009838 -0.005487 0.000000 0.005723 0.000000
# 3 -0.004702 -0.005487 0.024388 0.000000 0.001533 0.000000
# 4 0.000000 0.000000 0.000000 0.000983 0.000000 -0.072339
# 5 0.005955 0.005723 0.001533 0.000000 0.025755 0.000000
# 6 0.000000 0.000000 0.000000 -0.072339 0.000000 -0.239430
#
#
# Mechanical properties :
#
#
# Convention : Reuss Voigt Hill
#
# Bulk Modulus (GPa) = 44.77579 86.43414 65.60496
# Shear Modulus (GPa) = -36.00576 36.69031 0.34228
#
# Velocity S-wave (km/s) = -3.96872 4.00627 0.38695
# Velocity P-wave (km/s) = 1.18903 7.69486 5.37573
#
# Compressibility (1/GPa) = 0.02233350
#
# Stress axis : x y z
#
# Youngs Moduli (GPa) = 98.70768 101.64670 41.00393
#
# Poissons Ratio (x) = 0.08364 0.19278
# Poissons Ratio (y) = 0.08122 0.22500
# Poissons Ratio (z) = 0.46408 0.55776
#
# Static dielectric constant tensor:
#      x y z
#    x 1.860130 0.000000 0.098700 
#    y 0.000000 1.777580 0.000000 
#    z 0.098700 0.000000 1.948510 
# 
# From -- ./inp_files/26086.got.cif
#   From: 2010.05.17/outbox.cif.g08.bks.cpg/sg11_14_cif.got.tgz:26086.got - 2010.06.03 12:22:45.
