data_PCOD9159675
_publ_section_title
;
Structure prediction by ZEFSAII (Michael W. Deem and Ramdas Pophale) SiO2 
 PCOD9159675
Probable space group: P 21/M
;
_chemical_formula_sum "Si O2"
_cell_formula_units_Z 32
_cell_length_a 19.889655
_cell_length_b 14.668242
_cell_length_c 13.767561
_cell_angle_alpha 90.000000
_cell_angle_beta 23.282242
_cell_angle_gamma 90.000000
_cell_volume 1587.618306
_symmetry_space_group_name_H-M "P 21/M"
_symmetry_group_IT_number 11
_symmetry_cell_setting 'monoclinic'
loop_
_space_group_symop_operation_xyz
x,y,z
-x,1/2+y,-z
-x,-y,-z
x,1/2-y,z
loop_
_atom_site_type_symbol
_atom_site_label
_atom_site_fract_x
_atom_site_fract_y
_atom_site_fract_z
Si Si1 0.620139 0.007579 0.710383
Si Si2 0.021233 0.652571 0.008602
Si Si3 0.277965 0.650249 0.953304
Si Si4 0.170630 0.499193 0.944785
Si Si5 0.042005 0.643619 0.454524
Si Si6 0.346996 0.410226 0.537666
Si Si7 0.230700 0.023012 0.292108
Si Si8 0.112361 0.647402 0.666808
O O1 0.708027 0.106244 0.604156
O O2 0.648468 0.973957 0.563622
O O3 0.727413 0.952667 0.650815
O O4 0.420056 0.006712 0.998294
O O5 0.062981 0.750000 0.998862
O O6 0.822521 0.648420 0.248398
O O7 0.065017 0.565919 0.014400
O O8 0.114677 0.647520 0.781396
O O9 0.232104 0.750000 0.973468
O O10 0.228704 0.563464 0.954420
O O11 0.479924 0.644821 0.695033
O O12 0.181845 0.643063 0.182961
O O13 0.319149 0.461009 0.677722
O O14 0.046761 0.418683 0.144401
O O15 0.019694 0.750000 0.514470
O O16 0.117919 0.569631 0.429857
O O17 0.872380 0.599730 0.630999
O O18 0.084643 0.750000 0.669519
#
# Coordination Sequence:
#
# PCOD9159675 Si02
#       8
#     4   4   4   4   4   4   4   4
#     4  11  20  39  63  86 117 154 200 248 298 348
#     4  10  19  33  57  87 118 152 195 238 285 348
#     4  11  23  38  60  88 119 155 196 242 297 355
#     4  11  20  37  58  87 121 159 195 239 287 350
#     4  10  22  42  62  86 118 152 195 247 302 356
#     4  11  20  37  57  87 119 159 189 240 293 348
#     4  10  23  40  64  88 114 154 200 251 302 348
#     4  10  20  35  59  87 118 155 195 238 292 351
#
# _framework density 20.155978999999999
#
# number of rings (size 3 to 8) (size 9 to 14) (size 15 to 20)
#    0.000    1.500    3.750    2.625    0.000    1.500 
#    0.000    2.500    0.000    0.750    0.000    0.000 
#    0.000    0.000    0.000    0.000    0.000    0.000 
#
# Total GULP energy -178503.902123 kJ/mol
# GULP energy per Si atom -5578.246941 kJ/mol
# Density = 2.011010 g / cm^3
# Si number density = 20.155979 Si / 1000 Ang^3
#
#
#
# Elastic Constant Matrix: (Units=GPa)
#
#
# Indices 1 2 3 4 5 6 
#
# 1 57.7790 24.2258 18.9397 0.0000 -1.4625 0.0000
# 2 24.2258 117.4036 14.8173 0.0000 -6.6143 0.0000
# 3 18.9397 14.8173 59.8573 0.0000 -9.9122 0.0000
# 4 0.0000 0.0000 0.0000 10.5317 0.0000 1.7498
# 5 -1.4625 -6.6143 -9.9122 0.0000 28.9816 0.0000
# 6 0.0000 0.0000 0.0000 1.7498 0.0000 -18.8857
#
#
#
# Elastic Compliance Matrix: (Units=1/GPa)
#
#
# Indices 1 2 3 4 5 6 
#
# 1 0.020738 -0.003629 -0.005965 0.000000 -0.001822 0.000000
# 2 -0.003629 0.009477 -0.000922 0.000000 0.001664 0.000000
# 3 -0.005965 -0.000922 0.019862 0.000000 0.006282 0.000000
# 4 0.000000 0.000000 0.000000 0.093512 0.000000 0.008664
# 5 -0.001822 0.001664 0.006282 0.000000 0.036941 0.000000
# 6 0.000000 0.000000 0.000000 0.008664 0.000000 -0.052147
#
#
# Mechanical properties :
#
#
# Convention : Reuss Voigt Hill
#
# Bulk Modulus (GPa) = 34.42973 39.00061 36.71517
# Shear Modulus (GPa) = 31.42746 15.92933 23.67840
#
# Velocity S-wave (km/s) = 3.95297 2.81428 3.43119
# Velocity P-wave (km/s) = 6.16063 5.47281 5.82688
#
# Compressibility (1/GPa) = 0.02904466
#
# Stress axis : x y z
#
# Youngs Moduli (GPa) = 48.22020 105.52316 50.34644
#
# Poissons Ratio (x) = 0.38295 0.30033
# Poissons Ratio (y) = 0.17499 0.04642
# Poissons Ratio (z) = 0.28764 0.09729
#
# Static dielectric constant tensor:
#      x y z
#    x 1.742520 0.000000 0.021420 
#    y 0.000000 1.749510 0.000000 
#    z 0.021420 0.000000 1.693520 
# 
# From -- ./inp_files/54996.got.cif
#   From: 2010.05.17/outbox.cif.g08.bks.cpg/sg11_28_cif.got.tgz:54996.got - 2010.06.03 12:22:45.
