data_PCOD9159442
_publ_section_title
;
Structure prediction by ZEFSAII (Michael W. Deem and Ramdas Pophale) SiO2 
 PCOD9159442
Probable space group: P 21/M
;
_chemical_formula_sum "Si O2"
_cell_formula_units_Z 32
_cell_length_a 10.300578
_cell_length_b 14.037822
_cell_length_c 26.856620
_cell_angle_alpha 90.000000
_cell_angle_beta 25.069111
_cell_angle_gamma 90.000000
_cell_volume 1645.442002
_symmetry_space_group_name_H-M "P 21/M"
_symmetry_group_IT_number 11
_symmetry_cell_setting 'monoclinic'
loop_
_space_group_symop_operation_xyz
x,y,z
-x,1/2+y,-z
-x,-y,-z
x,1/2-y,z
loop_
_atom_site_type_symbol
_atom_site_label
_atom_site_fract_x
_atom_site_fract_y
_atom_site_fract_z
Si Si1 0.690688 0.493403 0.313699
Si Si2 0.283486 0.361973 0.099465
Si Si3 0.821687 0.542043 0.370826
Si Si4 0.705171 0.023000 0.636235
Si Si5 0.390277 0.859428 0.808366
Si Si6 0.861282 0.858134 0.454424
Si Si7 0.678795 0.857939 0.026809
Si Si8 0.440645 0.053024 0.147557
O O1 0.786976 0.563822 0.324672
O O2 0.570642 0.543439 0.305805
O O3 0.412593 0.425977 0.430204
O O4 0.976085 0.424632 0.205284
O O5 0.213646 0.250000 0.129611
O O6 0.420026 0.373416 0.996564
O O7 0.468740 0.396825 0.083799
O O8 0.500000 0.500000 0.500000
O O9 0.890122 0.625508 0.385400
O O10 0.079977 0.459911 0.285265
O O11 0.822728 0.106177 0.630954
O O12 0.604046 0.931770 0.703568
O O13 0.000000 0.000000 0.500000
O O14 0.495846 0.750000 0.768286
O O15 0.396778 0.893087 0.863679
O O16 0.048155 0.863301 0.904458
O O17 0.792824 0.750000 0.491007
O O18 0.589955 0.750000 0.072118
O O19 0.550384 0.944349 0.103541
#
# Coordination Sequence:
#
# PCOD9159442 Si02
#       8
#     4   4   4   4   4   4   4   4
#     4   9  18  33  57  78 112 147 194 243 284 334
#     4  10  19  34  58  87 112 147 194 239 290 348
#     4   9  19  35  56  79 112 148 189 231 288 351
#     4  10  20  35  57  84 115 150 191 245 293 341
#     4  11  22  39  61  88 115 152 201 247 293 349
#     4  10  19  33  54  80 113 154 192 231 291 356
#     4  10  22  38  60  86 114 153 202 240 293 360
#     4  11  21  37  58  87 118 150 188 251 300 338
#
# _framework density 19.447662000000001
#
# number of rings (size 3 to 8) (size 9 to 14) (size 15 to 20)
#    0.000    2.000    2.500    1.500    0.000    2.500 
#    0.000    1.250    0.000    1.500    0.000    0.000 
#    0.000    0.000    0.000    0.000    0.000    0.000 
#
# Total GULP energy -178403.272734 kJ/mol
# GULP energy per Si atom -5575.102273 kJ/mol
# Density = 1.940340 g / cm^3
# Si number density = 19.447662 Si / 1000 Ang^3
#
#
#
# Elastic Constant Matrix: (Units=GPa)
#
#
# Indices 1 2 3 4 5 6 
#
# 1 132.0549 31.1666 2.6990 0.0000 9.3177 0.0000
# 2 31.1666 42.7740 12.3012 0.0000 5.0448 0.0000
# 3 2.6990 12.3012 23.6989 0.0000 2.8837 0.0000
# 4 0.0000 0.0000 0.0000 25.1566 0.0000 2.3022
# 5 9.3177 5.0448 2.8837 0.0000 10.3787 0.0000
# 6 0.0000 0.0000 0.0000 2.3022 0.0000 16.0279
#
#
#
# Elastic Compliance Matrix: (Units=1/GPa)
#
#
# Indices 1 2 3 4 5 6 
#
# 1 0.009655 -0.007306 0.003431 0.000000 -0.006070 0.000000
# 2 -0.007306 0.033991 -0.016145 0.000000 -0.005477 0.000000
# 3 0.003431 -0.016145 0.051341 0.000000 -0.009498 0.000000
# 4 0.000000 0.000000 0.000000 0.040281 0.000000 -0.005786
# 5 -0.006070 -0.005477 -0.009498 0.000000 0.107103 0.000000
# 6 0.000000 0.000000 0.000000 -0.005786 0.000000 0.063222
#
#
# Mechanical properties :
#
#
# Convention : Reuss Voigt Hill
#
# Bulk Modulus (GPa) = 18.19894 32.31795 25.25844
# Shear Modulus (GPa) = 13.73822 20.47002 17.10412
#
# Velocity S-wave (km/s) = 2.66074 3.24785 2.96885
# Velocity P-wave (km/s) = 4.33793 5.54245 4.97676
#
# Compressibility (1/GPa) = 0.05494825
#
# Stress axis : x y z
#
# Youngs Moduli (GPa) = 103.57265 29.41947 19.47748
#
# Poissons Ratio (x) = 0.21493 -0.06683
# Poissons Ratio (y) = 0.75669 0.31446
# Poissons Ratio (z) = -0.35538 0.47498
#
# Static dielectric constant tensor:
#      x y z
#    x 1.771970 0.000000 0.028490 
#    y 0.000000 1.638910 0.000000 
#    z 0.028490 0.000000 1.705300 
# 
# From -- ./inp_files/68127.got.cif
#   From: 2010.05.17/outbox.cif.g08.bks.cpg/sg11_35_cif.got.tgz:68127.got - 2010.06.03 12:22:45.
