data_PCOD9159748
_publ_section_title
;
Structure prediction by ZEFSAII (Michael W. Deem and Ramdas Pophale) SiO2 
 PCOD9159748
Probable space group: P 21/M
;
_chemical_formula_sum "Si O2"
_cell_formula_units_Z 32
_cell_length_a 12.885422
_cell_length_b 8.653959
_cell_length_c 19.903447
_cell_angle_alpha 90.000000
_cell_angle_beta 63.212356
_cell_angle_gamma 90.000000
_cell_volume 1981.248978
_symmetry_space_group_name_H-M "P 21/M"
_symmetry_group_IT_number 11
_symmetry_cell_setting 'monoclinic'
loop_
_space_group_symop_operation_xyz
x,y,z
-x,1/2+y,-z
-x,-y,-z
x,1/2-y,z
loop_
_atom_site_type_symbol
_atom_site_label
_atom_site_fract_x
_atom_site_fract_y
_atom_site_fract_z
Si Si1 0.494421 0.935591 0.813316
Si Si2 0.235222 0.064837 0.907360
Si Si3 0.723749 0.437562 0.332867
Si Si4 0.177553 0.063882 0.078444
Si Si5 0.594887 0.433722 0.920143
Si Si6 0.380691 0.935234 0.502876
Si Si7 0.913072 0.437283 0.171548
Si Si8 0.472232 0.063920 0.346828
O O1 0.494650 0.750000 0.817032
O O2 0.543325 0.981701 0.725924
O O3 0.361682 0.993174 0.856939
O O4 0.564268 0.003478 0.855451
O O5 0.242488 0.250000 0.900162
O O6 0.145169 0.001446 0.879041
O O7 0.196982 0.025314 0.994292
O O8 0.724623 0.250000 0.331232
O O9 0.715375 0.482942 0.413719
O O10 0.833227 0.489742 0.257343
O O11 0.602783 0.484951 0.331986
O O12 0.187897 0.250000 0.081788
O O13 0.047569 0.017480 0.137211
O O14 0.278907 0.986899 0.091870
O O15 0.585776 0.250000 0.923219
O O16 0.500000 0.500000 0.000000
O O17 0.385460 0.750000 0.499883
O O18 0.500000 0.000000 0.500000
O O19 0.381236 0.997968 0.427180
O O20 0.908851 0.250000 0.169621
O O21 0.469320 0.250000 0.351928
#
# Coordination Sequence:
#
# PCOD9159748 Si02
#       8
#     4   4   4   4   4   4   4   4
#     4  11  21  35  55  75  99 134 171 209 256 304
#     4  11  21  32  48  75 106 133 170 211 251 300
#     4   8  14  27  45  68  97 131 167 198 238 295
#     4  10  22  37  53  73  99 135 176 214 252 299
#     4  12  24  38  56  75  99 130 169 214 259 302
#     4   9  16  26  42  66  98 133 166 199 242 295
#     4  10  19  34  53  72 101 140 176 207 247 299
#     4   9  17  30  47  70  99 129 165 203 247 302
#
# _framework density 16.151427000000002
#
# number of rings (size 3 to 8) (size 9 to 14) (size 15 to 20)
#    0.000    2.000    2.500    3.375    0.000    2.000 
#    0.000    0.625    0.000    0.000    0.000    0.875 
#    0.000    0.000    0.000    0.000    0.000    0.000 
#
# Total GULP energy -178482.641847 kJ/mol
# GULP energy per Si atom -5577.582558 kJ/mol
# Density = 1.611467 g / cm^3
# Si number density = 16.151427 Si / 1000 Ang^3
#
#
#
# Elastic Constant Matrix: (Units=GPa)
#
#
# Indices 1 2 3 4 5 6 
#
# 1 110.8307 35.1185 75.3394 0.0000 5.0175 0.0000
# 2 35.1185 38.6657 44.5011 0.0000 4.6002 0.0000
# 3 75.3394 44.5011 145.5323 0.0000 26.1219 0.0000
# 4 0.0000 0.0000 0.0000 23.5036 0.0000 4.9639
# 5 5.0175 4.6002 26.1219 0.0000 14.7982 0.0000
# 6 0.0000 0.0000 0.0000 4.9639 0.0000 22.3344
#
#
#
# Elastic Compliance Matrix: (Units=1/GPa)
#
#
# Indices 1 2 3 4 5 6 
#
# 1 0.016364 -0.006314 -0.008632 0.000000 0.011652 0.000000
# 2 -0.006314 0.044237 -0.011965 0.000000 0.009510 0.000000
# 3 -0.008632 -0.011965 0.020209 0.000000 -0.029026 0.000000
# 4 0.000000 0.000000 0.000000 0.044642 0.000000 -0.009922
# 5 0.011652 0.009510 -0.029026 0.000000 0.111906 0.000000
# 6 0.000000 0.000000 0.000000 -0.009922 0.000000 0.046979
#
#
# Mechanical properties :
#
#
# Convention : Reuss Voigt Hill
#
# Bulk Modulus (GPa) = 37.05485 67.21631 52.13558
# Shear Modulus (GPa) = 14.40279 21.46521 17.93400
#
# Velocity S-wave (km/s) = 2.98943 3.64950 3.33583
# Velocity P-wave (km/s) = 5.90826 7.71136 6.86923
#
# Compressibility (1/GPa) = 0.02698702
#
# Stress axis : x y z
#
# Youngs Moduli (GPa) = 61.11102 22.60550 49.48407
#
# Poissons Ratio (x) = 0.14274 0.42713
# Poissons Ratio (y) = 0.38587 0.59208
# Poissons Ratio (z) = 0.52750 0.27048
#
# Static dielectric constant tensor:
#      x y z
#    x 1.508230 0.000000 0.005920 
#    y 0.000000 1.557000 0.000000 
#    z 0.005920 0.000000 1.573370 
# 
# From -- ./inp_files/44505.got.cif
#   From: 2010.05.17/outbox.cif.g08.bks.cpg/sg11_23_cif.got.tgz:44505.got - 2010.06.03 12:22:45.
