data_PCOD9159888
_publ_section_title
;
Structure prediction by ZEFSAII (Michael W. Deem and Ramdas Pophale) SiO2 
 PCOD9159888
Probable space group: P 21/M
;
_chemical_formula_sum "Si O2"
_cell_formula_units_Z 32
_cell_length_a 25.579266
_cell_length_b 7.439570
_cell_length_c 20.686231
_cell_angle_alpha 90.000000
_cell_angle_beta 158.313464
_cell_angle_gamma 90.000000
_cell_volume 1454.672119
_symmetry_space_group_name_H-M "P 21/M"
_symmetry_group_IT_number 11
_symmetry_cell_setting 'monoclinic'
loop_
_space_group_symop_operation_xyz
x,y,z
-x,1/2+y,-z
-x,-y,-z
x,1/2-y,z
loop_
_atom_site_type_symbol
_atom_site_label
_atom_site_fract_x
_atom_site_fract_y
_atom_site_fract_z
Si Si1 0.645058 0.970567 0.347858
Si Si2 0.866657 0.037184 0.391263
Si Si3 0.522299 0.530718 0.345282
Si Si4 0.058204 0.958659 0.962691
Si Si5 0.799651 0.029809 0.006029
Si Si6 0.433204 0.964528 0.993058
Si Si7 0.930281 0.959832 0.612294
Si Si8 0.212313 0.468155 0.271176
O O1 0.648114 0.750000 0.350556
O O2 0.589834 0.024271 0.354493
O O3 0.801400 0.034089 0.507191
O O4 0.534452 0.031988 0.165976
O O5 0.848299 0.250000 0.376305
O O6 0.725848 0.964070 0.195128
O O7 0.889978 0.971570 0.490907
O O8 0.000000 0.000000 0.500000
O O9 0.520139 0.750000 0.342844
O O10 0.361214 0.468739 0.168751
O O11 0.632846 0.475714 0.527783
O O12 0.029338 0.750000 0.914815
O O13 0.131802 0.031121 0.983094
O O14 0.164192 0.971090 0.145177
O O15 0.908902 0.032375 0.817630
O O16 0.790845 0.250000 0.995711
O O17 0.913469 0.971475 0.190964
O O18 0.425810 0.750000 0.994616
O O19 0.500000 0.000000 0.000000
O O20 0.936472 0.750000 0.636086
O O21 0.207227 0.250000 0.264901
#
# Coordination Sequence:
#
# PCOD9159888 Si02
#       8
#     4   4   4   4   4   4   4   4
#     4   9  17  30  51  77 102 130 166 214 260 304
#     4  11  24  38  55  80 110 143 178 218 266 318
#     4   9  17  29  48  75 103 129 169 215 253 299
#     4   9  17  31  50  74 101 130 167 208 249 301
#     4   9  18  30  49  76 103 134 172 212 252 301
#     4  10  20  35  56  81 106 135 176 220 266 313
#     4  10  19  34  56  78 103 136 174 215 263 312
#     4   9  17  30  50  74  99 130 167 208 254 300
#
# _framework density 21.998085
#
# number of rings (size 3 to 8) (size 9 to 14) (size 15 to 20)
#    0.000    2.500    1.250    1.125    1.750    4.000 
#    0.000    0.625    0.000    3.750    0.000    0.000 
#    0.000    0.000    0.000    0.000    0.000    0.000 
#
# Total GULP energy -178695.449154 kJ/mol
# GULP energy per Si atom -5584.232786 kJ/mol
# Density = 2.194802 g / cm^3
# Si number density = 21.998085 Si / 1000 Ang^3
#
#
#
# Elastic Constant Matrix: (Units=GPa)
#
#
# Indices 1 2 3 4 5 6 
#
# 1 54.6054 -3.0556 18.9523 0.0000 15.2495 0.0000
# 2 -3.0556 63.6241 4.9474 0.0000 2.6864 0.0000
# 3 18.9523 4.9474 149.8393 0.0000 23.4868 0.0000
# 4 0.0000 0.0000 0.0000 10.5729 0.0000 -7.8741
# 5 15.2495 2.6864 23.4868 0.0000 33.2030 0.0000
# 6 0.0000 0.0000 0.0000 -7.8741 0.0000 7.2731
#
#
#
# Elastic Compliance Matrix: (Units=1/GPa)
#
#
# Indices 1 2 3 4 5 6 
#
# 1 0.021374 0.001511 -0.001345 0.000000 -0.008988 0.000000
# 2 0.001511 0.015895 -0.000456 0.000000 -0.001657 0.000000
# 3 -0.001345 -0.000456 0.007599 0.000000 -0.004721 0.000000
# 4 0.000000 0.000000 0.000000 0.488276 0.000000 0.528629
# 5 -0.008988 -0.001657 -0.004721 0.000000 0.037719 0.000000
# 6 0.000000 0.000000 0.000000 0.528629 0.000000 0.709811
#
#
# Mechanical properties :
#
#
# Convention : Reuss Voigt Hill
#
# Bulk Modulus (GPa) = 22.57925 34.41742 28.49833
# Shear Modulus (GPa) = 3.85797 26.69145 15.27471
#
# Velocity S-wave (km/s) = 1.32574 3.48710 2.63794
# Velocity P-wave (km/s) = 3.55386 5.64737 4.71819
#
# Compressibility (1/GPa) = 0.04428846
#
# Stress axis : x y z
#
# Youngs Moduli (GPa) = 46.78480 62.91163 131.59779
#
# Poissons Ratio (x) = -0.09503 0.17694
# Poissons Ratio (y) = -0.07067 0.06003
# Poissons Ratio (z) = 0.06291 0.02870
#
# Static dielectric constant tensor:
#      x y z
#    x 1.739390 0.000000 0.009770 
#    y 0.000000 1.814080 0.000000 
#    z 0.009770 0.000000 1.814100 
# 
# From -- ./inp_files/27502.got.cif
#   From: 2010.05.17/outbox.cif.g08.bks.cpg/sg11_14_cif.got.tgz:27502.got - 2010.06.03 12:22:45.
