data_PCOD9159098
_publ_section_title
;
Structure prediction by ZEFSAII (Michael W. Deem and Ramdas Pophale) SiO2 
 PCOD9159098
Probable space group: P 21/M
;
_chemical_formula_sum "Si O2"
_cell_formula_units_Z 32
_cell_length_a 20.618492
_cell_length_b 9.095942
_cell_length_c 20.355011
_cell_angle_alpha 90.000000
_cell_angle_beta 29.534528
_cell_angle_gamma 90.000000
_cell_volume 1881.815345
_symmetry_space_group_name_H-M "P 21/M"
_symmetry_group_IT_number 11
_symmetry_cell_setting 'monoclinic'
loop_
_space_group_symop_operation_xyz
x,y,z
-x,1/2+y,-z
-x,-y,-z
x,1/2-y,z
loop_
_atom_site_type_symbol
_atom_site_label
_atom_site_fract_x
_atom_site_fract_y
_atom_site_fract_z
Si Si1 0.889085 0.574434 0.682722
Si Si2 0.360365 0.572668 0.859347
Si Si3 0.655890 0.574066 0.644179
Si Si4 0.314133 0.073659 0.619941
Si Si5 0.136144 0.073571 0.144006
Si Si6 0.189514 0.574972 0.378104
Si Si7 0.611445 0.426382 0.315527
Si Si8 0.862483 0.927138 0.346105
O O1 0.874470 0.750000 0.686993
O O2 0.849555 0.534712 0.791424
O O3 0.810791 0.492010 0.694522
O O4 0.044138 0.539723 0.535692
O O5 0.345225 0.750000 0.876806
O O6 0.507963 0.536812 0.753160
O O7 0.347981 0.530448 0.793585
O O8 0.253166 0.493923 0.998337
O O9 0.662243 0.750000 0.648137
O O10 0.703972 0.494339 0.667344
O O11 0.756805 0.537771 0.496278
O O12 0.310923 0.250000 0.629812
O O13 0.457422 0.035567 0.463061
O O14 0.202481 0.031450 0.666324
O O15 0.308328 0.999730 0.696167
O O16 0.133907 0.250000 0.141169
O O17 0.998155 0.007800 0.240899
O O18 0.202781 0.750000 0.364028
O O19 0.621548 0.250000 0.311524
O O20 0.881673 0.750000 0.329680
#
# Coordination Sequence:
#
# PCOD9159098 Si02
#       8
#     4   4   4   4   4   4   4   4
#     4   9  19  35  52  76 110 143 175 219 271 320
#     4  10  21  38  57  79 110 148 185 218 265 329
#     4  10  19  34  57  82 109 141 180 224 268 318
#     4   9  17  31  53  82 110 137 176 223 269 319
#     4  11  23  38  55  80 113 144 179 225 273 319
#     4  10  19  32  54  83 110 137 176 225 271 317
#     4   9  17  32  53  79 110 141 176 221 269 317
#     4  10  19  34  57  82 108 142 182 222 267 323
#
# _framework density 17.004856
#
# number of rings (size 3 to 8) (size 9 to 14) (size 15 to 20)
#    0.000    2.250    2.500    0.750    0.000    3.000 
#    0.000    1.250    0.000    0.000    0.000    0.000 
#    0.000    0.000    0.000    0.000    0.000    0.000 
#
# Total GULP energy -178546.620955 kJ/mol
# GULP energy per Si atom -5579.581905 kJ/mol
# Density = 1.696615 g / cm^3
# Si number density = 17.004856 Si / 1000 Ang^3
#
#
#
# Elastic Constant Matrix: (Units=GPa)
#
#
# Indices 1 2 3 4 5 6 
#
# 1 187.1266 64.0670 85.5336 0.0000 18.3409 0.0000
# 2 64.0670 31.8105 48.7332 0.0000 5.0598 0.0000
# 3 85.5336 48.7332 115.4499 0.0000 11.7402 0.0000
# 4 0.0000 0.0000 0.0000 21.7243 0.0000 1.7554
# 5 18.3409 5.0598 11.7402 0.0000 24.8222 0.0000
# 6 0.0000 0.0000 0.0000 1.7554 0.0000 33.2472
#
#
#
# Elastic Compliance Matrix: (Units=1/GPa)
#
#
# Indices 1 2 3 4 5 6 
#
# 1 0.019816 -0.049225 0.006898 0.000000 -0.007870 0.000000
# 2 -0.049225 0.211259 -0.054655 0.000000 0.019158 0.000000
# 3 0.006898 -0.054655 0.027321 0.000000 -0.006878 0.000000
# 4 0.000000 0.000000 0.000000 0.046229 0.000000 -0.002441
# 5 -0.007870 0.019158 -0.006878 0.000000 0.045449 0.000000
# 6 0.000000 0.000000 0.000000 -0.002441 0.000000 0.030207
#
#
# Mechanical properties :
#
#
# Convention : Reuss Voigt Hill
#
# Bulk Modulus (GPa) = 15.52003 81.22829 48.37416
# Shear Modulus (GPa) = 8.39320 25.02897 16.71108
#
# Velocity S-wave (km/s) = 2.22407 3.84066 3.13824
# Velocity P-wave (km/s) = 3.96761 8.21821 6.45294
#
# Compressibility (1/GPa) = 0.06443287
#
# Stress axis : x y z
#
# Youngs Moduli (GPa) = 50.46552 4.73353 36.60171
#
# Poissons Ratio (x) = 0.23301 -0.25249
# Poissons Ratio (y) = 2.48416 2.00045
# Poissons Ratio (z) = -0.34812 0.25871
#
# Static dielectric constant tensor:
#      x y z
#    x 1.563980 0.000000 0.006310 
#    y 0.000000 1.564030 0.000000 
#    z 0.006310 0.000000 1.554100 
# 
# From -- ./inp_files/66402.got.cif
#   From: 2010.05.17/outbox.cif.g08.bks.cpg/sg11_34_cif.got.tgz:66402.got - 2010.06.03 12:22:45.
