data_PCOD9159933
_publ_section_title
;
Structure prediction by ZEFSAII (Michael W. Deem and Ramdas Pophale) SiO2 
 PCOD9159933
Probable space group: P 21/M
;
_chemical_formula_sum "Si O2"
_cell_formula_units_Z 20
_cell_length_a 6.889062
_cell_length_b 15.533774
_cell_length_c 13.773926
_cell_angle_alpha 90.000000
_cell_angle_beta 139.986422
_cell_angle_gamma 90.000000
_cell_volume 947.730687
_symmetry_space_group_name_H-M "P 21/M"
_symmetry_group_IT_number 11
_symmetry_cell_setting 'monoclinic'
loop_
_space_group_symop_operation_xyz
x,y,z
-x,1/2+y,-z
-x,-y,-z
x,1/2-y,z
loop_
_atom_site_type_symbol
_atom_site_label
_atom_site_fract_x
_atom_site_fract_y
_atom_site_fract_z
Si Si1 0.131025 0.402931 0.041078
Si Si2 0.267331 0.426165 0.301698
Si Si3 0.267479 0.084245 0.513583
Si Si4 0.518515 0.657113 0.211569
Si Si5 0.708304 0.478616 0.197286
O O1 0.246031 0.376904 0.192772
O O2 0.425614 0.414244 0.087855
O O3 0.000000 0.500000 0.000000
O O4 0.838806 0.349238 0.901384
O O5 0.502862 0.504482 0.383727
O O6 0.337164 0.379838 0.431247
O O7 0.934496 0.466529 0.194461
O O8 0.309324 0.145098 0.620548
O O9 0.928907 0.048723 0.370708
O O10 0.585338 0.750000 0.193269
O O11 0.606871 0.575946 0.178651
#
# Coordination Sequence:
#
# PCOD9159933 Si02
#       5
#     4   4   4   4   4
#     4  10  19  34  56  82 109 146 182 226 267 320
#     4   9  18  33  62  85 103 134 202 227 256 318
#     4   9  18  35  60  86 106 137 191 235 259 323
#     4  11  22  36  53  84 119 142 175 232 286 324
#     4   9  19  35  65  78 103 148 192 221 264 331
#
# _framework density 21.103041999999999
#
# number of rings (size 3 to 8) (size 9 to 14) (size 15 to 20)
#    1.200    1.200    4.000    0.600    0.000    3.200 
#    0.000    3.000    0.000    0.000    0.000    0.000 
#    0.000    0.000    0.000    0.000    0.000    0.000 
#
# Total GULP energy -111355.583670 kJ/mol
# GULP energy per Si atom -5567.779184 kJ/mol
# Density = 2.105501 g / cm^3
# Si number density = 21.103042 Si / 1000 Ang^3
#
#
#
# Elastic Constant Matrix: (Units=GPa)
#
#
# Indices 1 2 3 4 5 6 
#
# 1 63.3559 1.0593 15.8604 0.0000 13.5559 0.0000
# 2 1.0593 49.0048 7.4659 0.0000 4.3229 0.0000
# 3 15.8604 7.4659 99.6326 0.0000 3.5213 0.0000
# 4 0.0000 0.0000 0.0000 4.1920 0.0000 -1.7647
# 5 13.5559 4.3229 3.5213 0.0000 46.6860 0.0000
# 6 0.0000 0.0000 0.0000 -1.7647 0.0000 4.4315
#
#
#
# Elastic Compliance Matrix: (Units=1/GPa)
#
#
# Indices 1 2 3 4 5 6 
#
# 1 0.017491 0.000459 -0.002645 0.000000 -0.004922 0.000000
# 2 0.000459 0.020806 -0.001564 0.000000 -0.001942 0.000000
# 3 -0.002645 -0.001564 0.010571 0.000000 0.000115 0.000000
# 4 0.000000 0.000000 0.000000 0.286597 0.000000 0.114130
# 5 -0.004922 -0.001942 0.000115 0.000000 0.023020 0.000000
# 6 0.000000 0.000000 0.000000 0.114130 0.000000 0.271107
#
#
# Mechanical properties :
#
#
# Convention : Reuss Voigt Hill
#
# Bulk Modulus (GPa) = 24.17244 28.97384 26.57314
# Shear Modulus (GPa) = 7.68190 23.56906 15.62548
#
# Velocity S-wave (km/s) = 1.91000 3.34557 2.72405
# Velocity P-wave (km/s) = 4.04271 5.35567 4.74482
#
# Compressibility (1/GPa) = 0.04136943
#
# Stress axis : x y z
#
# Youngs Moduli (GPa) = 57.17094 48.06361 94.59844
#
# Poissons Ratio (x) = -0.02206 0.25020
# Poissons Ratio (y) = -0.02624 0.14791
# Poissons Ratio (z) = 0.15121 0.07515
#
# Static dielectric constant tensor:
#      x y z
#    x 1.809770 0.000000 -0.036540 
#    y 0.000000 1.736950 0.000000 
#    z -0.036540 0.000000 1.836720 
# 
# From -- ./inp_files/58186.got.cif
#   From: 2010.05.17/outbox.cif.g08.bks.cpg/sg11_30_cif.got.tgz:58186.got - 2010.06.03 12:22:45.
