data_PCOD9159042
_publ_section_title
;
Structure prediction by ZEFSAII (Michael W. Deem and Ramdas Pophale) SiO2 
 PCOD9159042
Probable space group: P 21/M
;
_chemical_formula_sum "Si O2"
_cell_formula_units_Z 24
_cell_length_a 7.723436
_cell_length_b 13.759517
_cell_length_c 14.895200
_cell_angle_alpha 90.000000
_cell_angle_beta 38.674955
_cell_angle_gamma 90.000000
_cell_volume 989.171551
_symmetry_space_group_name_H-M "P 21/M"
_symmetry_group_IT_number 11
_symmetry_cell_setting 'monoclinic'
loop_
_space_group_symop_operation_xyz
x,y,z
-x,1/2+y,-z
-x,-y,-z
x,1/2-y,z
loop_
_atom_site_type_symbol
_atom_site_label
_atom_site_fract_x
_atom_site_fract_y
_atom_site_fract_z
Si Si1 0.332749 0.132579 0.868304
Si Si2 0.779349 0.136747 0.004627
Si Si3 0.049131 0.865092 0.360757
Si Si4 0.503183 0.136985 0.308438
Si Si5 0.204084 0.989830 0.666995
Si Si6 0.282397 0.366621 0.097390
O O1 0.337962 0.250000 0.856262
O O2 0.252506 0.112783 0.003846
O O3 0.083097 0.097791 0.905746
O O4 0.648974 0.097874 0.729279
O O5 0.823008 0.250000 0.965856
O O6 0.587842 0.131313 0.170810
O O7 0.582820 0.096235 0.007434
O O8 0.076985 0.750000 0.334053
O O9 0.813863 0.879316 0.532196
O O10 0.942263 0.912368 0.310940
O O11 0.570105 0.250000 0.309164
O O12 0.686738 0.058223 0.285261
O O13 0.961034 0.912297 0.744596
O O14 0.500000 0.000000 0.500000
O O15 0.276177 0.250000 0.110133
#
# Coordination Sequence:
#
# PCOD9159042 Si02
#       6
#     4   4   4   4   4   4
#     4   9  17  33  56  77 105 144 174 215 268 311
#     4   9  17  31  56  82 105 137 177 218 260 312
#     4   9  19  33  53  76 106 145 178 214 269 319
#     4   9  16  32  56  79 105 140 176 217 268 315
#     4  10  19  32  53  80 107 140 180 218 265 312
#     4  10  19  33  57  84 107 135 180 220 258 317
#
# _framework density 24.262727000000002
#
# number of rings (size 3 to 8) (size 9 to 14) (size 15 to 20)
#    0.000    2.667    1.667    0.500    0.000    1.333 
#    0.000    4.167    7.333    0.000    0.000    0.000 
#    0.000    0.000    0.000    0.000    0.000    0.000 
#
# Total GULP energy -133902.616681 kJ/mol
# GULP energy per Si atom -5579.275695 kJ/mol
# Density = 2.420750 g / cm^3
# Si number density = 24.262727 Si / 1000 Ang^3
#
#
#
# Elastic Constant Matrix: (Units=GPa)
#
#
# Indices 1 2 3 4 5 6 
#
# 1 94.6360 30.4668 62.7394 0.0000 -47.7541 0.0000
# 2 30.4668 91.1605 67.2261 0.0000 -10.2147 0.0000
# 3 62.7394 67.2261 187.6624 0.0000 -43.0972 0.0000
# 4 0.0000 0.0000 0.0000 32.2904 0.0000 -4.0664
# 5 -47.7541 -10.2147 -43.0972 0.0000 44.5969 0.0000
# 6 0.0000 0.0000 0.0000 -4.0664 0.0000 28.4854
#
#
#
# Elastic Compliance Matrix: (Units=1/GPa)
#
#
# Indices 1 2 3 4 5 6 
#
# 1 0.025600 -0.005025 -0.000935 0.000000 0.025358 0.000000
# 2 -0.005025 0.016071 -0.005742 0.000000 -0.007248 0.000000
# 3 -0.000935 -0.005742 0.009210 0.000000 0.006584 0.000000
# 4 0.000000 0.000000 0.000000 0.031536 0.000000 0.004502
# 5 0.025358 -0.007248 0.006584 0.000000 0.054279 0.000000
# 6 0.000000 0.000000 0.000000 0.004502 0.000000 0.035748
#
#
# Mechanical properties :
#
#
# Convention : Reuss Voigt Hill
#
# Bulk Modulus (GPa) = 36.39257 77.14705 56.76981
# Shear Modulus (GPa) = 24.38930 35.27632 29.83281
#
# Velocity S-wave (km/s) = 3.17396 3.81718 3.51033
# Velocity P-wave (km/s) = 5.33516 7.16194 6.31495
#
# Compressibility (1/GPa) = 0.02747814
#
# Stress axis : x y z
#
# Youngs Moduli (GPa) = 39.06197 62.22334 108.57424
#
# Poissons Ratio (x) = 0.31267 0.10153
# Poissons Ratio (y) = 0.19628 0.62341
# Poissons Ratio (z) = 0.03653 0.35728
#
# Static dielectric constant tensor:
#      x y z
#    x 2.002520 0.000000 0.013680 
#    y 0.000000 1.973270 0.000000 
#    z 0.013680 0.000000 1.950510 
# 
# From -- ./inp_files/63902.got.cif
#   From: 2010.05.17/outbox.cif.g08.bks.cpg/sg11_32_cif.got.tgz:63902.got - 2010.06.03 12:22:45.
