data_PCOD9159680
_publ_section_title
;
Structure prediction by ZEFSAII (Michael W. Deem and Ramdas Pophale) SiO2 
 PCOD9159680
Probable space group: P 21/M
;
_chemical_formula_sum "Si O2"
_cell_formula_units_Z 28
_cell_length_a 19.135825
_cell_length_b 8.513295
_cell_length_c 24.920416
_cell_angle_alpha 90.000000
_cell_angle_beta 21.884439
_cell_angle_gamma 90.000000
_cell_volume 1513.217105
_symmetry_space_group_name_H-M "P 21/M"
_symmetry_group_IT_number 11
_symmetry_cell_setting 'monoclinic'
loop_
_space_group_symop_operation_xyz
x,y,z
-x,1/2+y,-z
-x,-y,-z
x,1/2-y,z
loop_
_atom_site_type_symbol
_atom_site_label
_atom_site_fract_x
_atom_site_fract_y
_atom_site_fract_z
Si Si1 0.871072 0.562297 0.756364
Si Si2 0.863850 0.561194 0.930175
Si Si3 0.040957 0.560554 0.912344
Si Si4 0.429454 0.563017 0.944732
Si Si5 0.456444 0.939206 0.589876
Si Si6 0.150303 0.562467 0.349177
Si Si7 0.839718 0.560618 0.364607
O O1 0.861274 0.750000 0.762955
O O2 0.885558 0.499409 0.685682
O O3 0.051447 0.505556 0.661624
O O4 0.689152 0.500253 0.919306
O O5 0.845044 0.750000 0.940375
O O6 0.897713 0.511913 0.967402
O O7 0.048490 0.509461 0.765801
O O8 0.693111 0.483279 0.019961
O O9 0.041185 0.750000 0.911621
O O10 0.250201 0.503780 0.750583
O O11 0.000000 0.500000 0.000000
O O12 0.442298 0.750000 0.940724
O O13 0.636324 0.492209 0.791664
O O14 0.454087 0.750000 0.590539
O O15 0.622897 0.984526 0.511927
O O16 0.500000 0.000000 0.500000
O O17 0.141534 0.750000 0.355714
O O18 0.000000 0.500000 0.500000
O O19 0.856977 0.750000 0.351974
#
# Coordination Sequence:
#
# PCOD9159680 Si02
#       7
#     4   4   4   4   4   4   4
#     4  11  22  39  63  91 122 158 198 245 292 345
#     4  10  19  35  58  84 117 152 194 246 293 345
#     4  10  22  38  55  80 115 155 197 243 292 349
#     4  11  22  39  64  93 120 155 199 244 293 348
#     4  10  20  35  57  84 114 150 194 244 294 347
#     4  12  25  44  65  90 123 157 194 238 293 355
#     4  10  19  33  57  88 117 149 193 246 297 347
#
# _framework density 18.503623000000001
#
# number of rings (size 3 to 8) (size 9 to 14) (size 15 to 20)
#    0.000    1.429    1.429    6.857    0.000    2.286 
#    2.571    0.000    0.000    0.000    0.000    0.000 
#    0.000    0.000    0.000    0.000    0.000    0.000 
#
# Total GULP energy -156366.941836 kJ/mol
# GULP energy per Si atom -5584.533637 kJ/mol
# Density = 1.846151 g / cm^3
# Si number density = 18.503623 Si / 1000 Ang^3
#
#
#
# Elastic Constant Matrix: (Units=GPa)
#
#
# Indices 1 2 3 4 5 6 
#
# 1 138.0170 21.0333 74.4696 0.0000 10.4981 0.0000
# 2 21.0333 80.2297 24.7134 0.0000 1.6215 0.0000
# 3 74.4696 24.7134 117.5478 0.0000 6.1345 0.0000
# 4 0.0000 0.0000 0.0000 28.3862 0.0000 2.8418
# 5 10.4981 1.6215 6.1345 0.0000 26.9411 0.0000
# 6 0.0000 0.0000 0.0000 2.8418 0.0000 33.0752
#
#
#
# Elastic Compliance Matrix: (Units=1/GPa)
#
#
# Indices 1 2 3 4 5 6 
#
# 1 0.011258 -0.000794 -0.006820 0.000000 -0.002786 0.000000
# 2 -0.000794 0.013384 -0.002312 0.000000 0.000030 0.000000
# 3 -0.006820 -0.002312 0.013326 0.000000 -0.000238 0.000000
# 4 0.000000 0.000000 0.000000 0.035534 0.000000 -0.003053
# 5 -0.002786 0.000030 -0.000238 0.000000 0.038256 0.000000
# 6 0.000000 0.000000 0.000000 -0.003053 0.000000 0.030496
#
#
# Mechanical properties :
#
#
# Convention : Reuss Voigt Hill
#
# Bulk Modulus (GPa) = 55.20128 64.02524 59.61326
# Shear Modulus (GPa) = 29.73587 32.05239 30.89413
#
# Velocity S-wave (km/s) = 4.01313 4.16651 4.09054
# Velocity P-wave (km/s) = 7.16736 7.60414 7.38898
#
# Compressibility (1/GPa) = 0.01811552
#
# Stress axis : x y z
#
# Youngs Moduli (GPa) = 88.82295 74.71558 75.03925
#
# Poissons Ratio (x) = 0.05936 0.51177
# Poissons Ratio (y) = 0.07056 0.17351
# Poissons Ratio (z) = 0.60577 0.17276
#
# Static dielectric constant tensor:
#      x y z
#    x 1.632870 0.000000 -0.035130 
#    y 0.000000 1.626060 0.000000 
#    z -0.035130 0.000000 1.601810 
# 
# From -- ./inp_files/71928.got.cif
#   From: 2010.05.17/outbox.cif.g08.bks.cpg/sg11_36_cif.got.tgz:71928.got - 2010.06.03 12:22:45.
