data_PCOD9159341
_publ_section_title
;
Structure prediction by ZEFSAII (Michael W. Deem and Ramdas Pophale) SiO2 
 PCOD9159341
Probable space group: P 21/M
;
_chemical_formula_sum "Si O2"
_cell_formula_units_Z 24
_cell_length_a 9.216138
_cell_length_b 8.999326
_cell_length_c 21.056680
_cell_angle_alpha 90.000000
_cell_angle_beta 130.472712
_cell_angle_gamma 90.000000
_cell_volume 1328.528693
_symmetry_space_group_name_H-M "P 21/M"
_symmetry_group_IT_number 11
_symmetry_cell_setting 'monoclinic'
loop_
_space_group_symop_operation_xyz
x,y,z
-x,1/2+y,-z
-x,-y,-z
x,1/2-y,z
loop_
_atom_site_type_symbol
_atom_site_label
_atom_site_fract_x
_atom_site_fract_y
_atom_site_fract_z
Si Si1 0.201691 0.920838 0.421688
Si Si2 0.460381 0.080008 0.588662
Si Si3 0.541276 0.429005 0.080107
Si Si4 0.263062 0.072125 0.241746
Si Si5 0.197276 0.427734 0.077232
Si Si6 0.064163 0.429550 0.764303
O O1 0.178753 0.750000 0.435308
O O2 0.372549 0.923414 0.417752
O O3 0.017646 0.968665 0.328947
O O4 0.273513 0.018026 0.500656
O O5 0.436402 0.250000 0.601828
O O6 0.543600 0.982096 0.669285
O O7 0.557903 0.250000 0.079869
O O8 0.365767 0.465830 0.076616
O O9 0.734144 0.498174 0.163043
O O10 0.500000 0.500000 0.000000
O O11 0.244938 0.250000 0.243250
O O12 0.252368 0.031219 0.164808
O O13 0.089164 0.992598 0.228960
O O14 0.173837 0.250000 0.069262
O O15 0.000000 0.500000 0.000000
O O16 0.069780 0.250000 0.770321
#
# Coordination Sequence:
#
# PCOD9159341 Si02
#       6
#     4   4   4   4   4   4
#     4   8  15  27  44  69 103 138 171 210 256 304
#     4   9  16  26  44  73 105 136 173 216 258 301
#     4  11  23  39  57  79 106 136 172 214 260 311
#     4  10  19  33  53  77 106 141 176 213 261 309
#     4  10  23  39  56  78 104 135 172 213 257 309
#     4  10  20  34  53  80 109 138 175 217 260 307
#
# _framework density 18.065096
#
# number of rings (size 3 to 8) (size 9 to 14) (size 15 to 20)
#    0.000    2.333    0.000    4.000    0.000   10.000 
#    0.000    0.000    0.000    1.000    0.000    0.000 
#    0.000    0.000    0.000    0.000    0.000    0.000 
#
# Total GULP energy -133904.183040 kJ/mol
# GULP energy per Si atom -5579.340960 kJ/mol
# Density = 1.802398 g / cm^3
# Si number density = 18.065096 Si / 1000 Ang^3
#
#
#
# Elastic Constant Matrix: (Units=GPa)
#
#
# Indices 1 2 3 4 5 6 
#
# 1 75.5788 45.2922 76.5563 0.0000 0.7957 0.0000
# 2 45.2922 75.0065 76.9511 0.0000 1.7492 0.0000
# 3 76.5563 76.9511 195.4659 0.0000 11.0937 0.0000
# 4 0.0000 0.0000 0.0000 39.2033 0.0000 2.9246
# 5 0.7957 1.7492 11.0937 0.0000 24.2992 0.0000
# 6 0.0000 0.0000 0.0000 2.9246 0.0000 18.8862
#
#
#
# Elastic Compliance Matrix: (Units=1/GPa)
#
#
# Indices 1 2 3 4 5 6 
#
# 1 0.024902 -0.008274 -0.006656 0.000000 0.002819 0.000000
# 2 -0.008274 0.025260 -0.006792 0.000000 0.001553 0.000000
# 3 -0.006656 -0.006792 0.010632 0.000000 -0.004147 0.000000
# 4 0.000000 0.000000 0.000000 0.025806 0.000000 -0.003996
# 5 0.002819 0.001553 -0.004147 0.000000 0.042843 0.000000
# 6 0.000000 0.000000 0.000000 -0.003996 0.000000 0.053568
#
#
# Mechanical properties :
#
#
# Convention : Reuss Voigt Hill
#
# Bulk Modulus (GPa) = 57.63578 82.62782 70.13180
# Shear Modulus (GPa) = 21.52964 26.29452 23.91208
#
# Velocity S-wave (km/s) = 3.45596 3.81930 3.64216
# Velocity P-wave (km/s) = 6.92089 8.08007 7.52284
#
# Compressibility (1/GPa) = 0.01735033
#
# Stress axis : x y z
#
# Youngs Moduli (GPa) = 40.15778 39.58756 94.05635
#
# Poissons Ratio (x) = 0.32756 0.62600
# Poissons Ratio (y) = 0.33228 0.63883
# Poissons Ratio (z) = 0.26727 0.26888
#
# Static dielectric constant tensor:
#      x y z
#    x 1.602620 0.000000 0.000600 
#    y 0.000000 1.629690 0.000000 
#    z 0.000600 0.000000 1.622450 
# 
# From -- ./inp_files/25744.got.cif
#   From: 2010.05.17/outbox.cif.g08.bks.cpg/sg11_13_cif.got.tgz:25744.got - 2010.06.03 12:22:45.
