data_PCOD9159790
_publ_section_title
;
Structure prediction by ZEFSAII (Michael W. Deem and Ramdas Pophale) SiO2 
 PCOD9159790
Probable space group: P 21/M
;
_chemical_formula_sum "Si O2"
_cell_formula_units_Z 20
_cell_length_a 5.238105
_cell_length_b 8.364771
_cell_length_c 24.051552
_cell_angle_alpha 90.000000
_cell_angle_beta 109.008191
_cell_angle_gamma 90.000000
_cell_volume 996.368626
_symmetry_space_group_name_H-M "P 21/M"
_symmetry_group_IT_number 11
_symmetry_cell_setting 'monoclinic'
loop_
_space_group_symop_operation_xyz
x,y,z
-x,1/2+y,-z
-x,-y,-z
x,1/2-y,z
loop_
_atom_site_type_symbol
_atom_site_label
_atom_site_fract_x
_atom_site_fract_y
_atom_site_fract_z
Si Si1 0.800561 0.058706 0.533714
Si Si2 0.857874 0.554903 0.866248
Si Si3 0.536715 0.940701 0.733646
Si Si4 0.540033 0.056828 0.065526
Si Si5 0.061183 0.940796 0.331711
O O1 0.803506 0.250000 0.534115
O O2 0.893557 0.004118 0.601571
O O3 0.500000 0.000000 0.500000
O O4 0.000000 0.000000 0.500000
O O5 0.859326 0.750000 0.865674
O O6 0.698730 0.503594 0.799917
O O7 0.695674 0.502980 0.909599
O O8 0.168074 0.502932 0.891126
O O9 0.500775 0.750000 0.735220
O O10 0.242108 0.017310 0.708016
O O11 0.720397 0.981165 0.693590
O O12 0.538984 0.250000 0.065525
O O13 0.500000 0.000000 0.000000
O O14 0.099340 0.750000 0.332354
#
# Coordination Sequence:
#
# PCOD9159790 Si02
#       5
#     4   4   4   4   4
#     4  11  24  41  62  87 119 156 195 238 290 346
#     4   9  19  35  55  78 108 143 182 231 281 325
#     4  11  22  39  64  89 112 153 206 241 275 346
#     4  10  19  34  54  77 107 142 179 226 280 333
#     4  11  24  41  59  87 125 156 183 238 308 346
#
# _framework density 20.072892
#
# number of rings (size 3 to 8) (size 9 to 14) (size 15 to 20)
#    0.000    1.600    0.000    4.800    0.000   11.200 
#    0.000    6.000    0.000    0.000    0.000    0.000 
#    0.000    0.000    0.000    0.000    0.000    0.000 
#
# Total GULP energy -111841.152739 kJ/mol
# GULP energy per Si atom -5592.057637 kJ/mol
# Density = 2.002720 g / cm^3
# Si number density = 20.072892 Si / 1000 Ang^3
#
#
#
# Elastic Constant Matrix: (Units=GPa)
#
#
# Indices 1 2 3 4 5 6 
#
# 1 63.9384 -6.3838 -30.6884 0.0000 0.9775 0.0000
# 2 -6.3838 13.8580 4.0942 0.0000 -0.0801 0.0000
# 3 -30.6884 4.0942 51.7976 0.0000 0.8052 0.0000
# 4 0.0000 0.0000 0.0000 21.2869 0.0000 -9.4220
# 5 0.9775 -0.0801 0.8052 0.0000 44.4725 0.0000
# 6 0.0000 0.0000 0.0000 -9.4220 0.0000 25.9693
#
#
#
# Elastic Compliance Matrix: (Units=1/GPa)
#
#
# Indices 1 2 3 4 5 6 
#
# 1 0.022445 0.006556 0.012791 0.000000 -0.000713 0.000000
# 2 0.006556 0.075804 -0.002108 0.000000 0.000031 0.000000
# 3 0.012791 -0.002108 0.027063 0.000000 -0.000775 0.000000
# 4 0.000000 0.000000 0.000000 0.055964 0.000000 0.020305
# 5 -0.000713 0.000031 -0.000775 0.000000 0.022516 0.000000
# 6 0.000000 0.000000 0.000000 0.020305 0.000000 0.045874
#
#
# Mechanical properties :
#
#
# Convention : Reuss Voigt Hill
#
# Bulk Modulus (GPa) = 6.25824 7.07089 6.66457
# Shear Modulus (GPa) = 18.62547 29.18387 23.90467
#
# Velocity S-wave (km/s) = 3.04944 3.81713 3.45468
# Velocity P-wave (km/s) = 3.93996 4.79141 4.38639
#
# Compressibility (1/GPa) = 0.15978924
#
# Stress axis : x y z
#
# Youngs Moduli (GPa) = 44.55410 13.19195 36.95139
#
# Poissons Ratio (x) = -0.08649 -0.47263
# Poissons Ratio (y) = -0.29211 0.07789
# Poissons Ratio (z) = -0.56987 0.02781
#
# Static dielectric constant tensor:
#      x y z
#    x 1.658450 0.000000 0.002240 
#    y 0.000000 1.693090 0.000000 
#    z 0.002240 0.000000 1.691870 
# 
# From -- ./inp_files/62456.got.cif
#   From: 2010.05.17/outbox.cif.g08.bks.cpg/sg11_32_cif.got.tgz:62456.got - 2010.06.03 12:22:45.
