data_PCOD9159835
_publ_section_title
;
Structure prediction by ZEFSAII (Michael W. Deem and Ramdas Pophale) SiO2 
 PCOD9159835
Probable space group: P 21/M
;
_chemical_formula_sum "Si O2"
_cell_formula_units_Z 28
_cell_length_a 14.518748
_cell_length_b 9.472459
_cell_length_c 14.258197
_cell_angle_alpha 90.000000
_cell_angle_beta 52.803514
_cell_angle_gamma 90.000000
_cell_volume 1561.992058
_symmetry_space_group_name_H-M "P 21/M"
_symmetry_group_IT_number 11
_symmetry_cell_setting 'monoclinic'
loop_
_space_group_symop_operation_xyz
x,y,z
-x,1/2+y,-z
-x,-y,-z
x,1/2-y,z
loop_
_atom_site_type_symbol
_atom_site_label
_atom_site_fract_x
_atom_site_fract_y
_atom_site_fract_z
Si Si1 0.069971 0.082597 0.535252
Si Si2 0.028871 0.581630 0.195181
Si Si3 0.675359 0.910459 0.573896
Si Si4 0.453457 0.095239 0.756636
Si Si5 0.149506 0.912424 0.826329
Si Si6 0.212343 0.421197 0.976437
Si Si7 0.368033 0.029348 0.609719
O O1 0.072068 0.250000 0.513023
O O2 0.203129 0.033013 0.462729
O O3 0.011239 0.066503 0.673096
O O4 0.000000 0.000000 0.500000
O O5 0.036084 0.750000 0.169238
O O6 0.935372 0.502234 0.187212
O O7 0.146957 0.497435 0.101542
O O8 0.661377 0.750000 0.613786
O O9 0.682187 0.908416 0.455624
O O10 0.562697 0.995571 0.675029
O O11 0.495583 0.250000 0.757327
O O12 0.350177 0.050867 0.889068
O O13 0.387762 0.106488 0.696343
O O14 0.111934 0.750000 0.863603
O O15 0.161388 0.998797 0.915926
O O16 0.275585 0.912042 0.698169
O O17 0.195746 0.250000 0.983345
O O18 0.500000 0.000000 0.500000
#
# Coordination Sequence:
#
# PCOD9159835 Si02
#       7
#     4   4   4   4   4   4   4
#     4  10  23  41  60  84 109 141 182 235 289 332
#     4  11  22  38  57  78 109 145 184 230 281 330
#     4  10  19  34  55  78 110 145 181 227 280 331
#     4   9  19  32  51  80 113 148 183 221 266 322
#     4  11  21  33  51  78 110 150 193 226 268 326
#     4  10  21  36  53  79 115 151 187 225 268 323
#     4   9  18  30  46  74 112 146 183 220 260 318
#
# _framework density 17.925829
#
# number of rings (size 3 to 8) (size 9 to 14) (size 15 to 20)
#    0.000    2.000    1.429    2.143    0.000   10.857 
#    0.000    0.000    0.000    0.857    0.000    0.000 
#    0.000    0.000    0.000    0.000    0.000    0.000 
#
# Total GULP energy -155906.363931 kJ/mol
# GULP energy per Si atom -5568.084426 kJ/mol
# Density = 1.788503 g / cm^3
# Si number density = 17.925829 Si / 1000 Ang^3
#
#
#
# Elastic Constant Matrix: (Units=GPa)
#
#
# Indices 1 2 3 4 5 6 
#
# 1 100.6615 49.1578 38.5932 0.0000 -15.0340 0.0000
# 2 49.1578 114.4420 58.3956 0.0000 -12.7701 0.0000
# 3 38.5932 58.3956 88.8238 0.0000 -29.2591 0.0000
# 4 0.0000 0.0000 0.0000 26.2839 0.0000 -4.3008
# 5 -15.0340 -12.7701 -29.2591 0.0000 22.8028 0.0000
# 6 0.0000 0.0000 0.0000 -4.3008 0.0000 22.0436
#
#
#
# Elastic Compliance Matrix: (Units=1/GPa)
#
#
# Indices 1 2 3 4 5 6 
#
# 1 0.013341 -0.004563 -0.001284 0.000000 0.004593 0.000000
# 2 -0.004563 0.015283 -0.010802 0.000000 -0.008310 0.000000
# 3 -0.001284 -0.010802 0.028833 0.000000 0.030101 0.000000
# 4 0.000000 0.000000 0.000000 0.039301 0.000000 0.007668
# 5 0.004593 -0.008310 0.030101 0.000000 0.080852 0.000000
# 6 0.000000 0.000000 0.000000 0.007668 0.000000 0.046861
#
#
# Mechanical properties :
#
#
# Convention : Reuss Voigt Hill
#
# Bulk Modulus (GPa) = 41.39254 66.24673 53.81963
# Shear Modulus (GPa) = 18.80969 24.74479 21.77724
#
# Velocity S-wave (km/s) = 3.24281 3.71940 3.48925
# Velocity P-wave (km/s) = 6.09609 7.44859 6.80602
#
# Compressibility (1/GPa) = 0.02415894
#
# Stress axis : x y z
#
# Youngs Moduli (GPa) = 74.95858 65.43347 34.68234
#
# Poissons Ratio (x) = 0.29857 0.04452
# Poissons Ratio (y) = 0.34203 0.37465
# Poissons Ratio (z) = 0.09622 0.70683
#
# Static dielectric constant tensor:
#      x y z
#    x 1.604590 0.000000 -0.029130 
#    y 0.000000 1.719160 0.000000 
#    z -0.029130 0.000000 1.657640 
# 
# From -- ./inp_files/51584.got.cif
#   From: 2010.05.17/outbox.cif.g08.bks.cpg/sg11_26_cif.got.tgz:51584.got - 2010.06.03 12:22:45.
