data_PCOD9159058
_publ_section_title
;
Structure prediction by ZEFSAII (Michael W. Deem and Ramdas Pophale) SiO2 
 PCOD9159058
Probable space group: P 21/M
;
_chemical_formula_sum "Si O2"
_cell_formula_units_Z 32
_cell_length_a 17.857458
_cell_length_b 9.396056
_cell_length_c 20.816425
_cell_angle_alpha 90.000000
_cell_angle_beta 33.189585
_cell_angle_gamma 90.000000
_cell_volume 1911.987233
_symmetry_space_group_name_H-M "P 21/M"
_symmetry_group_IT_number 11
_symmetry_cell_setting 'monoclinic'
loop_
_space_group_symop_operation_xyz
x,y,z
-x,1/2+y,-z
-x,-y,-z
x,1/2-y,z
loop_
_atom_site_type_symbol
_atom_site_label
_atom_site_fract_x
_atom_site_fract_y
_atom_site_fract_z
Si Si1 0.670984 0.500123 0.009705
Si Si2 0.804375 0.912090 0.783561
Si Si3 0.319141 0.577661 0.384657
Si Si4 0.039052 0.591466 0.152570
Si Si5 0.363525 0.412334 0.224436
Si Si6 0.083245 0.077825 0.995807
Si Si7 0.618475 0.910771 0.189047
Si Si8 0.930126 0.581217 0.370194
O O1 0.716918 0.578095 0.911946
O O2 0.804197 0.409823 0.934147
O O3 0.527738 0.422716 0.099879
O O4 0.643655 0.590460 0.093876
O O5 0.856186 0.750000 0.740184
O O6 0.709592 0.943590 0.790479
O O7 0.931048 0.019097 0.698357
O O8 0.313968 0.750000 0.389583
O O9 0.316582 0.520119 0.313489
O O10 0.467432 0.526466 0.305538
O O11 0.196712 0.506333 0.511287
O O12 0.007986 0.750000 0.150124
O O13 0.028485 0.476174 0.104109
O O14 0.948453 0.561000 0.280303
O O15 0.328639 0.250000 0.268299
O O16 0.077904 0.250000 0.995460
O O17 0.243092 0.028090 0.880147
O O18 0.000000 0.000000 0.000000
O O19 0.610196 0.750000 0.218878
O O20 0.917324 0.750000 0.391569
#
# Coordination Sequence:
#
# PCOD9159058 Si02
#       8
#     4   4   4   4   4   4   4   4
#     4   9  16  29  49  72  98 127 162 205 251 299
#     4  10  20  32  48  70  97 131 169 210 256 307
#     4  10  20  35  54  72  93 127 171 213 252 296
#     4   9  18  32  51  75 101 129 162 198 241 292
#     4  10  20  32  47  70  99 130 166 210 260 307
#     4  10  19  32  53  81 112 137 157 187 231 284
#     4   8  16  30  49  74 100 127 159 197 239 285
#     4  10  21  36  53  72  96 128 168 214 257 296
#
# _framework density 16.736512999999999
#
# number of rings (size 3 to 8) (size 9 to 14) (size 15 to 20)
#    0.000    2.500    0.000    2.250    0.000    5.500 
#    0.000    1.875    0.000    0.750    0.000    0.000 
#    0.000    0.000    0.000    0.000    0.000    0.000 
#
# Total GULP energy -178176.913360 kJ/mol
# GULP energy per Si atom -5568.028542 kJ/mol
# Density = 1.669842 g / cm^3
# Si number density = 16.736513 Si / 1000 Ang^3
#
#
#
# Elastic Constant Matrix: (Units=GPa)
#
#
# Indices 1 2 3 4 5 6 
#
# 1 104.6169 50.5992 47.2612 0.0000 -13.9026 0.0000
# 2 50.5992 87.1832 45.7496 0.0000 -0.5689 0.0000
# 3 47.2612 45.7496 116.2915 0.0000 -1.9444 0.0000
# 4 0.0000 0.0000 0.0000 22.6634 0.0000 2.5881
# 5 -13.9026 -0.5689 -1.9444 0.0000 14.9411 0.0000
# 6 0.0000 0.0000 0.0000 2.5881 0.0000 21.8256
#
#
#
# Elastic Compliance Matrix: (Units=1/GPa)
#
#
# Indices 1 2 3 4 5 6 
#
# 1 0.016975 -0.007896 -0.003541 0.000000 0.015034 0.000000
# 2 -0.007896 0.018127 -0.004043 0.000000 -0.007183 0.000000
# 3 -0.003541 -0.004043 0.011596 0.000000 -0.001940 0.000000
# 4 0.000000 0.000000 0.000000 0.044730 0.000000 -0.005304
# 5 0.015034 -0.007183 -0.001940 0.000000 0.080392 0.000000
# 6 0.000000 0.000000 0.000000 -0.005304 0.000000 0.046447
#
#
# Mechanical properties :
#
#
# Convention : Reuss Voigt Hill
#
# Bulk Modulus (GPa) = 63.53421 66.14574 64.83998
# Shear Modulus (GPa) = 19.64852 22.85146 21.24999
#
# Velocity S-wave (km/s) = 3.43007 3.69909 3.56712
# Velocity P-wave (km/s) = 7.33015 7.60605 7.46937
#
# Compressibility (1/GPa) = 0.01573955
#
# Stress axis : x y z
#
# Youngs Moduli (GPa) = 58.90988 55.16634 86.23552
#
# Poissons Ratio (x) = 0.43557 0.30538
# Poissons Ratio (y) = 0.46513 0.34861
# Poissons Ratio (z) = 0.20861 0.22301
#
# Static dielectric constant tensor:
#      x y z
#    x 1.550220 0.000000 -0.012550 
#    y 0.000000 1.581360 0.000000 
#    z -0.012550 0.000000 1.569480 
# 
# From -- ./inp_files/69424.got.cif
#   From: 2010.05.17/outbox.cif.g08.bks.cpg/sg11_35_cif.got.tgz:69424.got - 2010.06.03 12:22:45.
