data_PCOD9159412
_publ_section_title
;
Structure prediction by ZEFSAII (Michael W. Deem and Ramdas Pophale) SiO2 
 PCOD9159412
Probable space group: P 21/M
;
_chemical_formula_sum "Si O2"
_cell_formula_units_Z 32
_cell_length_a 12.606589
_cell_length_b 7.470508
_cell_length_c 19.435140
_cell_angle_alpha 90.000000
_cell_angle_beta 51.092073
_cell_angle_gamma 90.000000
_cell_volume 1424.302442
_symmetry_space_group_name_H-M "P 21/M"
_symmetry_group_IT_number 11
_symmetry_cell_setting 'monoclinic'
loop_
_space_group_symop_operation_xyz
x,y,z
-x,1/2+y,-z
-x,-y,-z
x,1/2-y,z
loop_
_atom_site_type_symbol
_atom_site_label
_atom_site_fract_x
_atom_site_fract_y
_atom_site_fract_z
Si Si1 0.666250 0.039923 0.707688
Si Si2 0.167390 0.545803 0.489495
Si Si3 0.093325 0.465240 0.028969
Si Si4 0.671585 0.466911 0.277028
Si Si5 0.632772 0.955734 0.140637
Si Si6 0.581368 0.961872 0.536198
Si Si7 0.946748 0.468288 0.228676
Si Si8 0.071546 0.467113 0.322168
O O1 0.642604 0.250000 0.701836
O O2 0.746822 0.962134 0.608325
O O3 0.518390 0.963341 0.788130
O O4 0.774894 0.022672 0.724529
O O5 0.137751 0.750000 0.481585
O O6 0.272446 0.547075 0.510972
O O7 0.027801 0.467050 0.575749
O O8 0.102442 0.250000 0.029989
O O9 0.025365 0.527279 0.127657
O O10 0.247136 0.535443 0.954786
O O11 0.000000 0.500000 0.000000
O O12 0.672299 0.250000 0.273405
O O13 0.696277 0.539250 0.191302
O O14 0.523153 0.525063 0.362358
O O15 0.789498 0.521921 0.281655
O O16 0.612835 0.750000 0.126440
O O17 0.600055 0.750000 0.534068
O O18 0.500000 0.000000 0.500000
O O19 0.948746 0.250000 0.228760
O O20 0.013909 0.528538 0.272284
O O21 0.065738 0.250000 0.325273
#
# Coordination Sequence:
#
# PCOD9159412 Si02
#       8
#     4   4   4   4   4   4   4   4
#     4  10  21  37  55  77 110 144 179 230 278 317
#     4  10  20  36  56  77 106 143 183 228 275 322
#     4  10  19  33  56  82 109 142 177 216 270 330
#     4  10  19  33  54  78 106 141 178 218 265 321
#     4  10  20  34  54  81 109 139 174 217 273 325
#     4  11  22  33  50  78 112 148 184 221 267 327
#     4   9  18  34  54  78 109 140 174 222 272 315
#     4  10  21  37  57  78 104 143 189 229 268 322
#
# _framework density 22.467139
#
# number of rings (size 3 to 8) (size 9 to 14) (size 15 to 20)
#    0.000    2.000    2.500    1.500    0.000    4.000 
#    0.000    1.875    0.000    0.000    0.000    0.000 
#    0.000    0.000    0.000    0.000    0.000    0.000 
#
# Total GULP energy -178758.845635 kJ/mol
# GULP energy per Si atom -5586.213926 kJ/mol
# Density = 2.241600 g / cm^3
# Si number density = 22.467139 Si / 1000 Ang^3
#
#
#
# Elastic Constant Matrix: (Units=GPa)
#
#
# Indices 1 2 3 4 5 6 
#
# 1 135.7552 1.2741 39.3565 0.0000 -22.4055 0.0000
# 2 1.2741 76.3561 8.5118 0.0000 -1.1402 0.0000
# 3 39.3565 8.5118 108.5347 0.0000 -25.5726 0.0000
# 4 0.0000 0.0000 0.0000 -1.4400 0.0000 3.4815
# 5 -22.4055 -1.1402 -25.5726 0.0000 34.8622 0.0000
# 6 0.0000 0.0000 0.0000 3.4815 0.0000 24.1241
#
#
#
# Elastic Compliance Matrix: (Units=1/GPa)
#
#
# Indices 1 2 3 4 5 6 
#
# 1 0.008660 0.000162 -0.002225 0.000000 0.003939 0.000000
# 2 0.000162 0.013220 -0.001172 0.000000 -0.000323 0.000000
# 3 -0.002225 -0.001172 0.011807 0.000000 0.007193 0.000000
# 4 0.000000 0.000000 0.000000 -0.514806 0.000000 0.074296
# 5 0.003939 -0.000323 0.007193 0.000000 0.036481 0.000000
# 6 0.000000 0.000000 0.000000 0.074296 0.000000 0.030730
#
#
# Mechanical properties :
#
#
# Convention : Reuss Voigt Hill
#
# Bulk Modulus (GPa) = 36.74039 46.54787 41.64413
# Shear Modulus (GPa) = -12.55124 29.60951 8.52913
#
# Velocity S-wave (km/s) = -2.36614 3.63423 1.95052
# Velocity P-wave (km/s) = 2.98724 6.19462 4.86297
#
# Compressibility (1/GPa) = 0.02721800
#
# Stress axis : x y z
#
# Youngs Moduli (GPa) = 115.47677 75.64522 84.69553
#
# Poissons Ratio (x) = -0.01228 0.18844
# Poissons Ratio (y) = -0.01875 0.09923
# Poissons Ratio (z) = 0.25692 0.08863
#
# Static dielectric constant tensor:
#      x y z
#    x 1.817110 0.000000 -0.003720 
#    y 0.000000 1.865450 0.000000 
#    z -0.003720 0.000000 1.859850 
# 
# From -- ./inp_files/38139.got.cif
#   From: 2010.05.17/outbox.cif.g08.bks.cpg/sg11_20_cif.got.tgz:38139.got - 2010.06.03 12:22:45.
