data_PCOD9159549
_publ_section_title
;
Structure prediction by ZEFSAII (Michael W. Deem and Ramdas Pophale) SiO2 
 PCOD9159549
Probable space group: P 21/M
;
_chemical_formula_sum "Si O2"
_cell_formula_units_Z 28
_cell_length_a 12.152818
_cell_length_b 7.947644
_cell_length_c 16.221291
_cell_angle_alpha 90.000000
_cell_angle_beta 56.439372
_cell_angle_gamma 90.000000
_cell_volume 1305.578182
_symmetry_space_group_name_H-M "P 21/M"
_symmetry_group_IT_number 11
_symmetry_cell_setting 'monoclinic'
loop_
_space_group_symop_operation_xyz
x,y,z
-x,1/2+y,-z
-x,-y,-z
x,1/2-y,z
loop_
_atom_site_type_symbol
_atom_site_label
_atom_site_fract_x
_atom_site_fract_y
_atom_site_fract_z
Si Si1 0.409135 0.543210 0.801044
Si Si2 0.423950 0.941477 0.612796
Si Si3 0.866290 0.451529 0.008850
Si Si4 0.674178 0.544841 0.767282
Si Si5 0.830381 0.947217 0.363136
Si Si6 0.850466 0.952505 0.540186
Si Si7 0.116756 0.448994 0.187107
O O1 0.407084 0.750000 0.799542
O O2 0.444975 0.480259 0.694251
O O3 0.523254 0.491754 0.817572
O O4 0.263987 0.488660 0.888741
O O5 0.465510 0.750000 0.605293
O O6 0.500000 0.000000 0.500000
O O7 0.269063 0.958051 0.656019
O O8 0.860744 0.250000 0.006187
O O9 0.866348 0.520660 0.916322
O O10 0.000000 0.500000 0.000000
O O11 0.673757 0.750000 0.768232
O O12 0.754843 0.489850 0.652584
O O13 0.757394 0.489810 0.812205
O O14 0.794529 0.750000 0.375250
O O15 0.814836 0.012111 0.463237
O O16 0.982021 0.967065 0.274449
O O17 0.843021 0.750000 0.540647
O O18 0.000000 0.000000 0.500000
O O19 0.101506 0.250000 0.209075
#
# Coordination Sequence:
#
# PCOD9159549 Si02
#       7
#     4   4   4   4   4   4   4
#     4   9  20  39  61  84 114 156 198 242 298 355
#     4  11  22  38  61  88 121 157 200 247 303 365
#     4  11  23  41  65  89 116 152 199 251 301 357
#     4   9  18  35  58  84 117 156 195 237 294 361
#     4  11  22  36  58  87 121 158 204 254 299 354
#     4  10  19  33  55  83 117 157 196 241 293 352
#     4  11  22  37  60  88 119 155 196 244 302 362
#
# _framework density 21.446435000000001
#
# number of rings (size 3 to 8) (size 9 to 14) (size 15 to 20)
#    0.000    1.714    1.429    3.429    0.000    4.571 
#    0.000    2.143    0.000    6.857    0.000    0.000 
#    0.000    0.000    0.000    0.000    0.000    0.000 
#
# Total GULP energy -156477.203131 kJ/mol
# GULP energy per Si atom -5588.471540 kJ/mol
# Density = 2.139762 g / cm^3
# Si number density = 21.446435 Si / 1000 Ang^3
#
#
#
# Elastic Constant Matrix: (Units=GPa)
#
#
# Indices 1 2 3 4 5 6 
#
# 1 153.4718 -13.3587 64.8015 0.0000 -2.4435 0.0000
# 2 -13.3587 19.4018 -1.3165 0.0000 -2.1502 0.0000
# 3 64.8015 -1.3165 113.9995 0.0000 6.2545 0.0000
# 4 0.0000 0.0000 0.0000 23.1718 0.0000 -1.2958
# 5 -2.4435 -2.1502 6.2545 0.0000 40.9713 0.0000
# 6 0.0000 0.0000 0.0000 -1.2958 0.0000 20.2232
#
#
#
# Elastic Compliance Matrix: (Units=1/GPa)
#
#
# Indices 1 2 3 4 5 6 
#
# 1 0.009337 0.006256 -0.005329 0.000000 0.001699 0.000000
# 2 0.006256 0.056058 -0.003117 0.000000 0.003791 0.000000
# 3 -0.005329 -0.003117 0.011891 0.000000 -0.002297 0.000000
# 4 0.000000 0.000000 0.000000 0.043311 0.000000 0.002775
# 5 0.001699 0.003791 -0.002297 0.000000 0.025058 0.000000
# 6 0.000000 0.000000 0.000000 0.002775 0.000000 0.049626
#
#
# Mechanical properties :
#
#
# Convention : Reuss Voigt Hill
#
# Bulk Modulus (GPa) = 13.71611 43.01396 28.36503
# Shear Modulus (GPa) = 22.32517 32.65640 27.49078
#
# Velocity S-wave (km/s) = 3.22991 3.90641 3.58416
# Velocity P-wave (km/s) = 4.50768 6.35977 5.51207
#
# Compressibility (1/GPa) = 0.07290696
#
# Stress axis : x y z
#
# Youngs Moduli (GPa) = 107.09647 17.83879 84.09740
#
# Poissons Ratio (x) = -0.11159 0.44813
# Poissons Ratio (y) = -0.66997 0.26210
# Poissons Ratio (z) = 0.57068 0.05560
#
# Static dielectric constant tensor:
#      x y z
#    x 1.765590 0.000000 0.002530 
#    y 0.000000 1.815450 0.000000 
#    z 0.002530 0.000000 1.760050 
# 
# From -- ./inp_files/49168.got.cif
#   From: 2010.05.17/outbox.cif.g08.bks.cpg/sg11_25_cif.got.tgz:49168.got - 2010.06.03 12:22:45.
