data_PCOD9159930
_publ_section_title
;
Structure prediction by ZEFSAII (Michael W. Deem and Ramdas Pophale) SiO2 
 PCOD9159930
Probable space group: P 21/M
;
_chemical_formula_sum "Si O2"
_cell_formula_units_Z 28
_cell_length_a 12.585145
_cell_length_b 8.495276
_cell_length_c 27.824193
_cell_angle_alpha 90.000000
_cell_angle_beta 149.967257
_cell_angle_gamma 90.000000
_cell_volume 1488.873802
_symmetry_space_group_name_H-M "P 21/M"
_symmetry_group_IT_number 11
_symmetry_cell_setting 'monoclinic'
loop_
_space_group_symop_operation_xyz
x,y,z
-x,1/2+y,-z
-x,-y,-z
x,1/2-y,z
loop_
_atom_site_type_symbol
_atom_site_label
_atom_site_fract_x
_atom_site_fract_y
_atom_site_fract_z
Si Si1 0.524574 0.438035 0.138105
Si Si2 0.684363 0.438286 0.037240
Si Si3 0.484033 0.940509 0.659756
Si Si4 0.981717 0.560151 0.681670
Si Si5 0.868845 0.942066 0.742767
Si Si6 0.071571 0.560675 0.442575
Si Si7 0.587175 0.938463 0.265812
O O1 0.514379 0.250000 0.132914
O O2 0.487575 0.497835 0.177559
O O3 0.767857 0.484380 0.219774
O O4 0.368768 0.506499 0.037189
O O5 0.682216 0.250000 0.038232
O O6 0.912736 0.492425 0.146174
O O7 0.500000 0.500000 0.000000
O O8 0.483512 0.750000 0.660715
O O9 0.666407 0.992342 0.694238
O O10 0.255657 0.995485 0.550170
O O11 0.518128 0.002097 0.726694
O O12 0.972517 0.750000 0.675480
O O13 0.875045 0.507461 0.689571
O O14 0.885515 0.490981 0.595318
O O15 0.868439 0.750000 0.742028
O O16 0.069629 0.750000 0.443433
O O17 0.834288 0.504950 0.362704
O O18 0.586556 0.750000 0.264224
#
# Coordination Sequence:
#
# PCOD9159930 Si02
#       7
#     4   4   4   4   4   4   4
#     4  10  19  34  56  82 107 136 177 218 264 314
#     4  11  20  34  56  82 109 138 174 216 264 313
#     4  10  20  36  55  74 104 145 181 215 259 313
#     4   9  17  32  52  76 106 139 172 212 263 316
#     4   9  19  35  53  76 108 142 175 213 262 316
#     4   9  19  33  52  79 106 136 176 221 263 305
#     4  10  20  35  54  79 109 137 175 224 266 305
#
# _framework density 18.806159000000001
#
# number of rings (size 3 to 8) (size 9 to 14) (size 15 to 20)
#    0.000    2.286    1.429    1.714    0.000    2.286 
#    0.000    2.857    0.000    0.000    0.000    0.000 
#    0.000    0.000    0.000    0.000    0.000    0.000 
#
# Total GULP energy -156288.824415 kJ/mol
# GULP energy per Si atom -5581.743729 kJ/mol
# Density = 1.876336 g / cm^3
# Si number density = 18.806159 Si / 1000 Ang^3
#
#
#
# Elastic Constant Matrix: (Units=GPa)
#
#
# Indices 1 2 3 4 5 6 
#
# 1 107.8870 2.8639 4.2277 0.0000 -22.3225 0.0000
# 2 2.8639 13.3190 -0.2002 0.0000 -1.7907 0.0000
# 3 4.2277 -0.2002 27.3630 0.0000 -17.0004 0.0000
# 4 0.0000 0.0000 0.0000 20.3131 0.0000 -9.6479
# 5 -22.3225 -1.7907 -17.0004 0.0000 25.9087 0.0000
# 6 0.0000 0.0000 0.0000 -9.6479 0.0000 28.9514
#
#
#
# Elastic Compliance Matrix: (Units=1/GPa)
#
#
# Indices 1 2 3 4 5 6 
#
# 1 0.012204 -0.000408 0.007811 0.000000 0.015612 0.000000
# 2 -0.000408 0.076475 0.006227 0.000000 0.009020 0.000000
# 3 0.007811 0.006227 0.067248 0.000000 0.051286 0.000000
# 4 0.000000 0.000000 0.000000 0.058486 0.000000 0.019490
# 5 0.015612 0.009020 0.051286 0.000000 0.086323 0.000000
# 6 0.000000 0.000000 0.000000 0.019490 0.000000 0.041036
#
#
# Mechanical properties :
#
#
# Convention : Reuss Voigt Hill
#
# Bulk Modulus (GPa) = 5.45891 18.03906 11.74899
# Shear Modulus (GPa) = 13.31297 24.47982 18.89639
#
# Velocity S-wave (km/s) = 2.66353 3.61181 3.17329
# Velocity P-wave (km/s) = 3.51685 5.19678 4.43705
#
# Compressibility (1/GPa) = 0.18318666
#
# Stress axis : x y z
#
# Youngs Moduli (GPa) = 81.94130 13.07619 14.87040
#
# Poissons Ratio (x) = 0.00533 -0.11615
# Poissons Ratio (y) = 0.03340 -0.09260
# Poissons Ratio (z) = -0.64003 -0.08142
#
# Static dielectric constant tensor:
#      x y z
#    x 1.642370 0.000000 0.006180 
#    y 0.000000 1.640320 0.000000 
#    z 0.006180 0.000000 1.645140 
# 
# From -- ./inp_files/37679.got.cif
#   From: 2010.05.17/outbox.cif.g08.bks.cpg/sg11_19_cif.got.tgz:37679.got - 2010.06.03 12:22:45.
