data_PCOD9159433
_publ_section_title
;
Structure prediction by ZEFSAII (Michael W. Deem and Ramdas Pophale) SiO2 
 PCOD9159433
Probable space group: P 21/M
;
_chemical_formula_sum "Si O2"
_cell_formula_units_Z 32
_cell_length_a 27.563268
_cell_length_b 8.944675
_cell_length_c 22.254439
_cell_angle_alpha 90.000000
_cell_angle_beta 20.239137
_cell_angle_gamma 90.000000
_cell_volume 1898.067568
_symmetry_space_group_name_H-M "P 21/M"
_symmetry_group_IT_number 11
_symmetry_cell_setting 'monoclinic'
loop_
_space_group_symop_operation_xyz
x,y,z
-x,1/2+y,-z
-x,-y,-z
x,1/2-y,z
loop_
_atom_site_type_symbol
_atom_site_label
_atom_site_fract_x
_atom_site_fract_y
_atom_site_fract_z
Si Si1 0.850629 0.428604 0.686333
Si Si2 0.660617 0.428940 0.662861
Si Si3 0.858654 0.569307 0.190834
Si Si4 0.433162 0.928646 0.518311
Si Si5 0.351546 0.929916 0.188270
Si Si6 0.470157 0.427286 0.722716
Si Si7 0.657763 0.928118 0.008346
Si Si8 0.753228 0.573621 0.440269
O O1 0.861030 0.250000 0.676962
O O2 0.754158 0.470804 0.741575
O O3 0.000000 0.500000 0.500000
O O4 0.774863 0.488217 0.834269
O O5 0.668722 0.250000 0.649848
O O6 0.692442 0.477745 0.693631
O O7 0.497797 0.468225 0.836562
O O8 0.761854 0.495373 0.494569
O O9 0.855374 0.750000 0.188363
O O10 0.717625 0.500849 0.324276
O O11 0.853385 0.532518 0.268413
O O12 0.000000 0.500000 0.000000
O O13 0.415295 0.750000 0.546334
O O14 0.537175 0.952497 0.339986
O O15 0.500000 0.000000 0.500000
O O16 0.364646 0.750000 0.174180
O O17 0.500000 0.000000 0.000000
O O18 0.504304 0.250000 0.691240
O O19 0.348574 0.458829 0.912486
O O20 0.601288 0.524423 0.592035
O O21 0.675501 0.750000 0.979370
O O22 0.759351 0.750000 0.441613
#
# Coordination Sequence:
#
# PCOD9159433 Si02
#       8
#     4   4   4   4   4   4   4   4
#     4  11  23  36  52  74 102 136 172 208 253 305
#     4   9  17  30  50  75 103 131 163 206 257 305
#     4  10  20  34  53  78 107 140 178 216 261 313
#     4  10  19  33  54  80 109 140 175 216 261 308
#     4  10  20  34  53  78 103 130 168 210 254 302
#     4   8  16  30  49  73 102 135 169 206 253 305
#     4   9  16  30  52  75 100 130 165 208 252 300
#     4   9  17  28  46  75 105 131 166 212 255 297
#
# _framework density 16.859252000000001
#
# number of rings (size 3 to 8) (size 9 to 14) (size 15 to 20)
#    0.000    2.500    1.250    2.250    0.000    5.000 
#    0.000    0.000    2.750    0.000    0.000    0.000 
#    0.000    0.000    0.000    0.000    0.000    0.000 
#
# Total GULP energy -178231.685495 kJ/mol
# GULP energy per Si atom -5569.740172 kJ/mol
# Density = 1.682088 g / cm^3
# Si number density = 16.859252 Si / 1000 Ang^3
#
#
#
# Elastic Constant Matrix: (Units=GPa)
#
#
# Indices 1 2 3 4 5 6 
#
# 1 117.0934 42.9574 73.6200 0.0000 29.3222 0.0000
# 2 42.9574 37.8610 53.1864 0.0000 11.9137 0.0000
# 3 73.6200 53.1864 134.9061 0.0000 30.1307 0.0000
# 4 0.0000 0.0000 0.0000 27.2999 0.0000 6.1950
# 5 29.3222 11.9137 30.1307 0.0000 32.2852 0.0000
# 6 0.0000 0.0000 0.0000 6.1950 0.0000 25.7107
#
#
#
# Elastic Compliance Matrix: (Units=1/GPa)
#
#
# Indices 1 2 3 4 5 6 
#
# 1 0.016959 -0.013971 -0.001842 0.000000 -0.008528 0.000000
# 2 -0.013971 0.070707 -0.021803 0.000000 0.006945 0.000000
# 3 -0.001842 -0.021803 0.018752 0.000000 -0.007781 0.000000
# 4 0.000000 0.000000 0.000000 0.038749 0.000000 -0.009336
# 5 -0.008528 0.006945 -0.007781 0.000000 0.043419 0.000000
# 6 0.000000 0.000000 0.000000 -0.009336 0.000000 0.041144
#
#
# Mechanical properties :
#
#
# Convention : Reuss Voigt Hill
#
# Bulk Modulus (GPa) = 32.06588 69.93201 50.99895
# Shear Modulus (GPa) = 15.85504 25.06562 20.46033
#
# Velocity S-wave (km/s) = 3.06998 3.86003 3.48745
# Velocity P-wave (km/s) = 5.62382 7.83814 6.82143
#
# Compressibility (1/GPa) = 0.03118579
#
# Stress axis : x y z
#
# Youngs Moduli (GPa) = 58.96405 14.14291 53.32841
#
# Poissons Ratio (x) = 0.19759 0.09825
# Poissons Ratio (y) = 0.82377 1.16272
# Poissons Ratio (z) = 0.10863 0.30836
#
# Static dielectric constant tensor:
#      x y z
#    x 1.586180 0.000000 0.038950 
#    y 0.000000 1.566250 0.000000 
#    z 0.038950 0.000000 1.556040 
# 
# From -- ./inp_files/67107.got.cif
#   From: 2010.05.17/outbox.cif.g08.bks.cpg/sg11_34_cif.got.tgz:67107.got - 2010.06.03 12:22:45.
