data_PCOD9159956
_publ_section_title
;
Structure prediction by ZEFSAII (Michael W. Deem and Ramdas Pophale) SiO2 
 PCOD9159956
Probable space group: P 21/M
;
_chemical_formula_sum "Si O2"
_cell_formula_units_Z 32
_cell_length_a 8.064779
_cell_length_b 14.735023
_cell_length_c 19.224222
_cell_angle_alpha 90.000000
_cell_angle_beta 38.857615
_cell_angle_gamma 90.000000
_cell_volume 1433.268969
_symmetry_space_group_name_H-M "P 21/M"
_symmetry_group_IT_number 11
_symmetry_cell_setting 'monoclinic'
loop_
_space_group_symop_operation_xyz
x,y,z
-x,1/2+y,-z
-x,-y,-z
x,1/2-y,z
loop_
_atom_site_type_symbol
_atom_site_label
_atom_site_fract_x
_atom_site_fract_y
_atom_site_fract_z
Si Si1 0.644466 0.355184 0.422228
Si Si2 0.241848 0.351078 0.227324
Si Si3 0.542078 0.990669 0.736276
Si Si4 0.471591 0.533840 0.409502
Si Si5 0.528381 0.607304 0.991956
Si Si6 0.788158 0.850748 0.111664
Si Si7 0.043280 0.349698 0.782407
Si Si8 0.087198 0.852415 0.879078
O O1 0.556046 0.250000 0.447919
O O2 0.471541 0.431856 0.440049
O O3 0.662844 0.394318 0.494798
O O4 0.943679 0.357816 0.295709
O O5 0.271908 0.250000 0.247552
O O6 0.285650 0.426139 0.271715
O O7 0.441345 0.360875 0.097609
O O8 0.297352 0.927786 0.790570
O O9 0.645067 0.032509 0.630339
O O10 0.427192 0.070774 0.821658
O O11 0.775585 0.571568 0.308551
O O12 0.800478 0.634814 0.939347
O O13 0.500000 0.500000 0.000000
O O14 0.271255 0.641639 0.116585
O O15 0.681334 0.750000 0.131984
O O16 0.889888 0.852971 0.157262
O O17 0.027414 0.865254 0.980523
O O18 0.123244 0.250000 0.729486
O O19 0.179677 0.750000 0.835133
#
# Coordination Sequence:
#
# PCOD9159956 Si02
#       8
#     4   4   4   4   4   4   4   4
#     4  10  22  42  64  85 113 146 186 235 285 339
#     4  11  23  38  58  85 117 154 191 231 281 335
#     4  11  21  36  57  82 113 147 190 236 280 334
#     4  10  22  39  62  87 110 145 190 235 285 339
#     4  12  22  34  54  83 120 157 193 233 281 335
#     4   9  19  34  52  76 110 153 194 230 273 328
#     4  10  19  34  56  83 116 152 190 233 283 338
#     4  11  21  33  51  79 116 156 193 229 275 331
#
# _framework density 22.326585999999999
#
# number of rings (size 3 to 8) (size 9 to 14) (size 15 to 20)
#    0.000    1.500    0.000    6.750    0.000    4.000 
#    0.000    0.000    0.000    3.000    0.000    0.000 
#    0.000    0.000    0.000    0.000    0.000    0.000 
#
# Total GULP energy -178859.665101 kJ/mol
# GULP energy per Si atom -5589.364534 kJ/mol
# Density = 2.227577 g / cm^3
# Si number density = 22.326586 Si / 1000 Ang^3
#
#
#
# Elastic Constant Matrix: (Units=GPa)
#
#
# Indices 1 2 3 4 5 6 
#
# 1 38.3749 -3.4720 -1.2151 0.0000 -2.8280 0.0000
# 2 -3.4720 124.2965 9.3438 0.0000 4.9223 0.0000
# 3 -1.2151 9.3438 62.6324 0.0000 4.2370 0.0000
# 4 0.0000 0.0000 0.0000 24.8582 0.0000 0.9774
# 5 -2.8280 4.9223 4.2370 0.0000 23.1394 0.0000
# 6 0.0000 0.0000 0.0000 0.9774 0.0000 21.9127
#
#
#
# Elastic Compliance Matrix: (Units=1/GPa)
#
#
# Indices 1 2 3 4 5 6 
#
# 1 0.026345 0.000599 0.000215 0.000000 0.003053 0.000000
# 2 0.000599 0.008204 -0.001113 0.000000 -0.001468 0.000000
# 3 0.000215 -0.001113 0.016321 0.000000 -0.002725 0.000000
# 4 0.000000 0.000000 0.000000 0.040299 0.000000 -0.001797
# 5 0.003053 -0.001468 -0.002725 0.000000 0.044401 0.000000
# 6 0.000000 0.000000 0.000000 -0.001797 0.000000 0.045716
#
#
# Mechanical properties :
#
#
# Convention : Reuss Voigt Hill
#
# Bulk Modulus (GPa) = 19.89201 26.06859 22.98030
# Shear Modulus (GPa) = 25.17119 28.69185 26.93152
#
# Velocity S-wave (km/s) = 3.36133 3.58872 3.47688
# Velocity P-wave (km/s) = 4.89833 5.37338 5.14135
#
# Compressibility (1/GPa) = 0.05027145
#
# Stress axis : x y z
#
# Youngs Moduli (GPa) = 37.95830 121.89456 61.27171
#
# Poissons Ratio (x) = -0.07299 -0.01319
# Poissons Ratio (y) = -0.02273 0.06819
# Poissons Ratio (z) = -0.00817 0.13566
#
# Static dielectric constant tensor:
#      x y z
#    x 1.844280 0.000000 0.010480 
#    y 0.000000 1.832370 0.000000 
#    z 0.010480 0.000000 1.855880 
# 
# From -- ./inp_files/63802.got.cif
#   From: 2010.05.17/outbox.cif.g08.bks.cpg/sg11_32_cif.got.tgz:63802.got - 2010.06.03 12:22:45.
