data_PCOD9159416
_publ_section_title
;
Structure prediction by ZEFSAII (Michael W. Deem and Ramdas Pophale) SiO2 
 PCOD9159416
Probable space group: P 21/M
;
_chemical_formula_sum "Si O2"
_cell_formula_units_Z 20
_cell_length_a 14.260283
_cell_length_b 14.887106
_cell_length_c 6.888896
_cell_angle_alpha 90.000000
_cell_angle_beta 144.498272
_cell_angle_gamma 90.000000
_cell_volume 849.298686
_symmetry_space_group_name_H-M "P 21/M"
_symmetry_group_IT_number 11
_symmetry_cell_setting 'monoclinic'
loop_
_space_group_symop_operation_xyz
x,y,z
-x,1/2+y,-z
-x,-y,-z
x,1/2-y,z
loop_
_atom_site_type_symbol
_atom_site_label
_atom_site_fract_x
_atom_site_fract_y
_atom_site_fract_z
Si Si1 0.170305 0.651670 0.049027
Si Si2 0.484104 0.093849 0.363206
Si Si3 0.302691 0.974755 0.578319
Si Si4 0.120299 0.645524 0.540271
Si Si5 0.771248 0.649303 0.771931
O O1 0.122688 0.750000 0.043164
O O2 0.361272 0.653105 0.317584
O O3 0.174360 0.574072 0.212956
O O4 0.080414 0.630981 0.699457
O O5 0.325575 0.135566 0.187697
O O6 0.500000 0.000000 0.500000
O O7 0.525656 0.066577 0.209909
O O8 0.282935 0.077139 0.480326
O O9 0.247825 0.929649 0.685771
O O10 0.179617 0.750000 0.622471
O O11 0.956990 0.638646 0.143488
O O12 0.741240 0.750000 0.650969
#
# Coordination Sequence:
#
# PCOD9159416 Si02
#       5
#     4   4   4   4   4
#     4   9  18  33  56  78 103 138 175 212 258 311
#     4   8  17  34  54  77 100 139 174 206 264 312
#     4   9  19  35  56  77 102 141 179 206 257 318
#     4  10  20  33  55  82 103 135 179 217 256 310
#     4  10  19  33  54  78 108 138 171 220 268 300
#
# _framework density 23.548838
#
# number of rings (size 3 to 8) (size 9 to 14) (size 15 to 20)
#    1.200    1.600    0.000    1.800    0.000    0.800 
#    0.000    4.000    4.400    1.200    0.000    0.000 
#    0.000    0.000    0.000    0.000    0.000    0.000 
#
# Total GULP energy -111438.053048 kJ/mol
# GULP energy per Si atom -5571.902652 kJ/mol
# Density = 2.349524 g / cm^3
# Si number density = 23.548838 Si / 1000 Ang^3
#
#
#
# Elastic Constant Matrix: (Units=GPa)
#
#
# Indices 1 2 3 4 5 6 
#
# 1 47.5616 13.9197 5.9671 0.0000 15.5448 0.0000
# 2 13.9197 130.1994 19.9075 0.0000 1.9983 0.0000
# 3 5.9671 19.9075 44.4036 0.0000 21.3574 0.0000
# 4 0.0000 0.0000 0.0000 13.3808 0.0000 2.7423
# 5 15.5448 1.9983 21.3574 0.0000 14.7524 0.0000
# 6 0.0000 0.0000 0.0000 2.7423 0.0000 19.8393
#
#
#
# Elastic Compliance Matrix: (Units=1/GPa)
#
#
# Indices 1 2 3 4 5 6 
#
# 1 0.951114 -0.286596 1.528133 0.000000 -3.175690 0.000000
# 2 -0.286596 0.095579 -0.472102 0.000000 0.972515 0.000000
# 3 1.528133 -0.472102 2.544057 0.000000 -5.229349 0.000000
# 4 0.000000 0.000000 0.000000 0.076913 0.000000 -0.010631
# 5 -3.175690 0.972515 -5.229349 0.000000 10.852958 0.000000
# 6 0.000000 0.000000 0.000000 -0.010631 0.000000 0.051875
#
#
# Mechanical properties :
#
#
# Convention : Reuss Voigt Hill
#
# Bulk Modulus (GPa) = 0.19495 33.52812 16.86153
# Shear Modulus (GPa) = 0.33913 21.75252 11.04583
#
# Velocity S-wave (km/s) = 0.37990 3.04257 2.16813
# Velocity P-wave (km/s) = 0.52478 5.15864 3.66654
#
# Compressibility (1/GPa) = 5.12961931
#
# Stress axis : x y z
#
# Youngs Moduli (GPa) = 1.05140 10.46252 0.39307
#
# Poissons Ratio (x) = 2.99852 -0.60067
# Poissons Ratio (y) = 0.30133 0.18557
# Poissons Ratio (z) = -1.60668 4.93937
#
# Static dielectric constant tensor:
#      x y z
#    x 1.983500 0.000000 -0.024440 
#    y 0.000000 2.054940 0.000000 
#    z -0.024440 0.000000 1.934270 
# 
# From -- ./inp_files/41414.got.cif
#   From: 2010.05.17/outbox.cif.g08.bks.cpg/sg11_21_cif.got.tgz:41414.got - 2010.06.03 12:22:45.
