data_PCOD9159132
_publ_section_title
;
Structure prediction by ZEFSAII (Michael W. Deem and Ramdas Pophale) SiO2 
 PCOD9159132
Probable space group: P 21/M
;
_chemical_formula_sum "Si O2"
_cell_formula_units_Z 28
_cell_length_a 28.543217
_cell_length_b 8.490081
_cell_length_c 9.779370
_cell_angle_alpha 90.000000
_cell_angle_beta 139.646314
_cell_angle_gamma 90.000000
_cell_volume 1534.504487
_symmetry_space_group_name_H-M "P 21/M"
_symmetry_group_IT_number 11
_symmetry_cell_setting 'monoclinic'
loop_
_space_group_symop_operation_xyz
x,y,z
-x,1/2+y,-z
-x,-y,-z
x,1/2-y,z
loop_
_atom_site_type_symbol
_atom_site_label
_atom_site_fract_x
_atom_site_fract_y
_atom_site_fract_z
Si Si1 0.080050 0.433242 0.151104
Si Si2 0.646778 0.440914 0.145476
Si Si3 0.939922 0.433935 0.173863
Si Si4 0.506776 0.938985 0.669517
Si Si5 0.570241 0.439942 0.238097
Si Si6 0.802638 0.437026 0.383475
Si Si7 0.899268 0.935649 0.367202
O O1 0.082510 0.250000 0.194056
O O2 0.139183 0.524959 0.369906
O O3 0.091946 0.461141 0.017153
O O4 0.000000 0.500000 0.000000
O O5 0.644023 0.250000 0.134900
O O6 0.634431 0.488928 0.277462
O O7 0.723812 0.491376 0.257313
O O8 0.581106 0.504484 0.906689
O O9 0.934351 0.250000 0.124912
O O10 0.902012 0.468262 0.233302
O O11 0.025100 0.471989 0.386131
O O12 0.506455 0.750000 0.664492
O O13 0.442827 0.991249 0.633866
O O14 0.500000 0.000000 0.500000
O O15 0.570261 0.250000 0.240491
O O16 0.500000 0.500000 0.000000
O O17 0.800375 0.250000 0.354739
O O18 0.832872 0.520342 0.315606
O O19 0.900777 0.750000 0.340220
#
# Coordination Sequence:
#
# PCOD9159132 Si02
#       7
#     4   4   4   4   4   4   4
#     4  12  23  36  55  79 107 140 182 232 278 326
#     4   9  19  36  56  79 108 143 181 222 269 325
#     4  10  20  35  55  78 104 136 178 227 277 328
#     4  10  19  32  55  84 112 144 180 223 267 317
#     4   8  15  30  52  77 104 136 176 215 256 308
#     4  11  22  36  56  80 109 145 183 227 281 334
#     4  10  20  34  54  78 106 140 177 223 275 330
#
# _framework density 18.246932000000001
#
# number of rings (size 3 to 8) (size 9 to 14) (size 15 to 20)
#    0.000    2.000    1.429    3.000    0.000    2.857 
#    0.000    1.429    0.000    6.857    0.000    0.000 
#    0.000    0.000    0.000    0.000    0.000    0.000 
#
# Total GULP energy -156160.851531 kJ/mol
# GULP energy per Si atom -5577.173269 kJ/mol
# Density = 1.820540 g / cm^3
# Si number density = 18.246932 Si / 1000 Ang^3
#
#
#
# Elastic Constant Matrix: (Units=GPa)
#
#
# Indices 1 2 3 4 5 6 
#
# 1 161.2790 10.9666 45.1412 0.0000 -3.3944 0.0000
# 2 10.9666 17.3581 0.9388 0.0000 0.5272 0.0000
# 3 45.1412 0.9388 48.5376 0.0000 -6.1133 0.0000
# 4 0.0000 0.0000 0.0000 24.9473 0.0000 -5.1827
# 5 -3.3944 0.5272 -6.1133 0.0000 29.8383 0.0000
# 6 0.0000 0.0000 0.0000 -5.1827 0.0000 27.3195
#
#
#
# Elastic Compliance Matrix: (Units=1/GPa)
#
#
# Indices 1 2 3 4 5 6 
#
# 1 0.008827 -0.005116 -0.008183 0.000000 -0.000582 0.000000
# 2 -0.005116 0.060684 0.003465 0.000000 -0.000944 0.000000
# 3 -0.008183 0.003465 0.028763 0.000000 0.004901 0.000000
# 4 0.000000 0.000000 0.000000 0.041729 0.000000 0.007916
# 5 -0.000582 -0.000944 0.004901 0.000000 0.034469 0.000000
# 6 0.000000 0.000000 0.000000 0.007916 0.000000 0.038106
#
#
# Mechanical properties :
#
#
# Convention : Reuss Voigt Hill
#
# Bulk Modulus (GPa) = 12.72175 37.91866 25.32020
# Shear Modulus (GPa) = 19.34637 27.76289 23.55463
#
# Velocity S-wave (km/s) = 3.25969 3.90489 3.59678
# Velocity P-wave (km/s) = 4.59940 6.41536 5.58173
#
# Compressibility (1/GPa) = 0.07860556
#
# Stress axis : x y z
#
# Youngs Moduli (GPa) = 113.29504 16.47894 34.76642
#
# Poissons Ratio (x) = 0.08431 0.28450
# Poissons Ratio (y) = 0.57964 -0.12048
# Poissons Ratio (z) = 0.92712 -0.05711
#
# Static dielectric constant tensor:
#      x y z
#    x 1.679500 0.000000 -0.016810 
#    y 0.000000 1.614650 0.000000 
#    z -0.016810 0.000000 1.589030 
# 
# From -- ./inp_files/28596.got.cif
#   From: 2010.05.17/outbox.cif.g08.bks.cpg/sg11_15_cif.got.tgz:28596.got - 2010.06.03 12:22:45.
