data_PCOD9159310
_publ_section_title
;
Structure prediction by ZEFSAII (Michael W. Deem and Ramdas Pophale) SiO2 
 PCOD9159310
Probable space group: P 21/M
;
_chemical_formula_sum "Si O2"
_cell_formula_units_Z 24
_cell_length_a 25.061779
_cell_length_b 8.885975
_cell_length_c 18.853068
_cell_angle_alpha 90.000000
_cell_angle_beta 19.256950
_cell_angle_gamma 90.000000
_cell_volume 1384.702463
_symmetry_space_group_name_H-M "P 21/M"
_symmetry_group_IT_number 11
_symmetry_cell_setting 'monoclinic'
loop_
_space_group_symop_operation_xyz
x,y,z
-x,1/2+y,-z
-x,-y,-z
x,1/2-y,z
loop_
_atom_site_type_symbol
_atom_site_label
_atom_site_fract_x
_atom_site_fract_y
_atom_site_fract_z
Si Si1 0.506477 0.930017 0.569572
Si Si2 0.839635 0.929292 0.232564
Si Si3 0.163818 0.068811 0.264005
Si Si4 0.339006 0.428606 0.906337
Si Si5 0.359404 0.070089 0.390368
Si Si6 0.528972 0.429404 0.039916
O O1 0.498207 0.750000 0.576560
O O2 0.678544 0.971652 0.390295
O O3 0.500000 0.000000 0.500000
O O4 0.364291 0.989820 0.799663
O O5 0.855423 0.750000 0.208095
O O6 0.800185 0.967563 0.364409
O O7 0.000000 0.000000 0.000000
O O8 0.164511 0.250000 0.269193
O O9 0.194574 0.031237 0.141992
O O10 0.000000 0.000000 0.500000
O O11 0.313411 0.001207 0.120901
O O12 0.337512 0.250000 0.897022
O O13 0.497100 0.477964 0.752629
O O14 0.389756 0.250000 0.363637
O O15 0.378971 0.042699 0.282415
O O16 0.550792 0.250000 0.007025
O O17 0.500000 0.500000 0.000000
#
# Coordination Sequence:
#
# PCOD9159310 Si02
#       6
#     4   4   4   4   4   4
#     4  10  20  34  52  74 100 131 167 206 247 294
#     4   9  18  32  50  73  98 125 160 199 240 288
#     4  10  20  34  53  77 103 132 168 209 253 303
#     4   9  17  30  50  74  98 127 165 205 245 295
#     4   8  16  31  49  69  96 130 165 199 240 295
#     4  10  19  33  53  75 101 133 168 208 252 299
#
# _framework density 17.332243999999999
#
# number of rings (size 3 to 8) (size 9 to 14) (size 15 to 20)
#    0.000    2.667    0.000    3.000    0.000    6.000 
#    0.000    1.667    0.000    4.000    0.000    0.000 
#    0.000    0.000    0.000    0.000    0.000    0.000 
#
# Total GULP energy -133652.484072 kJ/mol
# GULP energy per Si atom -5568.853503 kJ/mol
# Density = 1.729279 g / cm^3
# Si number density = 17.332244 Si / 1000 Ang^3
#
#
#
# Elastic Constant Matrix: (Units=GPa)
#
#
# Indices 1 2 3 4 5 6 
#
# 1 115.2834 48.6742 64.8681 0.0000 44.5656 0.0000
# 2 48.6742 55.5977 51.6597 0.0000 23.9605 0.0000
# 3 64.8681 51.6597 149.8160 0.0000 44.2486 0.0000
# 4 0.0000 0.0000 0.0000 31.1795 0.0000 4.0230
# 5 44.5656 23.9605 44.2486 0.0000 31.6888 0.0000
# 6 0.0000 0.0000 0.0000 4.0230 0.0000 29.7076
#
#
#
# Elastic Compliance Matrix: (Units=1/GPa)
#
#
# Indices 1 2 3 4 5 6 
#
# 1 0.021574 -0.009234 0.001263 0.000000 -0.025122 0.000000
# 2 -0.009234 0.033611 -0.006673 0.000000 -0.003109 0.000000
# 3 0.001263 -0.006673 0.012702 0.000000 -0.014466 0.000000
# 4 0.000000 0.000000 0.000000 0.032643 0.000000 -0.004420
# 5 -0.025122 -0.003109 -0.014466 0.000000 0.089438 0.000000
# 6 0.000000 0.000000 0.000000 -0.004420 0.000000 0.034260
#
#
# Mechanical properties :
#
#
# Convention : Reuss Voigt Hill
#
# Bulk Modulus (GPa) = 25.90835 72.34455 49.12645
# Shear Modulus (GPa) = 18.76999 28.88151 23.82575
#
# Velocity S-wave (km/s) = 3.29439 4.08652 3.71165
# Velocity P-wave (km/s) = 5.42690 8.00604 6.83915
#
# Compressibility (1/GPa) = 0.03859759
#
# Stress axis : x y z
#
# Youngs Moduli (GPa) = 46.35224 29.75197 78.72874
#
# Poissons Ratio (x) = 0.27473 -0.09941
# Poissons Ratio (y) = 0.42802 0.52537
# Poissons Ratio (z) = -0.05853 0.19854
#
# Static dielectric constant tensor:
#      x y z
#    x 1.592900 0.000000 0.038120 
#    y 0.000000 1.582690 0.000000 
#    z 0.038120 0.000000 1.608160 
# 
# From -- ./inp_files/27327.got.cif
#   From: 2010.05.17/outbox.cif.g08.bks.cpg/sg11_14_cif.got.tgz:27327.got - 2010.06.03 12:22:45.
