data_PCOD9159847
_publ_section_title
;
Structure prediction by ZEFSAII (Michael W. Deem and Ramdas Pophale) SiO2 
 PCOD9159847
Probable space group: P 21/M
;
_chemical_formula_sum "Si O2"
_cell_formula_units_Z 28
_cell_length_a 20.398063
_cell_length_b 12.683012
_cell_length_c 5.174764
_cell_angle_alpha 90.000000
_cell_angle_beta 63.487813
_cell_angle_gamma 90.000000
_cell_volume 1197.972902
_symmetry_space_group_name_H-M "P 21/M"
_symmetry_group_IT_number 11
_symmetry_cell_setting 'monoclinic'
loop_
_space_group_symop_operation_xyz
x,y,z
-x,1/2+y,-z
-x,-y,-z
x,1/2-y,z
loop_
_atom_site_type_symbol
_atom_site_label
_atom_site_fract_x
_atom_site_fract_y
_atom_site_fract_z
Si Si1 0.848861 0.868979 0.154196
Si Si2 0.885355 0.459106 0.721137
Si Si3 0.979432 0.871233 0.265057
Si Si4 0.278888 0.497692 0.469985
Si Si5 0.420790 0.417405 0.417372
Si Si6 0.506556 0.137699 0.755786
Si Si7 0.264231 0.629044 0.018766
O O1 0.824078 0.750000 0.168547
O O2 0.935130 0.865651 0.075020
O O3 0.796280 0.932785 0.440457
O O4 0.843501 0.941276 0.916375
O O5 0.940818 0.521819 0.439838
O O6 0.821692 0.381156 0.743928
O O7 0.935472 0.396540 0.842481
O O8 0.966448 0.750000 0.396639
O O9 0.337827 0.413682 0.470608
O O10 0.303593 0.555538 0.163535
O O11 0.269605 0.582826 0.718645
O O12 0.439928 0.541634 0.394119
O O13 0.442425 0.370731 0.654469
O O14 0.472628 0.373109 0.100085
O O15 0.544067 0.250000 0.662611
O O16 0.287604 0.750000 0.989156
#
# Coordination Sequence:
#
# PCOD9159847 Si02
#       7
#     4   4   4   4   4   4   4
#     4  10  21  36  55  81 114 156 197 245 301 361
#     4  10  20  35  55  79 114 149 199 257 301 352
#     4  10  19  34  55  79 108 150 200 249 305 358
#     4  11  23  42  61  90 124 159 197 247 295 358
#     4  10  22  40  62  93 127 160 201 250 294 354
#     4  10  21  39  64  92 125 161 202 247 296 350
#     4  11  23  40  61  87 120 159 203 248 301 358
#
# _framework density 23.372814999999999
#
# number of rings (size 3 to 8) (size 9 to 14) (size 15 to 20)
#    0.000    1.714    1.429    3.000    0.000    2.286 
#    0.000    0.000    0.000    0.000    0.000    0.000 
#    0.000    0.000    0.000    0.000    0.000    0.000 
#
# Total GULP energy -156091.001313 kJ/mol
# GULP energy per Si atom -5574.678618 kJ/mol
# Density = 2.331962 g / cm^3
# Si number density = 23.372815 Si / 1000 Ang^3
#
#
#
# Elastic Constant Matrix: (Units=GPa)
#
#
# Indices 1 2 3 4 5 6 
#
# 1 63.8235 -1.6070 3.1258 0.0000 10.5118 0.0000
# 2 -1.6070 116.6938 15.4509 0.0000 7.0219 0.0000
# 3 3.1258 15.4509 38.3789 0.0000 17.7417 0.0000
# 4 0.0000 0.0000 0.0000 -1.8615 0.0000 3.2193
# 5 10.5118 7.0219 17.7417 0.0000 30.1391 0.0000
# 6 0.0000 0.0000 0.0000 3.2193 0.0000 -7.2427
#
#
#
# Elastic Compliance Matrix: (Units=1/GPa)
#
#
# Indices 1 2 3 4 5 6 
#
# 1 0.016736 0.000427 0.001662 0.000000 -0.006915 0.000000
# 2 0.000427 0.009063 -0.003625 0.000000 -0.000126 0.000000
# 3 0.001662 -0.003625 0.037448 0.000000 -0.021779 0.000000
# 4 0.000000 0.000000 0.000000 -2.322415 0.000000 -1.032280
# 5 -0.006915 -0.000126 -0.021779 0.000000 0.048441 0.000000
# 6 0.000000 0.000000 0.000000 -1.032280 0.000000 -0.596904
#
#
# Mechanical properties :
#
#
# Convention : Reuss Voigt Hill
#
# Bulk Modulus (GPa) = 16.61846 28.09284 22.35565
# Shear Modulus (GPa) = -1.79565 17.66875 7.93655
#
# Velocity S-wave (km/s) = -0.87746 2.75244 1.84472
# Velocity P-wave (km/s) = 2.46962 4.70604 3.75805
#
# Compressibility (1/GPa) = 0.06017406
#
# Stress axis : x y z
#
# Youngs Moduli (GPa) = 59.74981 110.34031 26.70373
#
# Poissons Ratio (x) = -0.04707 -0.04437
# Poissons Ratio (y) = -0.02549 0.09680
# Poissons Ratio (z) = -0.09929 0.39997
#
# Static dielectric constant tensor:
#      x y z
#    x 1.964430 0.000000 -0.009770 
#    y 0.000000 1.707230 0.000000 
#    z -0.009770 0.000000 1.939670 
# 
# From -- ./inp_files/8754.got.cif
#   From: 2010.05.17/outbox.cif.g08.bks.cpg/sg11_5_cif.got.tgz:8754.got - 2010.06.03 12:22:45.
