data_PCOD9159253
_publ_section_title
;
Structure prediction by ZEFSAII (Michael W. Deem and Ramdas Pophale) SiO2 
 PCOD9159253
Probable space group: P 21/M
;
_chemical_formula_sum "Si O2"
_cell_formula_units_Z 32
_cell_length_a 18.282783
_cell_length_b 11.432016
_cell_length_c 13.852420
_cell_angle_alpha 90.000000
_cell_angle_beta 146.271681
_cell_angle_gamma 90.000000
_cell_volume 1607.621093
_symmetry_space_group_name_H-M "P 21/M"
_symmetry_group_IT_number 11
_symmetry_cell_setting 'monoclinic'
loop_
_space_group_symop_operation_xyz
x,y,z
-x,1/2+y,-z
-x,-y,-z
x,1/2-y,z
loop_
_atom_site_type_symbol
_atom_site_label
_atom_site_fract_x
_atom_site_fract_y
_atom_site_fract_z
Si Si1 0.957741 0.384901 0.228277
Si Si2 0.345782 0.375473 0.280652
Si Si3 0.510825 0.882656 0.153333
Si Si4 0.780627 0.111526 0.224053
Si Si5 0.230312 0.881955 0.388220
Si Si6 0.213067 0.000602 0.569719
Si Si7 0.942521 0.612737 0.074692
Si Si8 0.529316 0.552857 0.391075
O O1 0.933902 0.250000 0.166718
O O2 0.871187 0.402341 0.229574
O O3 0.930102 0.498643 0.130585
O O4 0.112014 0.399213 0.424829
O O5 0.361722 0.250000 0.248206
O O6 0.400304 0.477914 0.273857
O O7 0.432945 0.376068 0.472581
O O8 0.191297 0.389176 0.133609
O O9 0.526055 0.750000 0.135122
O O10 0.511765 0.883185 0.271039
O O11 0.636924 0.956168 0.260004
O O12 0.368772 0.927738 0.963696
O O13 0.775249 0.250000 0.238568
O O14 0.829428 0.047630 0.373498
O O15 0.271516 0.750000 0.414991
O O16 0.208443 0.905091 0.478709
O O17 0.085878 0.901445 0.183702
O O18 0.345376 0.967090 0.482501
O O19 0.947251 0.750000 0.119590
#
# Coordination Sequence:
#
# PCOD9159253 Si02
#       8
#     4   4   4   4   4   4   4   4
#     4  10  20  35  55  80 110 140 175 219 265 312
#     4  10  20  35  54  77 105 135 173 216 261 317
#     4  10  20  34  51  73 103 136 172 216 265 312
#     4  10  20  33  51  75 104 138 177 220 262 309
#     4   9  18  33  52  73 100 134 173 215 261 313
#     4  10  19  33  52  74 102 137 176 214 260 311
#     4   9  19  36  56  78 107 142 177 216 262 314
#     4  10  20  33  53  76 102 135 171 214 265 314
#
# _framework density 19.905187999999999
#
# number of rings (size 3 to 8) (size 9 to 14) (size 15 to 20)
#    0.000    2.250    0.000    3.000    0.000    1.000 
#    0.000    5.000    0.000    6.000    0.000    0.000 
#    0.000    0.000    0.000    0.000    0.000    0.000 
#
# Total GULP energy -178262.042602 kJ/mol
# GULP energy per Si atom -5570.688831 kJ/mol
# Density = 1.985988 g / cm^3
# Si number density = 19.905188 Si / 1000 Ang^3
#
#
#
# Elastic Constant Matrix: (Units=GPa)
#
#
# Indices 1 2 3 4 5 6 
#
# 1 21.1836 8.1985 -8.5143 0.0000 4.6956 0.0000
# 2 8.1985 83.4175 12.7378 0.0000 3.0263 0.0000
# 3 -8.5143 12.7378 66.7783 0.0000 20.0362 0.0000
# 4 0.0000 0.0000 0.0000 19.5966 0.0000 -8.8625
# 5 4.6956 3.0263 20.0362 0.0000 23.3216 0.0000
# 6 0.0000 0.0000 0.0000 -8.8625 0.0000 114.2523
#
#
#
# Elastic Compliance Matrix: (Units=1/GPa)
#
#
# Indices 1 2 3 4 5 6 
#
# 1 0.063342 -0.007947 0.017662 0.000000 -0.026896 0.000000
# 2 -0.007947 0.013350 -0.004742 0.000000 0.003942 0.000000
# 3 0.017662 -0.004742 0.025617 0.000000 -0.024949 0.000000
# 4 0.000000 0.000000 0.000000 0.052884 0.000000 0.004102
# 5 -0.026896 0.003942 -0.024949 0.000000 0.069217 0.000000
# 6 0.000000 0.000000 0.000000 0.004102 0.000000 0.009071
#
#
# Mechanical properties :
#
#
# Convention : Reuss Voigt Hill
#
# Bulk Modulus (GPa) = 8.90828 21.80261 15.35544
# Shear Modulus (GPa) = 19.16043 42.03126 30.59585
#
# Velocity S-wave (km/s) = 3.10592 4.60017 3.92481
# Velocity P-wave (km/s) = 4.16502 6.26039 5.31695
#
# Compressibility (1/GPa) = 0.11225515
#
# Stress axis : x y z
#
# Youngs Moduli (GPa) = 15.78723 74.90596 39.03630
#
# Poissons Ratio (x) = 0.59525 -0.68945
# Poissons Ratio (y) = 0.12546 0.18513
# Poissons Ratio (z) = -0.27883 0.35524
#
# Static dielectric constant tensor:
#      x y z
#    x 1.674820 0.000000 0.003870 
#    y 0.000000 1.702770 0.000000 
#    z 0.003870 0.000000 1.710240 
# 
# From -- ./inp_files/21551.got.cif
#   From: 2010.05.17/outbox.cif.g08.bks.cpg/sg11_11_cif.got.tgz:21551.got - 2010.06.03 12:22:45.
