data_PCOD9159376
_publ_section_title
;
Structure prediction by ZEFSAII (Michael W. Deem and Ramdas Pophale) SiO2 
 PCOD9159376
Probable space group: P 21/M
;
_chemical_formula_sum "Si O2"
_cell_formula_units_Z 32
_cell_length_a 12.161046
_cell_length_b 7.919091
_cell_length_c 28.221961
_cell_angle_alpha 90.000000
_cell_angle_beta 147.220806
_cell_angle_gamma 90.000000
_cell_volume 1471.478970
_symmetry_space_group_name_H-M "P 21/M"
_symmetry_group_IT_number 11
_symmetry_cell_setting 'monoclinic'
loop_
_space_group_symop_operation_xyz
x,y,z
-x,1/2+y,-z
-x,-y,-z
x,1/2-y,z
loop_
_atom_site_type_symbol
_atom_site_label
_atom_site_fract_x
_atom_site_fract_y
_atom_site_fract_z
Si Si1 0.854438 0.047028 0.991223
Si Si2 0.475548 0.042965 0.326546
Si Si3 0.264439 0.546477 0.409154
Si Si4 0.077579 0.051535 0.784010
Si Si5 0.268817 0.548639 0.669849
Si Si6 0.978857 0.950534 0.847487
Si Si7 0.614202 0.050215 0.184930
Si Si8 0.167260 0.953778 0.477229
O O1 0.843418 0.250000 0.988616
O O2 0.626395 0.979449 0.903534
O O3 0.940802 0.983699 0.073176
O O4 0.000000 0.000000 0.000000
O O5 0.474735 0.250000 0.327426
O O6 0.576041 0.987174 0.313582
O O7 0.245805 0.982081 0.245912
O O8 0.627070 0.987655 0.422965
O O9 0.500000 0.500000 0.500000
O O10 0.254058 0.750000 0.403913
O O11 0.162885 0.487207 0.421380
O O12 0.128436 0.481618 0.316150
O O13 0.049680 0.250000 0.780410
O O14 0.261424 0.024518 0.813986
O O15 0.110862 0.978355 0.848283
O O16 0.297233 0.750000 0.682585
O O17 0.309297 0.478488 0.736911
O O18 0.037521 0.513012 0.572139
O O19 0.958498 0.750000 0.846706
O O20 0.654016 0.250000 0.198177
O O21 0.168295 0.750000 0.477945
#
# Coordination Sequence:
#
# PCOD9159376 Si02
#       8
#     4   4   4   4   4   4   4   4
#     4  11  24  43  69  98 127 160 200 251 307 369
#     4   9  18  34  57  83 115 154 196 243 296 357
#     4  10  21  35  54  81 117 160 207 254 302 358
#     4  11  23  40  61  89 124 159 205 262 311 364
#     4  10  20  35  56  84 116 154 200 246 293 356
#     4  10  22  42  65  88 119 159 202 248 305 370
#     4  11  23  40  64  90 122 166 209 255 310 369
#     4  10  19  33  53  80 115 154 193 241 299 354
#
# _framework density 21.746827
#
# number of rings (size 3 to 8) (size 9 to 14) (size 15 to 20)
#    0.000    1.750    1.250    3.000    0.000    6.500 
#    0.000    1.250    0.000    0.000    0.000    0.000 
#    0.000    0.000    0.000    0.000    0.000    0.000 
#
# Total GULP energy -178790.752086 kJ/mol
# GULP energy per Si atom -5587.211003 kJ/mol
# Density = 2.169733 g / cm^3
# Si number density = 21.746827 Si / 1000 Ang^3
#
#
#
# Elastic Constant Matrix: (Units=GPa)
#
#
# Indices 1 2 3 4 5 6 
#
# 1 92.3247 -9.9162 33.4565 0.0000 -21.4253 0.0000
# 2 -9.9162 16.9204 -9.8884 0.0000 -8.1075 0.0000
# 3 33.4565 -9.8884 104.9474 0.0000 -13.1678 0.0000
# 4 0.0000 0.0000 0.0000 22.3816 0.0000 9.7260
# 5 -21.4253 -8.1075 -13.1678 0.0000 39.3004 0.0000
# 6 0.0000 0.0000 0.0000 9.7260 0.0000 20.0452
#
#
#
# Elastic Compliance Matrix: (Units=1/GPa)
#
#
# Indices 1 2 3 4 5 6 
#
# 1 0.015419 0.012456 -0.002468 0.000000 0.010149 0.000000
# 2 0.012456 0.083229 0.007179 0.000000 0.026366 0.000000
# 3 -0.002468 0.007179 0.011492 0.000000 0.003986 0.000000
# 4 0.000000 0.000000 0.000000 0.056617 0.000000 -0.027471
# 5 0.010149 0.026366 0.003986 0.000000 0.037752 0.000000
# 6 0.000000 0.000000 0.000000 -0.027471 0.000000 0.063216
#
#
# Mechanical properties :
#
#
# Convention : Reuss Voigt Hill
#
# Bulk Modulus (GPa) = 6.92163 26.83293 16.87728
# Shear Modulus (GPa) = 17.75884 29.71480 23.73682
#
# Velocity S-wave (km/s) = 2.86075 3.70049 3.30738
# Velocity P-wave (km/s) = 3.75521 5.53387 4.72892
#
# Compressibility (1/GPa) = 0.14447460
#
# Stress axis : x y z
#
# Youngs Moduli (GPa) = 64.85573 12.01499 87.01669
#
# Poissons Ratio (x) = -0.14966 0.21479
# Poissons Ratio (y) = -0.80787 -0.62471
# Poissons Ratio (z) = 0.16009 -0.08626
#
# Static dielectric constant tensor:
#      x y z
#    x 1.793290 0.000000 -0.021410 
#    y 0.000000 1.779590 0.000000 
#    z -0.021410 0.000000 1.803970 
# 
# From -- ./inp_files/73171.got.cif
#   From: 2010.05.17/outbox.cif.g08.bks.cpg/sg11_37_cif.got.tgz:73171.got - 2010.06.03 12:22:45.
