data_PCOD9159221
_publ_section_title
;
Structure prediction by ZEFSAII (Michael W. Deem and Ramdas Pophale) SiO2 
 PCOD9159221
Probable space group: P 21/M
;
_chemical_formula_sum "Si O2"
_cell_formula_units_Z 32
_cell_length_a 21.650335
_cell_length_b 8.650247
_cell_length_c 16.053523
_cell_angle_alpha 90.000000
_cell_angle_beta 137.857909
_cell_angle_gamma 90.000000
_cell_volume 2017.286424
_symmetry_space_group_name_H-M "P 21/M"
_symmetry_group_IT_number 11
_symmetry_cell_setting 'monoclinic'
loop_
_space_group_symop_operation_xyz
x,y,z
-x,1/2+y,-z
-x,-y,-z
x,1/2-y,z
loop_
_atom_site_type_symbol
_atom_site_label
_atom_site_fract_x
_atom_site_fract_y
_atom_site_fract_z
Si Si1 0.288022 0.565648 0.128732
Si Si2 0.395491 0.063554 0.712429
Si Si3 0.604497 0.936446 0.921428
Si Si4 0.288017 0.565648 0.447314
Si Si5 0.899917 0.565138 0.801415
Si Si6 0.396625 0.435657 0.896629
Si Si7 0.396795 0.064924 0.396799
Si Si8 0.100085 0.434862 0.001581
O O1 0.293389 0.750000 0.138028
O O2 0.333985 0.504933 0.090205
O O3 0.344019 0.494628 0.262386
O O4 0.183109 0.510343 0.034131
O O5 0.398120 0.250000 0.708742
O O6 0.358247 0.018963 0.767678
O O7 0.499994 0.000000 0.809310
O O8 0.333969 0.995067 0.577761
O O9 0.601868 0.750000 0.912483
O O10 0.641747 0.981036 0.051167
O O11 0.293384 0.750000 0.448754
O O12 0.183105 0.510343 0.332083
O O13 0.344024 0.494628 0.425669
O O14 0.898048 0.750000 0.790451
O O15 0.000001 0.500000 0.878432
O O16 0.885670 0.529335 0.885670
O O17 0.400162 0.250000 0.900166
O O18 0.500000 0.500000 0.000000
O O19 0.397938 0.250000 0.397943
O O20 0.500000 0.000000 0.500000
O O21 0.101954 0.250000 0.994356
#
# Coordination Sequence:
#
# PCOD9159221 Si02
#       8
#     4   4   4   4   4   4   4   4
#     4  12  23  35  51  74 102 135 171 208 250 299
#     4  10  19  33  51  74 103 135 172 211 253 300
#     4  10  19  33  51  74 103 135 172 211 253 300
#     4  12  23  35  51  74 102 135 171 208 250 299
#     4  10  20  35  55  76 100 130 166 210 256 298
#     4   8  16  30  50  72  97 130 167 210 254 296
#     4  12  24  38  51  68  97 136 174 210 248 294
#     4  10  20  35  55  76 100 130 166 210 256 298
#
# _framework density 15.862894000000001
#
# number of rings (size 3 to 8) (size 9 to 14) (size 15 to 20)
#    0.000    1.500    1.250    5.625    0.000    2.000 
#    0.000    0.000    0.000    0.000    0.000    0.875 
#    0.000    0.000    0.000    0.000    0.000    0.000 
#
# Total GULP energy -178649.148364 kJ/mol
# GULP energy per Si atom -5582.785886 kJ/mol
# Density = 1.582679 g / cm^3
# Si number density = 15.862894 Si / 1000 Ang^3
#
#
#
# Elastic Constant Matrix: (Units=GPa)
#
#
# Indices 1 2 3 4 5 6 
#
# 1 109.8290 57.9300 106.1480 0.0000 -12.2645 0.0000
# 2 57.9300 105.8773 57.3236 0.0000 -3.3159 0.0000
# 3 106.1480 57.3236 106.3156 0.0000 -6.7480 0.0000
# 4 0.0000 0.0000 0.0000 21.6875 0.0000 8.7878
# 5 -12.2645 -3.3159 -6.7480 0.0000 29.9149 0.0000
# 6 0.0000 0.0000 0.0000 8.7878 0.0000 20.0219
#
#
#
# Elastic Compliance Matrix: (Units=1/GPa)
#
#
# Indices 1 2 3 4 5 6 
#
# 1 0.356552 -0.003602 -0.349804 0.000000 0.066874 0.000000
# 2 -0.003602 0.013376 -0.003668 0.000000 -0.000821 0.000000
# 3 -0.349804 -0.003668 0.356613 0.000000 -0.063377 0.000000
# 4 0.000000 0.000000 0.000000 0.056084 0.000000 -0.024616
# 5 0.066874 -0.000821 -0.063377 0.000000 0.046458 0.000000
# 6 0.000000 0.000000 0.000000 -0.024616 0.000000 0.060749
#
#
# Mechanical properties :
#
#
# Convention : Reuss Voigt Hill
#
# Bulk Modulus (GPa) = 80.68108 84.98056 82.83082
# Shear Modulus (GPa) = 3.10924 21.03290 12.07107
#
# Velocity S-wave (km/s) = 1.40154 3.64527 2.76155
# Velocity P-wave (km/s) = 7.32059 8.45018 7.90558
#
# Compressibility (1/GPa) = 0.01239448
#
# Stress axis : x y z
#
# Youngs Moduli (GPa) = 2.80464 74.76200 2.80416
#
# Poissons Ratio (x) = 0.26927 0.98090
# Poissons Ratio (y) = 0.01010 0.01029
# Poissons Ratio (z) = 0.98107 0.27423
#
# Static dielectric constant tensor:
#      x y z
#    x 1.524130 0.000000 -0.021110 
#    y 0.000000 1.526410 0.000000 
#    z -0.021110 0.000000 1.520140 
# 
# From -- ./inp_files/54333.got.cif
#   From: 2010.05.17/outbox.cif.g08.bks.cpg/sg11_28_cif.got.tgz:54333.got - 2010.06.03 12:22:45.
