data_PCOD9159316
_publ_section_title
;
Structure prediction by ZEFSAII (Michael W. Deem and Ramdas Pophale) SiO2 
 PCOD9159316
Probable space group: P 21/M
;
_chemical_formula_sum "Si O2"
_cell_formula_units_Z 24
_cell_length_a 10.969557
_cell_length_b 12.551391
_cell_length_c 11.588010
_cell_angle_alpha 90.000000
_cell_angle_beta 128.037726
_cell_angle_gamma 90.000000
_cell_volume 1256.603853
_symmetry_space_group_name_H-M "P 21/M"
_symmetry_group_IT_number 11
_symmetry_cell_setting 'monoclinic'
loop_
_space_group_symop_operation_xyz
x,y,z
-x,1/2+y,-z
-x,-y,-z
x,1/2-y,z
loop_
_atom_site_type_symbol
_atom_site_label
_atom_site_fract_x
_atom_site_fract_y
_atom_site_fract_z
Si Si1 0.609843 0.373274 0.915542
Si Si2 0.751109 0.489788 0.787121
Si Si3 0.263206 0.372057 0.696989
Si Si4 0.219506 0.372534 0.404516
Si Si5 0.047864 0.128924 0.932884
Si Si6 0.876402 0.466594 0.222161
O O1 0.630086 0.250000 0.890960
O O2 0.638991 0.452010 0.823682
O O3 0.432764 0.384069 0.852271
O O4 0.733788 0.398901 0.087910
O O5 0.702484 0.544166 0.638922
O O6 0.864352 0.389718 0.832765
O O7 0.868572 0.578554 0.907737
O O8 0.205767 0.250000 0.686694
O O9 0.284493 0.379531 0.571759
O O10 0.160482 0.469842 0.682360
O O11 0.235900 0.250000 0.374488
O O12 0.036808 0.401879 0.311671
O O13 0.089211 0.250000 0.946083
O O14 0.104180 0.061540 0.858044
#
# Coordination Sequence:
#
# PCOD9159316 Si02
#       6
#     4   4   4   4   4   4
#     4  10  20  34  53  75 101 133 166 205 249 294
#     4   9  18  29  48  74  98 130 166 202 248 298
#     4  10  21  35  51  74 104 135 166 201 246 298
#     4  10  20  34  53  75 101 133 166 205 249 294
#     4   9  16  27  46  72  99 123 160 214 253 283
#     4  10  19  33  53  75  97 129 170 206 245 292
#
# _framework density 19.099098999999999
#
# number of rings (size 3 to 8) (size 9 to 14) (size 15 to 20)
#    0.000    2.333    0.000    4.000    0.000    0.667 
#    0.000    0.000    0.000    6.000    0.000    0.000 
#    0.000    0.000    0.000    0.000    0.000    0.000 
#
# Total GULP energy -133732.929035 kJ/mol
# GULP energy per Si atom -5572.205376 kJ/mol
# Density = 1.905563 g / cm^3
# Si number density = 19.099099 Si / 1000 Ang^3
#
#
#
# Elastic Constant Matrix: (Units=GPa)
#
#
# Indices 1 2 3 4 5 6 
#
# 1 21.0468 6.0373 -5.4242 0.0000 -2.9582 0.0000
# 2 6.0373 54.5443 6.0474 0.0000 5.8265 0.0000
# 3 -5.4242 6.0474 44.0240 0.0000 2.8940 0.0000
# 4 0.0000 0.0000 0.0000 24.3236 0.0000 -6.2991
# 5 -2.9582 5.8265 2.8940 0.0000 24.9258 0.0000
# 6 0.0000 0.0000 0.0000 -6.2991 0.0000 13.9789
#
#
#
# Elastic Compliance Matrix: (Units=1/GPa)
#
#
# Indices 1 2 3 4 5 6 
#
# 1 0.052424 -0.007340 0.006999 0.000000 0.007125 0.000000
# 2 -0.007340 0.020067 -0.003321 0.000000 -0.005176 0.000000
# 3 0.006999 -0.003321 0.024112 0.000000 -0.001193 0.000000
# 4 0.000000 0.000000 0.000000 0.046544 0.000000 0.020973
# 5 0.007125 -0.005176 -0.001193 0.000000 0.042313 0.000000
# 6 0.000000 0.000000 0.000000 0.020973 0.000000 0.080987
#
#
# Mechanical properties :
#
#
# Convention : Reuss Voigt Hill
#
# Bulk Modulus (GPa) = 11.20069 14.77069 12.98569
# Shear Modulus (GPa) = 16.47289 20.17599 18.32444
#
# Velocity S-wave (km/s) = 2.94001 3.25373 3.10084
# Velocity P-wave (km/s) = 4.17159 4.67613 4.43105
#
# Compressibility (1/GPa) = 0.08928019
#
# Stress axis : x y z
#
# Youngs Moduli (GPa) = 19.07530 49.83250 41.47358
#
# Poissons Ratio (x) = 0.36576 -0.29027
# Poissons Ratio (y) = 0.14001 0.13772
# Poissons Ratio (z) = -0.13351 0.16547
#
# Static dielectric constant tensor:
#      x y z
#    x 1.710700 0.000000 -0.006940 
#    y 0.000000 1.652730 0.000000 
#    z -0.006940 0.000000 1.690870 
# 
# From -- ./inp_files/34208.got.cif
#   From: 2010.05.17/outbox.cif.g08.bks.cpg/sg11_18_cif.got.tgz:34208.got - 2010.06.03 12:22:45.
