data_PCOD9159808
_publ_section_title
;
Structure prediction by ZEFSAII (Michael W. Deem and Ramdas Pophale) SiO2 
 PCOD9159808
Probable space group: P 21/M
;
_chemical_formula_sum "Si O2"
_cell_formula_units_Z 16
_cell_length_a 4.989068
_cell_length_b 8.019572
_cell_length_c 17.914185
_cell_angle_alpha 90.000000
_cell_angle_beta 74.533527
_cell_angle_gamma 90.000000
_cell_volume 690.794040
_symmetry_space_group_name_H-M "P 21/M"
_symmetry_group_IT_number 11
_symmetry_cell_setting 'monoclinic'
loop_
_space_group_symop_operation_xyz
x,y,z
-x,1/2+y,-z
-x,-y,-z
x,1/2-y,z
loop_
_atom_site_type_symbol
_atom_site_label
_atom_site_fract_x
_atom_site_fract_y
_atom_site_fract_z
Si Si1 0.461551 0.549586 0.417596
Si Si2 0.951529 0.046200 0.672658
Si Si3 0.058671 0.442189 0.079620
Si Si4 0.468888 0.943978 0.168670
O O1 0.500000 0.500000 0.500000
O O2 0.459040 0.750000 0.415521
O O3 0.185610 0.493114 0.395636
O O4 0.730486 0.491238 0.350668
O O5 0.954650 0.250000 0.676145
O O6 0.748380 0.990424 0.753628
O O7 0.141293 0.250000 0.073711
O O8 0.764406 0.466777 0.143303
O O9 0.302538 0.541125 0.103194
O O10 0.000000 0.500000 0.000000
O O11 0.528254 0.750000 0.180618
#
# Coordination Sequence:
#
# PCOD9159808 Si02
#       4
#     4   4   4   4
#     4  10  19  34  54  80 110 146 187 232 282 340
#     4   9  19  35  57  80 109 147 190 233 284 346
#     4  12  25  42  62  90 124 158 195 244 298 354
#     4  11  22  41  66  90 116 157 204 247 294 354
#
# _framework density 23.161753000000001
#
# number of rings (size 3 to 8) (size 9 to 14) (size 15 to 20)
#    0.000    1.500    0.000    6.000    0.000    4.000 
#    0.000    7.500    0.000    0.000    0.000    0.000 
#    0.000    0.000    0.000    0.000    0.000    0.000 
#
# Total GULP energy -89530.871458 kJ/mol
# GULP energy per Si atom -5595.679466 kJ/mol
# Density = 2.310904 g / cm^3
# Si number density = 23.161753 Si / 1000 Ang^3
#
#
#
# Elastic Constant Matrix: (Units=GPa)
#
#
# Indices 1 2 3 4 5 6 
#
# 1 82.3746 -6.5806 -17.5319 0.0000 -0.6547 0.0000
# 2 -6.5806 34.4703 -4.3527 0.0000 -7.0011 0.0000
# 3 -17.5319 -4.3527 58.2261 0.0000 -1.9857 0.0000
# 4 0.0000 0.0000 0.0000 22.2946 0.0000 0.2279
# 5 -0.6547 -7.0011 -1.9857 0.0000 39.1719 0.0000
# 6 0.0000 0.0000 0.0000 0.2279 0.0000 25.3643
#
#
#
# Elastic Compliance Matrix: (Units=1/GPa)
#
#
# Indices 1 2 3 4 5 6 
#
# 1 0.013325 0.003295 0.004294 0.000000 0.001029 0.000000
# 2 0.003295 0.031268 0.003528 0.000000 0.005822 0.000000
# 3 0.004294 0.003528 0.018787 0.000000 0.001655 0.000000
# 4 0.000000 0.000000 0.000000 0.044858 0.000000 -0.000403
# 5 0.001029 0.005822 0.001655 0.000000 0.026670 0.000000
# 6 0.000000 0.000000 0.000000 -0.000403 0.000000 0.039429
#
#
# Mechanical properties :
#
#
# Convention : Reuss Voigt Hill
#
# Bulk Modulus (GPa) = 11.68044 13.12673 12.40358
# Shear Modulus (GPa) = 27.67912 30.93524 29.30718
#
# Velocity S-wave (km/s) = 3.46068 3.65857 3.56100
# Velocity P-wave (km/s) = 4.58501 4.85042 4.71958
#
# Compressibility (1/GPa) = 0.08561321
#
# Stress axis : x y z
#
# Youngs Moduli (GPa) = 75.04763 31.98198 53.22716
#
# Poissons Ratio (x) = -0.10538 -0.22853
# Poissons Ratio (y) = -0.24728 -0.18779
# Poissons Ratio (z) = -0.32222 -0.11284
#
# Static dielectric constant tensor:
#      x y z
#    x 1.842380 0.000000 -0.003370 
#    y 0.000000 0.000060 0.000000 
#    z -0.003370 0.000000 1.895800 
# 
# From -- ./inp_files/7337.got.cif
#   From: 2010.05.17/outbox.cif.g08.bks.cpg/sg11_4_cif.got.tgz:7337.got - 2010.06.03 12:22:45.
