data_PCOD9159912
_publ_section_title
;
Structure prediction by ZEFSAII (Michael W. Deem and Ramdas Pophale) SiO2 
 PCOD9159912
Probable space group: P 21/M
;
_chemical_formula_sum "Si O2"
_cell_formula_units_Z 32
_cell_length_a 11.925150
_cell_length_b 7.759930
_cell_length_c 29.016222
_cell_angle_alpha 90.000000
_cell_angle_beta 147.864186
_cell_angle_gamma 90.000000
_cell_volume 1428.286599
_symmetry_space_group_name_H-M "P 21/M"
_symmetry_group_IT_number 11
_symmetry_cell_setting 'monoclinic'
loop_
_space_group_symop_operation_xyz
x,y,z
-x,1/2+y,-z
-x,-y,-z
x,1/2-y,z
loop_
_atom_site_type_symbol
_atom_site_label
_atom_site_fract_x
_atom_site_fract_y
_atom_site_fract_z
Si Si1 0.556954 0.949162 0.286293
Si Si2 0.866199 0.958548 0.154546
Si Si3 0.352920 0.960916 0.310645
Si Si4 0.912022 0.047363 0.344985
Si Si5 0.364617 0.549231 0.833545
Si Si6 0.224272 0.040682 0.976229
Si Si7 0.847346 0.947186 0.904966
Si Si8 0.389204 0.457717 0.509909
O O1 0.606067 0.750000 0.311169
O O2 0.461230 0.020813 0.300742
O O3 0.769572 0.032058 0.340857
O O4 0.371241 0.961225 0.183263
O O5 0.857861 0.750000 0.156187
O O6 0.742114 0.008426 0.064981
O O7 0.108992 0.009887 0.231373
O O8 0.769791 0.038176 0.166607
O O9 0.353278 0.750000 0.308932
O O10 0.479254 0.018204 0.399934
O O11 0.937641 0.250000 0.343422
O O12 0.770671 0.969768 0.254608
O O13 0.148446 0.976323 0.428624
O O14 0.402535 0.750000 0.835132
O O15 0.592619 0.475387 0.926302
O O16 0.218004 0.250000 0.976106
O O17 0.999346 0.974326 0.914304
O O18 0.790903 0.750000 0.892515
O O19 0.000000 0.000000 0.000000
O O20 0.500000 0.500000 0.500000
O O21 0.384827 0.250000 0.511843
#
# Coordination Sequence:
#
# PCOD9159912 Si02
#       8
#     4   4   4   4   4   4   4   4
#     4  11  22  40  63  86 117 156 202 248 299 362
#     4  10  19  34  56  80 112 150 195 246 295 353
#     4   9  19  37  60  85 116 156 197 246 305 356
#     4  10  22  39  57  85 122 155 194 249 306 354
#     4  10  21  35  53  79 115 153 191 242 297 350
#     4  10  20  36  55  79 114 155 196 242 296 354
#     4  12  24  38  59  86 118 158 203 249 295 353
#     4  10  21  39  63  89 121 158 198 247 303 363
#
# _framework density 22.404465999999999
#
# number of rings (size 3 to 8) (size 9 to 14) (size 15 to 20)
#    0.000    1.750    1.250    3.375    0.000    3.500 
#    0.000    1.250    0.000    0.000    0.000    0.000 
#    0.000    0.000    0.000    0.000    0.000    0.000 
#
# Total GULP energy -178841.513386 kJ/mol
# GULP energy per Si atom -5588.797293 kJ/mol
# Density = 2.235347 g / cm^3
# Si number density = 22.404466 Si / 1000 Ang^3
#
#
#
# Elastic Constant Matrix: (Units=GPa)
#
#
# Indices 1 2 3 4 5 6 
#
# 1 95.8063 -12.8690 35.9598 0.0000 11.5243 0.0000
# 2 -12.8690 29.8947 3.2497 0.0000 -3.5144 0.0000
# 3 35.9598 3.2497 130.1637 0.0000 9.6995 0.0000
# 4 0.0000 0.0000 0.0000 6.6154 0.0000 2.8840
# 5 11.5243 -3.5144 9.6995 0.0000 41.9850 0.0000
# 6 0.0000 0.0000 0.0000 2.8840 0.0000 28.8380
#
#
#
# Elastic Compliance Matrix: (Units=1/GPa)
#
#
# Indices 1 2 3 4 5 6 
#
# 1 0.012775 0.005619 -0.003504 0.000000 -0.002227 0.000000
# 2 0.005619 0.036402 -0.002618 0.000000 0.002110 0.000000
# 3 -0.003504 -0.002618 0.008812 0.000000 -0.001293 0.000000
# 4 0.000000 0.000000 0.000000 0.158053 0.000000 -0.015807
# 5 -0.002227 0.002110 -0.001293 0.000000 0.024905 0.000000
# 6 0.000000 0.000000 0.000000 -0.015807 0.000000 0.036257
#
#
# Mechanical properties :
#
#
# Convention : Reuss Voigt Hill
#
# Bulk Modulus (GPa) = 17.54911 34.28286 25.91599
# Shear Modulus (GPa) = 16.82337 30.78929 23.80633
#
# Velocity S-wave (km/s) = 2.74322 3.71111 3.26325
# Velocity P-wave (km/s) = 4.22889 5.80501 5.07847
#
# Compressibility (1/GPa) = 0.05698294
#
# Stress axis : x y z
#
# Youngs Moduli (GPa) = 78.27551 27.47100 113.47731
#
# Poissons Ratio (x) = -0.15435 0.39759
# Poissons Ratio (y) = -0.43980 0.29711
# Poissons Ratio (z) = 0.27426 0.07193
#
# Static dielectric constant tensor:
#      x y z
#    x 1.819330 0.000000 -0.002180 
#    y 0.000000 1.820410 0.000000 
#    z -0.002180 0.000000 1.874660 
# 
# From -- ./inp_files/38210.got.cif
#   From: 2010.05.17/outbox.cif.g08.bks.cpg/sg11_20_cif.got.tgz:38210.got - 2010.06.03 12:22:45.
