data_PCOD9159709
_publ_section_title
;
Structure prediction by ZEFSAII (Michael W. Deem and Ramdas Pophale) SiO2 
 PCOD9159709
Probable space group: P 21/M
;
_chemical_formula_sum "Si O2"
_cell_formula_units_Z 16
_cell_length_a 11.828498
_cell_length_b 18.177144
_cell_length_c 9.747244
_cell_angle_alpha 90.000000
_cell_angle_beta 155.027906
_cell_angle_gamma 90.000000
_cell_volume 884.772148
_symmetry_space_group_name_H-M "P 21/M"
_symmetry_group_IT_number 11
_symmetry_cell_setting 'monoclinic'
loop_
_space_group_symop_operation_xyz
x,y,z
-x,1/2+y,-z
-x,-y,-z
x,1/2-y,z
loop_
_atom_site_type_symbol
_atom_site_label
_atom_site_fract_x
_atom_site_fract_y
_atom_site_fract_z
Si Si1 0.752839 0.029817 0.869190
Si Si2 0.957519 0.383137 0.866078
Si Si3 0.387593 0.167736 0.141935
Si Si4 0.284548 0.017248 0.877888
O O1 0.877315 0.102083 0.935844
O O2 0.500000 0.000000 0.500000
O O3 0.667353 0.031756 0.932594
O O4 0.982603 0.966740 0.117734
O O5 0.699306 0.347112 0.513721
O O6 0.219504 0.341710 0.099248
O O7 0.345110 0.250000 0.042868
O O8 0.296876 0.101839 0.943070
O O9 0.000000 0.000000 0.500000
O O10 0.500000 0.000000 0.000000
#
# Coordination Sequence:
#
# PCOD9159709 Si02
#       4
#     4   4   4   4
#     4  10  19  35  61  85 123 143 192 250 300 341
#     4  10  19  33  59  88 108 147 195 240 299 337
#     4  11  22  38  59  86 120 157 205 251 299 366
#     4  11  23  36  58  92 119 155 203 243 297 359
#
# _framework density 18.083749999999998
#
# number of rings (size 3 to 8) (size 9 to 14) (size 15 to 20)
#    0.000    1.500    5.000    3.750    3.500    0.000 
#    0.000    0.000    0.000    9.000    0.000    0.000 
#    0.000    0.000    0.000    0.000    0.000    0.000 
#
# Total GULP energy -89130.894434 kJ/mol
# GULP energy per Si atom -5570.680902 kJ/mol
# Density = 1.804259 g / cm^3
# Si number density = 18.083750 Si / 1000 Ang^3
#
#
#
# Elastic Constant Matrix: (Units=GPa)
#
#
# Indices 1 2 3 4 5 6 
#
# 1 155.0997 27.8376 49.6581 0.0000 -0.3935 0.0000
# 2 27.8376 95.2989 13.3736 0.0000 -2.8569 0.0000
# 3 49.6581 13.3736 83.8126 0.0000 10.5579 0.0000
# 4 0.0000 0.0000 0.0000 20.6002 0.0000 -0.5892
# 5 -0.3935 -2.8569 10.5579 0.0000 39.4082 0.0000
# 6 0.0000 0.0000 0.0000 -0.5892 0.0000 16.1312
#
#
#
# Elastic Compliance Matrix: (Units=1/GPa)
#
#
# Indices 1 2 3 4 5 6 
#
# 1 0.008294 -0.001712 -0.004798 0.000000 0.001244 0.000000
# 2 -0.001712 0.011150 -0.000895 0.000000 0.001031 0.000000
# 3 -0.004798 -0.000895 0.015452 0.000000 -0.004253 0.000000
# 4 0.000000 0.000000 0.000000 0.048594 0.000000 0.001775
# 5 0.001244 0.001031 -0.004253 0.000000 0.026602 0.000000
# 6 0.000000 0.000000 0.000000 0.001775 0.000000 0.062057
#
#
# Mechanical properties :
#
#
# Convention : Reuss Voigt Hill
#
# Bulk Modulus (GPa) = 49.78207 57.32776 53.55491
# Shear Modulus (GPa) = 25.81935 31.45070 28.63503
#
# Velocity S-wave (km/s) = 3.78268 4.17486 3.98360
# Velocity P-wave (km/s) = 6.83129 7.41683 7.13007
#
# Compressibility (1/GPa) = 0.02008755
#
# Stress axis : x y z
#
# Youngs Moduli (GPa) = 120.56961 89.68704 64.71510
#
# Poissons Ratio (x) = 0.15356 0.31048
# Poissons Ratio (y) = 0.20644 0.05789
# Poissons Ratio (z) = 0.57844 0.08023
#
# Static dielectric constant tensor:
#      x y z
#    x 1.698880 0.000000 0.007450 
#    y 0.000000 1.640980 0.000000 
#    z 0.007450 0.000000 1.620430 
# 
# From -- ./inp_files/4410.got.cif
#   From: 2010.05.17/outbox.cif.g08.bks.cpg/sg11_3_cif.got.tgz:4410.got - 2010.06.03 12:22:45.
