data_PCOD9159747
_publ_section_title
;
Structure prediction by ZEFSAII (Michael W. Deem and Ramdas Pophale) SiO2 
 PCOD9159747
Probable space group: P 21/M
;
_chemical_formula_sum "Si O2"
_cell_formula_units_Z 20
_cell_length_a 8.504292
_cell_length_b 10.724249
_cell_length_c 15.159481
_cell_angle_alpha 90.000000
_cell_angle_beta 43.307861
_cell_angle_gamma 90.000000
_cell_volume 948.334849
_symmetry_space_group_name_H-M "P 21/M"
_symmetry_group_IT_number 11
_symmetry_cell_setting 'monoclinic'
loop_
_space_group_symop_operation_xyz
x,y,z
-x,1/2+y,-z
-x,-y,-z
x,1/2-y,z
loop_
_atom_site_type_symbol
_atom_site_label
_atom_site_fract_x
_atom_site_fract_y
_atom_site_fract_z
Si Si1 0.243257 0.616439 0.597511
Si Si2 0.191562 0.387100 0.508222
Si Si3 0.780873 0.955700 0.705028
Si Si4 0.052727 0.889563 0.859743
Si Si5 0.720451 0.395779 0.038963
O O1 0.342465 0.750000 0.529176
O O2 0.314553 0.495315 0.513531
O O3 0.233029 0.604554 0.706554
O O4 0.971925 0.618296 0.681691
O O5 0.249235 0.250000 0.515074
O O6 0.241212 0.401219 0.384591
O O7 0.918347 0.414342 0.633879
O O8 0.537773 0.947386 0.850606
O O9 0.945178 0.750000 0.900254
O O10 0.180383 0.897943 0.901447
O O11 0.878855 0.005452 0.922700
O O12 0.726269 0.250000 0.007433
#
# Coordination Sequence:
#
# PCOD9159747 Si02
#       5
#     4   4   4   4   4
#     4   9  17  32  51  71  99 129 157 196 243 285
#     4   9  18  31  51  75  99 125 160 201 238 282
#     4   9  19  30  54  72  97 127 162 195 239 288
#     4   9  20  35  50  71 100 128 160 200 241 283
#     4  10  19  34  53  71  95 131 164 195 239 291
#
# _framework density 21.089597000000001
#
# number of rings (size 3 to 8) (size 9 to 14) (size 15 to 20)
#    1.200    1.600    0.000    1.800    0.000    2.400 
#    0.000    1.000    0.000    0.000    0.000    0.000 
#    0.000    0.000    0.000    0.000    0.000    0.000 
#
# Total GULP energy -111389.541720 kJ/mol
# GULP energy per Si atom -5569.477086 kJ/mol
# Density = 2.104160 g / cm^3
# Si number density = 21.089597 Si / 1000 Ang^3
#
#
#
# Elastic Constant Matrix: (Units=GPa)
#
#
# Indices 1 2 3 4 5 6 
#
# 1 42.8933 24.9920 9.2079 0.0000 -2.4140 0.0000
# 2 24.9920 153.8091 52.2283 0.0000 1.5045 0.0000
# 3 9.2079 52.2283 62.3281 0.0000 -17.0153 0.0000
# 4 0.0000 0.0000 0.0000 9.1741 0.0000 11.3328
# 5 -2.4140 1.5045 -17.0153 0.0000 36.5819 0.0000
# 6 0.0000 0.0000 0.0000 11.3328 0.0000 -6.4179
#
#
#
# Elastic Compliance Matrix: (Units=1/GPa)
#
#
# Indices 1 2 3 4 5 6 
#
# 1 0.025886 -0.004361 0.000395 0.000000 0.002071 0.000000
# 2 -0.004361 0.010513 -0.009578 0.000000 -0.005175 0.000000
# 3 0.000395 -0.009578 0.027636 0.000000 0.013274 0.000000
# 4 0.000000 0.000000 0.000000 0.034263 0.000000 0.060503
# 5 0.002071 -0.005175 0.013274 0.000000 0.033860 0.000000
# 6 0.000000 0.000000 0.000000 0.060503 0.000000 -0.048978
#
#
# Mechanical properties :
#
#
# Convention : Reuss Voigt Hill
#
# Bulk Modulus (GPa) = 27.06514 47.98743 37.52629
# Shear Modulus (GPa) = 40.78868 19.37444 30.08156
#
# Velocity S-wave (km/s) = 4.40257 3.03425 3.78083
# Velocity P-wave (km/s) = 6.22132 5.92276 6.07387
#
# Compressibility (1/GPa) = 0.03694789
#
# Stress axis : x y z
#
# Youngs Moduli (GPa) = 38.63072 95.11887 36.18518
#
# Poissons Ratio (x) = 0.41478 -0.01431
# Poissons Ratio (y) = 0.16846 0.34659
# Poissons Ratio (z) = -0.01527 0.91107
#
# Static dielectric constant tensor:
#      x y z
#    x 1.799830 0.000000 -0.028740 
#    y 0.000000 1.785260 0.000000 
#    z -0.028740 0.000000 1.703650 
# 
# From -- ./inp_files/57678.got.cif
#   From: 2010.05.17/outbox.cif.g08.bks.cpg/sg11_29_cif.got.tgz:57678.got - 2010.06.03 12:22:45.
