data_PCOD9159203
_publ_section_title
;
Structure prediction by ZEFSAII (Michael W. Deem and Ramdas Pophale) SiO2 
 PCOD9159203
Probable space group: P 21/M
;
_chemical_formula_sum "Si O2"
_cell_formula_units_Z 32
_cell_length_a 15.972460
_cell_length_b 8.545361
_cell_length_c 15.898265
_cell_angle_alpha 90.000000
_cell_angle_beta 123.198922
_cell_angle_gamma 90.000000
_cell_volume 1815.768393
_symmetry_space_group_name_H-M "P 21/M"
_symmetry_group_IT_number 11
_symmetry_cell_setting 'monoclinic'
loop_
_space_group_symop_operation_xyz
x,y,z
-x,1/2+y,-z
-x,-y,-z
x,1/2-y,z
loop_
_atom_site_type_symbol
_atom_site_label
_atom_site_fract_x
_atom_site_fract_y
_atom_site_fract_z
Si Si1 0.577347 0.560253 0.228331
Si Si2 0.297552 0.437600 0.867280
Si Si3 0.040249 0.561073 0.149561
Si Si4 0.921642 0.436473 0.637670
Si Si5 0.354168 0.937483 0.080978
Si Si6 0.841648 0.563170 0.943430
Si Si7 0.880573 0.065410 0.333328
Si Si8 0.767346 0.563612 0.432137
O O1 0.577840 0.750000 0.231625
O O2 0.623460 0.518106 0.162519
O O3 0.463248 0.507790 0.172635
O O4 0.657179 0.508013 0.342384
O O5 0.284627 0.250000 0.858722
O O6 0.193337 0.516602 0.783234
O O7 0.333623 0.491404 0.977808
O O8 0.046704 0.750000 0.147757
O O9 0.064442 0.513943 0.257921
O O10 0.115563 0.488900 0.123035
O O11 0.928097 0.516757 0.058291
O O12 0.934950 0.250000 0.640630
O O13 0.815925 0.483229 0.539474
O O14 0.008352 0.515659 0.630186
O O15 0.356467 0.750000 0.074913
O O16 0.263195 0.987102 0.090339
O O17 0.831776 0.750000 0.941125
O O18 0.875088 0.250000 0.345825
O O19 0.838143 0.976178 0.391356
O O20 0.765635 0.750000 0.443143
#
# Coordination Sequence:
#
# PCOD9159203 Si02
#       8
#     4   4   4   4   4   4   4   4
#     4   8  18  34  51  71 100 138 175 214 255 295
#     4  10  19  33  50  73 106 139 172 212 256 297
#     4   9  20  37  55  75 103 134 162 200 251 306
#     4  11  21  34  53  77 104 135 171 210 256 307
#     4  11  20  32  52  77 103 135 174 209 251 307
#     4  10  20  35  55  79 105 132 163 203 253 304
#     4  11  21  33  50  75 105 139 176 210 251 303
#     4  10  20  36  53  72 102 138 176 217 257 294
#
# _framework density 17.623393
#
# number of rings (size 3 to 8) (size 9 to 14) (size 15 to 20)
#    0.000    2.000    0.000    5.250    0.000    2.500 
#    0.000    6.875    0.000    0.750    0.000    0.000 
#    0.000    0.000    0.000    0.000    0.000    0.000 
#
# Total GULP energy -178695.718072 kJ/mol
# GULP energy per Si atom -5584.241190 kJ/mol
# Density = 1.758328 g / cm^3
# Si number density = 17.623393 Si / 1000 Ang^3
#
#
#
# Elastic Constant Matrix: (Units=GPa)
#
#
# Indices 1 2 3 4 5 6 
#
# 1 70.9006 2.0114 28.4831 0.0000 25.1633 0.0000
# 2 2.0114 24.2955 -4.4992 0.0000 4.1857 0.0000
# 3 28.4831 -4.4992 88.3803 0.0000 13.0796 0.0000
# 4 0.0000 0.0000 0.0000 27.7228 0.0000 -0.5252
# 5 25.1633 4.1857 13.0796 0.0000 21.5308 0.0000
# 6 0.0000 0.0000 0.0000 -0.5252 0.0000 21.8526
#
#
#
# Elastic Compliance Matrix: (Units=1/GPa)
#
#
# Indices 1 2 3 4 5 6 
#
# 1 0.025512 0.001925 -0.004017 0.000000 -0.027750 0.000000
# 2 0.001925 0.043880 0.003526 0.000000 -0.012922 0.000000
# 3 -0.004017 0.003526 0.013400 0.000000 -0.004131 0.000000
# 4 0.000000 0.000000 0.000000 0.036088 0.000000 0.000867
# 5 -0.027750 -0.012922 -0.004131 0.000000 0.083899 0.000000
# 6 0.000000 0.000000 0.000000 0.000867 0.000000 0.045782
#
#
# Mechanical properties :
#
#
# Convention : Reuss Voigt Hill
#
# Bulk Modulus (GPa) = 11.67424 26.17414 18.92419
# Shear Modulus (GPa) = 18.23172 24.72664 21.47918
#
# Velocity S-wave (km/s) = 3.21988 3.74980 3.49490
# Velocity P-wave (km/s) = 4.52351 5.79933 5.20069
#
# Compressibility (1/GPa) = 0.08565870
#
# Stress axis : x y z
#
# Youngs Moduli (GPa) = 39.19659 22.78966 74.62550
#
# Poissons Ratio (x) = -0.04386 0.29979
# Poissons Ratio (y) = -0.07544 -0.26311
# Poissons Ratio (z) = 0.15746 -0.08035
#
# Static dielectric constant tensor:
#      x y z
#    x 1.580020 0.000000 0.020930 
#    y 0.000000 1.594810 0.000000 
#    z 0.020930 0.000000 1.611380 
# 
# From -- ./inp_files/51723.got.cif
#   From: 2010.05.17/outbox.cif.g08.bks.cpg/sg11_26_cif.got.tgz:51723.got - 2010.06.03 12:22:45.
