data_PCOD9159239
_publ_section_title
;
Structure prediction by ZEFSAII (Michael W. Deem and Ramdas Pophale) SiO2 
 PCOD9159239
Probable space group: P 21/M
;
_chemical_formula_sum "Si O2"
_cell_formula_units_Z 20
_cell_length_a 12.401950
_cell_length_b 13.026487
_cell_length_c 5.124527
_cell_angle_alpha 90.000000
_cell_angle_beta 113.549403
_cell_angle_gamma 90.000000
_cell_volume 758.937204
_symmetry_space_group_name_H-M "P 21/M"
_symmetry_group_IT_number 11
_symmetry_cell_setting 'monoclinic'
loop_
_space_group_symop_operation_xyz
x,y,z
-x,1/2+y,-z
-x,-y,-z
x,1/2-y,z
loop_
_atom_site_type_symbol
_atom_site_label
_atom_site_fract_x
_atom_site_fract_y
_atom_site_fract_z
Si Si1 0.952041 0.602331 0.187000
Si Si2 0.534672 0.864085 0.809586
Si Si3 0.390265 0.587252 0.178046
Si Si4 0.824062 0.066195 0.337283
Si Si5 0.803428 0.642441 0.535934
O O1 0.915213 0.483912 0.214222
O O2 0.883193 0.652118 0.358229
O O3 0.089915 0.617632 0.369807
O O4 0.888945 0.634452 0.864649
O O5 0.586811 0.750000 0.845757
O O6 0.429527 0.870532 0.494808
O O7 0.614371 0.962004 0.810845
O O8 0.488484 0.883751 0.057226
O O9 0.270823 0.623849 0.926997
O O10 0.756809 0.972843 0.428308
O O11 0.733430 0.750000 0.492431
#
# Coordination Sequence:
#
# PCOD9159239 Si02
#       5
#     4   4   4   4   4
#     4   9  20  34  54  75 114 148 176 226 266 335
#     4  10  22  42  60  88 118 146 193 249 290 348
#     4  10  22  38  67  85 114 157 191 234 303 343
#     4   9  21  35  59  78 110 149 190 218 279 341
#     4  10  19  33  51  77 111 147 184 232 270 316
#
# _framework density 26.352641999999999
#
# number of rings (size 3 to 8) (size 9 to 14) (size 15 to 20)
#    1.200    1.200    0.000    1.800    2.800    0.800 
#    0.000    6.000    0.000    0.000    0.000    0.000 
#    0.000    0.000    0.000    0.000    0.000    0.000 
#
# Total GULP energy -111576.379521 kJ/mol
# GULP energy per Si atom -5578.818976 kJ/mol
# Density = 2.629266 g / cm^3
# Si number density = 26.352642 Si / 1000 Ang^3
#
#
#
# Elastic Constant Matrix: (Units=GPa)
#
#
# Indices 1 2 3 4 5 6 
#
# 1 55.0004 6.0443 22.2965 0.0000 -4.3275 0.0000
# 2 6.0443 117.1984 11.2390 0.0000 -11.4124 0.0000
# 3 22.2965 11.2390 235.7340 0.0000 5.0566 0.0000
# 4 0.0000 0.0000 0.0000 48.3484 0.0000 -17.9309
# 5 -4.3275 -11.4124 5.0566 0.0000 48.3064 0.0000
# 6 0.0000 0.0000 0.0000 -17.9309 0.0000 -4.1733
#
#
#
# Elastic Compliance Matrix: (Units=1/GPa)
#
#
# Indices 1 2 3 4 5 6 
#
# 1 0.019126 -0.000642 -0.001816 0.000000 0.001752 0.000000
# 2 -0.000642 0.008805 -0.000403 0.000000 0.002065 0.000000
# 3 -0.001816 -0.000403 0.004449 0.000000 -0.000724 0.000000
# 4 0.000000 0.000000 0.000000 0.007975 0.000000 -0.034266
# 5 0.001752 0.002065 -0.000724 0.000000 0.021422 0.000000
# 6 0.000000 0.000000 0.000000 -0.034266 0.000000 -0.092393
#
#
# Mechanical properties :
#
#
# Convention : Reuss Voigt Hill
#
# Bulk Modulus (GPa) = 37.51209 54.12139 45.81674
# Shear Modulus (GPa) = -312.34664 43.05315 -134.64674
#
# Velocity S-wave (km/s) = -10.89876 4.04633 -7.15578
# Velocity P-wave (km/s) = 12.00466 6.51248 7.13090
#
# Compressibility (1/GPa) = 0.02665807
#
# Stress axis : x y z
#
# Youngs Moduli (GPa) = 52.28416 113.56659 224.79030
#
# Poissons Ratio (x) = 0.07287 0.40822
# Poissons Ratio (y) = 0.03355 0.09068
# Poissons Ratio (z) = 0.09495 0.04581
#
# Static dielectric constant tensor:
#      x y z
#    x 2.065210 0.000000 0.019510 
#    y 0.000000 2.221690 0.000000 
#    z 0.019510 0.000000 2.006470 
# 
# From -- ./inp_files/7837.got.cif
#   From: 2010.05.17/outbox.cif.g08.bks.cpg/sg11_4_cif.got.tgz:7837.got - 2010.06.03 12:22:45.
