data_PCOD9159656
_publ_section_title
;
Structure prediction by ZEFSAII (Michael W. Deem and Ramdas Pophale) SiO2 
 PCOD9159656
Probable space group: P 21/M
;
_chemical_formula_sum "Si O2"
_cell_formula_units_Z 32
_cell_length_a 12.200752
_cell_length_b 21.140498
_cell_length_c 8.040575
_cell_angle_alpha 90.000000
_cell_angle_beta 54.127405
_cell_angle_gamma 90.000000
_cell_volume 1680.531115
_symmetry_space_group_name_H-M "P 21/M"
_symmetry_group_IT_number 11
_symmetry_cell_setting 'monoclinic'
loop_
_space_group_symop_operation_xyz
x,y,z
-x,1/2+y,-z
-x,-y,-z
x,1/2-y,z
loop_
_atom_site_type_symbol
_atom_site_label
_atom_site_fract_x
_atom_site_fract_y
_atom_site_fract_z
Si Si1 0.996586 0.449990 0.854529
Si Si2 0.798248 0.941834 0.586997
Si Si3 0.503831 0.590126 0.741350
Si Si4 0.842654 0.680188 0.732467
Si Si5 0.821010 0.869414 0.098802
Si Si6 0.727712 0.501609 0.003010
Si Si7 0.527161 0.823439 0.413107
Si Si8 0.513950 0.677833 0.044924
O O1 0.091127 0.476312 0.622834
O O2 0.070590 0.387654 0.858046
O O3 0.841704 0.448778 0.937661
O O4 0.000000 0.500000 0.000000
O O5 0.663923 0.924793 0.603187
O O6 0.871749 0.877828 0.585659
O O7 0.745740 0.977847 0.796220
O O8 0.473293 0.631143 0.604883
O O9 0.417091 0.526623 0.826292
O O10 0.471450 0.630357 0.937454
O O11 0.886441 0.750000 0.641128
O O12 0.887413 0.664235 0.880091
O O13 0.678101 0.679766 0.888960
O O14 0.691164 0.829828 0.271895
O O15 0.760076 0.935761 0.081726
O O16 0.492278 0.750000 0.472213
O O17 0.483498 0.840807 0.262965
O O18 0.466608 0.750000 0.059185
#
# Coordination Sequence:
#
# PCOD9159656 Si02
#       8
#     4   4   4   4   4   4   4   4
#     4  10  20  37  52  77 108 149 181 218 273 336
#     4  10  19  35  55  78 111 143 189 222 270 331
#     4  11  20  34  55  88 112 140 187 231 279 326
#     4   8  15  29  53  80 105 132 177 239 280 310
#     4   9  17  34  52  79 110 139 186 227 271 328
#     4  10  22  35  54  79 116 150 175 224 279 333
#     4  10  19  33  57  83 109 144 185 234 281 322
#     4   8  16  31  50  77 110 142 178 224 280 333
#
# _framework density 19.041598
#
# number of rings (size 3 to 8) (size 9 to 14) (size 15 to 20)
#    0.000    2.500    1.250    3.000    0.000    1.000 
#    4.500    0.000    0.000    4.500    0.000    0.000 
#    0.000    0.000    0.000    0.000    0.000    0.000 
#
# Total GULP energy -178381.160047 kJ/mol
# GULP energy per Si atom -5574.411251 kJ/mol
# Density = 1.899826 g / cm^3
# Si number density = 19.041598 Si / 1000 Ang^3
#
#
#
# Elastic Constant Matrix: (Units=GPa)
#
#
# Indices 1 2 3 4 5 6 
#
# 1 23.7218 3.5058 3.8092 0.0000 4.6618 0.0000
# 2 3.5058 47.7232 14.8142 0.0000 5.1505 0.0000
# 3 3.8092 14.8142 58.9186 0.0000 15.0124 0.0000
# 4 0.0000 0.0000 0.0000 10.5641 0.0000 7.0732
# 5 4.6618 5.1505 15.0124 0.0000 19.8222 0.0000
# 6 0.0000 0.0000 0.0000 7.0732 0.0000 15.5500
#
#
#
# Elastic Compliance Matrix: (Units=1/GPa)
#
#
# Indices 1 2 3 4 5 6 
#
# 1 0.044424 -0.002258 0.000258 0.000000 -0.010056 0.000000
# 2 -0.002258 0.022904 -0.005244 0.000000 -0.001449 0.000000
# 3 0.000258 -0.005244 0.022233 0.000000 -0.015536 0.000000
# 4 0.000000 0.000000 0.000000 0.136115 0.000000 -0.061914
# 5 -0.010056 -0.001449 -0.015536 0.000000 0.064957 0.000000
# 6 0.000000 0.000000 0.000000 -0.061914 0.000000 0.092471
#
#
# Mechanical properties :
#
#
# Convention : Reuss Voigt Hill
#
# Bulk Modulus (GPa) = 13.32032 19.40245 16.36139
# Shear Modulus (GPa) = 11.83108 16.40288 14.11698
#
# Velocity S-wave (km/s) = 2.49535 2.93819 2.72578
# Velocity P-wave (km/s) = 3.91317 4.66071 4.30320
#
# Compressibility (1/GPa) = 0.07507326
#
# Stress axis : x y z
#
# Youngs Moduli (GPa) = 22.51043 43.66018 44.97809
#
# Poissons Ratio (x) = 0.09859 -0.01160
# Poissons Ratio (y) = 0.05083 0.23585
# Poissons Ratio (z) = -0.00581 0.22894
#
# Static dielectric constant tensor:
#      x y z
#    x 1.675080 0.000000 0.036530 
#    y 0.000000 1.692950 0.000000 
#    z 0.036530 0.000000 1.674800 
# 
# From -- ./inp_files/19177.got.cif
#   From: 2010.05.17/outbox.cif.g08.bks.cpg/sg11_10_cif.got.tgz:19177.got - 2010.06.03 12:22:45.
