data_PCOD9159027
_publ_section_title
;
Structure prediction by ZEFSAII (Michael W. Deem and Ramdas Pophale) SiO2 
 PCOD9159027
Probable space group: P 21/M
;
_chemical_formula_sum "Si O2"
_cell_formula_units_Z 32
_cell_length_a 12.750041
_cell_length_b 8.461929
_cell_length_c 17.354241
_cell_angle_alpha 90.000000
_cell_angle_beta 75.664975
_cell_angle_gamma 90.000000
_cell_volume 1814.051668
_symmetry_space_group_name_H-M "P 21/M"
_symmetry_group_IT_number 11
_symmetry_cell_setting 'monoclinic'
loop_
_space_group_symop_operation_xyz
x,y,z
-x,1/2+y,-z
-x,-y,-z
x,1/2-y,z
loop_
_atom_site_type_symbol
_atom_site_label
_atom_site_fract_x
_atom_site_fract_y
_atom_site_fract_z
Si Si1 0.876881 0.059649 0.020888
Si Si2 0.114929 0.060040 0.452175
Si Si3 0.671930 0.942253 0.497463
Si Si4 0.450124 0.059179 0.327784
Si Si5 0.326584 0.061087 0.677132
Si Si6 0.880600 0.439463 0.851290
Si Si7 0.872382 0.060289 0.191227
Si Si8 0.236472 0.059051 0.277496
O O1 0.874867 0.250000 0.021540
O O2 0.836499 0.008107 0.943879
O O3 0.832806 0.008636 0.112302
O O4 0.000000 0.000000 0.000000
O O5 0.113053 0.250000 0.451116
O O6 0.209051 0.012402 0.494332
O O7 0.153804 0.007461 0.360385
O O8 0.000000 0.000000 0.500000
O O9 0.666629 0.750000 0.497610
O O10 0.590553 0.994942 0.579705
O O11 0.656047 0.999180 0.413688
O O12 0.452616 0.250000 0.327609
O O13 0.356428 0.010941 0.284547
O O14 0.570034 0.995951 0.293067
O O15 0.324784 0.250000 0.675816
O O16 0.213394 0.002007 0.731765
O O17 0.885609 0.250000 0.849572
O O18 0.004247 0.501407 0.819627
O O19 0.805146 0.496620 0.795964
O O20 0.874521 0.250000 0.193629
O O21 0.235438 0.250000 0.275755
#
# Coordination Sequence:
#
# PCOD9159027 Si02
#       8
#     4   4   4   4   4   4   4   4
#     4   8  16  31  50  72  99 131 162 197 242 298
#     4   9  18  32  47  66  96 133 167 201 244 290
#     4   8  17  33  50  68  95 130 167 207 249 290
#     4   9  18  36  55  69  94 135 175 208 247 295
#     4  11  21  32  50  77 104 128 164 214 257 293
#     4  10  19  32  53  79 104 129 163 206 251 296
#     4  10  20  34  51  74 105 136 165 197 246 305
#     4   9  19  34  51  72  99 132 171 206 244 299
#
# _framework density 17.640070000000001
#
# number of rings (size 3 to 8) (size 9 to 14) (size 15 to 20)
#    0.000    2.750    0.000    3.000    1.750    2.000 
#    0.000    3.125    0.000    0.750    0.000    0.000 
#    0.000    0.000    0.000    0.000    0.000    0.000 
#
# Total GULP energy -178268.541120 kJ/mol
# GULP energy per Si atom -5570.891910 kJ/mol
# Density = 1.759992 g / cm^3
# Si number density = 17.640070 Si / 1000 Ang^3
#
#
#
# Elastic Constant Matrix: (Units=GPa)
#
#
# Indices 1 2 3 4 5 6 
#
# 1 56.2044 10.6950 37.0478 0.0000 9.1890 0.0000
# 2 10.6950 18.6327 15.8465 0.0000 4.8628 0.0000
# 3 37.0478 15.8465 96.5212 0.0000 31.3883 0.0000
# 4 0.0000 0.0000 0.0000 21.2384 0.0000 1.4198
# 5 9.1890 4.8628 31.3883 0.0000 21.3821 0.0000
# 6 0.0000 0.0000 0.0000 1.4198 0.0000 26.3884
#
#
#
# Elastic Compliance Matrix: (Units=1/GPa)
#
#
# Indices 1 2 3 4 5 6 
#
# 1 0.025020 -0.007086 -0.010462 0.000000 0.006217 0.000000
# 2 -0.007086 0.064415 -0.007810 0.000000 -0.000139 0.000000
# 3 -0.010462 -0.007810 0.026058 0.000000 -0.031980 0.000000
# 4 0.000000 0.000000 0.000000 0.047255 0.000000 -0.002542
# 5 0.006217 -0.000139 -0.031980 0.000000 0.091074 0.000000
# 6 0.000000 0.000000 0.000000 -0.002542 0.000000 0.038032
#
#
# Mechanical properties :
#
#
# Convention : Reuss Voigt Hill
#
# Bulk Modulus (GPa) = 15.43767 33.17076 24.30421
# Shear Modulus (GPa) = 13.73008 20.98638 17.35823
#
# Velocity S-wave (km/s) = 2.79291 3.45294 3.14032
# Velocity P-wave (km/s) = 4.37846 5.89425 5.19197
#
# Compressibility (1/GPa) = 0.06477663
#
# Stress axis : x y z
#
# Youngs Moduli (GPa) = 39.96765 15.52427 38.37572
#
# Poissons Ratio (x) = 0.11001 0.40148
# Poissons Ratio (y) = 0.28323 0.29973
# Poissons Ratio (z) = 0.41813 0.12125
#
# Static dielectric constant tensor:
#      x y z
#    x 1.570200 0.000000 0.014650 
#    y 0.000000 1.609100 0.000000 
#    z 0.014650 0.000000 1.641910 
# 
# From -- ./inp_files/49299.got.cif
#   From: 2010.05.17/outbox.cif.g08.bks.cpg/sg11_25_cif.got.tgz:49299.got - 2010.06.03 12:22:45.
