data_PCOD9159705
_publ_section_title
;
Structure prediction by ZEFSAII (Michael W. Deem and Ramdas Pophale) SiO2 
 PCOD9159705
Probable space group: P 21/M
;
_chemical_formula_sum "Si O2"
_cell_formula_units_Z 22
_cell_length_a 6.977372
_cell_length_b 19.749636
_cell_length_c 11.899903
_cell_angle_alpha 90.000000
_cell_angle_beta 142.673998
_cell_angle_gamma 90.000000
_cell_volume 994.299691
_symmetry_space_group_name_H-M "P 21/M"
_symmetry_group_IT_number 11
_symmetry_cell_setting 'monoclinic'
loop_
_space_group_symop_operation_xyz
x,y,z
-x,1/2+y,-z
-x,-y,-z
x,1/2-y,z
loop_
_atom_site_type_symbol
_atom_site_label
_atom_site_fract_x
_atom_site_fract_y
_atom_site_fract_z
Si Si1 0.697627 0.750000 0.048040
Si Si2 0.232906 0.384191 0.399907
Si Si3 0.565931 0.902387 0.266863
Si Si4 0.926251 0.250000 0.354280
Si Si5 0.460765 0.250000 0.773719
Si Si6 0.811201 0.012457 0.069690
Si Si7 0.048126 0.881337 0.284497
O O1 0.505622 0.750000 0.076824
O O2 0.909235 0.816028 0.157952
O O3 0.451117 0.750000 0.831224
O O4 0.283213 0.420948 0.543728
O O5 0.584082 0.372554 0.516591
O O6 0.057248 0.315324 0.350621
O O7 0.020219 0.428139 0.219696
O O8 0.425568 0.824964 0.212298
O O9 0.837197 0.894426 0.297421
O O10 0.325174 0.958908 0.110015
O O11 0.097132 0.250000 0.555858
O O12 0.001594 0.943680 0.177676
O O13 0.500000 0.000000 0.000000
#
# Coordination Sequence:
#
# PCOD9159705 Si02
#       7
#     2   4   4   2   2   4   4
#     4  10  19  39  59  76 114 147 173 234 280 313
#     4  11  21  37  59  83 112 146 184 230 274 321
#     4   9  20  37  57  80 114 150 181 227 277 323
#     4  10  19  33  59  82 104 147 187 216 276 335
#     4   8  16  32  54  80 104 138 186 218 260 326
#     4  10  21  37  56  83 113 147 187 223 274 335
#     4  10  21  37  58  83 110 143 188 228 271 332
#
# _framework density 22.126124000000001
#
# number of rings (size 3 to 8) (size 9 to 14) (size 15 to 20)
#    0.000    2.182    0.000    4.364    0.000    3.636 
#    0.000   10.909    0.000   15.273    0.000    0.000 
#    0.000    0.000    0.000    0.000    0.000    0.000 
#
# Total GULP energy -122850.101176 kJ/mol
# GULP energy per Si atom -5584.095508 kJ/mol
# Density = 2.207576 g / cm^3
# Si number density = 22.126124 Si / 1000 Ang^3
#
#
#
# Elastic Constant Matrix: (Units=GPa)
#
#
# Indices 1 2 3 4 5 6 
#
# 1 69.8416 -27.3016 3.7042 0.0000 4.4385 0.0000
# 2 -27.3016 42.1751 13.8609 0.0000 7.4468 0.0000
# 3 3.7042 13.8609 104.7503 0.0000 7.3865 0.0000
# 4 0.0000 0.0000 0.0000 45.7887 0.0000 -23.5096
# 5 4.4385 7.4468 7.3865 0.0000 34.7112 0.0000
# 6 0.0000 0.0000 0.0000 -23.5096 0.0000 124.5735
#
#
#
# Elastic Compliance Matrix: (Units=1/GPa)
#
#
# Indices 1 2 3 4 5 6 
#
# 1 0.020697 0.015123 -0.002353 0.000000 -0.005390 0.000000
# 2 0.015123 0.036615 -0.004761 0.000000 -0.008776 0.000000
# 3 -0.002353 -0.004761 0.010321 0.000000 -0.000874 0.000000
# 4 0.000000 0.000000 0.000000 0.024183 0.000000 0.004564
# 5 -0.005390 -0.008776 -0.000874 0.000000 0.031567 0.000000
# 6 0.000000 0.000000 0.000000 0.004564 0.000000 0.008889
#
#
# Mechanical properties :
#
#
# Convention : Reuss Voigt Hill
#
# Bulk Modulus (GPa) = 11.95431 21.92157 16.93794
# Shear Modulus (GPa) = 34.68919 56.11491 45.40205
#
# Velocity S-wave (km/s) = 3.96383 5.04147 4.53478
# Velocity P-wave (km/s) = 5.13457 6.61949 5.92374
#
# Compressibility (1/GPa) = 0.08365182
#
# Stress axis : x y z
#
# Youngs Moduli (GPa) = 48.31564 27.31143 96.88659
#
# Poissons Ratio (x) = -0.41304 0.22797
# Poissons Ratio (y) = -0.73069 0.46127
# Poissons Ratio (z) = 0.11368 0.13003
#
# Static dielectric constant tensor:
#      x y z
#    x 1.858400 0.000000 0.032470 
#    y 0.000000 1.825690 0.000000 
#    z 0.032470 0.000000 1.795630 
# 
# From -- ./inp_files/47948.got.cif
#   From: 2010.05.17/outbox.cif.g08.bks.cpg/sg11_24_cif.got.tgz:47948.got - 2010.06.03 12:22:45.
