data_PCOD9159822
_publ_section_title
;
Structure prediction by ZEFSAII (Michael W. Deem and Ramdas Pophale) SiO2 
 PCOD9159822
Probable space group: P 21/M
;
_chemical_formula_sum "Si O2"
_cell_formula_units_Z 28
_cell_length_a 24.910286
_cell_length_b 7.401153
_cell_length_c 8.296320
_cell_angle_alpha 90.000000
_cell_angle_beta 43.556076
_cell_angle_gamma 90.000000
_cell_volume 1053.957901
_symmetry_space_group_name_H-M "P 21/M"
_symmetry_group_IT_number 11
_symmetry_cell_setting 'monoclinic'
loop_
_space_group_symop_operation_xyz
x,y,z
-x,1/2+y,-z
-x,-y,-z
x,1/2-y,z
loop_
_atom_site_type_symbol
_atom_site_label
_atom_site_fract_x
_atom_site_fract_y
_atom_site_fract_z
Si Si1 0.756142 0.538174 0.696369
Si Si2 0.478549 0.456106 0.275632
Si Si3 0.954039 0.036177 0.935416
Si Si4 0.098934 0.028481 0.434832
Si Si5 0.190530 0.456492 0.926991
Si Si6 0.332913 0.027314 0.422398
Si Si7 0.387844 0.533049 0.797048
O O1 0.765138 0.750000 0.645478
O O2 0.841303 0.469054 0.554591
O O3 0.707222 0.462523 0.654143
O O4 0.700515 0.515189 0.972584
O O5 0.494811 0.250000 0.196761
O O6 0.420817 0.534179 0.266609
O O7 0.423913 0.457362 0.555180
O O8 0.558412 0.537367 0.170577
O O9 0.944639 0.250000 0.941320
O O10 0.012575 0.967716 0.667558
O O11 0.868577 0.956173 0.096683
O O12 0.000000 0.000000 0.000000
O O13 0.096652 0.250000 0.438007
O O14 0.139476 0.963757 0.182744
O O15 0.206303 0.250000 0.938679
O O16 0.272674 0.533926 0.692456
O O17 0.334657 0.250000 0.419085
O O18 0.395610 0.750000 0.772964
#
# Coordination Sequence:
#
# PCOD9159822 Si02
#       7
#     4   4   4   4   4   4   4
#     4  10  19  34  55  77 102 137 178 215 258 314
#     4   9  18  35  56  76 102 140 182 218 257 312
#     4  11  22  37  56  81 111 141 175 215 261 311
#     4   9  19  35  57  80 103 137 180 218 254 312
#     4  10  19  35  58  81 104 134 175 220 263 307
#     4   9  18  33  56  80 102 136 181 219 255 313
#     4  10  20  33  51  78 108 137 174 221 268 311
#
# _framework density 26.566524999999999
#
# number of rings (size 3 to 8) (size 9 to 14) (size 15 to 20)
#    0.000    2.286    0.000    3.000    0.000    5.714 
#    0.000    7.857    0.000    0.000    0.000    0.000 
#    0.000    0.000    0.000    0.000    0.000    0.000 
#
# Total GULP energy -156698.133785 kJ/mol
# GULP energy per Si atom -5596.361921 kJ/mol
# Density = 2.650606 g / cm^3
# Si number density = 26.566525 Si / 1000 Ang^3
#
#
#
# Elastic Constant Matrix: (Units=GPa)
#
#
# Indices 1 2 3 4 5 6 
#
# 1 121.2009 4.6477 9.3807 0.0000 -15.1817 0.0000
# 2 4.6477 117.8396 1.2494 0.0000 -0.1603 0.0000
# 3 9.3807 1.2494 95.4934 0.0000 -16.0434 0.0000
# 4 0.0000 0.0000 0.0000 9.5371 0.0000 -1.2376
# 5 -15.1817 -0.1603 -16.0434 0.0000 53.8355 0.0000
# 6 0.0000 0.0000 0.0000 -1.2376 0.0000 8.2832
#
#
#
# Elastic Compliance Matrix: (Units=1/GPa)
#
#
# Indices 1 2 3 4 5 6 
#
# 1 0.008585 -0.000331 -0.000455 0.000000 0.002284 0.000000
# 2 -0.000331 0.008500 -0.000095 0.000000 -0.000096 0.000000
# 3 -0.000455 -0.000095 0.011049 0.000000 0.003164 0.000000
# 4 0.000000 0.000000 0.000000 0.106927 0.000000 0.015976
# 5 0.002284 -0.000096 0.003164 0.000000 0.020162 0.000000
# 6 0.000000 0.000000 0.000000 0.015976 0.000000 0.123113
#
#
# Mechanical properties :
#
#
# Convention : Reuss Voigt Hill
#
# Bulk Modulus (GPa) = 37.91789 40.56549 39.24169
# Shear Modulus (GPa) = 17.30766 35.61488 26.46127
#
# Velocity S-wave (km/s) = 2.55519 3.66538 3.15943
# Velocity P-wave (km/s) = 4.79678 5.76333 5.30212
#
# Compressibility (1/GPa) = 0.02637277
#
# Stress axis : x y z
#
# Youngs Moduli (GPa) = 116.48482 117.64666 90.50196
#
# Poissons Ratio (x) = 0.03890 0.04120
# Poissons Ratio (y) = 0.03852 0.00859
# Poissons Ratio (z) = 0.05303 0.01116
#
# Static dielectric constant tensor:
#      x y z
#    x 2.121760 0.000000 0.078180 
#    y 0.000000 1.985350 0.000000 
#    z 0.078180 0.000000 2.052310 
# 
# From -- ./inp_files/28264.got.cif
#   From: 2010.05.17/outbox.cif.g08.bks.cpg/sg11_15_cif.got.tgz:28264.got - 2010.06.03 12:22:45.
