data_PCOD9159885
_publ_section_title
;
Structure prediction by ZEFSAII (Michael W. Deem and Ramdas Pophale) SiO2 
 PCOD9159885
Probable space group: P 21/M
;
_chemical_formula_sum "Si O2"
_cell_formula_units_Z 28
_cell_length_a 23.177507
_cell_length_b 7.603349
_cell_length_c 21.446938
_cell_angle_alpha 90.000000
_cell_angle_beta 160.016188
_cell_angle_gamma 90.000000
_cell_volume 1291.669354
_symmetry_space_group_name_H-M "P 21/M"
_symmetry_group_IT_number 11
_symmetry_cell_setting 'monoclinic'
loop_
_space_group_symop_operation_xyz
x,y,z
-x,1/2+y,-z
-x,-y,-z
x,1/2-y,z
loop_
_atom_site_type_symbol
_atom_site_label
_atom_site_fract_x
_atom_site_fract_y
_atom_site_fract_z
Si Si1 0.259892 0.455869 0.204000
Si Si2 0.969186 0.965738 0.253688
Si Si3 0.708403 0.045131 0.343602
Si Si4 0.958093 0.038185 0.812439
Si Si5 0.659997 0.966006 0.023243
Si Si6 0.376191 0.041157 0.456580
Si Si7 0.198610 0.040730 0.699863
O O1 0.224412 0.250000 0.177996
O O2 0.434330 0.470006 0.342202
O O3 0.304203 0.531220 0.317247
O O4 0.096982 0.529965 0.003138
O O5 0.967354 0.750000 0.252458
O O6 0.796237 0.021590 0.110686
O O7 0.125535 0.028196 0.454875
O O8 0.995540 0.023367 0.209659
O O9 0.705256 0.250000 0.358084
O O10 0.725292 0.034876 0.286206
O O11 0.528674 0.969971 0.180801
O O12 0.971527 0.250000 0.825406
O O13 0.767539 0.995158 0.638875
O O14 0.659224 0.750000 0.023381
O O15 0.718223 0.022328 0.151451
O O16 0.396193 0.250000 0.471097
O O17 0.220407 0.250000 0.719071
O O18 0.000000 0.000000 0.500000
#
# Coordination Sequence:
#
# PCOD9159885 Si02
#       7
#     4   4   4   4   4   4   4
#     4   9  19  35  55  81 109 140 181 223 264 316
#     4   9  18  33  52  77 104 134 174 216 257 304
#     4  10  19  34  56  78 103 133 167 213 266 312
#     4  10  20  34  56  81 106 140 183 225 264 314
#     4   9  18  32  52  77 102 131 169 211 257 308
#     4  10  20  34  54  80 112 144 174 219 274 321
#     4  11  20  33  54  78 105 134 169 214 261 310
#
# _framework density 21.677372999999999
#
# number of rings (size 3 to 8) (size 9 to 14) (size 15 to 20)
#    0.000    2.286    1.429    1.714    0.000    2.286 
#    0.000    5.714    0.000    0.000    0.000    0.000 
#    0.000    0.000    0.000    0.000    0.000    0.000 
#
# Total GULP energy -156386.435814 kJ/mol
# GULP energy per Si atom -5585.229851 kJ/mol
# Density = 2.162803 g / cm^3
# Si number density = 21.677373 Si / 1000 Ang^3
#
#
#
# Elastic Constant Matrix: (Units=GPa)
#
#
# Indices 1 2 3 4 5 6 
#
# 1 92.5044 -13.5972 35.7024 0.0000 23.4012 0.0000
# 2 -13.5972 44.7534 -4.0002 0.0000 -6.2456 0.0000
# 3 35.7024 -4.0002 35.3514 0.0000 42.8073 0.0000
# 4 0.0000 0.0000 0.0000 7.8820 0.0000 -0.4937
# 5 23.4012 -6.2456 42.8073 0.0000 30.4286 0.0000
# 6 0.0000 0.0000 0.0000 -0.4937 0.0000 6.8740
#
#
#
# Elastic Compliance Matrix: (Units=1/GPa)
#
#
# Indices 1 2 3 4 5 6 
#
# 1 0.013646 0.002539 0.002015 0.000000 -0.012808 0.000000
# 2 0.002539 0.022999 0.004710 0.000000 -0.003858 0.000000
# 3 0.002015 0.004710 -0.039077 0.000000 0.054391 0.000000
# 4 0.000000 0.000000 0.000000 0.127445 0.000000 0.009153
# 5 -0.012808 -0.003858 0.054391 0.000000 -0.034596 0.000000
# 6 0.000000 0.000000 0.000000 0.009153 0.000000 0.146133
#
#
# Mechanical properties :
#
#
# Convention : Reuss Voigt Hill
#
# Bulk Modulus (GPa) = 62.13537 23.20214 42.66876
# Shear Modulus (GPa) = 22.38262 19.33719 20.85991
#
# Velocity S-wave (km/s) = 3.21679 2.98995 3.10544
# Velocity P-wave (km/s) = 6.52096 4.75882 5.70830
#
# Compressibility (1/GPa) = 0.01609389
#
# Stress axis : x y z
#
# Youngs Moduli (GPa) = 73.28228 43.48091 -25.59061
#
# Poissons Ratio (x) = -0.11038 0.05156
# Poissons Ratio (y) = -0.18604 0.12053
# Poissons Ratio (z) = -0.14764 -0.20479
#
# Static dielectric constant tensor:
#      x y z
#    x 1.759910 0.000000 -0.002900 
#    y 0.000000 1.827770 0.000000 
#    z -0.002900 0.000000 1.783730 
# 
# From -- ./inp_files/66731.got.cif
#   From: 2010.05.17/outbox.cif.g08.bks.cpg/sg11_34_cif.got.tgz:66731.got - 2010.06.03 12:22:45.
