data_PCOD9159582
_publ_section_title
;
Structure prediction by ZEFSAII (Michael W. Deem and Ramdas Pophale) SiO2 
 PCOD9159582
Probable space group: P 21/M
;
_chemical_formula_sum "Si O2"
_cell_formula_units_Z 28
_cell_length_a 17.023926
_cell_length_b 8.949799
_cell_length_c 21.500904
_cell_angle_alpha 90.000000
_cell_angle_beta 155.321297
_cell_angle_gamma 90.000000
_cell_volume 1367.781527
_symmetry_space_group_name_H-M "P 21/M"
_symmetry_group_IT_number 11
_symmetry_cell_setting 'monoclinic'
loop_
_space_group_symop_operation_xyz
x,y,z
-x,1/2+y,-z
-x,-y,-z
x,1/2-y,z
loop_
_atom_site_type_symbol
_atom_site_label
_atom_site_fract_x
_atom_site_fract_y
_atom_site_fract_z
Si Si1 0.121540 0.417928 0.648697
Si Si2 0.739863 0.921723 0.374024
Si Si3 0.045618 0.571732 0.792278
Si Si4 0.992252 0.927783 0.899295
Si Si5 0.689079 0.427271 0.465443
Si Si6 0.693701 0.427408 0.773019
Si Si7 0.651644 0.582495 0.066383
O O1 0.050572 0.250000 0.581062
O O2 0.291959 0.450461 0.722598
O O3 0.184845 0.405458 0.764393
O O4 0.963754 0.544182 0.534197
O O5 0.693579 0.750000 0.354581
O O6 0.666999 0.023177 0.377176
O O7 0.047103 0.750000 0.784209
O O8 0.015973 0.538855 0.843845
O O9 0.871981 0.503929 0.627986
O O10 0.246150 0.505866 0.914919
O O11 0.954980 0.750000 0.879242
O O12 0.823597 0.018583 0.809637
O O13 0.180722 0.959019 0.074896
O O14 0.708115 0.250000 0.483045
O O15 0.502015 0.485902 0.364733
O O16 0.659733 0.250000 0.745574
O O17 0.590522 0.750000 0.004518
O O18 0.500000 0.500000 0.000000
#
# Coordination Sequence:
#
# PCOD9159582 Si02
#       7
#     4   4   4   4   4   4   4
#     4   9  19  35  54  78 109 146 190 241 290 341
#     4  10  19  33  56  81 108 146 191 239 293 346
#     4  11  23  41  64  90 121 159 201 250 306 361
#     4   9  21  42  66  92 123 156 196 247 302 361
#     4  12  24  38  58  89 127 162 202 251 301 356
#     4  10  21  40  66  93 121 157 199 245 299 361
#     4  11  23  39  58  83 118 157 199 245 295 354
#
# _framework density 20.471104
#
# number of rings (size 3 to 8) (size 9 to 14) (size 15 to 20)
#    0.000    1.714    1.429    3.000    0.000    4.571 
#    0.000    5.714    0.000    0.000    0.000    0.000 
#    0.000    0.000    0.000    0.000    0.000    0.000 
#
# Total GULP energy -156185.133412 kJ/mol
# GULP energy per Si atom -5578.040479 kJ/mol
# Density = 2.042451 g / cm^3
# Si number density = 20.471104 Si / 1000 Ang^3
#
#
#
# Elastic Constant Matrix: (Units=GPa)
#
#
# Indices 1 2 3 4 5 6 
#
# 1 131.1376 67.4332 34.6537 0.0000 12.8662 0.0000
# 2 67.4332 102.2682 28.2447 0.0000 17.4771 0.0000
# 3 34.6537 28.2447 39.1876 0.0000 24.7635 0.0000
# 4 0.0000 0.0000 0.0000 21.9488 0.0000 6.9490
# 5 12.8662 17.4771 24.7635 0.0000 29.0632 0.0000
# 6 0.0000 0.0000 0.0000 6.9490 0.0000 37.7699
#
#
#
# Elastic Compliance Matrix: (Units=1/GPa)
#
#
# Indices 1 2 3 4 5 6 
#
# 1 0.013762 -0.007092 -0.012790 0.000000 0.009070 0.000000
# 2 -0.007092 0.015865 -0.002423 0.000000 -0.004336 0.000000
# 3 -0.012790 -0.002423 0.073827 0.000000 -0.055786 0.000000
# 4 0.000000 0.000000 0.000000 0.048379 0.000000 -0.008901
# 5 0.009070 -0.004336 -0.055786 0.000000 0.080533 0.000000
# 6 0.000000 0.000000 0.000000 -0.008901 0.000000 0.028114
#
#
# Mechanical properties :
#
#
# Convention : Reuss Voigt Hill
#
# Bulk Modulus (GPa) = 16.99409 59.25075 38.12242
# Shear Modulus (GPa) = 15.39863 27.24050 21.31956
#
# Velocity S-wave (km/s) = 2.74563 3.65181 3.23065
# Velocity P-wave (km/s) = 4.28612 6.84013 5.70781
#
# Compressibility (1/GPa) = 0.05884400
#
# Stress axis : x y z
#
# Youngs Moduli (GPa) = 72.66128 63.03226 13.54520
#
# Poissons Ratio (x) = 0.44705 0.17324
# Poissons Ratio (y) = 0.51534 0.03282
# Poissons Ratio (z) = 0.92934 0.15272
#
# Static dielectric constant tensor:
#      x y z
#    x 1.775930 0.000000 -0.040710 
#    y 0.000000 1.730230 0.000000 
#    z -0.040710 0.000000 1.782800 
# 
# From -- ./inp_files/65460.got.cif
#   From: 2010.05.17/outbox.cif.g08.bks.cpg/sg11_33_cif.got.tgz:65460.got - 2010.06.03 12:22:45.
