data_PCOD9159307
_publ_section_title
;
Structure prediction by ZEFSAII (Michael W. Deem and Ramdas Pophale) SiO2 
 PCOD9159307
Probable space group: P 21/M
;
_chemical_formula_sum "Si O2"
_cell_formula_units_Z 28
_cell_length_a 22.865489
_cell_length_b 7.354353
_cell_length_c 21.010241
_cell_angle_alpha 90.000000
_cell_angle_beta 20.475883
_cell_angle_gamma 90.000000
_cell_volume 1235.924809
_symmetry_space_group_name_H-M "P 21/M"
_symmetry_group_IT_number 11
_symmetry_cell_setting 'monoclinic'
loop_
_space_group_symop_operation_xyz
x,y,z
-x,1/2+y,-z
-x,-y,-z
x,1/2-y,z
loop_
_atom_site_type_symbol
_atom_site_label
_atom_site_fract_x
_atom_site_fract_y
_atom_site_fract_z
Si Si1 0.034748 0.527928 0.323829
Si Si2 0.956608 0.972108 0.260952
Si Si3 0.711869 0.457374 0.145255
Si Si4 0.345098 0.026913 0.520374
Si Si5 0.723466 0.971361 0.724054
Si Si6 0.625229 0.041939 0.968195
Si Si7 0.802362 0.965403 0.194798
O O1 0.039987 0.750000 0.320565
O O2 0.223037 0.462384 0.145542
O O3 0.969487 0.474812 0.321084
O O4 0.898988 0.472158 0.514930
O O5 0.954189 0.750000 0.261287
O O6 0.792638 0.030531 0.390194
O O7 0.122429 0.036702 0.055136
O O8 0.705074 0.250000 0.128491
O O9 0.531103 0.537859 0.315540
O O10 0.736689 0.454755 0.195938
O O11 0.346845 0.250000 0.519706
O O12 0.288789 0.969346 0.648453
O O13 0.718347 0.750000 0.731553
O O14 0.694145 0.038399 0.825435
O O15 0.562690 0.033168 0.846293
O O16 0.604305 0.250000 0.011176
O O17 0.776450 0.750000 0.216802
O O18 0.000000 0.000000 0.000000
#
# Coordination Sequence:
#
# PCOD9159307 Si02
#       7
#     4   4   4   4   4   4   4
#     4   9  17  28  45  69  97 125 156 195 234 277
#     4   9  17  30  47  71  99 125 158 200 239 280
#     4  10  19  33  53  74  98 128 161 199 245 291
#     4   9  18  31  49  74  99 125 160 199 242 291
#     4   9  17  29  46  69  95 122 154 194 238 280
#     4   9  17  29  46  70  95 120 156 196 236 280
#     4  11  20  33  53  76 102 128 160 203 247 290
#
# _framework density 22.655099
#
# number of rings (size 3 to 8) (size 9 to 14) (size 15 to 20)
#    0.000    2.571    1.429    1.286    0.000    1.143 
#    0.000    6.429    0.000    1.714    0.000    2.000 
#    0.000    0.000    0.000    0.000    0.000    0.000 
#
# Total GULP energy -156413.363850 kJ/mol
# GULP energy per Si atom -5586.191566 kJ/mol
# Density = 2.260354 g / cm^3
# Si number density = 22.655099 Si / 1000 Ang^3
#
#
#
# Elastic Constant Matrix: (Units=GPa)
#
#
# Indices 1 2 3 4 5 6 
#
# 1 49.8841 -14.3144 33.7129 0.0000 -12.1897 0.0000
# 2 -14.3144 87.1868 -2.9344 0.0000 -0.3566 0.0000
# 3 33.7129 -2.9344 61.9241 0.0000 -49.7493 0.0000
# 4 0.0000 0.0000 0.0000 -7.3089 0.0000 10.7196
# 5 -12.1897 -0.3566 -49.7493 0.0000 24.9014 0.0000
# 6 0.0000 0.0000 0.0000 10.7196 0.0000 2.8679
#
#
#
# Elastic Compliance Matrix: (Units=1/GPa)
#
#
# Indices 1 2 3 4 5 6 
#
# 1 0.022964 0.004040 0.005343 0.000000 0.021975 0.000000
# 2 0.004040 0.012135 -0.000172 0.000000 0.001808 0.000000
# 3 0.005343 -0.000172 -0.025338 0.000000 -0.048009 0.000000
# 4 0.000000 0.000000 0.000000 -0.021107 0.000000 0.078896
# 5 0.021975 0.001808 -0.048009 0.000000 -0.044973 0.000000
# 6 0.000000 0.000000 0.000000 0.078896 0.000000 0.053793
#
#
# Mechanical properties :
#
#
# Convention : Reuss Voigt Hill
#
# Bulk Modulus (GPa) = 35.48137 25.76922 30.62529
# Shear Modulus (GPa) = -432.70436 16.26081 -208.22177
#
# Velocity S-wave (km/s) = -13.83514 2.68200 -9.59734
# Velocity P-wave (km/s) = 15.47641 4.58150 10.45297
#
# Compressibility (1/GPa) = 0.02818381
#
# Stress axis : x y z
#
# Youngs Moduli (GPa) = 43.54580 82.40941 -39.46611
#
# Poissons Ratio (x) = -0.33294 0.21088
# Poissons Ratio (y) = -0.17593 -0.00678
# Poissons Ratio (z) = -0.23268 0.01416
#
# Static dielectric constant tensor:
#      x y z
#    x 1.789580 0.000000 -0.023100 
#    y 0.000000 1.919440 0.000000 
#    z -0.023100 0.000000 1.808880 
# 
# From -- ./inp_files/29114.got.cif
#   From: 2010.05.17/outbox.cif.g08.bks.cpg/sg11_15_cif.got.tgz:29114.got - 2010.06.03 12:22:45.
