data_PCOD9159605
_publ_section_title
;
Structure prediction by ZEFSAII (Michael W. Deem and Ramdas Pophale) SiO2 
 PCOD9159605
Probable space group: P 21/M
;
_chemical_formula_sum "Si O2"
_cell_formula_units_Z 32
_cell_length_a 12.465253
_cell_length_b 18.040712
_cell_length_c 8.442126
_cell_angle_alpha 90.000000
_cell_angle_beta 126.643239
_cell_angle_gamma 90.000000
_cell_volume 1523.280283
_symmetry_space_group_name_H-M "P 21/M"
_symmetry_group_IT_number 11
_symmetry_cell_setting 'monoclinic'
loop_
_space_group_symop_operation_xyz
x,y,z
-x,1/2+y,-z
-x,-y,-z
x,1/2-y,z
loop_
_atom_site_type_symbol
_atom_site_label
_atom_site_fract_x
_atom_site_fract_y
_atom_site_fract_z
Si Si1 0.124796 0.160893 0.719673
Si Si2 0.384589 0.163544 0.764253
Si Si3 0.966830 0.080458 0.049862
Si Si4 0.686990 0.444373 0.744057
Si Si5 0.776634 0.610191 0.861929
Si Si6 0.910710 0.070040 0.372474
Si Si7 0.606444 0.062222 0.043571
Si Si8 0.525816 0.833461 0.516491
O O1 0.130286 0.250000 0.753153
O O2 0.240933 0.136313 0.698315
O O3 0.980476 0.137708 0.526095
O O4 0.162141 0.113704 0.908805
O O5 0.379430 0.250000 0.783061
O O6 0.409982 0.151128 0.600532
O O7 0.512627 0.134045 0.972639
O O8 0.936305 0.077002 0.207689
O O9 0.096015 0.130113 0.132953
O O10 0.825404 0.100656 0.847994
O O11 0.000000 0.000000 0.000000
O O12 0.720788 0.530847 0.750097
O O13 0.577313 0.400478 0.547295
O O14 0.641196 0.443911 0.887458
O O15 0.649514 0.662749 0.744120
O O16 0.750578 0.062227 0.256111
O O17 0.000000 0.000000 0.500000
O O18 0.500000 0.000000 0.000000
O O19 0.467840 0.750000 0.462371
#
# Coordination Sequence:
#
# PCOD9159605 Si02
#       8
#     4   4   4   4   4   4   4   4
#     4  11  23  39  57  84 119 154 192 237 285 342
#     4   9  19  36  56  77 107 142 182 230 284 339
#     4   9  19  36  58  84 111 143 187 235 283 338
#     4   9  19  35  56  82 109 142 188 237 285 340
#     4  11  20  36  58  80 112 152 193 234 283 342
#     4  11  21  36  60  86 116 150 188 235 287 344
#     4  10  19  33  56  84 110 139 182 231 281 336
#     4  10  20  35  55  81 109 144 186 235 290 345
#
# _framework density 21.007296
#
# number of rings (size 3 to 8) (size 9 to 14) (size 15 to 20)
#    0.000    2.000    0.000    5.250    0.000    1.500 
#    0.000    8.750    0.000    0.000    0.000    0.000 
#    0.000    0.000    0.000    0.000    0.000    0.000 
#
# Total GULP energy -178330.605283 kJ/mol
# GULP energy per Si atom -5572.831415 kJ/mol
# Density = 2.095948 g / cm^3
# Si number density = 21.007296 Si / 1000 Ang^3
#
#
#
# Elastic Constant Matrix: (Units=GPa)
#
#
# Indices 1 2 3 4 5 6 
#
# 1 76.8456 15.1920 33.2704 0.0000 34.9300 0.0000
# 2 15.1920 47.8523 24.9883 0.0000 9.7230 0.0000
# 3 33.2704 24.9883 109.8580 0.0000 37.5465 0.0000
# 4 0.0000 0.0000 0.0000 26.4374 0.0000 4.4767
# 5 34.9300 9.7230 37.5465 0.0000 36.1528 0.0000
# 6 0.0000 0.0000 0.0000 4.4767 0.0000 15.2275
#
#
#
# Elastic Compliance Matrix: (Units=1/GPa)
#
#
# Indices 1 2 3 4 5 6 
#
# 1 0.023816 -0.003637 0.001774 0.000000 -0.023876 0.000000
# 2 -0.003637 0.024303 -0.005261 0.000000 0.002441 0.000000
# 3 0.001774 -0.005261 0.015292 0.000000 -0.016181 0.000000
# 4 0.000000 0.000000 0.000000 0.039807 0.000000 -0.011703
# 5 -0.023876 0.002441 -0.016181 0.000000 0.066877 0.000000
# 6 0.000000 0.000000 0.000000 -0.011703 0.000000 0.069111
#
#
# Mechanical properties :
#
#
# Convention : Reuss Voigt Hill
#
# Bulk Modulus (GPa) = 20.33934 42.38416 31.36175
# Shear Modulus (GPa) = 18.52935 26.30391 22.41663
#
# Velocity S-wave (km/s) = 2.97314 3.54239 3.27018
# Velocity P-wave (km/s) = 4.63564 6.07874 5.40556
#
# Compressibility (1/GPa) = 0.04916580
#
# Stress axis : x y z
#
# Youngs Moduli (GPa) = 41.98780 41.14644 65.39236
#
# Poissons Ratio (x) = 0.14963 -0.11604
# Poissons Ratio (y) = 0.15269 0.34404
# Poissons Ratio (z) = -0.07451 0.21648
#
# Static dielectric constant tensor:
#      x y z
#    x 1.796630 0.000000 -0.039410 
#    y 0.000000 1.897710 0.000000 
#    z -0.039410 0.000000 2.418460 
# 
# From -- ./inp_files/19397.got.cif
#   From: 2010.05.17/outbox.cif.g08.bks.cpg/sg11_10_cif.got.tgz:19397.got - 2010.06.03 12:22:45.
