data_PCOD9159421
_publ_section_title
;
Structure prediction by ZEFSAII (Michael W. Deem and Ramdas Pophale) SiO2 
 PCOD9159421
Probable space group: P 21/M
;
_chemical_formula_sum "Si O2"
_cell_formula_units_Z 20
_cell_length_a 7.755683
_cell_length_b 9.319794
_cell_length_c 22.599773
_cell_angle_alpha 90.000000
_cell_angle_beta 31.363883
_cell_angle_gamma 90.000000
_cell_volume 850.212292
_symmetry_space_group_name_H-M "P 21/M"
_symmetry_group_IT_number 11
_symmetry_cell_setting 'monoclinic'
loop_
_space_group_symop_operation_xyz
x,y,z
-x,1/2+y,-z
-x,-y,-z
x,1/2-y,z
loop_
_atom_site_type_symbol
_atom_site_label
_atom_site_fract_x
_atom_site_fract_y
_atom_site_fract_z
Si Si1 0.865069 0.584353 0.229570
Si Si2 0.808902 0.089459 0.648857
Si Si3 0.461447 0.582905 0.572715
Si Si4 0.807987 0.914261 0.969230
Si Si5 0.494988 0.412876 0.162239
O O1 0.944699 0.750000 0.219023
O O2 0.509288 0.582935 0.299817
O O3 0.793508 0.491571 0.308519
O O4 0.117178 0.512171 0.109488
O O5 0.808964 0.250000 0.676331
O O6 0.159990 0.074732 0.513648
O O7 0.758353 0.974045 0.715297
O O8 0.500000 0.500000 0.500000
O O9 0.383129 0.750000 0.587202
O O10 0.731900 0.750000 0.975580
O O11 0.153635 0.911643 0.905247
O O12 0.549097 0.984350 0.090449
O O13 0.424448 0.250000 0.164722
#
# Coordination Sequence:
#
# PCOD9159421 Si02
#       5
#     4   4   4   4   4
#     4  10  19  33  54  79 105 134 171 214 257 302
#     4   9  19  34  53  77 105 136 171 212 256 304
#     4  11  23  38  54  74 102 137 175 214 259 308
#     4   9  16  27  45  72 106 138 167 204 251 301
#     4   9  16  26  45  74 105 135 168 207 251 299
#
# _framework density 23.523537000000001
#
# number of rings (size 3 to 8) (size 9 to 14) (size 15 to 20)
#    0.000    2.400    0.000    3.000    0.000    7.200 
#    0.000    0.000    0.000    1.200    0.000    0.000 
#    0.000    0.000    0.000    0.000    0.000    0.000 
#
# Total GULP energy -111959.494010 kJ/mol
# GULP energy per Si atom -5597.974700 kJ/mol
# Density = 2.347000 g / cm^3
# Si number density = 23.523537 Si / 1000 Ang^3
#
#
#
# Elastic Constant Matrix: (Units=GPa)
#
#
# Indices 1 2 3 4 5 6 
#
# 1 63.4712 26.9875 16.1688 0.0000 2.6792 0.0000
# 2 26.9875 216.3197 79.2741 0.0000 43.8420 0.0000
# 3 16.1688 79.2741 150.6515 0.0000 12.3762 0.0000
# 4 0.0000 0.0000 0.0000 38.3944 0.0000 16.1700
# 5 2.6792 43.8420 12.3762 0.0000 50.4129 0.0000
# 6 0.0000 0.0000 0.0000 16.1700 0.0000 24.5889
#
#
#
# Elastic Compliance Matrix: (Units=1/GPa)
#
#
# Indices 1 2 3 4 5 6 
#
# 1 0.016774 -0.002000 -0.000834 0.000000 0.001053 0.000000
# 2 -0.002000 0.007069 -0.003071 0.000000 -0.005288 0.000000
# 3 -0.000834 -0.003071 0.008287 0.000000 0.000680 0.000000
# 4 0.000000 0.000000 0.000000 0.036022 0.000000 -0.023689
# 5 0.001053 -0.005288 0.000680 0.000000 0.024212 0.000000
# 6 0.000000 0.000000 0.000000 -0.023689 0.000000 0.056247
#
#
# Mechanical properties :
#
#
# Convention : Reuss Voigt Hill
#
# Bulk Modulus (GPa) = 49.21323 75.03369 62.12346
# Shear Modulus (GPa) = 29.90519 43.21338 36.55929
#
# Velocity S-wave (km/s) = 3.56938 4.29071 3.94656
# Velocity P-wave (km/s) = 6.16065 7.51754 6.87266
#
# Compressibility (1/GPa) = 0.02031974
#
# Stress axis : x y z
#
# Youngs Moduli (GPa) = 59.61686 141.45431 120.66511
#
# Poissons Ratio (x) = 0.28296 0.10065
# Poissons Ratio (y) = 0.11926 0.37055
# Poissons Ratio (z) = 0.04973 0.43439
#
# Static dielectric constant tensor:
#      x y z
#    x 1.948710 0.000000 -0.097030 
#    y 0.000000 1.779620 0.000000 
#    z -0.097030 0.000000 1.839850 
# 
# From -- ./inp_files/15951.got.cif
#   From: 2010.05.17/outbox.cif.g08.bks.cpg/sg11_8_cif.got.tgz:15951.got - 2010.06.03 12:22:45.
