data_PCOD9159492
_publ_section_title
;
Structure prediction by ZEFSAII (Michael W. Deem and Ramdas Pophale) SiO2 
 PCOD9159492
Probable space group: P 21/M
;
_chemical_formula_sum "Si O2"
_cell_formula_units_Z 28
_cell_length_a 17.510173
_cell_length_b 9.116869
_cell_length_c 15.281434
_cell_angle_alpha 90.000000
_cell_angle_beta 141.287888
_cell_angle_gamma 90.000000
_cell_volume 1525.679920
_symmetry_space_group_name_H-M "P 21/M"
_symmetry_group_IT_number 11
_symmetry_cell_setting 'monoclinic'
loop_
_space_group_symop_operation_xyz
x,y,z
-x,1/2+y,-z
-x,-y,-z
x,1/2-y,z
loop_
_atom_site_type_symbol
_atom_site_label
_atom_site_fract_x
_atom_site_fract_y
_atom_site_fract_z
Si Si1 0.389443 0.572958 0.845740
Si Si2 0.165295 0.584404 0.120207
Si Si3 0.129990 0.419787 0.600400
Si Si4 0.161144 0.416086 0.419608
Si Si5 0.988990 0.078947 0.846250
Si Si6 0.591869 0.076670 0.345367
Si Si7 0.454744 0.917288 0.373380
O O1 0.385570 0.750000 0.855628
O O2 0.254350 0.502853 0.743703
O O3 0.416007 0.545951 0.765795
O O4 0.500000 0.500000 0.000000
O O5 0.120710 0.750000 0.059139
O O6 0.112234 0.550438 0.168692
O O7 0.309281 0.584024 0.248555
O O8 0.112316 0.472123 0.002821
O O9 0.127561 0.250000 0.630133
O O10 0.142737 0.415375 0.506857
O O11 0.000000 0.500000 0.500000
O O12 0.185809 0.250000 0.412497
O O13 0.045340 0.482045 0.267073
O O14 0.276210 0.520051 0.504961
O O15 0.989062 0.250000 0.824619
O O16 0.582018 0.250000 0.348948
O O17 0.496377 0.994648 0.321404
O O18 0.500239 0.750000 0.414482
O O19 0.500000 0.000000 0.500000
#
# Coordination Sequence:
#
# PCOD9159492 Si02
#       7
#     4   4   4   4   4   4   4
#     4  10  21  39  63  88 117 156 197 244 298 354
#     4   9  20  36  51  73 107 143 182 225 270 322
#     4  10  21  38  60  87 117 149 190 239 290 349
#     4  10  20  35  57  82 109 143 182 223 274 333
#     4  10  19  33  55  79 104 140 182 226 274 323
#     4  10  21  37  57  83 114 146 188 235 278 335
#     4  11  22  36  56  81 112 150 188 232 280 330
#
# _framework density 18.352474000000001
#
# number of rings (size 3 to 8) (size 9 to 14) (size 15 to 20)
#    0.000    2.000    0.000    3.429    0.000    6.286 
#    2.571    0.000    0.000    0.000    0.000    0.000 
#    0.000    0.000    0.000    0.000    0.000    0.000 
#
# Total GULP energy -156207.341619 kJ/mol
# GULP energy per Si atom -5578.833629 kJ/mol
# Density = 1.831070 g / cm^3
# Si number density = 18.352474 Si / 1000 Ang^3
#
#
#
# Elastic Constant Matrix: (Units=GPa)
#
#
# Indices 1 2 3 4 5 6 
#
# 1 45.7696 41.3094 29.2881 0.0000 18.8714 0.0000
# 2 41.3094 124.3744 65.2942 0.0000 1.9254 0.0000
# 3 29.2881 65.2942 100.2837 0.0000 5.8975 0.0000
# 4 0.0000 0.0000 0.0000 32.0619 0.0000 5.8774
# 5 18.8714 1.9254 5.8975 0.0000 22.6448 0.0000
# 6 0.0000 0.0000 0.0000 5.8774 0.0000 23.8051
#
#
#
# Elastic Compliance Matrix: (Units=1/GPa)
#
#
# Indices 1 2 3 4 5 6 
#
# 1 0.058328 -0.016930 -0.003289 0.000000 -0.046313 0.000000
# 2 -0.016930 0.017154 -0.007077 0.000000 0.014493 0.000000
# 3 -0.003289 -0.007077 0.015582 0.000000 -0.000716 0.000000
# 4 0.000000 0.000000 0.000000 0.032668 0.000000 -0.008066
# 5 -0.046313 0.014493 -0.000716 0.000000 0.081710 0.000000
# 6 0.000000 0.000000 0.000000 -0.008066 0.000000 0.043999
#
#
# Mechanical properties :
#
#
# Convention : Reuss Voigt Hill
#
# Bulk Modulus (GPa) = 27.41669 60.24569 43.83119
# Shear Modulus (GPa) = 15.81328 24.67142 20.24235
#
# Velocity S-wave (km/s) = 2.93856 3.67046 3.32471
# Velocity P-wave (km/s) = 5.14635 7.13171 6.21877
#
# Compressibility (1/GPa) = 0.03647413
#
# Stress axis : x y z
#
# Youngs Moduli (GPa) = 17.14436 58.29507 64.17669
#
# Poissons Ratio (x) = 0.98692 0.21105
# Poissons Ratio (y) = 0.29025 0.45417
# Poissons Ratio (z) = 0.05638 0.41255
#
# Static dielectric constant tensor:
#      x y z
#    x 1.645230 0.000000 0.021390 
#    y 0.000000 1.641640 0.000000 
#    z 0.021390 0.000000 1.626750 
# 
# From -- ./inp_files/53295.got.cif
#   From: 2010.05.17/outbox.cif.g08.bks.cpg/sg11_27_cif.got.tgz:53295.got - 2010.06.03 12:22:45.
