data_PCOD9159443
_publ_section_title
;
Structure prediction by ZEFSAII (Michael W. Deem and Ramdas Pophale) SiO2 
 PCOD9159443
Probable space group: P 21/M
;
_chemical_formula_sum "Si O2"
_cell_formula_units_Z 32
_cell_length_a 16.633508
_cell_length_b 20.079172
_cell_length_c 5.215062
_cell_angle_alpha 90.000000
_cell_angle_beta 117.519906
_cell_angle_gamma 90.000000
_cell_volume 1544.683375
_symmetry_space_group_name_H-M "P 21/M"
_symmetry_group_IT_number 11
_symmetry_cell_setting 'monoclinic'
loop_
_space_group_symop_operation_xyz
x,y,z
-x,1/2+y,-z
-x,-y,-z
x,1/2-y,z
loop_
_atom_site_type_symbol
_atom_site_label
_atom_site_fract_x
_atom_site_fract_y
_atom_site_fract_z
Si Si1 0.681183 0.178123 0.153230
Si Si2 0.420411 0.056237 0.135509
Si Si3 0.298564 0.072781 0.463417
Si Si4 0.034124 0.169865 0.674296
Si Si5 0.137734 0.675159 0.908934
Si Si6 0.421351 0.588518 0.299729
Si Si7 0.138410 0.330502 0.325522
Si Si8 0.242605 0.572181 0.343401
O O1 0.672744 0.250000 0.273246
O O2 0.764998 0.184035 0.080514
O O3 0.710410 0.118075 0.375965
O O4 0.589926 0.155709 0.875938
O O5 0.350263 0.069949 0.267390
O O6 0.511624 0.093197 0.361237
O O7 0.446830 0.977626 0.179160
O O8 0.372433 0.073720 0.800035
O O9 0.232085 0.135037 0.390158
O O10 0.238355 0.005135 0.410862
O O11 0.037279 0.250000 0.686503
O O12 0.104926 0.148387 0.558287
O O13 0.935417 0.155056 0.413059
O O14 0.064500 0.148315 0.001026
O O15 0.112503 0.750000 0.977597
O O16 0.154660 0.614116 0.127609
O O17 0.319040 0.572397 0.235719
O O18 0.145323 0.250000 0.332970
#
# Coordination Sequence:
#
# PCOD9159443 Si02
#       8
#     4   4   4   4   4   4   4   4
#     4  10  19  33  54  80 116 149 180 226 279 332
#     4  10  21  36  62  83 109 145 191 232 270 326
#     4  11  22  38  59  85 110 148 187 235 280 332
#     4   9  19  36  60  83 107 143 189 231 274 335
#     4   9  19  34  54  83 111 148 189 225 269 332
#     4   9  20  35  54  82 111 145 191 227 269 325
#     4  10  21  39  60  81 108 143 187 238 285 329
#     4  10  20  33  55  81 116 148 183 225 277 337
#
# _framework density 20.716218000000001
#
# number of rings (size 3 to 8) (size 9 to 14) (size 15 to 20)
#    0.000    2.250    1.250    1.125    3.500    2.000 
#    0.000    2.500    0.000    0.000    0.000    0.000 
#    0.000    0.000    0.000    0.000    0.000    0.000 
#
# Total GULP energy -178387.945305 kJ/mol
# GULP energy per Si atom -5574.623291 kJ/mol
# Density = 2.066907 g / cm^3
# Si number density = 20.716218 Si / 1000 Ang^3
#
#
#
# Elastic Constant Matrix: (Units=GPa)
#
#
# Indices 1 2 3 4 5 6 
#
# 1 40.2599 13.6546 8.1568 0.0000 0.2591 0.0000
# 2 13.6546 52.8880 10.8990 0.0000 3.0761 0.0000
# 3 8.1568 10.8990 81.6400 0.0000 6.1790 0.0000
# 4 0.0000 0.0000 0.0000 28.2542 0.0000 6.3823
# 5 0.2591 3.0761 6.1790 0.0000 31.1968 0.0000
# 6 0.0000 0.0000 0.0000 6.3823 0.0000 21.9384
#
#
#
# Elastic Compliance Matrix: (Units=1/GPa)
#
#
# Indices 1 2 3 4 5 6 
#
# 1 0.027512 -0.006757 -0.001908 0.000000 0.000816 0.000000
# 2 -0.006757 0.021165 -0.002027 0.000000 -0.001629 0.000000
# 3 -0.001908 -0.002027 0.012887 0.000000 -0.002337 0.000000
# 4 0.000000 0.000000 0.000000 0.037882 0.000000 -0.011021
# 5 0.000816 -0.001629 -0.002337 0.000000 0.032671 0.000000
# 6 0.000000 0.000000 0.000000 -0.011021 0.000000 0.048788
#
#
# Mechanical properties :
#
#
# Convention : Reuss Voigt Hill
#
# Bulk Modulus (GPa) = 24.88894 26.68984 25.78939
# Shear Modulus (GPa) = 23.18206 25.74971 24.46589
#
# Velocity S-wave (km/s) = 3.34882 3.52941 3.44030
# Velocity P-wave (km/s) = 5.19549 5.43327 5.31571
#
# Compressibility (1/GPa) = 0.04017848
#
# Stress axis : x y z
#
# Youngs Moduli (GPa) = 36.34805 47.24796 77.59727
#
# Poissons Ratio (x) = 0.31926 0.14809
# Poissons Ratio (y) = 0.24561 0.15730
# Poissons Ratio (z) = 0.06937 0.09578
#
# Static dielectric constant tensor:
#      x y z
#    x 1.799970 0.000000 -0.040860 
#    y 0.000000 1.808740 0.000000 
#    z -0.040860 0.000000 1.791430 
# 
# From -- ./inp_files/7059.got.cif
#   From: 2010.05.17/outbox.cif.g08.bks.cpg/sg11_4_cif.got.tgz:7059.got - 2010.06.03 12:22:45.
