data_PCOD9159020
_publ_section_title
;
Structure prediction by ZEFSAII (Michael W. Deem and Ramdas Pophale) SiO2 
 PCOD9159020
Probable space group: P 21/M
;
_chemical_formula_sum "Si O2"
_cell_formula_units_Z 32
_cell_length_a 8.715288
_cell_length_b 14.168454
_cell_length_c 13.906767
_cell_angle_alpha 90.000000
_cell_angle_beta 109.333289
_cell_angle_gamma 90.000000
_cell_volume 1620.400435
_symmetry_space_group_name_H-M "P 21/M"
_symmetry_group_IT_number 11
_symmetry_cell_setting 'monoclinic'
loop_
_space_group_symop_operation_xyz
x,y,z
-x,1/2+y,-z
-x,-y,-z
x,1/2-y,z
loop_
_atom_site_type_symbol
_atom_site_label
_atom_site_fract_x
_atom_site_fract_y
_atom_site_fract_z
Si Si1 0.724381 0.637772 0.428139
Si Si2 0.375396 0.638776 0.317158
Si Si3 0.053180 0.362265 0.344805
Si Si4 0.834591 0.638417 0.840418
Si Si5 0.969117 0.141164 0.794819
Si Si6 0.780349 0.510603 0.250489
Si Si7 0.164504 0.639767 0.014428
Si Si8 0.583804 0.009737 0.862141
O O1 0.744880 0.750000 0.410911
O O2 0.532979 0.624988 0.416309
O O3 0.844612 0.612944 0.539429
O O4 0.759419 0.575210 0.341754
O O5 0.374818 0.750000 0.289336
O O6 0.408922 0.575117 0.231771
O O7 0.188317 0.619602 0.305616
O O8 0.020625 0.250000 0.338894
O O9 0.161759 0.381077 0.272462
O O10 0.887460 0.420234 0.300762
O O11 0.814682 0.750000 0.852732
O O12 0.696527 0.580030 0.865046
O O13 0.014264 0.612462 0.915822
O O14 0.016738 0.250000 0.790250
O O15 0.114169 0.072665 0.800818
O O16 0.906697 0.131386 0.891425
O O17 0.605521 0.487399 0.168751
O O18 0.204415 0.750000 0.006506
O O19 0.321943 0.573731 0.040558
#
# Coordination Sequence:
#
# PCOD9159020 Si02
#       8
#     4   4   4   4   4   4   4   4
#     4   9  18  34  55  78 104 135 172 214 260 305
#     4   8  15  30  52  77 101 127 167 218 261 297
#     4  10  21  37  54  72 101 142 182 215 248 298
#     4  10  21  38  57  73  96 137 184 220 249 292
#     4   9  17  31  53  80 107 131 161 209 267 317
#     4  11  21  33  51  80 113 139 163 204 263 320
#     4   9  18  35  58  80 101 130 172 219 260 300
#     4  10  19  32  53  78 104 133 166 211 260 309
#
# _framework density 19.748204999999999
#
# number of rings (size 3 to 8) (size 9 to 14) (size 15 to 20)
#    0.000    2.500    0.000    3.750    0.000    2.000 
#    0.000    9.375    0.000    7.500    0.000    0.000 
#    0.000    0.000    0.000    0.000    0.000    0.000 
#
# Total GULP energy -178509.196267 kJ/mol
# GULP energy per Si atom -5578.412383 kJ/mol
# Density = 1.970326 g / cm^3
# Si number density = 19.748205 Si / 1000 Ang^3
#
#
#
# Elastic Constant Matrix: (Units=GPa)
#
#
# Indices 1 2 3 4 5 6 
#
# 1 57.4288 32.4013 36.2864 0.0000 24.1990 0.0000
# 2 32.4013 69.3635 34.5827 0.0000 14.1459 0.0000
# 3 36.2864 34.5827 72.6007 0.0000 13.5489 0.0000
# 4 0.0000 0.0000 0.0000 22.2691 0.0000 8.5637
# 5 24.1990 14.1459 13.5489 0.0000 21.6495 0.0000
# 6 0.0000 0.0000 0.0000 8.5637 0.0000 21.6352
#
#
#
# Elastic Compliance Matrix: (Units=1/GPa)
#
#
# Indices 1 2 3 4 5 6 
#
# 1 0.045270 -0.007369 -0.011969 0.000000 -0.038295 0.000000
# 2 -0.007369 0.021282 -0.006110 0.000000 -0.001845 0.000000
# 3 -0.011969 -0.006110 0.021994 0.000000 0.003607 0.000000
# 4 0.000000 0.000000 0.000000 0.052968 0.000000 -0.020966
# 5 -0.038295 -0.001845 0.003607 0.000000 0.087944 0.000000
# 6 0.000000 0.000000 0.000000 -0.020966 0.000000 0.054520
#
#
# Mechanical properties :
#
#
# Convention : Reuss Voigt Hill
#
# Bulk Modulus (GPa) = 26.56144 45.10374 35.83259
# Shear Modulus (GPa) = 14.39170 19.51892 16.95531
#
# Velocity S-wave (km/s) = 2.70248 3.14728 2.93332
# Velocity P-wave (km/s) = 4.81842 6.00801 5.44579
#
# Compressibility (1/GPa) = 0.03764857
#
# Stress axis : x y z
#
# Youngs Moduli (GPa) = 22.08969 46.98908 45.46788
#
# Poissons Ratio (x) = 0.34627 0.54422
# Poissons Ratio (y) = 0.16278 0.27780
# Poissons Ratio (z) = 0.26440 0.28710
#
# Static dielectric constant tensor:
#      x y z
#    x 1.700720 0.000000 0.021670 
#    y 0.000000 1.701380 0.000000 
#    z 0.021670 0.000000 1.718760 
# 
# From -- ./inp_files/47460.got.cif
#   From: 2010.05.17/outbox.cif.g08.bks.cpg/sg11_24_cif.got.tgz:47460.got - 2010.06.03 12:22:45.
