data_PCOD9159833
_publ_section_title
;
Structure prediction by ZEFSAII (Michael W. Deem and Ramdas Pophale) SiO2 
 PCOD9159833
Probable space group: P 21/M
;
_chemical_formula_sum "Si O2"
_cell_formula_units_Z 28
_cell_length_a 16.063448
_cell_length_b 7.538640
_cell_length_c 12.425648
_cell_angle_alpha 90.000000
_cell_angle_beta 125.342786
_cell_angle_gamma 90.000000
_cell_volume 1227.395132
_symmetry_space_group_name_H-M "P 21/M"
_symmetry_group_IT_number 11
_symmetry_cell_setting 'monoclinic'
loop_
_space_group_symop_operation_xyz
x,y,z
-x,1/2+y,-z
-x,-y,-z
x,1/2-y,z
loop_
_atom_site_type_symbol
_atom_site_label
_atom_site_fract_x
_atom_site_fract_y
_atom_site_fract_z
Si Si1 0.701600 0.532110 0.411154
Si Si2 0.118910 0.037921 0.601853
Si Si3 0.685760 0.957849 0.868146
Si Si4 0.941048 0.038813 0.844715
Si Si5 0.870559 0.532708 0.150681
Si Si6 0.292944 0.452302 0.346603
Si Si7 0.493780 0.039464 0.869205
O O1 0.703801 0.750000 0.416965
O O2 0.808484 0.471850 0.439092
O O3 0.684539 0.467341 0.519906
O O4 0.610810 0.476870 0.264015
O O5 0.131061 0.250000 0.612527
O O6 0.151241 0.973068 0.744497
O O7 0.000000 0.000000 0.500000
O O8 0.708559 0.750000 0.866992
O O9 0.667703 0.034916 0.735642
O O10 0.590087 0.969403 0.875125
O O11 0.784814 0.031445 0.003408
O O12 0.926201 0.250000 0.825566
O O13 0.017675 0.980157 0.807356
O O14 0.830223 0.952801 0.756841
O O15 0.000000 0.000000 0.000000
O O16 0.868517 0.750000 0.148585
O O17 0.331826 0.250000 0.380763
O O18 0.495746 0.250000 0.858501
O O19 0.500000 0.000000 0.000000
#
# Coordination Sequence:
#
# PCOD9159833 Si02
#       7
#     4   4   4   4   4   4   4
#     4   9  20  38  60  83 114 153 189 230 288 349
#     4  10  19  34  55  78 108 144 184 227 276 333
#     4  10  20  37  59  83 113 149 188 234 291 347
#     4  11  20  33  53  81 116 156 196 238 286 340
#     4   9  18  33  53  77 109 152 189 225 283 343
#     4  10  20  37  59  84 115 154 193 233 289 353
#     4  11  23  41  63  87 113 147 193 240 287 343
#
# _framework density 22.812538
#
# number of rings (size 3 to 8) (size 9 to 14) (size 15 to 20)
#    0.000    2.000    1.429    2.571    0.000    3.429 
#    0.000    5.714    0.000    0.000    0.000    0.000 
#    0.000    0.000    0.000    0.000    0.000    0.000 
#
# Total GULP energy -156502.219062 kJ/mol
# GULP energy per Si atom -5589.364967 kJ/mol
# Density = 2.276062 g / cm^3
# Si number density = 22.812538 Si / 1000 Ang^3
#
#
#
# Elastic Constant Matrix: (Units=GPa)
#
#
# Indices 1 2 3 4 5 6 
#
# 1 131.3433 -7.7691 56.5695 0.0000 -30.8602 0.0000
# 2 -7.7691 63.1828 -5.1793 0.0000 -5.6276 0.0000
# 3 56.5695 -5.1793 155.3070 0.0000 -36.1648 0.0000
# 4 0.0000 0.0000 0.0000 6.9997 0.0000 7.1885
# 5 -30.8602 -5.6276 -36.1648 0.0000 46.6760 0.0000
# 6 0.0000 0.0000 0.0000 7.1885 0.0000 20.8320
#
#
#
# Elastic Compliance Matrix: (Units=1/GPa)
#
#
# Indices 1 2 3 4 5 6 
#
# 1 0.009878 0.001446 -0.002426 0.000000 0.004825 0.000000
# 2 0.001446 0.016396 0.000858 0.000000 0.003597 0.000000
# 3 -0.002426 0.000858 0.008543 0.000000 0.005119 0.000000
# 4 0.000000 0.000000 0.000000 0.221277 0.000000 -0.076356
# 5 0.004825 0.003597 0.005119 0.000000 0.029014 0.000000
# 6 0.000000 0.000000 0.000000 -0.076356 0.000000 0.074351
#
#
# Mechanical properties :
#
#
# Convention : Reuss Voigt Hill
#
# Bulk Modulus (GPa) = 28.92593 48.56394 38.74494
# Shear Modulus (GPa) = 13.46881 35.31568 24.39225
#
# Velocity S-wave (km/s) = 2.43248 3.93884 3.27348
# Velocity P-wave (km/s) = 4.53835 6.48231 5.59540
#
# Compressibility (1/GPa) = 0.03457106
#
# Stress axis : x y z
#
# Youngs Moduli (GPa) = 101.23703 60.99216 117.05378
#
# Poissons Ratio (x) = -0.08817 0.28398
# Poissons Ratio (y) = -0.14634 -0.10042
# Poissons Ratio (z) = 0.24561 -0.05232
#
# Static dielectric constant tensor:
#      x y z
#    x 1.807180 0.000000 -0.022690 
#    y 0.000000 1.891030 0.000000 
#    z -0.022690 0.000000 1.842260 
# 
# From -- ./inp_files/38471.got.cif
#   From: 2010.05.17/outbox.cif.g08.bks.cpg/sg11_20_cif.got.tgz:38471.got - 2010.06.03 12:22:45.
