data_PCOD9159189
_publ_section_title
;
Structure prediction by ZEFSAII (Michael W. Deem and Ramdas Pophale) SiO2 
 PCOD9159189
Probable space group: P 21/M
;
_chemical_formula_sum "Si O2"
_cell_formula_units_Z 32
_cell_length_a 14.758563
_cell_length_b 8.741988
_cell_length_c 23.861222
_cell_angle_alpha 90.000000
_cell_angle_beta 144.191673
_cell_angle_gamma 90.000000
_cell_volume 1801.187422
_symmetry_space_group_name_H-M "P 21/M"
_symmetry_group_IT_number 11
_symmetry_cell_setting 'monoclinic'
loop_
_space_group_symop_operation_xyz
x,y,z
-x,1/2+y,-z
-x,-y,-z
x,1/2-y,z
loop_
_atom_site_type_symbol
_atom_site_label
_atom_site_fract_x
_atom_site_fract_y
_atom_site_fract_z
Si Si1 0.630686 0.572446 0.687081
Si Si2 0.606626 0.931117 0.505023
Si Si3 0.974677 0.435049 0.400932
Si Si4 0.107716 0.567118 0.004442
Si Si5 0.252481 0.067641 0.620063
Si Si6 0.406231 0.427210 0.202208
Si Si7 0.961630 0.563510 0.690399
Si Si8 0.965354 0.563677 0.815322
O O1 0.602165 0.750000 0.657738
O O2 0.481334 0.476399 0.595652
O O3 0.659387 0.565146 0.767387
O O4 0.785023 0.520017 0.732638
O O5 0.610584 0.750000 0.513107
O O6 0.782352 0.986097 0.596174
O O7 0.500000 0.000000 0.500000
O O8 0.958073 0.250000 0.396381
O O9 0.144905 0.471745 0.512111
O O10 0.849879 0.513708 0.378341
O O11 0.960495 0.483044 0.328980
O O12 0.091662 0.750000 0.998324
O O13 0.284845 0.519664 0.104068
O O14 0.000000 0.500000 0.000000
O O15 0.053666 0.512851 0.915575
O O16 0.271987 0.250000 0.630161
O O17 0.419631 0.989893 0.707265
O O18 0.408642 0.250000 0.186183
O O19 0.963797 0.750000 0.691290
O O20 0.021387 0.514171 0.781709
O O21 0.967961 0.750000 0.817199
#
# Coordination Sequence:
#
# PCOD9159189 Si02
#       8
#     4   4   4   4   4   4   4   4
#     4  10  19  33  49  70 103 140 176 214 260 311
#     4  11  20  30  46  71 104 142 178 214 253 307
#     4   9  18  34  57  82 107 139 177 216 262 320
#     4  11  21  35  55  78 106 142 184 227 273 321
#     4  10  20  35  55  82 112 139 173 220 269 321
#     4  11  22  36  55  78 107 142 179 225 275 321
#     4   9  17  31  52  73 101 139 177 212 256 315
#     4   9  17  32  51  72 102 139 175 214 262 311
#
# _framework density 17.766058999999998
#
# number of rings (size 3 to 8) (size 9 to 14) (size 15 to 20)
#    0.000    2.000    2.500    2.250    0.000    2.500 
#    0.000    1.250    0.000    0.750    0.000    0.000 
#    0.000    0.000    0.000    0.000    0.000    0.000 
#
# Total GULP energy -178482.383125 kJ/mol
# GULP energy per Si atom -5577.574473 kJ/mol
# Density = 1.772562 g / cm^3
# Si number density = 17.766059 Si / 1000 Ang^3
#
#
#
# Elastic Constant Matrix: (Units=GPa)
#
#
# Indices 1 2 3 4 5 6 
#
# 1 86.6522 14.8951 35.3622 0.0000 -20.0413 0.0000
# 2 14.8951 29.5893 16.2602 0.0000 -4.6951 0.0000
# 3 35.3622 16.2602 85.0500 0.0000 -18.8645 0.0000
# 4 0.0000 0.0000 0.0000 24.5048 0.0000 2.1298
# 5 -20.0413 -4.6951 -18.8645 0.0000 31.2903 0.0000
# 6 0.0000 0.0000 0.0000 2.1298 0.0000 22.3753
#
#
#
# Elastic Compliance Matrix: (Units=1/GPa)
#
#
# Indices 1 2 3 4 5 6 
#
# 1 0.015564 -0.004501 -0.004097 0.000000 0.006823 0.000000
# 2 -0.004501 0.039127 -0.005710 0.000000 -0.000454 0.000000
# 3 -0.004097 -0.005710 0.015908 0.000000 0.006110 0.000000
# 4 0.000000 0.000000 0.000000 0.041149 0.000000 -0.003917
# 5 0.006823 -0.000454 0.006110 0.000000 0.039944 0.000000
# 6 0.000000 0.000000 0.000000 -0.003917 0.000000 0.045065
#
#
# Mechanical properties :
#
#
# Convention : Reuss Voigt Hill
#
# Bulk Modulus (GPa) = 23.81872 37.14739 30.48305
# Shear Modulus (GPa) = 20.88829 24.61901 22.75365
#
# Velocity S-wave (km/s) = 3.43263 3.72658 3.58262
# Velocity P-wave (km/s) = 5.39876 6.28260 5.85737
#
# Compressibility (1/GPa) = 0.04198378
#
# Stress axis : x y z
#
# Youngs Moduli (GPa) = 64.24973 25.55760 62.86049
#
# Poissons Ratio (x) = 0.11502 0.25757
# Poissons Ratio (y) = 0.28916 0.35893
# Poissons Ratio (z) = 0.26326 0.14593
#
# Static dielectric constant tensor:
#      x y z
#    x 1.621690 0.000000 -0.037040 
#    y 0.000000 1.605300 0.000000 
#    z -0.037040 0.000000 1.622790 
# 
# From -- ./inp_files/69162.got.cif
#   From: 2010.05.17/outbox.cif.g08.bks.cpg/sg11_35_cif.got.tgz:69162.got - 2010.06.03 12:22:45.
