data_PCOD9159737
_publ_section_title
;
Structure prediction by ZEFSAII (Michael W. Deem and Ramdas Pophale) SiO2 
 PCOD9159737
Probable space group: P 21/M
;
_chemical_formula_sum "Si O2"
_cell_formula_units_Z 32
_cell_length_a 17.461765
_cell_length_b 9.955540
_cell_length_c 13.863236
_cell_angle_alpha 90.000000
_cell_angle_beta 128.199440
_cell_angle_gamma 90.000000
_cell_volume 1893.932011
_symmetry_space_group_name_H-M "P 21/M"
_symmetry_group_IT_number 11
_symmetry_cell_setting 'monoclinic'
loop_
_space_group_symop_operation_xyz
x,y,z
-x,1/2+y,-z
-x,-y,-z
x,1/2-y,z
loop_
_atom_site_type_symbol
_atom_site_label
_atom_site_fract_x
_atom_site_fract_y
_atom_site_fract_z
Si Si1 0.398749 0.904277 0.320236
Si Si2 0.941023 0.100540 0.323332
Si Si3 0.281725 0.899598 0.904118
Si Si4 0.716302 0.600619 0.393972
Si Si5 0.370143 0.398663 0.459596
Si Si6 0.104040 0.597351 0.483801
Si Si7 0.575138 0.031604 0.145393
Si Si8 0.603337 0.595861 0.867366
O O1 0.365956 0.750000 0.278736
O O2 0.513197 0.897059 0.435957
O O3 0.346642 0.981339 0.368031
O O4 0.393182 0.001629 0.223655
O O5 0.974428 0.250000 0.319383
O O6 0.833148 0.078232 0.197547
O O7 0.926468 0.103533 0.427604
O O8 0.019635 0.985977 0.363770
O O9 0.298365 0.750000 0.959706
O O10 0.336599 0.898373 0.843250
O O11 0.328954 0.018420 0.002770
O O12 0.758898 0.750000 0.416070
O O13 0.674098 0.586172 0.468594
O O14 0.797237 0.487648 0.443487
O O15 0.629864 0.583997 0.248309
O O16 0.341716 0.250000 0.399892
O O17 0.115451 0.750000 0.458096
O O18 0.505462 0.098755 0.170822
O O19 0.500000 0.000000 0.000000
O O20 0.632470 0.750000 0.872130
#
# Coordination Sequence:
#
# PCOD9159737 Si02
#       8
#     4   4   4   4   4   4   4   4
#     4  10  19  34  52  72  99 133 169 210 257 301
#     4   9  18  34  51  71  98 134 171 211 257 299
#     4  10  20  35  52  71 101 137 176 215 251 297
#     4  11  21  35  54  75 102 137 174 211 256 307
#     4   9  19  34  51  73  98 130 170 213 256 300
#     4  10  20  33  50  74 101 131 169 214 257 301
#     4  10  21  34  47  71 102 141 178 213 246 290
#     4  11  22  33  50  75 103 137 175 212 252 301
#
# _framework density 16.896066999999999
#
# number of rings (size 3 to 8) (size 9 to 14) (size 15 to 20)
#    0.000    2.000    2.500    1.500    0.000    6.500 
#    0.000    0.000    0.000    0.000    0.000    0.875 
#    0.000    0.000    0.000    0.000    0.000    0.000 
#
# Total GULP energy -178160.019788 kJ/mol
# GULP energy per Si atom -5567.500618 kJ/mol
# Density = 1.685761 g / cm^3
# Si number density = 16.896067 Si / 1000 Ang^3
#
#
#
# Elastic Constant Matrix: (Units=GPa)
#
#
# Indices 1 2 3 4 5 6 
#
# 1 36.2866 45.1718 27.0623 0.0000 1.7083 0.0000
# 2 45.1718 172.8977 58.2631 0.0000 0.5090 0.0000
# 3 27.0623 58.2631 56.8399 0.0000 -0.3921 0.0000
# 4 0.0000 0.0000 0.0000 8.6429 0.0000 7.7424
# 5 1.7083 0.5090 -0.3921 0.0000 28.2246 0.0000
# 6 0.0000 0.0000 0.0000 7.7424 0.0000 18.9558
#
#
#
# Elastic Compliance Matrix: (Units=1/GPa)
#
#
# Indices 1 2 3 4 5 6 
#
# 1 0.048525 -0.007450 -0.015488 0.000000 -0.003018 0.000000
# 2 -0.007450 0.009982 -0.006684 0.000000 0.000178 0.000000
# 3 -0.015488 -0.006684 0.031829 0.000000 0.001500 0.000000
# 4 0.000000 0.000000 0.000000 0.182464 0.000000 -0.074527
# 5 -0.003018 0.000178 0.001500 0.000000 0.035630 0.000000
# 6 0.000000 0.000000 0.000000 -0.074527 0.000000 0.083194
#
#
# Mechanical properties :
#
#
# Convention : Reuss Voigt Hill
#
# Bulk Modulus (GPa) = 32.16172 58.55763 45.35968
# Shear Modulus (GPa) = 10.84053 20.19979 15.52016
#
# Velocity S-wave (km/s) = 2.53573 3.46140 3.03407
# Velocity P-wave (km/s) = 5.25829 7.12094 6.25929
#
# Compressibility (1/GPa) = 0.03109286
#
# Stress axis : x y z
#
# Youngs Moduli (GPa) = 20.60775 100.18194 31.41820
#
# Poissons Ratio (x) = 0.74634 0.48661
# Poissons Ratio (y) = 0.15352 0.20999
# Poissons Ratio (z) = 0.31918 0.66957
#
# Static dielectric constant tensor:
#      x y z
#    x 1.558720 0.000000 -0.003290 
#    y 0.000000 1.631200 0.000000 
#    z -0.003290 0.000000 1.572030 
# 
# From -- ./inp_files/51728.got.cif
#   From: 2010.05.17/outbox.cif.g08.bks.cpg/sg11_26_cif.got.tgz:51728.got - 2010.06.03 12:22:45.
