data_PCOD9159109
_publ_section_title
;
Structure prediction by ZEFSAII (Michael W. Deem and Ramdas Pophale) SiO2 
 PCOD9159109
Probable space group: P 21/M
;
_chemical_formula_sum "Si O2"
_cell_formula_units_Z 28
_cell_length_a 12.558599
_cell_length_b 8.250811
_cell_length_c 29.459854
_cell_angle_alpha 90.000000
_cell_angle_beta 151.868500
_cell_angle_gamma 90.000000
_cell_volume 1439.286189
_symmetry_space_group_name_H-M "P 21/M"
_symmetry_group_IT_number 11
_symmetry_cell_setting 'monoclinic'
loop_
_space_group_symop_operation_xyz
x,y,z
-x,1/2+y,-z
-x,-y,-z
x,1/2-y,z
loop_
_atom_site_type_symbol
_atom_site_label
_atom_site_fract_x
_atom_site_fract_y
_atom_site_fract_z
Si Si1 0.029724 0.057333 0.737711
Si Si2 0.029739 0.054520 0.959378
Si Si3 0.532513 0.443108 0.142000
Si Si4 0.405964 0.553147 0.261274
Si Si5 0.756296 0.944208 0.319651
Si Si6 0.793878 0.052040 0.556270
Si Si7 0.656712 0.943288 0.660089
O O1 0.047312 0.250000 0.740925
O O2 0.879745 0.998956 0.638065
O O3 0.893457 0.011192 0.731195
O O4 0.279286 0.987948 0.824237
O O5 0.024942 0.250000 0.956750
O O6 0.820283 0.998561 0.850216
O O7 0.277907 0.000815 0.036325
O O8 0.000000 0.000000 0.000000
O O9 0.529592 0.250000 0.146135
O O10 0.615292 0.516193 0.221110
O O11 0.408141 0.750000 0.262667
O O12 0.620971 0.495516 0.312569
O O13 0.399293 0.491749 0.309797
O O14 0.766887 0.750000 0.327225
O O15 0.011058 0.001560 0.405745
O O16 0.790505 0.250000 0.555129
O O17 0.548180 0.995051 0.448884
O O18 0.664807 0.750000 0.659611
#
# Coordination Sequence:
#
# PCOD9159109 Si02
#       7
#     4   4   4   4   4   4   4
#     4  10  20  37  59  79 104 141 182 219 266 325
#     4  10  20  34  56  83 110 140 176 218 263 317
#     4  10  19  32  54  85 112 133 171 226 272 308
#     4  10  21  36  53  77 111 148 181 213 260 324
#     4   9  17  33  55  78 108 144 179 215 262 320
#     4   8  17  33  55  81 106 137 178 222 266 314
#     4  11  22  36  53  77 110 143 180 227 269 308
#
# _framework density 19.454087000000001
#
# number of rings (size 3 to 8) (size 9 to 14) (size 15 to 20)
#    0.000    2.286    1.429    2.571    0.000    2.286 
#    0.000    7.143    0.000    0.000    0.000    0.000 
#    0.000    0.000    0.000    0.000    0.000    0.000 
#
# Total GULP energy -156254.539316 kJ/mol
# GULP energy per Si atom -5580.519261 kJ/mol
# Density = 1.940981 g / cm^3
# Si number density = 19.454087 Si / 1000 Ang^3
#
#
#
# Elastic Constant Matrix: (Units=GPa)
#
#
# Indices 1 2 3 4 5 6 
#
# 1 95.1584 -1.9536 5.4838 0.0000 32.0345 0.0000
# 2 -1.9536 -7.3016 4.7812 0.0000 3.5250 0.0000
# 3 5.4838 4.7812 36.0522 0.0000 22.5141 0.0000
# 4 0.0000 0.0000 0.0000 16.0359 0.0000 -1.4736
# 5 32.0345 3.5250 22.5141 0.0000 29.8516 0.0000
# 6 0.0000 0.0000 0.0000 -1.4736 0.0000 27.2445
#
#
#
# Elastic Compliance Matrix: (Units=1/GPa)
#
#
# Indices 1 2 3 4 5 6 
#
# 1 0.022638 -0.010410 0.023327 0.000000 -0.040657 0.000000
# 2 -0.010410 -0.120934 0.003265 0.000000 0.022990 0.000000
# 3 0.023327 0.003265 0.074913 0.000000 -0.081919 0.000000
# 4 0.000000 0.000000 0.000000 0.062672 0.000000 0.003390
# 5 -0.040657 0.022990 -0.081919 0.000000 0.136198 0.000000
# 6 0.000000 0.000000 0.000000 0.003390 0.000000 0.036888
#
#
# Mechanical properties :
#
#
# Convention : Reuss Voigt Hill
#
# Bulk Modulus (GPa) = 111.34782 15.61465 63.48124
# Shear Modulus (GPa) = 27.32156 22.33289 24.82722
#
# Velocity S-wave (km/s) = 3.75161 3.39186 3.57626
# Velocity P-wave (km/s) = 8.72506 4.83564 7.05372
#
# Compressibility (1/GPa) = 0.00898087
#
# Stress axis : x y z
#
# Youngs Moduli (GPa) = 44.17384 -8.26899 13.34874
#
# Poissons Ratio (x) = -0.08608 -0.31139
# Poissons Ratio (y) = 0.45987 -0.04358
# Poissons Ratio (z) = -1.03046 0.02700
#
# Static dielectric constant tensor:
#      x y z
#    x 1.674560 0.000000 0.030980 
#    y 0.000000 1.670350 0.000000 
#    z 0.030980 0.000000 1.686440 
# 
# From -- ./inp_files/71353.got.cif
#   From: 2010.05.17/outbox.cif.g08.bks.cpg/sg11_36_cif.got.tgz:71353.got - 2010.06.03 12:22:45.
