data_PCOD9159000
_publ_section_title
;
Structure prediction by ZEFSAII (Michael W. Deem and Ramdas Pophale) SiO2 
 PCOD9159000
Probable space group: P 21/M
;
_chemical_formula_sum "Si O2"
_cell_formula_units_Z 32
_cell_length_a 17.366604
_cell_length_b 11.209345
_cell_length_c 17.935630
_cell_angle_alpha 90.000000
_cell_angle_beta 154.216549
_cell_angle_gamma 90.000000
_cell_volume 1518.700426
_symmetry_space_group_name_H-M "P 21/M"
_symmetry_group_IT_number 11
_symmetry_cell_setting 'monoclinic'
loop_
_space_group_symop_operation_xyz
x,y,z
-x,1/2+y,-z
-x,-y,-z
x,1/2-y,z
loop_
_atom_site_type_symbol
_atom_site_label
_atom_site_fract_x
_atom_site_fract_y
_atom_site_fract_z
Si Si1 0.452946 0.618622 0.068610
Si Si2 0.034707 0.620633 0.431059
Si Si3 0.390327 0.119320 0.388104
Si Si4 0.845343 0.380728 0.291535
Si Si5 0.419794 0.619883 0.750871
Si Si6 0.603975 0.537433 0.768722
Si Si7 0.862458 0.386997 0.084973
Si Si8 0.249403 0.113246 0.421483
O O1 0.540276 0.750000 0.154559
O O2 0.559104 0.500831 0.182626
O O3 0.283550 0.614264 0.976674
O O4 0.362525 0.614803 0.908894
O O5 0.945565 0.750000 0.340356
O O6 0.101612 0.619534 0.575722
O O7 0.217873 0.617384 0.546133
O O8 0.924084 0.501348 0.325947
O O9 0.479797 0.250000 0.476804
O O10 0.347145 0.107784 0.263397
O O11 0.245526 0.115359 0.327395
O O12 0.500000 0.000000 0.500000
O O13 0.908015 0.250000 0.316736
O O14 0.444372 0.750000 0.809613
O O15 0.551889 0.612108 0.796379
O O16 0.768577 0.456746 0.936586
O O17 0.424838 0.459034 0.597971
O O18 0.891356 0.250000 0.088387
O O19 0.056492 0.433237 0.277064
O O20 0.272384 0.250000 0.468405
#
# Coordination Sequence:
#
# PCOD9159000 Si02
#       8
#     4   4   4   4   4   4   4   4
#     4   9  19  34  52  74 101 132 170 215 259 302
#     4   9  19  34  51  75 104 135 170 207 256 312
#     4   9  18  33  53  76 103 136 174 215 260 311
#     4   9  18  34  54  75 102 133 169 216 257 298
#     4  10  21  35  51  74 105 138 171 207 258 316
#     4  10  19  32  53  73 104 140 175 213 262 309
#     4   9  18  32  49  76 108 134 171 218 262 312
#     4   9  18  32  52  77 103 136 175 216 266 313
#
# _framework density 21.070646
#
# number of rings (size 3 to 8) (size 9 to 14) (size 15 to 20)
#    0.000    2.750    0.000    0.750    1.750    3.000 
#    0.000    0.000    0.000   10.500    0.000    0.000 
#    0.000    0.000    0.000    0.000    0.000    0.000 
#
# Total GULP energy -178141.656192 kJ/mol
# GULP energy per Si atom -5566.926756 kJ/mol
# Density = 2.102269 g / cm^3
# Si number density = 21.070646 Si / 1000 Ang^3
#
#
#
# Elastic Constant Matrix: (Units=GPa)
#
#
# Indices 1 2 3 4 5 6 
#
# 1 38.3284 22.4772 -7.2134 0.0000 -5.4312 0.0000
# 2 22.4772 174.4792 50.5138 0.0000 -3.5288 0.0000
# 3 -7.2134 50.5138 56.4108 0.0000 0.8571 0.0000
# 4 0.0000 0.0000 0.0000 29.5374 0.0000 4.2084
# 5 -5.4312 -3.5288 0.8571 0.0000 25.4512 0.0000
# 6 0.0000 0.0000 0.0000 4.2084 0.0000 14.4599
#
#
#
# Elastic Compliance Matrix: (Units=1/GPa)
#
#
# Indices 1 2 3 4 5 6 
#
# 1 0.033139 -0.007230 0.010625 0.000000 0.005712 0.000000
# 2 -0.007230 0.009358 -0.009305 0.000000 0.000068 0.000000
# 3 0.010625 -0.009305 0.027417 0.000000 0.000054 0.000000
# 4 0.000000 0.000000 0.000000 0.035320 0.000000 -0.010279
# 5 0.005712 0.000068 0.000054 0.000000 0.040517 0.000000
# 6 0.000000 0.000000 0.000000 -0.010279 0.000000 0.072148
#
#
# Mechanical properties :
#
#
# Convention : Reuss Voigt Hill
#
# Bulk Modulus (GPa) = 17.21355 44.53039 30.87197
# Shear Modulus (GPa) = 20.07346 27.45242 23.76294
#
# Velocity S-wave (km/s) = 3.08989 3.61345 3.36188
# Velocity P-wave (km/s) = 4.57352 6.21201 5.45464
#
# Compressibility (1/GPa) = 0.05809378
#
# Stress axis : x y z
#
# Youngs Moduli (GPa) = 30.17608 106.85994 36.47318
#
# Poissons Ratio (x) = 0.77254 -0.38751
# Poissons Ratio (y) = 0.21816 0.33939
# Poissons Ratio (z) = -0.32061 0.99436
#
# Static dielectric constant tensor:
#      x y z
#    x 1.815290 0.000000 -0.019180 
#    y 0.000000 1.809370 0.000000 
#    z -0.019180 0.000000 1.761470 
# 
# From -- ./inp_files/66582.got.cif
#   From: 2010.05.17/outbox.cif.g08.bks.cpg/sg11_34_cif.got.tgz:66582.got - 2010.06.03 12:22:45.
