data_PCOD9159291
_publ_section_title
;
Structure prediction by ZEFSAII (Michael W. Deem and Ramdas Pophale) SiO2 
 PCOD9159291
Probable space group: P 21/M
;
_chemical_formula_sum "Si O2"
_cell_formula_units_Z 32
_cell_length_a 15.905350
_cell_length_b 18.078718
_cell_length_c 10.130224
_cell_angle_alpha 90.000000
_cell_angle_beta 144.597427
_cell_angle_gamma 90.000000
_cell_volume 1687.511592
_symmetry_space_group_name_H-M "P 21/M"
_symmetry_group_IT_number 11
_symmetry_cell_setting 'monoclinic'
loop_
_space_group_symop_operation_xyz
x,y,z
-x,1/2+y,-z
-x,-y,-z
x,1/2-y,z
loop_
_atom_site_type_symbol
_atom_site_label
_atom_site_fract_x
_atom_site_fract_y
_atom_site_fract_z
Si Si1 0.026793 0.385845 0.464221
Si Si2 0.561456 0.665624 0.423722
Si Si3 0.714553 0.335106 0.062532
Si Si4 0.766192 0.460146 0.552006
Si Si5 0.683645 0.886497 0.305869
Si Si6 0.059307 0.458473 0.775233
Si Si7 0.665852 0.528076 0.696741
Si Si8 0.401651 0.839760 0.804762
O O1 0.166470 0.359652 0.564212
O O2 0.055437 0.395577 0.657133
O O3 0.882447 0.340703 0.249832
O O4 0.989109 0.466655 0.359290
O O5 0.558656 0.750000 0.465066
O O6 0.634934 0.657985 0.373501
O O7 0.647070 0.613399 0.630814
O O8 0.398572 0.633479 0.188325
O O9 0.669148 0.250000 0.010198
O O10 0.685575 0.363168 0.173086
O O11 0.703960 0.528104 0.380555
O O12 0.740127 0.486068 0.668041
O O13 0.675752 0.385712 0.408552
O O14 0.934023 0.446912 0.725313
O O15 0.560809 0.871665 0.039498
O O16 0.219469 0.472313 0.037568
O O17 0.500000 0.500000 0.500000
O O18 0.401422 0.750000 0.789334
#
# Coordination Sequence:
#
# PCOD9159291 Si02
#       8
#     4   4   4   4   4   4   4   4
#     4  10  19  33  56  86 113 137 180 237 282 326
#     4   9  19  38  58  80 112 150 187 227 277 340
#     4   9  17  31  53  78 108 145 180 218 274 334
#     4  10  20  37  56  77 111 151 189 228 280 342
#     4   9  19  31  57  86 110 143 184 230 279 329
#     4  10  21  36  55  83 114 142 184 234 283 335
#     4  11  23  37  59  82 109 150 197 237 280 331
#     4  10  19  33  52  79 114 147 180 225 279 337
#
# _framework density 18.962834000000001
#
# number of rings (size 3 to 8) (size 9 to 14) (size 15 to 20)
#    0.000    2.250    1.250    2.625    1.750    1.000 
#    0.000    1.875    0.000    0.750    0.000    0.000 
#    0.000    0.000    0.000    0.000    0.000    0.000 
#
# Total GULP energy -178286.033864 kJ/mol
# GULP energy per Si atom -5571.438558 kJ/mol
# Density = 1.891967 g / cm^3
# Si number density = 18.962834 Si / 1000 Ang^3
#
#
#
# Elastic Constant Matrix: (Units=GPa)
#
#
# Indices 1 2 3 4 5 6 
#
# 1 63.1128 0.2426 41.6274 0.0000 20.9521 0.0000
# 2 0.2426 36.1199 3.9303 0.0000 3.7031 0.0000
# 3 41.6274 3.9303 97.2558 0.0000 24.4940 0.0000
# 4 0.0000 0.0000 0.0000 17.2726 0.0000 5.6427
# 5 20.9521 3.7031 24.4940 0.0000 29.6242 0.0000
# 6 0.0000 0.0000 0.0000 5.6427 0.0000 6.3029
#
#
#
# Elastic Compliance Matrix: (Units=1/GPa)
#
#
# Indices 1 2 3 4 5 6 
#
# 1 0.024736 0.001839 -0.007828 0.000000 -0.011253 0.000000
# 2 0.001839 0.028189 -0.000898 0.000000 -0.004082 0.000000
# 3 -0.007828 -0.000898 0.015467 0.000000 -0.007140 0.000000
# 4 0.000000 0.000000 0.000000 0.081826 0.000000 -0.073255
# 5 -0.011253 -0.004082 -0.007140 0.000000 0.048129 0.000000
# 6 0.000000 0.000000 0.000000 -0.073255 0.000000 0.224240
#
#
# Mechanical properties :
#
#
# Convention : Reuss Voigt Hill
#
# Bulk Modulus (GPa) = 18.30874 32.00989 25.15932
# Shear Modulus (GPa) = 10.99944 20.68580 15.84262
#
# Velocity S-wave (km/s) = 2.41104 3.30640 2.89356
# Velocity P-wave (km/s) = 4.17455 5.61189 4.94572
#
# Compressibility (1/GPa) = 0.05461872
#
# Stress axis : x y z
#
# Youngs Moduli (GPa) = 40.42636 35.47426 64.65290
#
# Poissons Ratio (x) = -0.06525 0.50610
# Poissons Ratio (y) = -0.07436 0.05809
# Poissons Ratio (z) = 0.31646 0.03187
#
# Static dielectric constant tensor:
#      x y z
#    x 1.677220 0.000000 0.007160 
#    y 0.000000 1.668610 0.000000 
#    z 0.007160 0.000000 1.663430 
# 
# From -- ./inp_files/41846.got.cif
#   From: 2010.05.17/outbox.cif.g08.bks.cpg/sg11_21_cif.got.tgz:41846.got - 2010.06.03 12:22:45.
