data_PCOD9159838
_publ_section_title
;
Structure prediction by ZEFSAII (Michael W. Deem and Ramdas Pophale) SiO2 
 PCOD9159838
Probable space group: P 21/M
;
_chemical_formula_sum "Si O2"
_cell_formula_units_Z 28
_cell_length_a 15.663719
_cell_length_b 9.648410
_cell_length_c 21.479409
_cell_angle_alpha 90.000000
_cell_angle_beta 26.550565
_cell_angle_gamma 90.000000
_cell_volume 1451.002909
_symmetry_space_group_name_H-M "P 21/M"
_symmetry_group_IT_number 11
_symmetry_cell_setting 'monoclinic'
loop_
_space_group_symop_operation_xyz
x,y,z
-x,1/2+y,-z
-x,-y,-z
x,1/2-y,z
loop_
_atom_site_type_symbol
_atom_site_label
_atom_site_fract_x
_atom_site_fract_y
_atom_site_fract_z
Si Si1 0.233983 0.594417 0.643964
Si Si2 0.337998 0.086941 0.072773
Si Si3 0.609592 0.582516 0.101903
Si Si4 0.824653 0.585667 0.085277
Si Si5 0.824031 0.080901 0.583091
Si Si6 0.915846 0.085760 0.385640
Si Si7 0.329297 0.098306 0.685629
O O1 0.154995 0.750000 0.703356
O O2 0.458156 0.602882 0.480698
O O3 0.214583 0.513278 0.720688
O O4 0.148229 0.523901 0.638487
O O5 0.387659 0.250000 0.039576
O O6 0.142942 0.071316 0.238135
O O7 0.313977 0.043834 0.016158
O O8 0.500000 0.000000 0.000000
O O9 0.614202 0.750000 0.103278
O O10 0.736246 0.534027 0.077903
O O11 0.385155 0.544807 0.253713
O O12 0.872808 0.750000 0.047864
O O13 0.666404 0.574011 0.243508
O O14 0.000000 0.500000 0.000000
O O15 0.849708 0.250000 0.570736
O O16 0.826286 0.039902 0.508605
O O17 0.000000 0.000000 0.500000
O O18 0.868161 0.250000 0.411700
O O19 0.241079 0.250000 0.733937
#
# Coordination Sequence:
#
# PCOD9159838 Si02
#       7
#     4   4   4   4   4   4   4
#     4   9  17  31  53  75  97 133 172 208 252 309
#     4  10  20  35  53  76 103 134 171 213 258 309
#     4   9  19  35  56  77 105 143 179 212 262 325
#     4  10  21  36  54  76 106 144 183 223 263 314
#     4  10  19  34  55  79 104 135 173 217 267 319
#     4   9  18  31  52  76  98 127 171 212 246 300
#     4   9  18  32  49  74 106 131 163 214 265 298
#
# _framework density 19.296997999999999
#
# number of rings (size 3 to 8) (size 9 to 14) (size 15 to 20)
#    0.000    2.571    0.000    1.714    2.000    4.000 
#    0.000    2.857    0.000    1.714    0.000    0.000 
#    0.000    0.000    0.000    0.000    0.000    0.000 
#
# Total GULP energy -156028.913248 kJ/mol
# GULP energy per Si atom -5572.461187 kJ/mol
# Density = 1.925308 g / cm^3
# Si number density = 19.296998 Si / 1000 Ang^3
#
#
#
# Elastic Constant Matrix: (Units=GPa)
#
#
# Indices 1 2 3 4 5 6 
#
# 1 58.8658 10.7679 -1.8910 0.0000 -2.3370 0.0000
# 2 10.7679 22.6960 4.3959 0.0000 -4.1560 0.0000
# 3 -1.8910 4.3959 45.9658 0.0000 11.2895 0.0000
# 4 0.0000 0.0000 0.0000 17.5105 0.0000 -2.6875
# 5 -2.3370 -4.1560 11.2895 0.0000 28.8676 0.0000
# 6 0.0000 0.0000 0.0000 -2.6875 0.0000 27.3753
#
#
#
# Elastic Compliance Matrix: (Units=1/GPa)
#
#
# Indices 1 2 3 4 5 6 
#
# 1 0.018731 -0.009331 0.001793 0.000000 -0.000528 0.000000
# 2 -0.009331 0.051762 -0.007720 0.000000 0.009716 0.000000
# 3 0.001793 -0.007720 0.025228 0.000000 -0.010832 0.000000
# 4 0.000000 0.000000 0.000000 0.057982 0.000000 0.005692
# 5 -0.000528 0.009716 -0.010832 0.000000 0.040233 0.000000
# 6 0.000000 0.000000 0.000000 0.005692 0.000000 0.037088
#
#
# Mechanical properties :
#
#
# Convention : Reuss Voigt Hill
#
# Bulk Modulus (GPa) = 15.33643 17.11921 16.22782
# Shear Modulus (GPa) = 17.65061 22.36767 20.00914
#
# Velocity S-wave (km/s) = 3.02765 3.40829 3.22359
# Velocity P-wave (km/s) = 4.49300 4.93754 4.72051
#
# Compressibility (1/GPa) = 0.06520421
#
# Stress axis : x y z
#
# Youngs Moduli (GPa) = 53.38682 19.31921 39.63864
#
# Poissons Ratio (x) = 0.18026 -0.07106
# Poissons Ratio (y) = 0.49814 0.30602
# Poissons Ratio (z) = -0.09570 0.14915
#
# Static dielectric constant tensor:
#      x y z
#    x 1.567740 0.000000 -0.006660 
#    y 0.000000 1.661970 0.000000 
#    z -0.006660 0.000000 1.697850 
# 
# From -- ./inp_files/65336.got.cif
#   From: 2010.05.17/outbox.cif.g08.bks.cpg/sg11_33_cif.got.tgz:65336.got - 2010.06.03 12:22:45.
