data_PCOD9159079
_publ_section_title
;
Structure prediction by ZEFSAII (Michael W. Deem and Ramdas Pophale) SiO2 
 PCOD9159079
Probable space group: P 21/M
;
_chemical_formula_sum "Si O2"
_cell_formula_units_Z 32
_cell_length_a 14.317243
_cell_length_b 15.312253
_cell_length_c 11.281362
_cell_angle_alpha 90.000000
_cell_angle_beta 129.386604
_cell_angle_gamma 90.000000
_cell_volume 1911.495127
_symmetry_space_group_name_H-M "P 21/M"
_symmetry_group_IT_number 11
_symmetry_cell_setting 'monoclinic'
loop_
_space_group_symop_operation_xyz
x,y,z
-x,1/2+y,-z
-x,-y,-z
x,1/2-y,z
loop_
_atom_site_type_symbol
_atom_site_label
_atom_site_fract_x
_atom_site_fract_y
_atom_site_fract_z
Si Si1 0.274420 0.649872 0.827945
Si Si2 0.662278 0.482016 0.324560
Si Si3 0.105737 0.587464 0.900064
Si Si4 0.446101 0.150705 0.892199
Si Si5 0.158771 0.016730 0.317541
Si Si6 0.446473 0.350127 0.172053
Si Si7 0.205671 0.412536 0.099931
Si Si8 0.060205 0.656210 0.120408
O O1 0.263132 0.750000 0.775167
O O2 0.272207 0.578744 0.721339
O O3 0.176589 0.630477 0.849643
O O4 0.408287 0.642518 0.993073
O O5 0.612343 0.570692 0.224688
O O6 0.750686 0.508489 0.501374
O O7 0.550865 0.421257 0.278661
O O8 0.968403 0.563193 0.754788
O O9 0.175066 0.500000 0.999997
O O10 0.095512 0.644594 0.011084
O O11 0.413792 0.250000 0.827579
O O12 0.415217 0.142519 0.006927
O O13 0.213614 0.063194 0.245209
O O14 0.120741 0.921120 0.241479
O O15 0.487963 0.250000 0.224832
O O16 0.326943 0.369523 0.150351
O O17 0.084426 0.355406 0.988913
O O18 0.097841 0.750000 0.195678
#
# Coordination Sequence:
#
# PCOD9159079 Si02
#       8
#     4   4   4   4   4   4   4   4
#     4  10  19  32  54  78  98 128 172 213 249 294
#     4  11  20  34  51  73 109 141 159 201 254 300
#     4   9  17  33  52  72  96 129 170 211 251 292
#     4   9  19  34  52  75  97 129 176 213 248 292
#     4   9  21  33  49  74 104 137 166 196 251 312
#     4  10  19  32  54  78  98 128 172 213 249 294
#     4   9  17  33  52  72  96 129 170 211 251 292
#     4   9  17  31  52  74  97 127 168 216 254 292
#
# _framework density 16.740822000000001
#
# number of rings (size 3 to 8) (size 9 to 14) (size 15 to 20)
#    0.000    2.500    0.000    6.375    0.000    2.000 
#    0.000    3.750    0.000    6.000    0.000    0.000 
#    0.000    0.000    0.000    0.000    0.000    0.000 
#
# Total GULP energy -178384.510704 kJ/mol
# GULP energy per Si atom -5574.515960 kJ/mol
# Density = 1.670272 g / cm^3
# Si number density = 16.740822 Si / 1000 Ang^3
#
#
#
# Elastic Constant Matrix: (Units=GPa)
#
#
# Indices 1 2 3 4 5 6 
#
# 1 116.3969 40.8303 34.0714 0.0000 7.9686 0.0000
# 2 40.8303 106.7219 47.4689 0.0000 -0.6725 0.0000
# 3 34.0714 47.4689 95.1681 0.0000 -5.8102 0.0000
# 4 0.0000 0.0000 0.0000 4.7211 0.0000 1.0534
# 5 7.9686 -0.6725 -5.8102 0.0000 3.3109 0.0000
# 6 0.0000 0.0000 0.0000 1.0534 0.0000 15.0997
#
#
#
# Elastic Compliance Matrix: (Units=1/GPa)
#
#
# Indices 1 2 3 4 5 6 
#
# 1 0.014973 -0.002994 -0.006837 0.000000 -0.048642 0.000000
# 2 -0.002994 0.012888 -0.005328 0.000000 0.000474 0.000000
# 3 -0.006837 -0.005328 0.018537 0.000000 0.047904 0.000000
# 4 0.000000 0.000000 0.000000 0.215164 0.000000 -0.015010
# 5 -0.048642 0.000474 0.047904 0.000000 0.503262 0.000000
# 6 0.000000 0.000000 0.000000 -0.015010 0.000000 0.067273
#
#
# Mechanical properties :
#
#
# Convention : Reuss Voigt Hill
#
# Bulk Modulus (GPa) = 62.18312 62.55868 62.37090
# Shear Modulus (GPa) = 5.76186 17.68743 11.72465
#
# Velocity S-wave (km/s) = 1.85722 3.25398 2.64931
# Velocity P-wave (km/s) = 6.46717 7.18108 6.83345
#
# Compressibility (1/GPa) = 0.01608154
#
# Stress axis : x y z
#
# Youngs Moduli (GPa) = 66.78735 77.58963 53.94476
#
# Poissons Ratio (x) = 0.23230 0.36881
# Poissons Ratio (y) = 0.19996 0.28741
# Poissons Ratio (z) = 0.45662 0.41338
#
# Static dielectric constant tensor:
#      x y z
#    x 1.559730 0.000000 0.003970 
#    y 0.000000 1.582270 0.000000 
#    z 0.003970 0.000000 1.520650 
# 
# From -- ./inp_files/39678.got.cif
#   From: 2010.05.17/outbox.cif.g08.bks.cpg/sg11_20_cif.got.tgz:39678.got - 2010.06.03 12:22:45.
