data_PCOD9159911
_publ_section_title
;
Structure prediction by ZEFSAII (Michael W. Deem and Ramdas Pophale) SiO2 
 PCOD9159911
Probable space group: P 21/M
;
_chemical_formula_sum "Si O2"
_cell_formula_units_Z 32
_cell_length_a 25.618062
_cell_length_b 7.847122
_cell_length_c 14.101544
_cell_angle_alpha 90.000000
_cell_angle_beta 31.536742
_cell_angle_gamma 90.000000
_cell_volume 1482.731755
_symmetry_space_group_name_H-M "P 21/M"
_symmetry_group_IT_number 11
_symmetry_cell_setting 'monoclinic'
loop_
_space_group_symop_operation_xyz
x,y,z
-x,1/2+y,-z
-x,-y,-z
x,1/2-y,z
loop_
_atom_site_type_symbol
_atom_site_label
_atom_site_fract_x
_atom_site_fract_y
_atom_site_fract_z
Si Si1 0.528893 0.542046 0.161569
Si Si2 0.240320 0.448986 0.723204
Si Si3 0.562985 0.453364 0.494471
Si Si4 0.671280 0.446669 0.611836
Si Si5 0.153801 0.053290 0.527941
Si Si6 0.088343 0.455089 0.290469
Si Si7 0.245246 0.458921 0.194227
Si Si8 0.941403 0.549430 0.876690
O O1 0.527888 0.750000 0.159421
O O2 0.495922 0.493501 0.318956
O O3 0.441093 0.483841 0.226889
O O4 0.641065 0.484050 0.969771
O O5 0.228870 0.250000 0.714405
O O6 0.327532 0.465032 0.666784
O O7 0.280470 0.542723 0.567840
O O8 0.138012 0.519951 0.925189
O O9 0.500000 0.500000 0.500000
O O10 0.575492 0.250000 0.478502
O O11 0.666280 0.250000 0.649311
O O12 0.745918 0.539215 0.566668
O O13 0.127034 0.250000 0.558421
O O14 0.178596 0.981100 0.385733
O O15 0.057204 0.968631 0.723575
O O16 0.090245 0.250000 0.282177
O O17 0.191480 0.510920 0.180396
O O18 0.072107 0.521537 0.209190
O O19 0.000000 0.500000 0.500000
O O20 0.246298 0.250000 0.195203
O O21 0.917639 0.750000 0.908455
#
# Coordination Sequence:
#
# PCOD9159911 Si02
#       8
#     4   4   4   4   4   4   4   4
#     4   8  17  34  56  79 108 145 184 225 277 333
#     4  10  21  38  59  83 111 145 188 235 282 333
#     4  10  20  34  55  82 114 152 190 231 278 329
#     4  10  21  39  60  82 111 147 184 232 285 337
#     4  11  22  36  58  84 110 146 187 234 281 326
#     4  10  19  34  56  80 112 149 183 224 274 329
#     4   9  18  33  55  83 112 144 185 225 272 332
#     4  10  22  37  57  84 113 149 188 227 280 338
#
# _framework density 21.581786000000001
#
# number of rings (size 3 to 8) (size 9 to 14) (size 15 to 20)
#    0.000    2.250    1.250    2.250    1.750    2.000 
#    0.000    0.000    0.000    9.750    0.000    0.000 
#    0.000    0.000    0.000    0.000    0.000    0.000 
#
# Total GULP energy -178672.368217 kJ/mol
# GULP energy per Si atom -5583.511507 kJ/mol
# Density = 2.153267 g / cm^3
# Si number density = 21.581786 Si / 1000 Ang^3
#
#
#
# Elastic Constant Matrix: (Units=GPa)
#
#
# Indices 1 2 3 4 5 6 
#
# 1 54.1836 -6.1230 -11.5255 0.0000 -23.0660 0.0000
# 2 -6.1230 32.2351 -0.8694 0.0000 1.6121 0.0000
# 3 -11.5255 -0.8694 90.7615 0.0000 -25.6870 0.0000
# 4 0.0000 0.0000 0.0000 14.8681 0.0000 -3.0713
# 5 -23.0660 1.6121 -25.6870 0.0000 25.3772 0.0000
# 6 0.0000 0.0000 0.0000 -3.0713 0.0000 17.4093
#
#
#
# Elastic Compliance Matrix: (Units=1/GPa)
#
#
# Indices 1 2 3 4 5 6 
#
# 1 0.072056 0.009527 0.038689 0.000000 0.104050 0.000000
# 2 0.009527 0.032389 0.004749 0.000000 0.011409 0.000000
# 3 0.038689 0.004749 0.036219 0.000000 0.071525 0.000000
# 4 0.000000 0.000000 0.000000 0.069802 0.000000 0.012314
# 5 0.104050 0.011409 0.071525 0.000000 0.205652 0.000000
# 6 0.000000 0.000000 0.000000 0.012314 0.000000 0.059613
#
#
# Mechanical properties :
#
#
# Convention : Reuss Voigt Hill
#
# Bulk Modulus (GPa) = 4.05523 15.57157 9.81340
# Shear Modulus (GPa) = 11.06195 24.57746 17.81971
#
# Velocity S-wave (km/s) = 2.26643 3.37828 2.87659
# Velocity P-wave (km/s) = 2.95500 4.73792 3.94841
#
# Compressibility (1/GPa) = 0.24659497
#
# Stress axis : x y z
#
# Youngs Moduli (GPa) = 13.87806 30.87442 27.60969
#
# Poissons Ratio (x) = -0.29414 -1.06820
# Poissons Ratio (y) = -0.13222 -0.13112
# Poissons Ratio (z) = -0.53693 -0.14662
#
# Static dielectric constant tensor:
#      x y z
#    x 1.787070 0.000000 -0.006810 
#    y 0.000000 1.757570 0.000000 
#    z -0.006810 0.000000 1.781110 
# 
# From -- ./inp_files/51645.got.cif
#   From: 2010.05.17/outbox.cif.g08.bks.cpg/sg11_26_cif.got.tgz:51645.got - 2010.06.03 12:22:45.
