data_PCOD9159403
_publ_section_title
;
Structure prediction by ZEFSAII (Michael W. Deem and Ramdas Pophale) SiO2 
 PCOD9159403
Probable space group: P 21/M
;
_chemical_formula_sum "Si O2"
_cell_formula_units_Z 28
_cell_length_a 16.035734
_cell_length_b 8.955408
_cell_length_c 20.059778
_cell_angle_alpha 90.000000
_cell_angle_beta 147.674774
_cell_angle_gamma 90.000000
_cell_volume 1540.388907
_symmetry_space_group_name_H-M "P 21/M"
_symmetry_group_IT_number 11
_symmetry_cell_setting 'monoclinic'
loop_
_space_group_symop_operation_xyz
x,y,z
-x,1/2+y,-z
-x,-y,-z
x,1/2-y,z
loop_
_atom_site_type_symbol
_atom_site_label
_atom_site_fract_x
_atom_site_fract_y
_atom_site_fract_z
Si Si1 0.548141 0.431632 0.603911
Si Si2 0.429567 0.080407 0.054161
Si Si3 0.046213 0.574453 0.461063
Si Si4 0.658381 0.080567 0.879548
Si Si5 0.828949 0.927460 0.877354
Si Si6 0.709704 0.919996 0.187696
Si Si7 0.664477 0.921245 0.414574
O O1 0.500000 0.500000 0.500000
O O2 0.558553 0.250000 0.608418
O O3 0.711909 0.497064 0.743615
O O4 0.414392 0.470659 0.568700
O O5 0.422528 0.250000 0.074093
O O6 0.342501 0.971029 0.045356
O O7 0.607734 0.029133 0.164106
O O8 0.353098 0.072187 0.929710
O O9 0.068054 0.750000 0.486936
O O10 0.195306 0.511396 0.523320
O O11 0.000000 0.500000 0.500000
O O12 0.891960 0.550319 0.312575
O O13 0.716704 0.250000 0.909366
O O14 0.479976 0.077496 0.734199
O O15 0.748724 0.966564 0.893617
O O16 0.838297 0.750000 0.872119
O O17 0.000000 0.000000 0.000000
O O18 0.683534 0.750000 0.194622
O O19 0.716111 0.750000 0.458265
#
# Coordination Sequence:
#
# PCOD9159403 Si02
#       7
#     4   4   4   4   4   4   4
#     4  10  21  40  64  90 121 160 199 245 300 356
#     4  10  19  33  54  77 102 139 185 226 273 332
#     4  11  22  35  53  77 108 145 183 228 280 331
#     4  10  20  36  57  81 110 144 181 226 281 335
#     4  11  22  39  62  89 119 151 193 243 293 353
#     4   9  20  36  50  71 107 143 178 225 277 327
#     4   9  20  37  56  80 112 145 185 231 275 332
#
# _framework density 18.177226999999998
#
# number of rings (size 3 to 8) (size 9 to 14) (size 15 to 20)
#    0.000    2.000    0.000    4.714    0.000    8.571 
#    2.571    0.000    0.000    0.000    0.000    0.000 
#    0.000    0.000    0.000    0.000    0.000    0.000 
#
# Total GULP energy -156183.781051 kJ/mol
# GULP energy per Si atom -5577.992180 kJ/mol
# Density = 1.813585 g / cm^3
# Si number density = 18.177227 Si / 1000 Ang^3
#
#
#
# Elastic Constant Matrix: (Units=GPa)
#
#
# Indices 1 2 3 4 5 6 
#
# 1 88.1846 51.5006 52.6665 0.0000 9.2582 0.0000
# 2 51.5006 97.8170 58.4663 0.0000 9.5205 0.0000
# 3 52.6665 58.4663 85.1112 0.0000 23.1636 0.0000
# 4 0.0000 0.0000 0.0000 30.3817 0.0000 3.4509
# 5 9.2582 9.5205 23.1636 0.0000 19.4999 0.0000
# 6 0.0000 0.0000 0.0000 3.4509 0.0000 34.3715
#
#
#
# Elastic Compliance Matrix: (Units=1/GPa)
#
#
# Indices 1 2 3 4 5 6 
#
# 1 0.019759 -0.004659 -0.010481 0.000000 0.005343 0.000000
# 2 -0.004659 0.019427 -0.012536 0.000000 0.007618 0.000000
# 3 -0.010481 -0.012536 0.035209 0.000000 -0.030728 0.000000
# 4 0.000000 0.000000 0.000000 0.033294 0.000000 -0.003343
# 5 0.005343 0.007618 -0.030728 0.000000 0.081527 0.000000
# 6 0.000000 0.000000 0.000000 -0.003343 0.000000 0.029429
#
#
# Mechanical properties :
#
#
# Convention : Reuss Voigt Hill
#
# Bulk Modulus (GPa) = 52.50849 66.26441 59.38645
# Shear Modulus (GPa) = 17.83514 24.08258 20.95886
#
# Velocity S-wave (km/s) = 3.13578 3.64383 3.39931
# Velocity P-wave (km/s) = 6.48541 7.36459 6.93893
#
# Compressibility (1/GPa) = 0.01904454
#
# Stress axis : x y z
#
# Youngs Moduli (GPa) = 50.60974 51.47359 28.40177
#
# Poissons Ratio (x) = 0.23980 0.29767
# Poissons Ratio (y) = 0.23578 0.35605
# Poissons Ratio (z) = 0.53043 0.64527
#
# Static dielectric constant tensor:
#      x y z
#    x 1.624120 0.000000 -0.002500 
#    y 0.000000 1.638560 0.000000 
#    z -0.002500 0.000000 1.629330 
# 
# From -- ./inp_files/65424.got.cif
#   From: 2010.05.17/outbox.cif.g08.bks.cpg/sg11_33_cif.got.tgz:65424.got - 2010.06.03 12:22:45.
