data_PCOD9159603
_publ_section_title
;
Structure prediction by ZEFSAII (Michael W. Deem and Ramdas Pophale) SiO2 
 PCOD9159603
Probable space group: P 21/M
;
_chemical_formula_sum "Si O2"
_cell_formula_units_Z 30
_cell_length_a 16.580676
_cell_length_b 9.390729
_cell_length_c 13.716737
_cell_angle_alpha 90.000000
_cell_angle_beta 144.007813
_cell_angle_gamma 90.000000
_cell_volume 1255.132325
_symmetry_space_group_name_H-M "P 21/M"
_symmetry_group_IT_number 11
_symmetry_cell_setting 'monoclinic'
loop_
_space_group_symop_operation_xyz
x,y,z
-x,1/2+y,-z
-x,-y,-z
x,1/2-y,z
loop_
_atom_site_type_symbol
_atom_site_label
_atom_site_fract_x
_atom_site_fract_y
_atom_site_fract_z
Si Si1 0.237210 0.415612 0.570715
Si Si2 0.462235 0.919823 0.172323
Si Si3 0.550779 0.250000 0.567902
Si Si4 0.319570 0.036716 0.374435
Si Si5 0.233479 0.413468 0.067521
Si Si6 0.011747 0.083291 0.613448
Si Si7 0.681128 0.911376 0.120449
Si Si8 0.979029 0.918516 0.876752
O O1 0.203403 0.250000 0.517690
O O2 0.378550 0.457259 0.656696
O O3 0.103646 0.512922 0.432132
O O4 0.281314 0.421773 0.729079
O O5 0.443555 0.750000 0.163643
O O6 0.359518 0.009294 0.138459
O O7 0.418317 0.970410 0.020540
O O8 0.454334 0.127939 0.527488
O O9 0.639378 0.374502 0.599413
O O10 0.275980 0.091176 0.223307
O O11 0.182398 0.062143 0.303516
O O12 0.212156 0.250000 0.016546
O O13 0.096029 0.507689 0.926425
O O14 0.981710 0.250000 0.570844
O O15 0.173149 0.071914 0.793907
O O16 0.000000 0.000000 0.500000
O O17 0.629307 0.750000 0.052133
O O18 0.007283 0.750000 0.912721
O O19 0.000000 0.000000 0.000000
#
# Coordination Sequence:
#
# PCOD9159603 Si02
#       8
#     4   4   2   4   4   4   4   4
#     4   9  19  35  55  82 110 144 188 233 281 336
#     4  11  23  36  55  80 111 148 188 233 284 335
#     4  10  20  34  60  88 118 144 176 224 268 320
#     4  10  20  36  59  88 114 144 183 222 271 324
#     4  11  23  38  57  79 111 147 187 231 283 331
#     4   9  17  30  53  80 106 137 174 222 276 327
#     4   9  18  34  55  80 111 142 184 235 279 330
#     4  10  19  33  56  84 108 140 182 224 264 318
#
# _framework density 23.901861
#
# number of rings (size 3 to 8) (size 9 to 14) (size 15 to 20)
#    0.000    2.133    1.333    3.600    5.600    3.733 
#    0.000    0.000    5.867    0.000    0.000    0.000 
#    0.000    0.000    0.000    0.000    0.000    0.000 
#
# Total GULP energy -167323.036870 kJ/mol
# GULP energy per Si atom -5577.434562 kJ/mol
# Density = 2.384746 g / cm^3
# Si number density = 23.901861 Si / 1000 Ang^3
#
#
#
# Elastic Constant Matrix: (Units=GPa)
#
#
# Indices 1 2 3 4 5 6 
#
# 1 99.7003 39.9436 35.5682 0.0000 33.0273 0.0000
# 2 39.9436 212.0411 90.7327 0.0000 35.4722 0.0000
# 3 35.5682 90.7327 118.5713 0.0000 27.7793 0.0000
# 4 0.0000 0.0000 0.0000 39.3849 0.0000 5.7800
# 5 33.0273 35.4722 27.7793 0.0000 58.1809 0.0000
# 6 0.0000 0.0000 0.0000 5.7800 0.0000 29.8174
#
#
#
# Elastic Compliance Matrix: (Units=1/GPa)
#
#
# Indices 1 2 3 4 5 6 
#
# 1 0.012991 -0.000556 -0.002053 0.000000 -0.006056 0.000000
# 2 -0.000556 0.007234 -0.004965 0.000000 -0.001724 0.000000
# 3 -0.002053 -0.004965 0.013361 0.000000 -0.002187 0.000000
# 4 0.000000 0.000000 0.000000 0.026134 0.000000 -0.005066
# 5 -0.006056 -0.001724 -0.002187 0.000000 0.022721 0.000000
# 6 0.000000 0.000000 0.000000 -0.005066 0.000000 0.034519
#
#
# Mechanical properties :
#
#
# Convention : Reuss Voigt Hill
#
# Bulk Modulus (GPa) = 54.23272 84.75574 69.49423
# Shear Modulus (GPa) = 36.16564 43.08120 39.62342
#
# Velocity S-wave (km/s) = 3.89406 4.25010 4.07597
# Velocity P-wave (km/s) = 6.55418 7.72148 7.16166
#
# Compressibility (1/GPa) = 0.01843905
#
# Stress axis : x y z
#
# Youngs Moduli (GPa) = 76.97578 138.24467 74.84496
#
# Poissons Ratio (x) = 0.07682 0.15366
# Poissons Ratio (y) = 0.04278 0.37157
# Poissons Ratio (z) = 0.15803 0.68632
#
# Static dielectric constant tensor:
#      x y z
#    x 2.050530 0.000000 -0.071010 
#    y 0.000000 1.662210 0.000000 
#    z -0.071010 0.000000 1.966540 
# 
# From -- ./inp_files/66097.got.cif
#   From: 2010.05.17/outbox.cif.g08.bks.cpg/sg11_34_cif.got.tgz:66097.got - 2010.06.03 12:22:45.
