data_PCOD9159555
_publ_section_title
;
Structure prediction by ZEFSAII (Michael W. Deem and Ramdas Pophale) SiO2 
 PCOD9159555
Probable space group: P 21/M
;
_chemical_formula_sum "Si O2"
_cell_formula_units_Z 32
_cell_length_a 21.116557
_cell_length_b 8.813892
_cell_length_c 14.553468
_cell_angle_alpha 90.000000
_cell_angle_beta 136.949902
_cell_angle_gamma 90.000000
_cell_volume 1849.045167
_symmetry_space_group_name_H-M "P 21/M"
_symmetry_group_IT_number 11
_symmetry_cell_setting 'monoclinic'
loop_
_space_group_symop_operation_xyz
x,y,z
-x,1/2+y,-z
-x,-y,-z
x,1/2-y,z
loop_
_atom_site_type_symbol
_atom_site_label
_atom_site_fract_x
_atom_site_fract_y
_atom_site_fract_z
Si Si1 0.098141 0.930907 0.072301
Si Si2 0.805874 0.931984 0.349567
Si Si3 0.519156 0.068374 0.919699
Si Si4 0.338207 0.930513 0.656767
Si Si5 0.854322 0.569891 0.073821
Si Si6 0.819788 0.070477 0.648460
Si Si7 0.271434 0.568484 0.914391
Si Si8 0.961681 0.570004 0.656187
O O1 0.088243 0.750000 0.049826
O O2 0.168046 0.959535 0.231199
O O3 0.130164 0.004129 0.011352
O O4 0.000000 0.000000 0.000000
O O5 0.797339 0.750000 0.336683
O O6 0.903154 0.968872 0.502733
O O7 0.725400 0.998627 0.330075
O O8 0.791000 0.003070 0.234472
O O9 0.513207 0.250000 0.918880
O O10 0.438685 0.004687 0.768993
O O11 0.622170 0.027442 0.995416
O O12 0.500000 0.000000 0.000000
O O13 0.345255 0.750000 0.679339
O O14 0.280669 0.957708 0.502335
O O15 0.849026 0.750000 0.064931
O O16 0.765531 0.500258 0.030296
O O17 0.943739 0.518869 0.228070
O O18 0.841135 0.250000 0.656038
O O19 0.893770 0.974431 0.668532
O O20 0.263774 0.750000 0.907903
O O21 0.979508 0.750000 0.676114
#
# Coordination Sequence:
#
# PCOD9159555 Si02
#       8
#     4   4   4   4   4   4   4   4
#     4  11  21  36  59  86 114 147 188 233 277 329
#     4  10  20  34  54  81 112 148 189 229 273 327
#     4  11  22  36  58  85 112 145 186 233 283 331
#     4  10  19  33  55  84 115 147 182 226 277 330
#     4  12  25  39  56  80 112 151 190 234 283 336
#     4   9  19  34  55  83 114 146 183 227 277 328
#     4  11  24  40  57  79 110 150 190 233 282 334
#     4  10  20  34  54  80 112 149 188 230 273 327
#
# _framework density 17.306228999999998
#
# number of rings (size 3 to 8) (size 9 to 14) (size 15 to 20)
#    0.000    1.500    2.500    3.375    0.000    4.500 
#    0.000    0.000    0.000    0.750    0.000    0.000 
#    0.000    0.000    0.000    0.000    0.000    0.000 
#
# Total GULP energy -178783.839116 kJ/mol
# GULP energy per Si atom -5586.994972 kJ/mol
# Density = 1.726684 g / cm^3
# Si number density = 17.306229 Si / 1000 Ang^3
#
#
#
# Elastic Constant Matrix: (Units=GPa)
#
#
# Indices 1 2 3 4 5 6 
#
# 1 122.1787 53.8884 61.2913 0.0000 -4.5627 0.0000
# 2 53.8884 76.2560 46.7731 0.0000 1.1268 0.0000
# 3 61.2913 46.7731 98.0574 0.0000 -3.4777 0.0000
# 4 0.0000 0.0000 0.0000 29.8070 0.0000 1.2244
# 5 -4.5627 1.1268 -3.4777 0.0000 21.6856 0.0000
# 6 0.0000 0.0000 0.0000 1.2244 0.0000 27.4178
#
#
#
# Elastic Compliance Matrix: (Units=1/GPa)
#
#
# Indices 1 2 3 4 5 6 
#
# 1 0.013894 -0.006472 -0.005513 0.000000 0.002375 0.000000
# 2 -0.006472 0.021677 -0.006419 0.000000 -0.003517 0.000000
# 3 -0.005513 -0.006419 0.016772 0.000000 0.001863 0.000000
# 4 0.000000 0.000000 0.000000 0.033611 0.000000 -0.001501
# 5 0.002375 -0.003517 0.001863 0.000000 0.047095 0.000000
# 6 0.000000 0.000000 0.000000 -0.001501 0.000000 0.036540
#
#
# Mechanical properties :
#
#
# Convention : Reuss Voigt Hill
#
# Bulk Modulus (GPa) = 64.37404 68.93307 66.65356
# Shear Modulus (GPa) = 23.63250 24.75138 24.19194
#
# Velocity S-wave (km/s) = 3.69934 3.78590 3.74287
# Velocity P-wave (km/s) = 7.45148 7.68301 7.56813
#
# Compressibility (1/GPa) = 0.01553421
#
# Stress axis : x y z
#
# Youngs Moduli (GPa) = 71.97609 46.13291 59.62347
#
# Poissons Ratio (x) = 0.29857 0.32870
# Poissons Ratio (y) = 0.46582 0.38273
# Poissons Ratio (z) = 0.39680 0.29613
#
# Static dielectric constant tensor:
#      x y z
#    x 1.565660 0.000000 -0.001610 
#    y 0.000000 1.576890 0.000000 
#    z -0.001610 0.000000 1.606550 
# 
# From -- ./inp_files/54362.got.cif
#   From: 2010.05.17/outbox.cif.g08.bks.cpg/sg11_28_cif.got.tgz:54362.got - 2010.06.03 12:22:45.
