data_PCOD9159317
_publ_section_title
;
Structure prediction by ZEFSAII (Michael W. Deem and Ramdas Pophale) SiO2 
 PCOD9159317
Probable space group: P 21/M
;
_chemical_formula_sum "Si O2"
_cell_formula_units_Z 28
_cell_length_a 7.524051
_cell_length_b 9.347134
_cell_length_c 23.990705
_cell_angle_alpha 90.000000
_cell_angle_beta 50.690051
_cell_angle_gamma 90.000000
_cell_volume 1305.457589
_symmetry_space_group_name_H-M "P 21/M"
_symmetry_group_IT_number 11
_symmetry_cell_setting 'monoclinic'
loop_
_space_group_symop_operation_xyz
x,y,z
-x,1/2+y,-z
-x,-y,-z
x,1/2-y,z
loop_
_atom_site_type_symbol
_atom_site_label
_atom_site_fract_x
_atom_site_fract_y
_atom_site_fract_z
Si Si1 0.638906 0.914866 0.569817
Si Si2 0.780170 0.412803 0.713170
Si Si3 0.915818 0.411519 0.149596
Si Si4 0.508953 0.908622 0.847061
Si Si5 0.068422 0.914286 0.572119
Si Si6 0.298003 0.921017 0.007934
Si Si7 0.346122 0.414792 0.712509
O O1 0.576302 0.750000 0.572359
O O2 0.854189 0.913923 0.570732
O O3 0.733434 0.993763 0.496449
O O4 0.440042 0.003631 0.639784
O O5 0.858072 0.250000 0.703151
O O6 0.691157 0.477423 0.788998
O O7 0.562649 0.411670 0.713160
O O8 0.970318 0.511948 0.646831
O O9 0.007666 0.250000 0.139806
O O10 0.674310 0.397051 0.166060
O O11 0.856648 0.497166 0.217373
O O12 0.073502 0.504244 0.077244
O O13 0.610976 0.750000 0.835532
O O14 0.361846 0.946157 0.930790
O O15 0.135404 0.750000 0.567526
O O16 0.289654 0.750000 0.018434
O O17 0.500000 0.000000 0.000000
O O18 0.284785 0.250000 0.714068
#
# Coordination Sequence:
#
# PCOD9159317 Si02
#       7
#     4   4   4   4   4   4   4
#     4   9  15  22  33  52  81 118 158 196 235 281
#     4   9  16  25  40  62  88 119 157 198 238 283
#     4  10  19  33  53  75  98 127 163 203 246 292
#     4   9  19  34  52  73  98 128 163 202 245 293
#     4   9  15  22  33  51  81 120 157 193 236 284
#     4  11  23  38  54  74 100 129 161 200 246 296
#     4   9  16  26  40  61  89 121 157 196 238 285
#
# _framework density 21.448416000000002
#
# number of rings (size 3 to 8) (size 9 to 14) (size 15 to 20)
#    0.000    2.571    0.000    3.000    0.000    8.571 
#    0.000    0.000    0.000    0.000    0.000    0.000 
#    0.000    1.143    0.000    4.286    0.000    9.714 
#
# Total GULP energy -156359.369399 kJ/mol
# GULP energy per Si atom -5584.263193 kJ/mol
# Density = 2.139960 g / cm^3
# Si number density = 21.448416 Si / 1000 Ang^3
#
#
#
# Elastic Constant Matrix: (Units=GPa)
#
#
# Indices 1 2 3 4 5 6 
#
# 1 44.4451 6.2466 -7.8490 0.0000 -7.7026 0.0000
# 2 6.2466 214.9285 129.7149 0.0000 6.2925 0.0000
# 3 -7.8490 129.7149 175.2271 0.0000 15.0789 0.0000
# 4 0.0000 0.0000 0.0000 46.5667 0.0000 -1.4196
# 5 -7.7026 6.2925 15.0789 0.0000 -28.6737 0.0000
# 6 0.0000 0.0000 0.0000 -1.4196 0.0000 -2.6720
#
#
#
# Elastic Compliance Matrix: (Units=1/GPa)
#
#
# Indices 1 2 3 4 5 6 
#
# 1 0.022581 -0.002490 0.003275 0.000000 -0.004890 0.000000
# 2 -0.002490 0.008629 -0.006429 0.000000 -0.000818 0.000000
# 3 0.003275 -0.006429 0.010342 0.000000 0.003148 0.000000
# 4 0.000000 0.000000 0.000000 0.021132 0.000000 -0.011227
# 5 -0.004890 -0.000818 0.003148 0.000000 -0.032086 0.000000
# 6 0.000000 0.000000 0.000000 -0.011227 0.000000 -0.368285
#
#
# Mechanical properties :
#
#
# Convention : Reuss Voigt Hill
#
# Bulk Modulus (GPa) = 33.04171 76.75841 54.90006
# Shear Modulus (GPa) = -15.80719 23.47674 3.83478
#
# Velocity S-wave (km/s) = -2.71769 3.31201 1.33858
# Velocity P-wave (km/s) = 2.36449 7.10571 5.29537
#
# Compressibility (1/GPa) = 0.03026477
#
# Stress axis : x y z
#
# Youngs Moduli (GPa) = 44.28566 115.88743 96.69449
#
# Poissons Ratio (x) = 0.28855 -0.31672
# Poissons Ratio (y) = 0.11027 0.62164
# Poissons Ratio (z) = -0.14506 0.74503
#
# Static dielectric constant tensor:
#      x y z
#    x 1.874820 0.000000 0.037530 
#    y 0.000000 1.738850 0.000000 
#    z 0.037530 0.000000 1.878280 
# 
# From -- ./inp_files/28327.got.cif
#   From: 2010.05.17/outbox.cif.g08.bks.cpg/sg11_15_cif.got.tgz:28327.got - 2010.06.03 12:22:45.
