data_PCOD9159754
_publ_section_title
;
Structure prediction by ZEFSAII (Michael W. Deem and Ramdas Pophale) SiO2 
 PCOD9159754
Probable space group: P 21/M
;
_chemical_formula_sum "Si O2"
_cell_formula_units_Z 32
_cell_length_a 32.889981
_cell_length_b 7.582186
_cell_length_c 12.659577
_cell_angle_alpha 90.000000
_cell_angle_beta 28.803314
_cell_angle_gamma 90.000000
_cell_volume 1521.065711
_symmetry_space_group_name_H-M "P 21/M"
_symmetry_group_IT_number 11
_symmetry_cell_setting 'monoclinic'
loop_
_space_group_symop_operation_xyz
x,y,z
-x,1/2+y,-z
-x,-y,-z
x,1/2-y,z
loop_
_atom_site_type_symbol
_atom_site_label
_atom_site_fract_x
_atom_site_fract_y
_atom_site_fract_z
Si Si1 0.402130 0.038161 0.205093
Si Si2 0.892767 0.963094 0.144990
Si Si3 0.638424 0.546182 0.932458
Si Si4 0.283289 0.034421 0.847808
Si Si5 0.232293 0.044842 0.191481
Si Si6 0.250077 0.034214 0.692808
Si Si7 0.917203 0.457649 0.325674
Si Si8 0.522712 0.960087 0.569671
O O1 0.395231 0.250000 0.217056
O O2 0.339956 0.978504 0.439444
O O3 0.370071 0.967926 0.164878
O O4 0.500000 0.000000 0.000000
O O5 0.894005 0.750000 0.139876
O O6 0.823319 0.023942 0.219734
O O7 0.875513 0.013316 0.305529
O O8 0.987122 0.027162 0.901621
O O9 0.665516 0.750000 0.855697
O O10 0.546972 0.542279 0.195428
O O11 0.703423 0.464460 0.868628
O O12 0.280802 0.250000 0.851773
O O13 0.242155 0.975445 0.831715
O O14 0.381742 0.982676 0.625865
O O15 0.241711 0.972347 0.051994
O O16 0.257795 0.250000 0.123549
O O17 0.140303 0.035738 0.451844
O O18 0.248364 0.250000 0.696810
O O19 0.922057 0.250000 0.334022
O O20 0.518890 0.750000 0.594199
O O21 0.500000 0.000000 0.500000
#
# Coordination Sequence:
#
# PCOD9159754 Si02
#       8
#     4   4   4   4   4   4   4   4
#     4  10  20  33  51  74 104 137 171 215 261 308
#     4   9  18  35  58  80 103 134 169 209 258 311
#     4  10  20  34  51  74 103 137 178 218 261 311
#     4   9  18  32  52  76 101 134 179 218 248 302
#     4  10  19  34  53  74 103 137 173 213 256 306
#     4   9  17  33  56  77  98 135 180 212 248 303
#     4  10  20  33  53  82 109 130 164 214 263 311
#     4  11  20  33  52  75 103 136 175 218 259 304
#
# _framework density 21.037882
#
# number of rings (size 3 to 8) (size 9 to 14) (size 15 to 20)
#    0.000    2.250    1.250    2.250    0.000    4.500 
#    0.000    2.500    0.000    3.000    0.000    0.000 
#    0.000    0.000    0.000    0.000    0.000    0.000 
#
# Total GULP energy -178716.524474 kJ/mol
# GULP energy per Si atom -5584.891390 kJ/mol
# Density = 2.099000 g / cm^3
# Si number density = 21.037882 Si / 1000 Ang^3
#
#
#
# Elastic Constant Matrix: (Units=GPa)
#
#
# Indices 1 2 3 4 5 6 
#
# 1 154.2290 2.5427 65.5125 0.0000 14.0775 0.0000
# 2 2.5427 46.9769 -7.6651 0.0000 0.2798 0.0000
# 3 65.5125 -7.6651 105.3121 0.0000 17.8546 0.0000
# 4 0.0000 0.0000 0.0000 21.5394 0.0000 -1.7292
# 5 14.0775 0.2798 17.8546 0.0000 33.6795 0.0000
# 6 0.0000 0.0000 0.0000 -1.7292 0.0000 8.2657
#
#
#
# Elastic Compliance Matrix: (Units=1/GPa)
#
#
# Indices 1 2 3 4 5 6 
#
# 1 0.008922 -0.001378 -0.005516 0.000000 -0.000794 0.000000
# 2 -0.001378 0.021794 0.002611 0.000000 -0.000989 0.000000
# 3 -0.005516 0.002611 0.013987 0.000000 -0.005131 0.000000
# 4 0.000000 0.000000 0.000000 0.047220 0.000000 0.009879
# 5 -0.000794 -0.000989 -0.005131 0.000000 0.032752 0.000000
# 6 0.000000 0.000000 0.000000 0.009879 0.000000 0.123048
#
#
# Mechanical properties :
#
#
# Convention : Reuss Voigt Hill
#
# Bulk Modulus (GPa) = 27.67257 47.47759 37.57508
# Shear Modulus (GPa) = 18.63352 29.10545 23.86948
#
# Velocity S-wave (km/s) = 2.97932 3.72355 3.37203
# Velocity P-wave (km/s) = 5.00174 6.41117 5.74980
#
# Compressibility (1/GPa) = 0.03613687
#
# Stress axis : x y z
#
# Youngs Moduli (GPa) = 112.08148 45.88498 71.49515
#
# Poissons Ratio (x) = 0.06324 0.39437
# Poissons Ratio (y) = 0.15447 -0.18670
# Poissons Ratio (z) = 0.61824 -0.11982
#
# Static dielectric constant tensor:
#      x y z
#    x 1.754580 0.000000 0.002340 
#    y 0.000000 1.810020 0.000000 
#    z 0.002340 0.000000 1.735750 
# 
# From -- ./inp_files/45127.got.cif
#   From: 2010.05.17/outbox.cif.g08.bks.cpg/sg11_23_cif.got.tgz:45127.got - 2010.06.03 12:22:45.
