data_PCOD9159862
_publ_section_title
;
Structure prediction by ZEFSAII (Michael W. Deem and Ramdas Pophale) SiO2 
 PCOD9159862
Probable space group: P 21/M
;
_chemical_formula_sum "Si O2"
_cell_formula_units_Z 30
_cell_length_a 12.484814
_cell_length_b 7.591870
_cell_length_c 17.356311
_cell_angle_alpha 90.000000
_cell_angle_beta 111.117622
_cell_angle_gamma 90.000000
_cell_volume 1534.605366
_symmetry_space_group_name_H-M "P 21/M"
_symmetry_group_IT_number 11
_symmetry_cell_setting 'monoclinic'
loop_
_space_group_symop_operation_xyz
x,y,z
-x,1/2+y,-z
-x,-y,-z
x,1/2-y,z
loop_
_atom_site_type_symbol
_atom_site_label
_atom_site_fract_x
_atom_site_fract_y
_atom_site_fract_z
Si Si1 0.480819 0.035968 0.704317
Si Si2 0.931493 0.454837 0.282976
Si Si3 0.782702 0.535999 0.393204
Si Si4 0.394890 0.540241 0.415559
Si Si5 0.756841 0.945438 0.111876
Si Si6 0.152098 0.044841 0.423152
Si Si7 0.340767 0.750000 0.006840
Si Si8 0.484878 0.546258 0.880455
O O1 0.484475 0.250000 0.711020
O O2 0.351346 0.986903 0.646184
O O3 0.567394 0.979710 0.659602
O O4 0.506328 0.960744 0.794839
O O5 0.944906 0.250000 0.265260
O O6 0.849706 0.468627 0.336513
O O7 0.867263 0.543806 0.195329
O O8 0.053160 0.531125 0.343063
O O9 0.786955 0.750000 0.393327
O O10 0.837031 0.471223 0.487586
O O11 0.500000 0.500000 0.500000
O O12 0.380966 0.750000 0.409207
O O13 0.276873 0.464322 0.417007
O O14 0.745789 0.750000 0.076644
O O15 0.748556 0.095969 0.046660
O O16 0.645591 0.986092 0.137001
O O17 0.120676 0.250000 0.424840
O O18 0.431214 0.592365 0.057757
O O19 0.491581 0.750000 0.910858
#
# Coordination Sequence:
#
# PCOD9159862 Si02
#       8
#     4   4   4   4   4   4   2   4
#     4  10  20  37  56  82 122 159 196 250 305 349
#     4  11  22  37  55  83 122 162 206 246 297 358
#     4  10  19  34  55  80 116 166 202 243 293 352
#     4  11  22  37  60  84 117 156 204 257 302 346
#     4  12  23  37  58  85 122 162 193 244 302 363
#     4  10  22  39  57  81 119 159 208 258 295 342
#     4  12  24  40  58  88 124 150 204 240 306 368
#     4  12  23  36  58  87 121 161 196 240 304 370
#
# _framework density 19.548999999999999
#
# number of rings (size 3 to 8) (size 9 to 14) (size 15 to 20)
#    0.000    1.067    5.333    2.000    0.000    2.667 
#    0.000    0.000    0.000    0.000    0.000    0.933 
#    0.000    0.000    0.000    0.000    0.000    0.000 
#
# Total GULP energy -167161.415865 kJ/mol
# GULP energy per Si atom -5572.047195 kJ/mol
# Density = 1.950451 g / cm^3
# Si number density = 19.549000 Si / 1000 Ang^3
#
#
#
# Elastic Constant Matrix: (Units=GPa)
#
#
# Indices 1 2 3 4 5 6 
#
# 1 28.3252 -2.4508 12.4588 0.0000 12.8989 0.0000
# 2 -2.4508 120.8214 34.9491 0.0000 12.0759 0.0000
# 3 12.4588 34.9491 97.8095 0.0000 28.5215 0.0000
# 4 0.0000 0.0000 0.0000 18.7840 0.0000 -3.3259
# 5 12.8989 12.0759 28.5215 0.0000 30.9177 0.0000
# 6 0.0000 0.0000 0.0000 -3.3259 0.0000 16.1883
#
#
#
# Elastic Compliance Matrix: (Units=1/GPa)
#
#
# Indices 1 2 3 4 5 6 
#
# 1 0.044653 0.003168 -0.001405 0.000000 -0.018571 0.000000
# 2 0.003168 0.009469 -0.003178 0.000000 -0.002088 0.000000
# 3 -0.001405 -0.003178 0.015056 0.000000 -0.012061 0.000000
# 4 0.000000 0.000000 0.000000 0.055247 0.000000 0.011351
# 5 -0.018571 -0.002088 -0.012061 0.000000 0.052034 0.000000
# 6 0.000000 0.000000 0.000000 0.011351 0.000000 0.064105
#
#
# Mechanical properties :
#
#
# Convention : Reuss Voigt Hill
#
# Bulk Modulus (GPa) = 15.07176 37.43004 26.25090
# Shear Modulus (GPa) = 18.83178 26.64460 22.73819
#
# Velocity S-wave (km/s) = 3.10709 3.69584 3.41418
# Velocity P-wave (km/s) = 4.53856 6.11561 5.38513
#
# Compressibility (1/GPa) = 0.06634926
#
# Stress axis : x y z
#
# Youngs Moduli (GPa) = 22.39477 105.60821 66.42057
#
# Poissons Ratio (x) = -0.33459 0.09329
# Poissons Ratio (y) = -0.07095 0.21108
# Poissons Ratio (z) = 0.03145 0.33562
#
# Static dielectric constant tensor:
#      x y z
#    x 1.650510 0.000000 -0.005590 
#    y 0.000000 1.706950 0.000000 
#    z -0.005590 0.000000 1.702900 
# 
# From -- ./inp_files/58911.got.cif
#   From: 2010.05.17/outbox.cif.g08.bks.cpg/sg11_30_cif.got.tgz:58911.got - 2010.06.03 12:22:45.
