data_PCOD9159382
_publ_section_title
;
Structure prediction by ZEFSAII (Michael W. Deem and Ramdas Pophale) SiO2 
 PCOD9159382
Probable space group: P 21/M
;
_chemical_formula_sum "Si O2"
_cell_formula_units_Z 32
_cell_length_a 21.401262
_cell_length_b 8.578181
_cell_length_c 23.883079
_cell_angle_alpha 90.000000
_cell_angle_beta 24.117371
_cell_angle_gamma 90.000000
_cell_volume 1791.558175
_symmetry_space_group_name_H-M "P 21/M"
_symmetry_group_IT_number 11
_symmetry_cell_setting 'monoclinic'
loop_
_space_group_symop_operation_xyz
x,y,z
-x,1/2+y,-z
-x,-y,-z
x,1/2-y,z
loop_
_atom_site_type_symbol
_atom_site_label
_atom_site_fract_x
_atom_site_fract_y
_atom_site_fract_z
Si Si1 0.654652 0.062537 0.242630
Si Si2 0.660865 0.562758 0.845569
Si Si3 0.811961 0.438650 0.227420
Si Si4 0.868904 0.937222 0.978873
Si Si5 0.147368 0.062197 0.412820
Si Si6 0.681520 0.562719 0.445795
Si Si7 0.043731 0.562903 0.329549
Si Si8 0.014237 0.936996 0.745998
O O1 0.658786 0.250000 0.238856
O O2 0.759824 0.008912 0.208821
O O3 0.481820 0.013912 0.396457
O O4 0.721603 0.002026 0.129998
O O5 0.655610 0.750000 0.851182
O O6 0.707231 0.512294 0.743753
O O7 0.802862 0.506027 0.767712
O O8 0.500000 0.500000 0.000000
O O9 0.805975 0.250000 0.234191
O O10 0.701957 0.504028 0.365604
O O11 0.982159 0.487482 0.106763
O O12 0.865015 0.750000 0.983060
O O13 0.899429 0.986180 0.890028
O O14 0.147955 0.250000 0.411191
O O15 0.104957 0.015651 0.511056
O O16 0.000000 0.000000 0.500000
O O17 0.691567 0.750000 0.438398
O O18 0.819935 0.492237 0.368414
O O19 0.055002 0.750000 0.322046
O O20 0.025944 0.506728 0.280937
O O21 0.012485 0.750000 0.744328
#
# Coordination Sequence:
#
# PCOD9159382 Si02
#       8
#     4   4   4   4   4   4   4   4
#     4  10  20  32  49  74 102 128 162 208 259 308
#     4  10  19  33  53  81 115 145 170 205 250 294
#     4   9  18  33  50  72 100 130 164 206 254 309
#     4   9  19  33  50  71  98 131 168 207 252 305
#     4   8  16  30  50  76 105 133 165 203 243 286
#     4  10  20  33  50  74  99 128 166 209 253 302
#     4  10  19  34  57  81 102 133 174 212 250 299
#     4  10  21  38  55  73  98 132 172 212 252 301
#
# _framework density 17.861547000000002
#
# number of rings (size 3 to 8) (size 9 to 14) (size 15 to 20)
#    0.000    2.500    0.000    3.000    0.000    5.000 
#    0.000    1.250    0.000    1.500    0.000    0.000 
#    0.000    0.000    0.000    0.000    0.000    0.000 
#
# Total GULP energy -178374.309922 kJ/mol
# GULP energy per Si atom -5574.197185 kJ/mol
# Density = 1.782089 g / cm^3
# Si number density = 17.861547 Si / 1000 Ang^3
#
#
#
# Elastic Constant Matrix: (Units=GPa)
#
#
# Indices 1 2 3 4 5 6 
#
# 1 79.6864 13.6621 45.4076 0.0000 30.7476 0.0000
# 2 13.6621 21.1759 22.5248 0.0000 6.8729 0.0000
# 3 45.4076 22.5248 153.4845 0.0000 31.8873 0.0000
# 4 0.0000 0.0000 0.0000 27.6574 0.0000 1.1005
# 5 30.7476 6.8729 31.8873 0.0000 20.4492 0.0000
# 6 0.0000 0.0000 0.0000 1.1005 0.0000 24.9327
#
#
#
# Elastic Compliance Matrix: (Units=1/GPa)
#
#
# Indices 1 2 3 4 5 6 
#
# 1 0.030632 -0.006323 0.001469 0.000000 -0.046224 0.000000
# 2 -0.006323 0.058375 -0.006798 0.000000 0.000487 0.000000
# 3 0.001469 -0.006798 0.010447 0.000000 -0.016214 0.000000
# 4 0.000000 0.000000 0.000000 0.036220 0.000000 -0.001599
# 5 -0.046224 0.000487 -0.016214 0.000000 0.143524 0.000000
# 6 0.000000 0.000000 0.000000 -0.001599 0.000000 0.040179
#
#
# Mechanical properties :
#
#
# Convention : Reuss Voigt Hill
#
# Bulk Modulus (GPa) = 13.13173 46.39287 29.76230
# Shear Modulus (GPa) = 13.58458 26.12469 19.85464
#
# Velocity S-wave (km/s) = 2.76080 3.82857 3.33766
# Velocity P-wave (km/s) = 4.18695 6.75085 5.61714
#
# Compressibility (1/GPa) = 0.07615143
#
# Stress axis : x y z
#
# Youngs Moduli (GPa) = 32.64544 17.13054 95.72166
#
# Poissons Ratio (x) = 0.10831 -0.14060
# Poissons Ratio (y) = 0.20641 0.65067
# Poissons Ratio (z) = -0.04795 0.11645
#
# Static dielectric constant tensor:
#      x y z
#    x 1.591060 0.000000 0.022050 
#    y 0.000000 1.605300 0.000000 
#    z 0.022050 0.000000 1.630340 
# 
# From -- ./inp_files/69955.got.cif
#   From: 2010.05.17/outbox.cif.g08.bks.cpg/sg11_35_cif.got.tgz:69955.got - 2010.06.03 12:22:45.
