data_PCOD9159739
_publ_section_title
;
Structure prediction by ZEFSAII (Michael W. Deem and Ramdas Pophale) SiO2 
 PCOD9159739
Probable space group: P 21/M
;
_chemical_formula_sum "Si O2"
_cell_formula_units_Z 28
_cell_length_a 32.094003
_cell_length_b 9.267990
_cell_length_c 9.789375
_cell_angle_alpha 90.000000
_cell_angle_beta 145.405148
_cell_angle_gamma 90.000000
_cell_volume 1653.242979
_symmetry_space_group_name_H-M "P 21/M"
_symmetry_group_IT_number 11
_symmetry_cell_setting 'monoclinic'
loop_
_space_group_symop_operation_xyz
x,y,z
-x,1/2+y,-z
-x,-y,-z
x,1/2-y,z
loop_
_atom_site_type_symbol
_atom_site_label
_atom_site_fract_x
_atom_site_fract_y
_atom_site_fract_z
Si Si1 0.808843 0.077835 0.801923
Si Si2 0.096927 0.921470 0.373252
Si Si3 0.422369 0.078779 0.787146
Si Si4 0.042592 0.578877 0.917028
Si Si5 0.265922 0.923368 0.865452
Si Si6 0.304968 0.078965 0.702650
Si Si7 0.692213 0.421239 0.713770
O O1 0.804746 0.250000 0.760452
O O2 0.894086 0.036764 0.019204
O O3 0.768090 0.053292 0.835404
O O4 0.761324 0.993611 0.561271
O O5 0.092248 0.750000 0.381535
O O6 0.077665 0.949789 0.162044
O O7 0.180042 0.966553 0.627552
O O8 0.034440 0.997671 0.293758
O O9 0.431090 0.250000 0.791353
O O10 0.377424 0.055368 0.806740
O O11 0.370753 0.011789 0.530325
O O12 0.500000 0.000000 0.000000
O O13 0.029712 0.750000 0.872099
O O14 0.269008 0.750000 0.852144
O O15 0.307182 0.004120 0.855273
O O16 0.297527 0.955265 0.100036
O O17 0.292956 0.250000 0.682513
O O18 0.676026 0.250000 0.656429
#
# Coordination Sequence:
#
# PCOD9159739 Si02
#       7
#     4   4   4   4   4   4   4
#     4   9  16  31  51  72  98 132 175 217 255 304
#     4   9  17  28  43  66  98 133 170 214 257 298
#     4  10  21  38  59  83 108 132 165 204 246 299
#     4   9  16  27  44  67  95 130 173 217 259 299
#     4  10  19  34  52  75 105 138 174 209 253 309
#     4  10  20  32  52  80 104 131 168 210 250 295
#     4   9  19  34  56  79 103 136 170 208 256 304
#
# _framework density 16.936409000000001
#
# number of rings (size 3 to 8) (size 9 to 14) (size 15 to 20)
#    0.000    2.571    1.429    0.857    0.000    3.429 
#    0.000    1.429    0.000    0.000    0.000    0.000 
#    0.000    0.000    0.000    0.000    0.000    0.000 
#
# Total GULP energy -156117.454243 kJ/mol
# GULP energy per Si atom -5575.623366 kJ/mol
# Density = 1.689786 g / cm^3
# Si number density = 16.936409 Si / 1000 Ang^3
#
#
#
# Elastic Constant Matrix: (Units=GPa)
#
#
# Indices 1 2 3 4 5 6 
#
# 1 108.3463 65.6023 64.0963 0.0000 -1.2833 0.0000
# 2 65.6023 52.2457 50.6067 0.0000 0.4429 0.0000
# 3 64.0963 50.6067 77.7328 0.0000 4.3486 0.0000
# 4 0.0000 0.0000 0.0000 20.4872 0.0000 5.1986
# 5 -1.2833 0.4429 4.3486 0.0000 30.2341 0.0000
# 6 0.0000 0.0000 0.0000 5.1986 0.0000 29.5113
#
#
#
# Elastic Compliance Matrix: (Units=1/GPa)
#
#
# Indices 1 2 3 4 5 6 
#
# 1 0.038702 -0.047566 -0.001085 0.000000 0.002496 0.000000
# 2 -0.047566 0.110793 -0.032970 0.000000 0.001100 0.000000
# 3 -0.001085 -0.032970 0.035485 0.000000 -0.004667 0.000000
# 4 0.000000 0.000000 0.000000 0.051095 0.000000 -0.009001
# 5 0.002496 0.001100 -0.004667 0.000000 0.033836 0.000000
# 6 0.000000 0.000000 0.000000 -0.009001 0.000000 0.035471
#
#
# Mechanical properties :
#
#
# Convention : Reuss Voigt Hill
#
# Bulk Modulus (GPa) = 46.00285 66.54837 56.27561
# Shear Modulus (GPa) = 10.50711 19.91449 15.21080
#
# Velocity S-wave (km/s) = 2.49346 3.43277 3.00010
# Velocity P-wave (km/s) = 5.95910 7.42228 6.73057
#
# Compressibility (1/GPa) = 0.02173779
#
# Stress axis : x y z
#
# Youngs Moduli (GPa) = 25.83878 9.02585 28.18122
#
# Poissons Ratio (x) = 0.42932 0.03057
# Poissons Ratio (y) = 1.22905 0.92913
# Poissons Ratio (z) = 0.02803 0.29758
#
# Static dielectric constant tensor:
#      x y z
#    x 1.587350 0.000000 0.001010 
#    y 0.000000 1.563580 0.000000 
#    z 0.001010 0.000000 1.540370 
# 
# From -- ./inp_files/28137.got.cif
#   From: 2010.05.17/outbox.cif.g08.bks.cpg/sg11_15_cif.got.tgz:28137.got - 2010.06.03 12:22:45.
