data_PCOD9159071
_publ_section_title
;
Structure prediction by ZEFSAII (Michael W. Deem and Ramdas Pophale) SiO2 
 PCOD9159071
Probable space group: P 21/M
;
_chemical_formula_sum "Si O2"
_cell_formula_units_Z 32
_cell_length_a 24.893430
_cell_length_b 8.380225
_cell_length_c 18.176969
_cell_angle_alpha 90.000000
_cell_angle_beta 27.195850
_cell_angle_gamma 90.000000
_cell_volume 1733.045342
_symmetry_space_group_name_H-M "P 21/M"
_symmetry_group_IT_number 11
_symmetry_cell_setting 'monoclinic'
loop_
_space_group_symop_operation_xyz
x,y,z
-x,1/2+y,-z
-x,-y,-z
x,1/2-y,z
loop_
_atom_site_type_symbol
_atom_site_label
_atom_site_fract_x
_atom_site_fract_y
_atom_site_fract_z
Si Si1 0.386999 0.441191 0.471778
Si Si2 0.688773 0.057157 0.590129
Si Si3 0.795197 0.442340 0.733010
Si Si4 0.467034 0.441675 0.958660
Si Si5 0.634131 0.557874 0.342359
Si Si6 0.344415 0.058437 0.844909
Si Si7 0.885227 0.058072 0.464634
Si Si8 0.131628 0.940026 0.199888
O O1 0.395479 0.250000 0.461940
O O2 0.316853 0.495869 0.485802
O O3 0.329376 0.493759 0.620059
O O4 0.520485 0.508181 0.305776
O O5 0.689970 0.250000 0.587072
O O6 0.799024 0.001773 0.504907
O O7 0.569544 0.007768 0.777794
O O8 0.802131 0.250000 0.723306
O O9 0.659647 0.490201 0.907343
O O10 0.840399 0.502260 0.599015
O O11 0.865419 0.500338 0.719129
O O12 0.462204 0.250000 0.964344
O O13 0.500000 0.500000 0.000000
O O14 0.500000 0.500000 0.500000
O O15 0.637012 0.750000 0.337826
O O16 0.689699 0.505750 0.197152
O O17 0.338461 0.250000 0.856824
O O18 0.253498 0.985901 0.012965
O O19 0.876402 0.250000 0.476624
O O20 0.020412 0.011068 0.293111
O O21 0.120365 0.750000 0.214818
#
# Coordination Sequence:
#
# PCOD9159071 Si02
#       8
#     4   4   4   4   4   4   4   4
#     4  10  19  32  53  83 113 136 167 215 261 303
#     4  10  21  36  53  75 105 142 179 212 254 315
#     4  10  21  38  55  75 104 136 173 218 264 311
#     4  11  21  34  53  76 104 136 172 213 258 308
#     4   8  16  30  50  77 107 138 168 203 253 310
#     4  10  19  34  55  78 108 143 174 205 254 317
#     4  10  21  39  56  70  99 141 181 217 258 310
#     4  11  23  36  54  80 105 131 174 225 266 304
#
# _framework density 18.464607000000001
#
# number of rings (size 3 to 8) (size 9 to 14) (size 15 to 20)
#    0.000    2.000    1.250    2.625    0.000    6.000 
#    0.000    0.000    0.000    0.750    0.000    0.000 
#    0.000    0.000    0.000    0.000    0.000    0.000 
#
# Total GULP energy -178544.314324 kJ/mol
# GULP energy per Si atom -5579.509823 kJ/mol
# Density = 1.842258 g / cm^3
# Si number density = 18.464607 Si / 1000 Ang^3
#
#
#
# Elastic Constant Matrix: (Units=GPa)
#
#
# Indices 1 2 3 4 5 6 
#
# 1 136.2241 8.8018 35.9864 0.0000 15.6857 0.0000
# 2 8.8018 5.5642 -0.4919 0.0000 4.9855 0.0000
# 3 35.9864 -0.4919 33.1021 0.0000 -1.6443 0.0000
# 4 0.0000 0.0000 0.0000 22.7826 0.0000 -0.8262
# 5 15.6857 4.9855 -1.6443 0.0000 30.2175 0.0000
# 6 0.0000 0.0000 0.0000 -0.8262 0.0000 24.3248
#
#
#
# Elastic Compliance Matrix: (Units=1/GPa)
#
#
# Indices 1 2 3 4 5 6 
#
# 1 0.012793 -0.017435 -0.014393 0.000000 -0.004548 0.000000
# 2 -0.017435 0.234722 0.021024 0.000000 -0.028532 0.000000
# 3 -0.014393 0.021024 0.046493 0.000000 0.006532 0.000000
# 4 0.000000 0.000000 0.000000 0.043947 0.000000 0.001493
# 5 -0.004548 -0.028532 0.006532 0.000000 0.040517 0.000000
# 6 0.000000 0.000000 0.000000 0.001493 0.000000 0.041161
#
#
# Mechanical properties :
#
#
# Convention : Reuss Voigt Hill
#
# Bulk Modulus (GPa) = 3.67104 29.27589 16.47347
# Shear Modulus (GPa) = 9.39779 24.17125 16.78452
#
# Velocity S-wave (km/s) = 2.25847 3.62202 3.01825
# Velocity P-wave (km/s) = 2.96536 5.77768 4.59211
#
# Compressibility (1/GPa) = 0.27240220
#
# Stress axis : x y z
#
# Youngs Moduli (GPa) = 78.16698 4.26036 21.50848
#
# Poissons Ratio (x) = 0.07428 0.30957
# Poissons Ratio (y) = 1.36282 -0.45220
# Poissons Ratio (z) = 1.12504 -0.08957
#
# Static dielectric constant tensor:
#      x y z
#    x 1.665560 0.000000 0.033260 
#    y 0.000000 1.638410 0.000000 
#    z 0.033260 0.000000 1.611470 
# 
# From -- ./inp_files/43936.got.cif
#   From: 2010.05.17/outbox.cif.g08.bks.cpg/sg11_22_cif.got.tgz:43936.got - 2010.06.03 12:22:45.
