data_PCOD9159338
_publ_section_title
;
Structure prediction by ZEFSAII (Michael W. Deem and Ramdas Pophale) SiO2 
 PCOD9159338
Probable space group: P 21/M
;
_chemical_formula_sum "Si O2"
_cell_formula_units_Z 28
_cell_length_a 19.634550
_cell_length_b 8.600290
_cell_length_c 23.940763
_cell_angle_alpha 90.000000
_cell_angle_beta 22.599654
_cell_angle_gamma 90.000000
_cell_volume 1553.570026
_symmetry_space_group_name_H-M "P 21/M"
_symmetry_group_IT_number 11
_symmetry_cell_setting 'monoclinic'
loop_
_space_group_symop_operation_xyz
x,y,z
-x,1/2+y,-z
-x,-y,-z
x,1/2-y,z
loop_
_atom_site_type_symbol
_atom_site_label
_atom_site_fract_x
_atom_site_fract_y
_atom_site_fract_z
Si Si1 0.010304 0.562866 0.054459
Si Si2 0.690988 0.066312 0.370457
Si Si3 0.850842 0.563414 0.654232
Si Si4 0.749024 0.070059 0.033131
Si Si5 0.873250 0.061598 0.761638
Si Si6 0.104152 0.070263 0.687162
Si Si7 0.461449 0.559816 0.909548
O O1 0.017477 0.750000 0.048703
O O2 0.836784 0.510673 0.219679
O O3 0.180240 0.503462 0.961953
O O4 0.000000 0.500000 0.000000
O O5 0.694076 0.250000 0.360356
O O6 0.500000 0.000000 0.500000
O O7 0.751615 0.024452 0.387555
O O8 0.853235 0.750000 0.651727
O O9 0.881896 0.504477 0.693403
O O10 0.655677 0.511198 0.781440
O O11 0.000000 0.500000 0.500000
O O12 0.700427 0.250000 0.080676
O O13 0.924448 0.070133 0.860851
O O14 0.598052 0.002549 0.107039
O O15 0.875103 0.250000 0.758625
O O16 0.036596 0.013928 0.678114
O O17 0.690207 0.013910 0.931131
O O18 0.162048 0.250000 0.639210
O O19 0.457467 0.750000 0.910664
#
# Coordination Sequence:
#
# PCOD9159338 Si02
#       7
#     4   4   4   4   4   4   4
#     4  10  19  33  53  77 105 137 172 214 263 315
#     4  11  21  34  53  77 106 139 174 214 257 305
#     4  11  22  34  49  71 103 138 170 206 252 304
#     4   7  12  26  49  73  96 124 163 208 252 298
#     4   9  17  33  57  79  99 125 163 210 258 308
#     4   8  15  30  52  76 100 128 163 207 257 307
#     4   8  15  30  53  77  96 123 166 211 251 297
#
# _framework density 18.023005000000001
#
# number of rings (size 3 to 8) (size 9 to 14) (size 15 to 20)
#    0.000    2.857    0.000    5.143    0.000    0.571 
#    0.000    2.143    0.000   15.429    0.000    0.000 
#    0.000    0.000    0.000    0.000    0.000    0.000 
#
# Total GULP energy -155992.948985 kJ/mol
# GULP energy per Si atom -5571.176749 kJ/mol
# Density = 1.798198 g / cm^3
# Si number density = 18.023005 Si / 1000 Ang^3
#
#
#
# Elastic Constant Matrix: (Units=GPa)
#
#
# Indices 1 2 3 4 5 6 
#
# 1 214.2064 41.8848 75.6820 0.0000 3.6233 0.0000
# 2 41.8848 43.1247 20.3630 0.0000 -2.9123 0.0000
# 3 75.6820 20.3630 64.6270 0.0000 -1.3066 0.0000
# 4 0.0000 0.0000 0.0000 21.2034 0.0000 3.5052
# 5 3.6233 -2.9123 -1.3066 0.0000 23.6172 0.0000
# 6 0.0000 0.0000 0.0000 3.5052 0.0000 30.3959
#
#
#
# Elastic Compliance Matrix: (Units=1/GPa)
#
#
# Indices 1 2 3 4 5 6 
#
# 1 0.008698 -0.004435 -0.008836 0.000000 -0.002370 0.000000
# 2 -0.004435 0.029702 -0.004081 0.000000 0.004117 0.000000
# 3 -0.008836 -0.004081 0.027154 0.000000 0.002355 0.000000
# 4 0.000000 0.000000 0.000000 0.048079 0.000000 -0.005544
# 5 -0.002370 0.004117 0.002355 0.000000 0.043344 0.000000
# 6 0.000000 0.000000 0.000000 -0.005544 0.000000 0.033539
#
#
# Mechanical properties :
#
#
# Convention : Reuss Voigt Hill
#
# Bulk Modulus (GPa) = 32.41636 66.42417 49.42027
# Shear Modulus (GPa) = 21.23128 27.31185 24.27156
#
# Velocity S-wave (km/s) = 3.43594 3.89702 3.67372
# Velocity P-wave (km/s) = 5.81086 7.56203 6.74353
#
# Compressibility (1/GPa) = 0.03084862
#
# Stress axis : x y z
#
# Youngs Moduli (GPa) = 114.97506 33.66824 36.82687
#
# Poissons Ratio (x) = 0.14933 0.32539
# Poissons Ratio (y) = 0.50996 0.15030
# Poissons Ratio (z) = 1.01589 0.13741
#
# Static dielectric constant tensor:
#      x y z
#    x 1.659060 0.000000 -0.010780 
#    y 0.000000 1.580430 0.000000 
#    z -0.010780 0.000000 1.589910 
# 
# From -- ./inp_files/65986.got.cif
#   From: 2010.05.17/outbox.cif.g08.bks.cpg/sg11_33_cif.got.tgz:65986.got - 2010.06.03 12:22:45.
