data_PCOD9159521
_publ_section_title
;
Structure prediction by ZEFSAII (Michael W. Deem and Ramdas Pophale) SiO2 
 PCOD9159521
Probable space group: P 21/M
;
_chemical_formula_sum "Si O2"
_cell_formula_units_Z 32
_cell_length_a 13.566534
_cell_length_b 7.516681
_cell_length_c 31.767082
_cell_angle_alpha 90.000000
_cell_angle_beta 153.279256
_cell_angle_gamma 90.000000
_cell_volume 1456.597711
_symmetry_space_group_name_H-M "P 21/M"
_symmetry_group_IT_number 11
_symmetry_cell_setting 'monoclinic'
loop_
_space_group_symop_operation_xyz
x,y,z
-x,1/2+y,-z
-x,-y,-z
x,1/2-y,z
loop_
_atom_site_type_symbol
_atom_site_label
_atom_site_fract_x
_atom_site_fract_y
_atom_site_fract_z
Si Si1 0.982308 0.457220 0.798151
Si Si2 0.021305 0.960278 0.109590
Si Si3 0.720300 0.037392 0.557908
Si Si4 0.581321 0.465464 0.891290
Si Si5 0.745705 0.460948 0.396123
Si Si6 0.587809 0.457321 0.798607
Si Si7 0.142165 0.468679 0.770904
Si Si8 0.476938 0.966274 0.603055
O O1 0.046291 0.250000 0.825146
O O2 0.723642 0.470125 0.689470
O O3 0.008621 0.536450 0.854859
O O4 0.110732 0.531304 0.806935
O O5 0.067244 0.750000 0.133158
O O6 0.226219 0.035689 0.161305
O O7 0.802916 0.981437 0.999254
O O8 0.744718 0.250000 0.564655
O O9 0.678201 0.973430 0.494337
O O10 0.934134 0.970880 0.663796
O O11 0.500000 0.000000 0.500000
O O12 0.572693 0.250000 0.887217
O O13 0.579862 0.531904 0.842572
O O14 0.367707 0.524965 0.835448
O O15 0.717949 0.250000 0.383984
O O16 0.641031 0.533068 0.313396
O O17 0.610318 0.528117 0.385007
O O18 0.000000 0.500000 0.500000
O O19 0.645952 0.250000 0.826145
O O20 0.137461 0.250000 0.769718
O O21 0.480685 0.750000 0.604622
#
# Coordination Sequence:
#
# PCOD9159521 Si02
#       8
#     4   4   4   4   4   4   4   4
#     4  10  19  35  59  82 111 150 187 230 282 335
#     4  10  21  37  58  84 111 143 189 243 292 335
#     4  10  19  33  55  81 110 146 184 224 269 327
#     4  10  22  38  59  83 111 151 192 232 285 344
#     4  11  24  39  58  86 119 153 187 231 282 335
#     4  10  21  39  62  85 113 150 190 234 284 341
#     4   9  19  35  55  81 113 150 188 225 276 339
#     4  10  21  35  55  84 113 145 187 233 276 327
#
# _framework density 21.969003000000001
#
# number of rings (size 3 to 8) (size 9 to 14) (size 15 to 20)
#    0.000    2.000    2.500    0.750    1.750    2.500 
#    0.000    1.250    0.000    0.000    0.000    0.000 
#    0.000    0.000    0.000    0.000    0.000    0.000 
#
# Total GULP energy -178810.382102 kJ/mol
# GULP energy per Si atom -5587.824441 kJ/mol
# Density = 2.191900 g / cm^3
# Si number density = 21.969003 Si / 1000 Ang^3
#
#
#
# Elastic Constant Matrix: (Units=GPa)
#
#
# Indices 1 2 3 4 5 6 
#
# 1 171.2622 6.7104 79.9187 0.0000 -30.4691 0.0000
# 2 6.7104 57.0891 -16.9849 0.0000 -2.7308 0.0000
# 3 79.9187 -16.9849 130.2374 0.0000 -10.9813 0.0000
# 4 0.0000 0.0000 0.0000 24.8508 0.0000 1.7225
# 5 -30.4691 -2.7308 -10.9813 0.0000 36.0206 0.0000
# 6 0.0000 0.0000 0.0000 1.7225 0.0000 -3.6006
#
#
#
# Elastic Compliance Matrix: (Units=1/GPa)
#
#
# Indices 1 2 3 4 5 6 
#
# 1 0.009765 -0.002571 -0.005797 0.000000 0.006298 0.000000
# 2 -0.002571 0.019066 0.004108 0.000000 0.000523 0.000000
# 3 -0.005797 0.004108 0.011684 0.000000 -0.001030 0.000000
# 4 0.000000 0.000000 0.000000 0.038949 0.000000 0.018633
# 5 0.006298 0.000523 -0.001030 0.000000 0.032815 0.000000
# 6 0.000000 0.000000 0.000000 0.018633 0.000000 -0.268821
#
#
# Mechanical properties :
#
#
# Convention : Reuss Voigt Hill
#
# Bulk Modulus (GPa) = 31.25319 55.31967 43.28643
# Shear Modulus (GPa) = -36.40140 30.71711 -2.84214
#
# Velocity S-wave (km/s) = -4.07497 3.74331 -1.13865
# Velocity P-wave (km/s) = 2.80778 6.62711 4.24470
#
# Compressibility (1/GPa) = 0.03199674
#
# Stress axis : x y z
#
# Youngs Moduli (GPa) = 102.40478 52.44934 85.58527
#
# Poissons Ratio (x) = 0.13485 0.49610
# Poissons Ratio (y) = 0.26330 -0.35161
# Poissons Ratio (z) = 0.59360 -0.21548
#
# Static dielectric constant tensor:
#      x y z
#    x 1.807250 0.000000 -0.027600 
#    y 0.000000 1.827230 0.000000 
#    z -0.027600 0.000000 1.744840 
# 
# From -- ./inp_files/45341.got.cif
#   From: 2010.05.17/outbox.cif.g08.bks.cpg/sg11_23_cif.got.tgz:45341.got - 2010.06.03 12:22:45.
