data_PCOD9159477
_publ_section_title
;
Structure prediction by ZEFSAII (Michael W. Deem and Ramdas Pophale) SiO2 
 PCOD9159477
Probable space group: P 21/M
;
_chemical_formula_sum "Si O2"
_cell_formula_units_Z 32
_cell_length_a 22.400081
_cell_length_b 8.836760
_cell_length_c 28.810700
_cell_angle_alpha 90.000000
_cell_angle_beta 18.752823
_cell_angle_gamma 90.000000
_cell_volume 1833.406165
_symmetry_space_group_name_H-M "P 21/M"
_symmetry_group_IT_number 11
_symmetry_cell_setting 'monoclinic'
loop_
_space_group_symop_operation_xyz
x,y,z
-x,1/2+y,-z
-x,-y,-z
x,1/2-y,z
loop_
_atom_site_type_symbol
_atom_site_label
_atom_site_fract_x
_atom_site_fract_y
_atom_site_fract_z
Si Si1 0.081381 0.567993 0.597423
Si Si2 0.561355 0.432460 0.405835
Si Si3 0.633405 0.931351 0.544689
Si Si4 0.305515 0.067369 0.158892
Si Si5 0.375207 0.930310 0.300565
Si Si6 0.950651 0.931744 0.086437
Si Si7 0.657219 0.430700 0.160508
Si Si8 0.200528 0.431054 0.341068
O O1 0.084252 0.750000 0.598199
O O2 0.183636 0.501931 0.567095
O O3 0.209131 0.526388 0.458752
O O4 0.871076 0.518529 0.742271
O O5 0.500000 0.500000 0.500000
O O6 0.565559 0.250000 0.404629
O O7 0.422144 0.477458 0.466323
O O8 0.763432 0.494663 0.243265
O O9 0.651482 0.750000 0.532073
O O10 0.462373 0.970644 0.705289
O O11 0.313969 0.250000 0.150561
O O12 0.261811 0.024669 0.244247
O O13 0.500000 0.000000 0.000000
O O14 0.370128 0.750000 0.298710
O O15 0.562570 0.982907 0.187806
O O16 0.339191 0.009671 0.278340
O O17 0.931068 0.750000 0.097325
O O18 0.128211 0.964109 0.988284
O O19 0.000000 0.000000 0.000000
O O20 0.636635 0.250000 0.168830
O O21 0.187720 0.250000 0.352100
O O22 0.000000 0.500000 0.500000
#
# Coordination Sequence:
#
# PCOD9159477 Si02
#       8
#     4   4   4   4   4   4   4   4
#     4   9  18  34  54  80 112 141 180 231 276 329
#     4  11  23  40  58  84 118 153 195 240 287 345
#     4   9  18  34  55  81 111 143 185 231 277 337
#     4  10  22  39  56  81 114 146 185 229 275 329
#     4  10  19  33  54  84 115 144 184 234 284 333
#     4  11  21  36  59  86 116 150 189 236 287 341
#     4   9  18  34  54  82 115 147 185 232 284 336
#     4  11  21  36  57  82 113 146 184 231 279 333
#
# _framework density 17.453852000000001
#
# number of rings (size 3 to 8) (size 9 to 14) (size 15 to 20)
#    0.000    2.000    2.500    1.500    0.000    4.000 
#    0.000    1.250    0.000    1.500    0.000    0.000 
#    0.000    0.000    0.000    0.000    0.000    0.000 
#
# Total GULP energy -178612.713585 kJ/mol
# GULP energy per Si atom -5581.647300 kJ/mol
# Density = 1.741413 g / cm^3
# Si number density = 17.453852 Si / 1000 Ang^3
#
#
#
# Elastic Constant Matrix: (Units=GPa)
#
#
# Indices 1 2 3 4 5 6 
#
# 1 165.6585 54.4928 86.7793 0.0000 -14.5203 0.0000
# 2 54.4928 41.7258 44.2170 0.0000 -4.7449 0.0000
# 3 86.7793 44.2170 126.8242 0.0000 -9.9766 0.0000
# 4 0.0000 0.0000 0.0000 30.6686 0.0000 -3.3825
# 5 -14.5203 -4.7449 -9.9766 0.0000 28.8761 0.0000
# 6 0.0000 0.0000 0.0000 -3.3825 0.0000 33.7202
#
#
#
# Elastic Compliance Matrix: (Units=1/GPa)
#
#
# Indices 1 2 3 4 5 6 
#
# 1 0.012131 -0.011040 -0.004230 0.000000 0.002825 0.000000
# 2 -0.011040 0.048138 -0.009296 0.000000 -0.000853 0.000000
# 3 -0.004230 -0.009296 0.014116 0.000000 0.001223 0.000000
# 4 0.000000 0.000000 0.000000 0.032971 0.000000 0.003307
# 5 0.002825 -0.000853 0.001223 0.000000 0.036333 0.000000
# 6 0.000000 0.000000 0.000000 0.003307 0.000000 0.029988
#
#
# Mechanical properties :
#
#
# Convention : Reuss Voigt Hill
#
# Bulk Modulus (GPa) = 39.59746 78.35407 58.97576
# Shear Modulus (GPa) = 21.62372 28.56762 25.09567
#
# Velocity S-wave (km/s) = 3.52363 4.05007 3.79599
# Velocity P-wave (km/s) = 6.26824 8.17682 7.28530
#
# Compressibility (1/GPa) = 0.02525415
#
# Stress axis : x y z
#
# Youngs Moduli (GPa) = 82.43177 20.77361 70.83973
#
# Poissons Ratio (x) = 0.22934 0.29962
# Poissons Ratio (y) = 0.91003 0.65855
# Poissons Ratio (z) = 0.34865 0.19312
#
# Static dielectric constant tensor:
#      x y z
#    x 1.593240 0.000000 -0.013740 
#    y 0.000000 1.586320 0.000000 
#    z -0.013740 0.000000 1.572440 
# 
# From -- ./inp_files/72014.got.cif
#   From: 2010.05.17/outbox.cif.g08.bks.cpg/sg11_37_cif.got.tgz:72014.got - 2010.06.03 12:22:45.
