data_PCOD9159287
_publ_section_title
;
Structure prediction by ZEFSAII (Michael W. Deem and Ramdas Pophale) SiO2 
 PCOD9159287
Probable space group: P 21/M
;
_chemical_formula_sum "Si O2"
_cell_formula_units_Z 28
_cell_length_a 15.628024
_cell_length_b 11.557849
_cell_length_c 8.894538
_cell_angle_alpha 90.000000
_cell_angle_beta 120.543522
_cell_angle_gamma 90.000000
_cell_volume 1383.663165
_symmetry_space_group_name_H-M "P 21/M"
_symmetry_group_IT_number 11
_symmetry_cell_setting 'monoclinic'
loop_
_space_group_symop_operation_xyz
x,y,z
-x,1/2+y,-z
-x,-y,-z
x,1/2-y,z
loop_
_atom_site_type_symbol
_atom_site_label
_atom_site_fract_x
_atom_site_fract_y
_atom_site_fract_z
Si Si1 0.995130 0.047328 0.229710
Si Si2 0.327965 0.040006 0.178868
Si Si3 0.648552 0.114847 0.528048
Si Si4 0.877302 0.627186 0.914598
Si Si5 0.501065 0.387019 0.117375
Si Si6 0.838283 0.112331 0.516245
Si Si7 0.209604 0.880406 0.843523
O O1 0.060396 0.957592 0.381938
O O2 0.076261 0.119273 0.209473
O O3 0.909311 0.117049 0.235994
O O4 0.930235 0.972877 0.054667
O O5 0.240694 0.115166 0.176792
O O6 0.402965 0.104579 0.134974
O O7 0.379071 0.968478 0.359363
O O8 0.268860 0.951373 0.018855
O O9 0.635999 0.250000 0.558562
O O10 0.588027 0.096955 0.319636
O O11 0.765478 0.095695 0.593324
O O12 0.907850 0.750000 0.009502
O O13 0.508472 0.250000 0.066638
O O14 0.500000 0.500000 0.000000
O O15 0.855188 0.250000 0.517977
O O16 0.779862 0.072774 0.315274
O O17 0.246447 0.750000 0.881517
#
# Coordination Sequence:
#
# PCOD9159287 Si02
#       7
#     4   4   4   4   4   4   4
#     4  10  19  33  52  78 114 158 202 247 297 352
#     4  11  21  39  62  88 122 154 201 251 306 368
#     4  10  21  38  63  92 121 159 207 258 311 374
#     4  10  20  33  52  80 114 151 195 249 303 352
#     4  11  25  45  69  95 127 162 202 255 316 380
#     4  10  19  34  54  81 117 155 201 251 304 358
#     4  10  21  34  56  86 118 161 205 251 299 360
#
# _framework density 20.236138
#
# number of rings (size 3 to 8) (size 9 to 14) (size 15 to 20)
#    0.000    1.714    1.429    3.429    0.000    2.286 
#    0.000    1.429    0.000    3.429    0.000    0.000 
#    0.000    0.000    0.000    0.000    0.000    0.000 
#
# Total GULP energy -155987.985682 kJ/mol
# GULP energy per Si atom -5570.999489 kJ/mol
# Density = 2.019008 g / cm^3
# Si number density = 20.236138 Si / 1000 Ang^3
#
#
#
# Elastic Constant Matrix: (Units=GPa)
#
#
# Indices 1 2 3 4 5 6 
#
# 1 103.7231 21.3837 11.6221 0.0000 0.5807 0.0000
# 2 21.3837 82.5434 28.8604 0.0000 -6.7484 0.0000
# 3 11.6221 28.8604 68.8409 0.0000 -0.5485 0.0000
# 4 0.0000 0.0000 0.0000 33.1211 0.0000 -2.6502
# 5 0.5807 -6.7484 -0.5485 0.0000 30.3641 0.0000
# 6 0.0000 0.0000 0.0000 -2.6502 0.0000 19.1743
#
#
#
# Elastic Compliance Matrix: (Units=1/GPa)
#
#
# Indices 1 2 3 4 5 6 
#
# 1 0.010232 -0.002468 -0.000699 0.000000 -0.000757 0.000000
# 2 -0.002468 0.015079 -0.005879 0.000000 0.003292 0.000000
# 3 -0.000699 -0.005879 0.017101 0.000000 -0.000984 0.000000
# 4 0.000000 0.000000 0.000000 0.030530 0.000000 0.004220
# 5 -0.000757 0.003292 -0.000984 0.000000 0.033662 0.000000
# 6 0.000000 0.000000 0.000000 0.004220 0.000000 0.052736
#
#
# Mechanical properties :
#
#
# Convention : Reuss Voigt Hill
#
# Bulk Modulus (GPa) = 41.11710 42.09332 41.60521
# Shear Modulus (GPa) = 26.94857 29.41466 28.18162
#
# Velocity S-wave (km/s) = 3.65321 3.81671 3.73586
# Velocity P-wave (km/s) = 6.17717 6.34580 6.26205
#
# Compressibility (1/GPa) = 0.02432078
#
# Stress axis : x y z
#
# Youngs Moduli (GPa) = 97.72804 66.31810 58.47663
#
# Poissons Ratio (x) = 0.16370 0.04086
# Poissons Ratio (y) = 0.24123 0.34376
# Poissons Ratio (z) = 0.06828 0.38986
#
# Static dielectric constant tensor:
#      x y z
#    x 1.791910 0.000000 -0.008520 
#    y 0.000000 1.720940 0.000000 
#    z -0.008520 0.000000 1.715310 
# 
# From -- ./inp_files/21617.got.cif
#   From: 2010.05.17/outbox.cif.g08.bks.cpg/sg11_11_cif.got.tgz:21617.got - 2010.06.03 12:22:45.
