data_PCOD9159026
_publ_section_title
;
Structure prediction by ZEFSAII (Michael W. Deem and Ramdas Pophale) SiO2 
 PCOD9159026
Probable space group: P 21/M
;
_chemical_formula_sum "Si O2"
_cell_formula_units_Z 28
_cell_length_a 17.126266
_cell_length_b 11.656522
_cell_length_c 20.435467
_cell_angle_alpha 90.000000
_cell_angle_beta 20.633034
_cell_angle_gamma 90.000000
_cell_volume 1437.570210
_symmetry_space_group_name_H-M "P 21/M"
_symmetry_group_IT_number 11
_symmetry_cell_setting 'monoclinic'
loop_
_space_group_symop_operation_xyz
x,y,z
-x,1/2+y,-z
-x,-y,-z
x,1/2-y,z
loop_
_atom_site_type_symbol
_atom_site_label
_atom_site_fract_x
_atom_site_fract_y
_atom_site_fract_z
Si Si1 0.509622 0.115531 0.263437
Si Si2 0.173378 0.881777 0.155395
Si Si3 0.035428 0.522621 0.128041
Si Si4 0.415819 0.116778 0.482363
Si Si5 0.864910 0.378638 0.667937
Si Si6 0.653677 0.559027 0.744139
Si Si7 0.935193 0.116379 0.092893
O O1 0.452259 0.250000 0.297900
O O2 0.422429 0.076022 0.401736
O O3 0.413255 0.043102 0.279176
O O4 0.776195 0.104186 0.051504
O O5 0.091101 0.750000 0.210112
O O6 0.090238 0.963688 0.162144
O O7 0.112397 0.923575 0.275582
O O8 0.439848 0.878674 0.940927
O O9 0.780252 0.560459 0.323342
O O10 0.045917 0.407059 0.077112
O O11 0.358196 0.250000 0.525050
O O12 0.668430 0.110335 0.307622
O O13 0.783749 0.250000 0.738961
O O14 0.700285 0.449057 0.751751
O O15 0.108212 0.380078 0.444830
O O16 0.985352 0.250000 0.031398
O O17 0.000000 0.000000 0.000000
#
# Coordination Sequence:
#
# PCOD9159026 Si02
#       7
#     4   4   4   4   4   4   4
#     4  10  19  33  56  85 115 148 195 244 289 345
#     4  10  20  34  56  84 109 142 190 236 287 344
#     4  11  20  35  59  86 117 147 189 241 299 341
#     4  10  20  35  60  90 117 151 196 244 292 350
#     4  10  20  34  52  78 109 145 189 236 282 339
#     4  10  19  32  53  78 109 143 181 235 283 334
#     4  11  24  42  63  90 123 158 200 243 294 354
#
# _framework density 19.477309000000002
#
# number of rings (size 3 to 8) (size 9 to 14) (size 15 to 20)
#    0.000    1.714    1.429    5.143    0.000    3.429 
#    0.000    3.571    0.000    8.571    0.000    0.000 
#    0.000    0.000    0.000    0.000    0.000    0.000 
#
# Total GULP energy -155881.728540 kJ/mol
# GULP energy per Si atom -5567.204591 kJ/mol
# Density = 1.943298 g / cm^3
# Si number density = 19.477309 Si / 1000 Ang^3
#
#
#
# Elastic Constant Matrix: (Units=GPa)
#
#
# Indices 1 2 3 4 5 6 
#
# 1 97.9806 52.9113 2.0205 0.0000 2.4765 0.0000
# 2 52.9113 76.6857 19.8188 0.0000 0.5988 0.0000
# 3 2.0205 19.8188 87.3391 0.0000 0.2022 0.0000
# 4 0.0000 0.0000 0.0000 15.4112 0.0000 1.8635
# 5 2.4765 0.5988 0.2022 0.0000 26.9280 0.0000
# 6 0.0000 0.0000 0.0000 1.8635 0.0000 87.8004
#
#
#
# Elastic Compliance Matrix: (Units=1/GPa)
#
#
# Indices 1 2 3 4 5 6 
#
# 1 0.016761 -0.012169 0.002377 0.000000 -0.001289 0.000000
# 2 -0.012169 0.022690 -0.004869 0.000000 0.000651 0.000000
# 3 0.002377 -0.004869 0.012500 0.000000 -0.000204 0.000000
# 4 0.000000 0.000000 0.000000 0.065055 0.000000 -0.001381
# 5 -0.001289 0.000651 -0.000204 0.000000 0.037242 0.000000
# 6 0.000000 0.000000 0.000000 -0.001381 0.000000 0.011419
#
#
# Mechanical properties :
#
#
# Convention : Reuss Voigt Hill
#
# Bulk Modulus (GPa) = 44.19175 45.72296 44.95736
# Shear Modulus (GPa) = 24.68757 38.51155 31.59956
#
# Velocity S-wave (km/s) = 3.56406 4.45145 4.03225
# Velocity P-wave (km/s) = 6.29880 7.06729 6.69408
#
# Compressibility (1/GPa) = 0.02262866
#
# Stress axis : x y z
#
# Youngs Moduli (GPa) = 59.66185 44.07281 80.00060
#
# Poissons Ratio (x) = 0.53632 -0.19013
# Poissons Ratio (y) = 0.72602 0.38950
# Poissons Ratio (z) = -0.14179 0.21458
#
# Static dielectric constant tensor:
#      x y z
#    x 1.745330 0.000000 0.007460 
#    y 0.000000 1.701460 0.000000 
#    z 0.007460 0.000000 1.727450 
# 
# From -- ./inp_files/66172.got.cif
#   From: 2010.05.17/outbox.cif.g08.bks.cpg/sg11_34_cif.got.tgz:66172.got - 2010.06.03 12:22:45.
