data_PCOD9159351
_publ_section_title
;
Structure prediction by ZEFSAII (Michael W. Deem and Ramdas Pophale) SiO2 
 PCOD9159351
Probable space group: P 21/M
;
_chemical_formula_sum "Si O2"
_cell_formula_units_Z 28
_cell_length_a 15.847228
_cell_length_b 8.547734
_cell_length_c 12.296060
_cell_angle_alpha 90.000000
_cell_angle_beta 63.151554
_cell_angle_gamma 90.000000
_cell_volume 1486.053938
_symmetry_space_group_name_H-M "P 21/M"
_symmetry_group_IT_number 11
_symmetry_cell_setting 'monoclinic'
loop_
_space_group_symop_operation_xyz
x,y,z
-x,1/2+y,-z
-x,-y,-z
x,1/2-y,z
loop_
_atom_site_type_symbol
_atom_site_label
_atom_site_fract_x
_atom_site_fract_y
_atom_site_fract_z
Si Si1 0.906029 0.560875 0.613308
Si Si2 0.178789 0.562836 0.705591
Si Si3 0.267578 0.437033 0.436290
Si Si4 0.798628 0.560682 0.070868
Si Si5 0.039108 0.059615 0.179941
Si Si6 0.629724 0.561244 0.008127
Si Si7 0.581471 0.063408 0.805243
O O1 0.906702 0.750000 0.611215
O O2 0.814892 0.507398 0.598909
O O3 0.910987 0.511765 0.736312
O O4 0.000000 0.500000 0.500000
O O5 0.178419 0.750000 0.699690
O O6 0.240500 0.497856 0.570780
O O7 0.213676 0.508563 0.802894
O O8 0.069510 0.506642 0.757520
O O9 0.266863 0.250000 0.437661
O O10 0.365900 0.495288 0.329645
O O11 0.798644 0.750000 0.078182
O O12 0.715145 0.514823 0.036733
O O13 0.897803 0.509007 0.958819
O O14 0.038117 0.250000 0.179156
O O15 0.631625 0.750000 0.997524
O O16 0.528023 0.514226 0.117099
O O17 0.633727 0.493691 0.884492
O O18 0.584037 0.250000 0.799270
#
# Coordination Sequence:
#
# PCOD9159351 Si02
#       7
#     4   4   4   4   4   4   4
#     4  10  19  33  53  78 108 141 177 218 268 321
#     4  11  22  36  53  77 112 147 185 231 272 318
#     4  11  22  36  56  81 111 150 187 221 272 333
#     4  10  20  37  58  78 106 145 187 225 269 328
#     4   9  18  33  54  78 108 143 177 220 271 320
#     4   9  19  37  60  85 113 143 178 224 277 330
#     4  10  20  35  59  88 114 141 176 225 279 328
#
# _framework density 18.841846
#
# number of rings (size 3 to 8) (size 9 to 14) (size 15 to 20)
#    0.000    2.000    1.429    2.571    0.000    4.000 
#    0.000    2.143    0.000    0.000    0.000    0.000 
#    0.000    0.000    0.000    0.000    0.000    0.000 
#
# Total GULP energy -156381.363437 kJ/mol
# GULP energy per Si atom -5585.048694 kJ/mol
# Density = 1.879896 g / cm^3
# Si number density = 18.841846 Si / 1000 Ang^3
#
#
#
# Elastic Constant Matrix: (Units=GPa)
#
#
# Indices 1 2 3 4 5 6 
#
# 1 49.9450 15.7692 53.1507 0.0000 2.6838 0.0000
# 2 15.7692 17.9372 30.9025 0.0000 -0.3851 0.0000
# 3 53.1507 30.9025 169.5850 0.0000 -2.9892 0.0000
# 4 0.0000 0.0000 0.0000 28.7149 0.0000 0.7931
# 5 2.6838 -0.3851 -2.9892 0.0000 24.3623 0.0000
# 6 0.0000 0.0000 0.0000 0.7931 0.0000 18.0659
#
#
#
# Elastic Compliance Matrix: (Units=1/GPa)
#
#
# Indices 1 2 3 4 5 6 
#
# 1 0.033599 -0.016547 -0.007601 0.000000 -0.004896 0.000000
# 2 -0.016547 0.089417 -0.011075 0.000000 0.001877 0.000000
# 3 -0.007601 -0.011075 0.010331 0.000000 0.001930 0.000000
# 4 0.000000 0.000000 0.000000 0.034867 0.000000 -0.001531
# 5 -0.004896 0.001877 0.001930 0.000000 0.041853 0.000000
# 6 0.000000 0.000000 0.000000 -0.001531 0.000000 0.055420
#
#
# Mechanical properties :
#
#
# Convention : Reuss Voigt Hill
#
# Bulk Modulus (GPa) = 15.89806 48.56800 32.23303
# Shear Modulus (GPa) = 14.00948 23.40493 18.70721
#
# Velocity S-wave (km/s) = 2.72973 3.52828 3.15438
# Velocity P-wave (km/s) = 4.28850 6.51391 5.51462
#
# Compressibility (1/GPa) = 0.06290075
#
# Stress axis : x y z
#
# Youngs Moduli (GPa) = 29.76290 11.18355 96.79337
#
# Poissons Ratio (x) = 0.18505 0.73577
# Poissons Ratio (y) = 0.49249 1.07197
# Poissons Ratio (z) = 0.22624 0.12386
#
# Static dielectric constant tensor:
#      x y z
#    x 1.654480 0.000000 -0.013230 
#    y 0.000000 1.637010 0.000000 
#    z -0.013230 0.000000 1.633140 
# 
# From -- ./inp_files/37675.got.cif
#   From: 2010.05.17/outbox.cif.g08.bks.cpg/sg11_19_cif.got.tgz:37675.got - 2010.06.03 12:22:45.
