data_PCOD9159269
_publ_section_title
;
Structure prediction by ZEFSAII (Michael W. Deem and Ramdas Pophale) SiO2 
 PCOD9159269
Probable space group: P 21/M
;
_chemical_formula_sum "Si O2"
_cell_formula_units_Z 28
_cell_length_a 9.744262
_cell_length_b 8.825702
_cell_length_c 28.843326
_cell_angle_alpha 90.000000
_cell_angle_beta 139.571160
_cell_angle_gamma 90.000000
_cell_volume 1608.628041
_symmetry_space_group_name_H-M "P 21/M"
_symmetry_group_IT_number 11
_symmetry_cell_setting 'monoclinic'
loop_
_space_group_symop_operation_xyz
x,y,z
-x,1/2+y,-z
-x,-y,-z
x,1/2-y,z
loop_
_atom_site_type_symbol
_atom_site_label
_atom_site_fract_x
_atom_site_fract_y
_atom_site_fract_z
Si Si1 0.862854 0.928628 0.423482
Si Si2 0.003772 0.068556 0.146431
Si Si3 0.442350 0.932614 0.934773
Si Si4 0.855250 0.067052 0.004021
Si Si5 0.363422 0.928730 0.399683
Si Si6 0.175957 0.425531 0.439900
Si Si7 0.381317 0.931947 0.298836
O O1 0.851996 0.750000 0.429231
O O2 0.623501 0.986550 0.357583
O O3 0.000000 0.000000 0.500000
O O4 0.991570 0.968200 0.410612
O O5 0.017799 0.250000 0.149948
O O6 0.807917 0.028834 0.130712
O O7 0.949865 0.024219 0.079322
O O8 0.219435 0.999729 0.220687
O O9 0.463398 0.750000 0.940091
O O10 0.500000 0.000000 0.000000
O O11 0.613747 0.003182 0.943628
O O12 0.850150 0.250000 0.999618
O O13 0.000000 0.000000 0.000000
O O14 0.320309 0.750000 0.396829
O O15 0.613777 0.948869 0.474565
O O16 0.313121 0.966846 0.333981
O O17 0.242523 0.030555 0.405394
O O18 0.115742 0.250000 0.428350
O O19 0.382065 0.750000 0.294173
#
# Coordination Sequence:
#
# PCOD9159269 Si02
#       7
#     4   4   4   4   4   4   4
#     4  11  21  35  53  77 105 139 181 228 275 324
#     4   9  20  36  54  80 111 141 178 222 268 319
#     4   9  17  32  54  80 109 140 177 218 258 310
#     4  10  20  35  57  86 115 144 181 223 267 318
#     4   9  18  34  51  73 102 131 169 218 266 316
#     4  10  19  33  52  76 101 129 172 221 269 319
#     4  10  21  36  54  77 107 140 180 225 271 325
#
# _framework density 17.406137000000001
#
# number of rings (size 3 to 8) (size 9 to 14) (size 15 to 20)
#    0.000    2.286    1.429    2.571    0.000    5.714 
#    0.000    1.429    0.000    0.000    0.000    0.000 
#    0.000    0.000    0.000    0.000    0.000    0.000 
#
# Total GULP energy -156059.831169 kJ/mol
# GULP energy per Si atom -5573.565399 kJ/mol
# Density = 1.736652 g / cm^3
# Si number density = 17.406137 Si / 1000 Ang^3
#
#
#
# Elastic Constant Matrix: (Units=GPa)
#
#
# Indices 1 2 3 4 5 6 
#
# 1 107.5489 34.0901 46.2947 0.0000 13.9576 0.0000
# 2 34.0901 38.1008 30.6896 0.0000 7.6270 0.0000
# 3 46.2947 30.6896 96.6837 0.0000 13.4155 0.0000
# 4 0.0000 0.0000 0.0000 27.1424 0.0000 1.3592
# 5 13.9576 7.6270 13.4155 0.0000 22.7957 0.0000
# 6 0.0000 0.0000 0.0000 1.3592 0.0000 31.5628
#
#
#
# Elastic Compliance Matrix: (Units=1/GPa)
#
#
# Indices 1 2 3 4 5 6 
#
# 1 0.014127 -0.009234 -0.003334 0.000000 -0.003598 0.000000
# 2 -0.009234 0.041985 -0.008429 0.000000 -0.003433 0.000000
# 3 -0.003334 -0.008429 0.015180 0.000000 -0.004072 0.000000
# 4 0.000000 0.000000 0.000000 0.036922 0.000000 -0.001590
# 5 -0.003598 -0.003433 -0.004072 0.000000 0.049616 0.000000
# 6 0.000000 0.000000 0.000000 -0.001590 0.000000 0.031751
#
#
# Mechanical properties :
#
#
# Convention : Reuss Voigt Hill
#
# Bulk Modulus (GPa) = 34.13261 51.60913 42.87087
# Shear Modulus (GPa) = 20.71742 25.05077 22.88410
#
# Velocity S-wave (km/s) = 3.45372 3.79778 3.62983
# Velocity P-wave (km/s) = 5.96292 6.99609 6.50006
#
# Compressibility (1/GPa) = 0.02929749
#
# Stress axis : x y z
#
# Youngs Moduli (GPa) = 70.78519 23.81798 65.87610
#
# Poissons Ratio (x) = 0.21994 0.21963
# Poissons Ratio (y) = 0.65365 0.55527
# Poissons Ratio (z) = 0.23600 0.20076
#
# Static dielectric constant tensor:
#      x y z
#    x 1.616590 0.000000 0.014520 
#    y 0.000000 1.592120 0.000000 
#    z 0.014520 0.000000 1.587700 
# 
# From -- ./inp_files/70926.got.cif
#   From: 2010.05.17/outbox.cif.g08.bks.cpg/sg11_36_cif.got.tgz:70926.got - 2010.06.03 12:22:45.
