data_PCOD9159450
_publ_section_title
;
Structure prediction by ZEFSAII (Michael W. Deem and Ramdas Pophale) SiO2 
 PCOD9159450
Probable space group: P 21/M
;
_chemical_formula_sum "Si O2"
_cell_formula_units_Z 28
_cell_length_a 15.574672
_cell_length_b 8.694354
_cell_length_c 20.074457
_cell_angle_alpha 90.000000
_cell_angle_beta 145.090584
_cell_angle_gamma 90.000000
_cell_volume 1555.639982
_symmetry_space_group_name_H-M "P 21/M"
_symmetry_group_IT_number 11
_symmetry_cell_setting 'monoclinic'
loop_
_space_group_symop_operation_xyz
x,y,z
-x,1/2+y,-z
-x,-y,-z
x,1/2-y,z
loop_
_atom_site_type_symbol
_atom_site_label
_atom_site_fract_x
_atom_site_fract_y
_atom_site_fract_z
Si Si1 0.387141 0.066374 0.261719
Si Si2 0.292631 0.563567 0.588503
Si Si3 0.907473 0.567957 0.003293
Si Si4 0.025822 0.065562 0.678332
Si Si5 0.849734 0.434711 0.369819
Si Si6 0.342587 0.567881 0.375586
Si Si7 0.031760 0.067149 0.218890
O O1 0.392235 0.250000 0.280857
O O2 0.553021 0.012430 0.346708
O O3 0.330007 0.977495 0.290146
O O4 0.267069 0.046996 0.126530
O O5 0.293792 0.750000 0.586576
O O6 0.140642 0.514718 0.453753
O O7 0.277205 0.522082 0.656883
O O8 0.938495 0.750000 0.028049
O O9 0.954325 0.488740 0.101598
O O10 0.000000 0.500000 0.000000
O O11 0.028104 0.250000 0.679717
O O12 0.045191 0.001698 0.764476
O O13 0.145690 0.003728 0.700979
O O14 0.857341 0.250000 0.371108
O O15 0.000000 0.500000 0.500000
O O16 0.500000 0.500000 0.500000
O O17 0.340256 0.750000 0.383454
O O18 0.202300 0.494898 0.324502
O O19 0.032748 0.250000 0.222325
#
# Coordination Sequence:
#
# PCOD9159450 Si02
#       7
#     4   4   4   4   4   4   4
#     4  10  20  36  57  79 105 141 184 226 270 322
#     4   8  16  31  53  80 109 140 174 216 267 322
#     4  11  22  37  58  79 105 141 186 232 275 324
#     4  10  19  33  54  81 112 143 177 222 276 332
#     4   9  16  29  50  77 110 145 179 218 265 323
#     4  12  24  37  54  78 111 144 178 220 272 327
#     4  12  24  38  56  78 107 143 185 229 275 327
#
# _framework density 17.999023999999999
#
# number of rings (size 3 to 8) (size 9 to 14) (size 15 to 20)
#    0.000    1.714    1.429    5.571    0.000    1.714 
#    0.000    3.571    0.000    0.857    0.000    0.000 
#    0.000    0.000    0.000    0.000    0.000    0.000 
#
# Total GULP energy -156315.362940 kJ/mol
# GULP energy per Si atom -5582.691534 kJ/mol
# Density = 1.795806 g / cm^3
# Si number density = 17.999024 Si / 1000 Ang^3
#
#
#
# Elastic Constant Matrix: (Units=GPa)
#
#
# Indices 1 2 3 4 5 6 
#
# 1 78.1933 19.5966 3.8342 0.0000 -32.1016 0.0000
# 2 19.5966 90.4965 21.2875 0.0000 -15.2055 0.0000
# 3 3.8342 21.2875 48.5588 0.0000 -21.3778 0.0000
# 4 0.0000 0.0000 0.0000 25.3416 0.0000 -6.8034
# 5 -32.1016 -15.2055 -21.3778 0.0000 32.0935 0.0000
# 6 0.0000 0.0000 0.0000 -6.8034 0.0000 27.6791
#
#
#
# Elastic Compliance Matrix: (Units=1/GPa)
#
#
# Indices 1 2 3 4 5 6 
#
# 1 0.027909 -0.003536 0.015421 0.000000 0.036512 0.000000
# 2 -0.003536 0.013001 -0.006035 0.000000 -0.001398 0.000000
# 3 0.015421 -0.006035 0.038986 0.000000 0.038535 0.000000
# 4 0.000000 0.000000 0.000000 0.042249 0.000000 0.010385
# 5 0.036512 -0.001398 0.038535 0.000000 0.092687 0.000000
# 6 0.000000 0.000000 0.000000 0.010385 0.000000 0.038681
#
#
# Mechanical properties :
#
#
# Convention : Reuss Voigt Hill
#
# Bulk Modulus (GPa) = 10.91765 34.07614 22.49690
# Shear Modulus (GPa) = 18.35907 28.52486 23.44196
#
# Velocity S-wave (km/s) = 3.19721 3.98527 3.61280
# Velocity P-wave (km/s) = 4.43942 6.33639 5.47075
#
# Compressibility (1/GPa) = 0.09159479
#
# Stress axis : x y z
#
# Youngs Moduli (GPa) = 35.83106 76.91867 25.64997
#
# Poissons Ratio (x) = 0.27199 -0.39555
# Poissons Ratio (y) = 0.12670 0.15481
# Poissons Ratio (z) = -0.55255 0.46424
#
# Static dielectric constant tensor:
#      x y z
#    x 1.616760 0.000000 -0.000860 
#    y 0.000000 1.597510 0.000000 
#    z -0.000860 0.000000 1.608210 
# 
# From -- ./inp_files/42315.got.cif
#   From: 2010.05.17/outbox.cif.g08.bks.cpg/sg11_22_cif.got.tgz:42315.got - 2010.06.03 12:22:45.
