data_PCOD9159599
_publ_section_title
;
Structure prediction by ZEFSAII (Michael W. Deem and Ramdas Pophale) SiO2 
 PCOD9159599
Probable space group: P 21/M
;
_chemical_formula_sum "Si O2"
_cell_formula_units_Z 24
_cell_length_a 14.451727
_cell_length_b 9.506621
_cell_length_c 14.260123
_cell_angle_alpha 90.000000
_cell_angle_beta 36.049583
_cell_angle_gamma 90.000000
_cell_volume 1152.934686
_symmetry_space_group_name_H-M "P 21/M"
_symmetry_group_IT_number 11
_symmetry_cell_setting 'monoclinic'
loop_
_space_group_symop_operation_xyz
x,y,z
-x,1/2+y,-z
-x,-y,-z
x,1/2-y,z
loop_
_atom_site_type_symbol
_atom_site_label
_atom_site_fract_x
_atom_site_fract_y
_atom_site_fract_z
Si Si1 0.343037 0.915137 0.652228
Si Si2 0.043162 0.589851 0.556302
Si Si3 0.736819 0.417143 0.063204
Si Si4 0.942238 0.079218 0.252409
Si Si5 0.706322 0.899535 0.798614
Si Si6 0.518754 0.093304 0.841404
O O1 0.373802 0.750000 0.610344
O O2 0.293978 0.931996 0.800735
O O3 0.196050 0.955667 0.707156
O O4 0.500000 0.000000 0.500000
O O5 0.088680 0.750000 0.494703
O O6 0.857764 0.594821 0.740084
O O7 0.000000 0.500000 0.500000
O O8 0.118470 0.543437 0.592347
O O9 0.743006 0.250000 0.034384
O O10 0.590736 0.492536 0.130249
O O11 0.900050 0.494395 0.903273
O O12 0.968606 0.250000 0.228163
O O13 0.712353 0.750000 0.741617
O O14 0.681100 0.019484 0.741067
O O15 0.567681 0.893667 0.987405
O O16 0.536728 0.250000 0.786704
#
# Coordination Sequence:
#
# PCOD9159599 Si02
#       6
#     4   4   4   4   4   4
#     4  10  24  43  64  90 123 157 198 251 307 365
#     4  10  21  37  57  83 117 154 196 242 293 352
#     4  11  22  37  61  95 125 155 199 253 303 356
#     4  10  21  42  65  87 118 159 205 251 298 361
#     4   9  18  34  52  78 115 151 191 242 287 335
#     4  10  19  33  56  83 113 152 192 236 288 346
#
# _framework density 20.816443
#
# number of rings (size 3 to 8) (size 9 to 14) (size 15 to 20)
#    0.000    2.000    1.667    1.500    0.000    5.333 
#    0.000    3.333    0.000    0.000    0.000    0.000 
#    0.000    0.000    0.000    0.000    0.000    0.000 
#
# Total GULP energy -133692.816421 kJ/mol
# GULP energy per Si atom -5570.534018 kJ/mol
# Density = 2.076906 g / cm^3
# Si number density = 20.816443 Si / 1000 Ang^3
#
#
#
# Elastic Constant Matrix: (Units=GPa)
#
#
# Indices 1 2 3 4 5 6 
#
# 1 153.5537 78.5874 17.7696 0.0000 2.2513 0.0000
# 2 78.5874 103.5378 24.8554 0.0000 13.5600 0.0000
# 3 17.7696 24.8554 27.5060 0.0000 16.0512 0.0000
# 4 0.0000 0.0000 0.0000 32.7894 0.0000 -5.4095
# 5 2.2513 13.5600 16.0512 0.0000 24.1935 0.0000
# 6 0.0000 0.0000 0.0000 -5.4095 0.0000 27.0616
#
#
#
# Elastic Compliance Matrix: (Units=1/GPa)
#
#
# Indices 1 2 3 4 5 6 
#
# 1 0.011091 -0.008489 -0.002722 0.000000 0.005532 0.000000
# 2 -0.008489 0.018841 -0.009529 0.000000 -0.003448 0.000000
# 3 -0.002722 -0.009529 0.070916 0.000000 -0.041455 0.000000
# 4 0.000000 0.000000 0.000000 0.031538 0.000000 0.006304
# 5 0.005532 -0.003448 -0.041455 0.000000 0.070255 0.000000
# 6 0.000000 0.000000 0.000000 0.006304 0.000000 0.038213
#
#
# Mechanical properties :
#
#
# Convention : Reuss Voigt Hill
#
# Bulk Modulus (GPa) = 16.84418 58.55804 37.70111
# Shear Modulus (GPa) = 16.54951 27.70125 22.12538
#
# Velocity S-wave (km/s) = 2.82267 3.65189 3.26372
# Velocity P-wave (km/s) = 4.32812 6.78037 5.68797
#
# Compressibility (1/GPa) = 0.05936767
#
# Stress axis : x y z
#
# Youngs Moduli (GPa) = 90.16241 53.07554 14.10117
#
# Poissons Ratio (x) = 0.45058 0.03838
# Poissons Ratio (y) = 0.76543 0.13437
# Poissons Ratio (z) = 0.24542 0.50575
#
# Static dielectric constant tensor:
#      x y z
#    x 1.728110 0.000000 -0.008540 
#    y 0.000000 1.810950 0.000000 
#    z -0.008540 0.000000 1.887240 
# 
# From -- ./inp_files/51502.got.cif
#   From: 2010.05.17/outbox.cif.g08.bks.cpg/sg11_26_cif.got.tgz:51502.got - 2010.06.03 12:22:45.
