data_PCOD9159077
_publ_section_title
;
Structure prediction by ZEFSAII (Michael W. Deem and Ramdas Pophale) SiO2 
 PCOD9159077
Probable space group: P 21/M
;
_chemical_formula_sum "Si O2"
_cell_formula_units_Z 32
_cell_length_a 12.907318
_cell_length_b 23.111189
_cell_length_c 6.211171
_cell_angle_alpha 90.000000
_cell_angle_beta 98.560468
_cell_angle_gamma 90.000000
_cell_volume 1832.172229
_symmetry_space_group_name_H-M "P 21/M"
_symmetry_group_IT_number 11
_symmetry_cell_setting 'monoclinic'
loop_
_space_group_symop_operation_xyz
x,y,z
-x,1/2+y,-z
-x,-y,-z
x,1/2-y,z
loop_
_atom_site_type_symbol
_atom_site_label
_atom_site_fract_x
_atom_site_fract_y
_atom_site_fract_z
Si Si1 0.630759 0.881717 0.099634
Si Si2 0.840203 0.478319 0.516131
Si Si3 0.959278 0.542111 0.174735
Si Si4 0.281945 0.315750 0.495605
Si Si5 0.500583 0.977183 0.239303
Si Si6 0.624308 0.420811 0.496899
Si Si7 0.800812 0.913473 0.820440
Si Si8 0.501929 0.817167 0.711322
O O1 0.700944 0.837106 0.255739
O O2 0.589591 0.927544 0.262596
O O3 0.697096 0.913899 0.936190
O O4 0.539368 0.847290 0.945883
O O5 0.879737 0.508547 0.309487
O O6 0.738524 0.438784 0.455477
O O7 0.811316 0.529668 0.675328
O O8 0.939406 0.444158 0.648480
O O9 0.895583 0.589604 0.021030
O O10 0.000000 0.500000 0.000000
O O11 0.245147 0.250000 0.476246
O O12 0.208810 0.359325 0.341400
O O13 0.395615 0.318090 0.411823
O O14 0.394386 0.942515 0.264311
O O15 0.536788 0.035075 0.373671
O O16 0.500000 0.000000 0.000000
O O17 0.586784 0.357104 0.425117
O O18 0.472771 0.750000 0.733417
#
# Coordination Sequence:
#
# PCOD9159077 Si02
#       8
#     4   4   4   4   4   4   4   4
#     4  11  19  33  51  75 107 143 176 217 260 316
#     4  10  20  34  54  79 108 134 172 217 277 325
#     4   9  19  36  54  78 104 133 166 216 275 335
#     4  10  20  33  49  72 104 143 182 217 256 308
#     4  11  20  30  48  77 111 137 174 215 271 310
#     4  11  21  32  50  78 108 143 175 217 262 320
#     4  10  19  32  54  77 104 135 171 219 269 320
#     4  10  21  35  48  70 107 150 188 215 247 303
#
# _framework density 17.465606000000001
#
# number of rings (size 3 to 8) (size 9 to 14) (size 15 to 20)
#    0.000    1.750    2.500    3.375    3.500    1.500 
#    0.000    0.000    0.000    0.750    0.000    7.000 
#    0.000    0.000    0.000    0.000    0.000    0.000 
#
# Total GULP energy -178276.472121 kJ/mol
# GULP energy per Si atom -5571.139754 kJ/mol
# Density = 1.742585 g / cm^3
# Si number density = 17.465606 Si / 1000 Ang^3
#
#
#
# Elastic Constant Matrix: (Units=GPa)
#
#
# Indices 1 2 3 4 5 6 
#
# 1 73.8208 37.5387 19.5121 0.0000 2.8456 0.0000
# 2 37.5387 105.2469 23.1419 0.0000 10.9928 0.0000
# 3 19.5121 23.1419 58.7247 0.0000 0.3357 0.0000
# 4 0.0000 0.0000 0.0000 21.5968 0.0000 6.0590
# 5 2.8456 10.9928 0.3357 0.0000 28.6951 0.0000
# 6 0.0000 0.0000 0.0000 6.0590 0.0000 18.4824
#
#
#
# Elastic Compliance Matrix: (Units=1/GPa)
#
#
# Indices 1 2 3 4 5 6 
#
# 1 0.017225 -0.005394 -0.003600 0.000000 0.000400 0.000000
# 2 -0.005394 0.012557 -0.003132 0.000000 -0.004239 0.000000
# 3 -0.003600 -0.003132 0.019451 0.000000 0.001329 0.000000
# 4 0.000000 0.000000 0.000000 0.050993 0.000000 -0.016717
# 5 0.000400 -0.004239 0.001329 0.000000 0.036418 0.000000
# 6 0.000000 0.000000 0.000000 -0.016717 0.000000 0.059586
#
#
# Mechanical properties :
#
#
# Convention : Reuss Voigt Hill
#
# Bulk Modulus (GPa) = 40.02929 44.24200 42.13564
# Shear Modulus (GPa) = 21.85227 24.26151 23.05689
#
# Velocity S-wave (km/s) = 3.54101 3.73111 3.63730
# Velocity P-wave (km/s) = 6.29976 6.62929 6.46663
#
# Compressibility (1/GPa) = 0.02498170
#
# Stress axis : x y z
#
# Youngs Moduli (GPa) = 58.05396 79.63847 51.41035
#
# Poissons Ratio (x) = 0.42957 0.18508
# Poissons Ratio (y) = 0.31315 0.16101
# Poissons Ratio (z) = 0.20899 0.24941
#
# Static dielectric constant tensor:
#      x y z
#    x 2.482970 0.000000 -1.570280 
#    y 0.000000 2.108190 0.000000 
#    z -1.570280 0.000000 4.595150 
# 
# From -- ./inp_files/5381.got.cif
#   From: 2010.05.17/outbox.cif.g08.bks.cpg/sg11_3_cif.got.tgz:5381.got - 2010.06.03 12:22:45.
