data_PCOD9159208
_publ_section_title
;
Structure prediction by ZEFSAII (Michael W. Deem and Ramdas Pophale) SiO2 
 PCOD9159208
Probable space group: P 21/M
;
_chemical_formula_sum "Si O2"
_cell_formula_units_Z 32
_cell_length_a 17.363113
_cell_length_b 8.501689
_cell_length_c 31.335297
_cell_angle_alpha 90.000000
_cell_angle_beta 25.534471
_cell_angle_gamma 90.000000
_cell_volume 1993.876911
_symmetry_space_group_name_H-M "P 21/M"
_symmetry_group_IT_number 11
_symmetry_cell_setting 'monoclinic'
loop_
_space_group_symop_operation_xyz
x,y,z
-x,1/2+y,-z
-x,-y,-z
x,1/2-y,z
loop_
_atom_site_type_symbol
_atom_site_label
_atom_site_fract_x
_atom_site_fract_y
_atom_site_fract_z
Si Si1 0.138057 0.439964 0.311484
Si Si2 0.294536 0.438095 0.055433
Si Si3 0.499977 0.059015 0.175592
Si Si4 0.890230 0.939010 0.096576
Si Si5 0.138043 0.939965 0.050435
Si Si6 0.705530 0.061905 0.849956
Si Si7 0.500085 0.939093 0.725866
Si Si8 0.109675 0.560993 0.486871
O O1 0.136120 0.250000 0.310611
O O2 0.322220 0.494734 0.241336
O O3 0.155020 0.502645 0.255097
O O4 0.985629 0.488534 0.421165
O O5 0.295602 0.250000 0.055124
O O6 0.155132 0.497353 0.089793
O O7 0.253666 0.500001 0.123155
O O8 0.500037 0.492581 0.942646
O O9 0.499984 0.250000 0.174692
O O10 0.499821 0.011836 0.224590
O O11 0.677864 0.005266 0.063575
O O12 0.895626 0.750000 0.091677
O O13 0.985503 0.988517 0.093260
O O14 0.686561 0.997322 0.198677
O O15 0.000000 0.000000 0.000000
O O16 0.136128 0.750000 0.053236
O O17 0.704462 0.250000 0.850713
O O18 0.500099 0.750000 0.723389
O O19 0.686642 0.002715 0.614685
O O20 0.104237 0.750000 0.487391
O O21 0.000000 0.500000 0.500000
#
# Coordination Sequence:
#
# PCOD9159208 Si02
#       8
#     4   4   4   4   4   4   4   4
#     4  10  19  33  51  71 101 138 173 210 255 304
#     4  10  20  32  48  73 102 133 169 209 254 305
#     4   9  16  29  48  70  99 136 171 206 253 300
#     4  11  22  35  52  76 104 139 178 217 261 310
#     4  10  19  33  51  71 101 138 173 210 255 304
#     4  10  20  32  48  73 102 133 169 209 254 305
#     4  11  21  37  53  72 103 140 179 222 263 301
#     4  11  22  35  52  76 104 139 178 217 261 310
#
# _framework density 16.049133999999999
#
# number of rings (size 3 to 8) (size 9 to 14) (size 15 to 20)
#    0.000    1.750    3.750    1.875    0.000    3.000 
#    0.000    0.000    0.000    0.000    0.000    0.875 
#    0.000    0.000    0.000    0.000    0.000    0.000 
#
# Total GULP energy -178453.906890 kJ/mol
# GULP energy per Si atom -5576.684590 kJ/mol
# Density = 1.601261 g / cm^3
# Si number density = 16.049134 Si / 1000 Ang^3
#
#
#
# Elastic Constant Matrix: (Units=GPa)
#
#
# Indices 1 2 3 4 5 6 
#
# 1 130.0857 31.0782 76.6121 0.0000 9.9525 0.0000
# 2 31.0782 37.8556 28.4865 0.0000 1.9471 0.0000
# 3 76.6121 28.4865 115.7425 0.0000 0.8937 0.0000
# 4 0.0000 0.0000 0.0000 22.2641 0.0000 1.8525
# 5 9.9525 1.9471 0.8937 0.0000 26.7109 0.0000
# 6 0.0000 0.0000 0.0000 1.8525 0.0000 24.7586
#
#
#
# Elastic Compliance Matrix: (Units=1/GPa)
#
#
# Indices 1 2 3 4 5 6 
#
# 1 0.013947 -0.005272 -0.007899 0.000000 -0.004548 0.000000
# 2 -0.005272 0.034531 -0.005006 0.000000 -0.000385 0.000000
# 3 -0.007899 -0.005006 0.015079 0.000000 0.002804 0.000000
# 4 0.000000 0.000000 0.000000 0.045197 0.000000 -0.003382
# 5 -0.004548 -0.000385 0.002804 0.000000 0.039067 0.000000
# 6 0.000000 0.000000 0.000000 -0.003382 0.000000 0.040643
#
#
# Mechanical properties :
#
#
# Convention : Reuss Voigt Hill
#
# Bulk Modulus (GPa) = 36.76126 61.78194 49.27160
# Shear Modulus (GPa) = 21.37804 24.58052 22.97928
#
# Velocity S-wave (km/s) = 3.65367 3.91779 3.78803
# Velocity P-wave (km/s) = 6.38390 7.68404 7.06395
#
# Compressibility (1/GPa) = 0.02720255
#
# Stress axis : x y z
#
# Youngs Moduli (GPa) = 71.70205 28.95930 66.31818
#
# Poissons Ratio (x) = 0.15267 0.52384
# Poissons Ratio (y) = 0.37800 0.33201
# Poissons Ratio (z) = 0.56637 0.14498
#
# Static dielectric constant tensor:
#      x y z
#    x 1.546120 0.000000 0.002300 
#    y 0.000000 1.549610 0.000000 
#    z 0.002300 0.000000 1.543010 
# 
# From -- ./inp_files/51787.got.cif
#   From: 2010.05.17/outbox.cif.g08.bks.cpg/sg11_26_cif.got.tgz:51787.got - 2010.06.03 12:22:45.
