data_PCOD9159214
_publ_section_title
;
Structure prediction by ZEFSAII (Michael W. Deem and Ramdas Pophale) SiO2 
 PCOD9159214
Probable space group: P 21/M
;
_chemical_formula_sum "Si O2"
_cell_formula_units_Z 32
_cell_length_a 15.355136
_cell_length_b 8.717389
_cell_length_c 15.355540
_cell_angle_alpha 90.000000
_cell_angle_beta 79.525208
_cell_angle_gamma 90.000000
_cell_volume 2021.187854
_symmetry_space_group_name_H-M "P 21/M"
_symmetry_group_IT_number 11
_symmetry_cell_setting 'monoclinic'
loop_
_space_group_symop_operation_xyz
x,y,z
-x,1/2+y,-z
-x,-y,-z
x,1/2-y,z
loop_
_atom_site_type_symbol
_atom_site_label
_atom_site_fract_x
_atom_site_fract_y
_atom_site_fract_z
Si Si1 0.386622 0.568108 0.932860
Si Si2 0.752526 0.436645 0.752529
Si Si3 0.128785 0.934087 0.426020
Si Si4 0.115140 0.934867 0.115103
Si Si5 0.923851 0.067573 0.199984
Si Si6 0.573976 0.065912 0.871219
Si Si7 0.199974 0.067570 0.923803
Si Si8 0.932850 0.931890 0.386632
O O1 0.374253 0.750000 0.925093
O O2 0.480020 0.515020 0.876123
O O3 0.302424 0.481125 0.910193
O O4 0.394149 0.535527 0.035304
O O5 0.752512 0.250000 0.752507
O O6 0.793644 0.485360 0.653136
O O7 0.818680 0.481763 0.818696
O O8 0.653127 0.485349 0.793639
O O9 0.134088 0.750000 0.437583
O O10 0.035298 0.964460 0.394157
O O11 0.123886 0.015016 0.519973
O O12 0.112814 0.750000 0.112675
O O13 0.017730 0.997535 0.152422
O O14 0.152403 0.997720 0.017727
O O15 0.926851 0.250000 0.191216
O O16 0.848198 0.000095 0.151806
O O17 0.910191 0.018878 0.302434
O O18 0.562410 0.250000 0.865925
O O19 0.191208 0.250000 0.926669
O O20 0.925075 0.750000 0.374264
#
# Coordination Sequence:
#
# PCOD9159214 Si02
#       8
#     4   4   4   4   4   4   4   4
#     4  10  19  33  51  73 101 134 170 213 257 299
#     4   9  16  30  52  75 102 137 170 205 252 301
#     4   9  17  31  51  74 101 134 169 208 256 304
#     4  11  20  36  53  73 104 139 175 213 250 295
#     4  12  24  37  52  73 100 137 178 216 254 302
#     4   9  17  31  51  74 101 134 169 208 256 304
#     4  12  24  37  52  73 100 137 178 216 254 302
#     4  10  19  33  51  73 101 134 170 213 257 299
#
# _framework density 15.832274999999999
#
# number of rings (size 3 to 8) (size 9 to 14) (size 15 to 20)
#    0.000    1.750    2.500    3.750    0.000    1.000 
#    0.000    0.625    0.000    0.000    0.000    0.875 
#    0.000    0.000    0.000    0.000    0.000    0.000 
#
# Total GULP energy -178670.798562 kJ/mol
# GULP energy per Si atom -5583.462455 kJ/mol
# Density = 1.579624 g / cm^3
# Si number density = 15.832275 Si / 1000 Ang^3
#
#
#
# Elastic Constant Matrix: (Units=GPa)
#
#
# Indices 1 2 3 4 5 6 
#
# 1 87.3604 43.9168 68.9109 0.0000 -8.7015 0.0000
# 2 43.9168 74.0638 43.8858 0.0000 1.3842 0.0000
# 3 68.9109 43.8858 95.9555 0.0000 -13.7707 0.0000
# 4 0.0000 0.0000 0.0000 21.1279 0.0000 1.5467
# 5 -8.7015 1.3842 -13.7707 0.0000 25.3981 0.0000
# 6 0.0000 0.0000 0.0000 1.5467 0.0000 21.6920
#
#
#
# Elastic Compliance Matrix: (Units=1/GPa)
#
#
# Indices 1 2 3 4 5 6 
#
# 1 0.028564 -0.006665 -0.017359 0.000000 0.000737 0.000000
# 2 -0.006665 0.020983 -0.005749 0.000000 -0.006544 0.000000
# 3 -0.017359 -0.005749 0.026794 0.000000 0.008894 0.000000
# 4 0.000000 0.000000 0.000000 0.047579 0.000000 -0.003393
# 5 0.000737 -0.006544 0.008894 0.000000 0.044804 0.000000
# 6 0.000000 0.000000 0.000000 -0.003393 0.000000 0.046342
#
#
# Mechanical properties :
#
#
# Convention : Reuss Voigt Hill
#
# Bulk Modulus (GPa) = 59.54627 63.42297 61.48462
# Shear Modulus (GPa) = 17.84365 20.35468 19.09916
#
# Velocity S-wave (km/s) = 3.36079 3.58948 3.47701
# Velocity P-wave (km/s) = 7.26307 7.57135 7.41881
#
# Compressibility (1/GPa) = 0.01679366
#
# Stress axis : x y z
#
# Youngs Moduli (GPa) = 35.00904 47.65766 37.32176
#
# Poissons Ratio (x) = 0.31764 0.64788
# Poissons Ratio (y) = 0.23333 0.21458
# Poissons Ratio (z) = 0.60773 0.27400
#
# Static dielectric constant tensor:
#      x y z
#    x 1.513540 0.000000 -0.014310 
#    y 0.000000 1.529520 0.000000 
#    z -0.014310 0.000000 1.518590 
# 
# From -- ./inp_files/51237.got.cif
#   From: 2010.05.17/outbox.cif.g08.bks.cpg/sg11_26_cif.got.tgz:51237.got - 2010.06.03 12:22:45.
