data_PCOD9159762
_publ_section_title
;
Structure prediction by ZEFSAII (Michael W. Deem and Ramdas Pophale) SiO2 
 PCOD9159762
Probable space group: P 21/M
;
_chemical_formula_sum "Si O2"
_cell_formula_units_Z 32
_cell_length_a 22.234537
_cell_length_b 9.294178
_cell_length_c 15.436872
_cell_angle_alpha 90.000000
_cell_angle_beta 146.439024
_cell_angle_gamma 90.000000
_cell_volume 1763.540196
_symmetry_space_group_name_H-M "P 21/M"
_symmetry_group_IT_number 11
_symmetry_cell_setting 'monoclinic'
loop_
_space_group_symop_operation_xyz
x,y,z
-x,1/2+y,-z
-x,-y,-z
x,1/2-y,z
loop_
_atom_site_type_symbol
_atom_site_label
_atom_site_fract_x
_atom_site_fract_y
_atom_site_fract_z
Si Si1 0.060736 0.597370 0.848505
Si Si2 0.751176 0.085539 0.561831
Si Si3 0.882232 0.073282 0.380967
Si Si4 0.382603 0.579999 0.261362
Si Si5 0.643226 0.581177 0.593079
Si Si6 0.181672 0.416232 0.519681
Si Si7 0.997558 0.594824 0.080600
Si Si8 0.747378 0.086322 0.056576
O O1 0.075505 0.750000 0.913284
O O2 0.143004 0.591615 0.868792
O O3 0.939248 0.593414 0.666328
O O4 0.076276 0.470313 0.933441
O O5 0.709224 0.250000 0.503574
O O6 0.879851 0.098347 0.736238
O O7 0.699629 0.002227 0.581425
O O8 0.744652 0.994816 0.464641
O O9 0.893097 0.250000 0.393341
O O10 0.791985 0.027857 0.200747
O O11 0.837330 0.012760 0.417976
O O12 0.000000 0.000000 0.500000
O O13 0.351265 0.750000 0.230182
O O14 0.512939 0.572607 0.421154
O O15 0.338006 0.495314 0.291478
O O16 0.338371 0.523427 0.115458
O O17 0.673492 0.750000 0.631031
O O18 0.215568 0.250000 0.577950
O O19 0.958188 0.750000 0.008439
O O20 0.000000 0.500000 0.000000
O O21 0.709732 0.250000 0.029332
#
# Coordination Sequence:
#
# PCOD9159762 Si02
#       8
#     4   4   4   4   4   4   4   4
#     4   9  17  31  48  68  99 136 172 206 248 301
#     4  10  21  36  54  75 100 138 178 213 259 317
#     4  11  20  33  53  78 108 144 181 216 259 310
#     4   9  19  36  57  79 106 139 177 218 262 316
#     4  10  20  35  56  82 107 135 173 222 272 312
#     4  10  19  34  53  77 106 137 174 217 258 306
#     4  10  21  33  45  67  98 134 172 210 253 304
#     4   9  18  33  53  76 103 140 177 212 257 309
#
# _framework density 18.145319000000001
#
# number of rings (size 3 to 8) (size 9 to 14) (size 15 to 20)
#    0.000    2.250    1.250    1.875    1.750    2.500 
#    0.000    1.250    0.000    0.750    0.000    0.000 
#    0.000    0.000    0.000    0.000    0.000    0.000 
#
# Total GULP energy -178224.226644 kJ/mol
# GULP energy per Si atom -5569.507083 kJ/mol
# Density = 1.810402 g / cm^3
# Si number density = 18.145319 Si / 1000 Ang^3
#
#
#
# Elastic Constant Matrix: (Units=GPa)
#
#
# Indices 1 2 3 4 5 6 
#
# 1 74.4883 43.0931 19.3056 0.0000 -14.7874 0.0000
# 2 43.0931 114.9443 25.5642 0.0000 -16.8025 0.0000
# 3 19.3056 25.5642 72.0583 0.0000 -17.1275 0.0000
# 4 0.0000 0.0000 0.0000 18.4818 0.0000 -5.4084
# 5 -14.7874 -16.8025 -17.1275 0.0000 26.4226 0.0000
# 6 0.0000 0.0000 0.0000 -5.4084 0.0000 27.8543
#
#
#
# Elastic Compliance Matrix: (Units=1/GPa)
#
#
# Indices 1 2 3 4 5 6 
#
# 1 0.018213 -0.005669 -0.001540 0.000000 0.005590 0.000000
# 2 -0.005669 0.011692 -0.001910 0.000000 0.003024 0.000000
# 3 -0.001540 -0.001910 0.017111 0.000000 0.009015 0.000000
# 4 0.000000 0.000000 0.000000 0.057367 0.000000 0.011139
# 5 0.005590 0.003024 0.009015 0.000000 0.048742 0.000000
# 6 0.000000 0.000000 0.000000 0.011139 0.000000 0.038064
#
#
# Mechanical properties :
#
#
# Convention : Reuss Voigt Hill
#
# Bulk Modulus (GPa) = 34.74856 48.60183 41.67520
# Shear Modulus (GPa) = 22.82913 26.12030 24.47471
#
# Velocity S-wave (km/s) = 3.55086 3.79820 3.67661
# Velocity P-wave (km/s) = 6.00027 6.78808 6.40629
#
# Compressibility (1/GPa) = 0.02877817
#
# Stress axis : x y z
#
# Youngs Moduli (GPa) = 54.90541 85.52848 58.44303
#
# Poissons Ratio (x) = 0.48482 0.08999
# Poissons Ratio (y) = 0.31123 0.11165
# Poissons Ratio (z) = 0.08455 0.16340
#
# Static dielectric constant tensor:
#      x y z
#    x 1.617380 0.000000 -0.017190 
#    y 0.000000 1.624670 0.000000 
#    z -0.017190 0.000000 1.664240 
# 
# From -- ./inp_files/54330.got.cif
#   From: 2010.05.17/outbox.cif.g08.bks.cpg/sg11_28_cif.got.tgz:54330.got - 2010.06.03 12:22:45.
