data_PCOD9159380
_publ_section_title
;
Structure prediction by ZEFSAII (Michael W. Deem and Ramdas Pophale) SiO2 
 PCOD9159380
Probable space group: P 21/M
;
_chemical_formula_sum "Si O2"
_cell_formula_units_Z 32
_cell_length_a 23.515430
_cell_length_b 8.346813
_cell_length_c 28.927701
_cell_angle_alpha 90.000000
_cell_angle_beta 162.044959
_cell_angle_gamma 90.000000
_cell_volume 1750.328913
_symmetry_space_group_name_H-M "P 21/M"
_symmetry_group_IT_number 11
_symmetry_cell_setting 'monoclinic'
loop_
_space_group_symop_operation_xyz
x,y,z
-x,1/2+y,-z
-x,-y,-z
x,1/2-y,z
loop_
_atom_site_type_symbol
_atom_site_label
_atom_site_fract_x
_atom_site_fract_y
_atom_site_fract_z
Si Si1 0.961230 0.056872 0.022217
Si Si2 0.169455 0.935248 0.801598
Si Si3 0.162426 0.061657 0.694606
Si Si4 0.223480 0.941751 0.487951
Si Si5 0.434312 0.557571 0.305911
Si Si6 0.250505 0.944811 0.614427
Si Si7 0.482602 0.938833 0.878254
Si Si8 0.357576 0.442240 0.350941
O O1 0.960891 0.250000 0.023479
O O2 0.142221 0.003414 0.190855
O O3 0.748953 0.004339 0.864850
O O4 0.000000 0.000000 0.000000
O O5 0.163508 0.750000 0.783213
O O6 0.192878 0.038380 0.772994
O O7 0.976849 0.983672 0.676073
O O8 0.340894 0.968584 0.967010
O O9 0.177201 0.250000 0.694694
O O10 0.951956 0.004745 0.524241
O O11 0.313521 0.966563 0.782763
O O12 0.205750 0.750000 0.474130
O O13 0.272930 0.994275 0.578711
O O14 0.381776 0.993365 0.575478
O O15 0.438014 0.750000 0.309108
O O16 0.414745 0.499846 0.343782
O O17 0.247242 0.750000 0.612566
O O18 0.408652 0.996790 0.771517
O O19 0.525105 0.750000 0.908944
O O20 0.500000 0.500000 0.500000
O O21 0.359047 0.250000 0.352296
#
# Coordination Sequence:
#
# PCOD9159380 Si02
#       8
#     4   4   4   4   4   4   4   4
#     4   8  16  30  50  75 105 136 171 209 249 293
#     4  11  22  36  52  74 102 137 175 214 258 310
#     4  10  19  34  53  76 102 132 169 212 260 317
#     4  10  20  38  58  77 100 133 174 215 256 308
#     4  10  19  34  56  81 105 137 176 215 255 306
#     4   8  18  34  53  74 100 131 168 213 261 308
#     4  11  20  33  52  76 103 133 167 213 267 317
#     4  10  19  33  53  81 114 147 176 213 258 301
#
# _framework density 18.282278000000002
#
# number of rings (size 3 to 8) (size 9 to 14) (size 15 to 20)
#    0.000    2.250    0.000    4.500    0.000    1.000 
#    0.000    8.125    0.000    3.000    0.000    0.000 
#    0.000    0.000    0.000    0.000    0.000    0.000 
#
# Total GULP energy -178464.188345 kJ/mol
# GULP energy per Si atom -5577.005886 kJ/mol
# Density = 1.824067 g / cm^3
# Si number density = 18.282278 Si / 1000 Ang^3
#
#
#
# Elastic Constant Matrix: (Units=GPa)
#
#
# Indices 1 2 3 4 5 6 
#
# 1 47.3969 -8.4017 24.2607 0.0000 4.3388 0.0000
# 2 -8.4017 22.0929 -25.0646 0.0000 -3.3933 0.0000
# 3 24.2607 -25.0646 36.6050 0.0000 -26.2782 0.0000
# 4 0.0000 0.0000 0.0000 19.3767 0.0000 3.2238
# 5 4.3388 -3.3933 -26.2782 0.0000 24.4989 0.0000
# 6 0.0000 0.0000 0.0000 3.2238 0.0000 16.3167
#
#
#
# Elastic Compliance Matrix: (Units=1/GPa)
#
#
# Indices 1 2 3 4 5 6 
#
# 1 0.018045 0.021486 0.011281 0.000000 0.011881 0.000000
# 2 0.021486 0.012468 -0.031285 0.000000 -0.035635 0.000000
# 3 0.011281 -0.031285 -0.026633 0.000000 -0.034898 0.000000
# 4 0.000000 0.000000 0.000000 0.053363 0.000000 -0.010543
# 5 0.011881 -0.035635 -0.034898 0.000000 -0.003654 0.000000
# 6 0.000000 0.000000 0.000000 -0.010543 0.000000 0.063370
#
#
# Mechanical properties :
#
#
# Convention : Reuss Voigt Hill
#
# Bulk Modulus (GPa) = 146.09200 9.74262 77.91731
# Shear Modulus (GPa) = 43.00109 19.72516 31.36312
#
# Velocity S-wave (km/s) = 4.85507 3.28826 4.14634
# Velocity P-wave (km/s) = 10.55990 4.44493 8.10151
#
# Compressibility (1/GPa) = 0.00684500
#
# Stress axis : x y z
#
# Youngs Moduli (GPa) = 55.41702 80.20474 -37.54801
#
# Poissons Ratio (x) = -1.72326 0.42359
# Poissons Ratio (y) = -1.19068 -1.17468
# Poissons Ratio (z) = -0.62517 2.50918
#
# Static dielectric constant tensor:
#      x y z
#    x 1.597130 0.000000 -0.008880 
#    y 0.000000 1.634110 0.000000 
#    z -0.008880 0.000000 1.661110 
# 
# From -- ./inp_files/72195.got.cif
#   From: 2010.05.17/outbox.cif.g08.bks.cpg/sg11_37_cif.got.tgz:72195.got - 2010.06.03 12:22:45.
