data_PCOD9159124
_publ_section_title
;
Structure prediction by ZEFSAII (Michael W. Deem and Ramdas Pophale) SiO2 
 PCOD9159124
Probable space group: P 21/M
;
_chemical_formula_sum "Si O2"
_cell_formula_units_Z 32
_cell_length_a 12.642948
_cell_length_b 14.528173
_cell_length_c 16.157461
_cell_angle_alpha 90.000000
_cell_angle_beta 152.498413
_cell_angle_gamma 90.000000
_cell_volume 1370.443634
_symmetry_space_group_name_H-M "P 21/M"
_symmetry_group_IT_number 11
_symmetry_cell_setting 'monoclinic'
loop_
_space_group_symop_operation_xyz
x,y,z
-x,1/2+y,-z
-x,-y,-z
x,1/2-y,z
loop_
_atom_site_type_symbol
_atom_site_label
_atom_site_fract_x
_atom_site_fract_y
_atom_site_fract_z
Si Si1 0.027112 0.136926 0.005327
Si Si2 0.314828 0.143503 0.648576
Si Si3 0.549886 0.646012 0.800904
Si Si4 0.327034 0.606532 0.959783
Si Si5 0.037287 0.638749 0.463799
Si Si6 0.531768 0.136797 0.627715
Si Si7 0.332808 0.390212 0.937323
Si Si8 0.894447 0.640550 0.758015
O O1 0.033297 0.250000 0.005735
O O2 0.262305 0.102316 0.128701
O O3 0.009045 0.107159 0.088064
O O4 0.793236 0.108003 0.799075
O O5 0.257128 0.250000 0.590290
O O6 0.097916 0.103259 0.548352
O O7 0.417824 0.105263 0.635291
O O8 0.519590 0.141863 0.857843
O O9 0.508605 0.750000 0.740846
O O10 0.297079 0.603377 0.635190
O O11 0.669673 0.652061 0.973762
O O12 0.355721 0.497737 0.972513
O O13 0.066090 0.625237 0.800937
O O14 0.442156 0.643675 0.956183
O O15 0.047874 0.750000 0.480460
O O16 0.879716 0.622199 0.273126
O O17 0.534589 0.250000 0.631806
O O18 0.357819 0.105529 0.436637
O O19 0.877292 0.750000 0.755218
#
# Coordination Sequence:
#
# PCOD9159124 Si02
#       8
#     4   4   4   4   4   4   4   4
#     4   9  18  34  53  80 111 136 176 227 270 315
#     4   9  16  31  54  81 111 135 172 228 271 313
#     4  10  21  37  60  81 105 146 186 220 265 325
#     4  10  20  36  54  79 114 147 178 219 275 325
#     4   9  19  35  55  81 108 137 178 228 272 316
#     4   9  17  29  51  83 108 133 173 223 275 316
#     4  10  22  38  52  80 113 146 182 219 269 329
#     4  10  19  32  55  82 106 138 179 225 271 318
#
# _framework density 23.350102
#
# number of rings (size 3 to 8) (size 9 to 14) (size 15 to 20)
#    0.000    2.500    1.250    0.750    1.750    2.500 
#    2.250    6.250    0.000    1.500    0.000    0.000 
#    0.000    0.000    0.000    0.000    0.000    0.000 
#
# Total GULP energy -178669.366691 kJ/mol
# GULP energy per Si atom -5583.417709 kJ/mol
# Density = 2.329696 g / cm^3
# Si number density = 23.350102 Si / 1000 Ang^3
#
#
#
# Elastic Constant Matrix: (Units=GPa)
#
#
# Indices 1 2 3 4 5 6 
#
# 1 93.5600 17.1772 25.4766 0.0000 36.0735 0.0000
# 2 17.1772 81.5217 -19.6780 0.0000 7.3869 0.0000
# 3 25.4766 -19.6780 110.3747 0.0000 39.0417 0.0000
# 4 0.0000 0.0000 0.0000 -24.5243 0.0000 26.1347
# 5 36.0735 7.3869 39.0417 0.0000 37.2606 0.0000
# 6 0.0000 0.0000 0.0000 26.1347 0.0000 2.0982
#
#
#
# Elastic Compliance Matrix: (Units=1/GPa)
#
#
# Indices 1 2 3 4 5 6 
#
# 1 0.017836 -0.001330 0.002639 0.000000 -0.019769 0.000000
# 2 -0.001330 0.014543 0.005504 0.000000 -0.007363 0.000000
# 3 0.002639 0.005504 0.017036 0.000000 -0.021496 0.000000
# 4 0.000000 0.000000 0.000000 -0.002857 0.000000 0.035583
# 5 -0.019769 -0.007363 -0.021496 0.000000 0.069960 0.000000
# 6 0.000000 0.000000 0.000000 0.035583 0.000000 0.033390
#
#
# Mechanical properties :
#
#
# Convention : Reuss Voigt Hill
#
# Bulk Modulus (GPa) = 15.86291 36.82311 26.34301
# Shear Modulus (GPa) = 31.78709 20.46560 26.12635
#
# Velocity S-wave (km/s) = 3.69362 2.96373 3.34862
# Velocity P-wave (km/s) = 4.99987 5.24555 5.12418
#
# Compressibility (1/GPa) = 0.06304014
#
# Stress axis : x y z
#
# Youngs Moduli (GPa) = 56.06544 68.76344 58.69995
#
# Poissons Ratio (x) = 0.09145 -0.15489
# Poissons Ratio (y) = 0.07456 -0.32308
# Poissons Ratio (z) = -0.14794 -0.37847
#
# Static dielectric constant tensor:
#      x y z
#    x 1.875460 0.000000 0.018010 
#    y 0.000000 1.908990 0.000000 
#    z 0.018010 0.000000 1.856560 
# 
# From -- ./inp_files/40059.got.cif
#   From: 2010.05.17/outbox.cif.g08.bks.cpg/sg11_21_cif.got.tgz:40059.got - 2010.06.03 12:22:45.
