data_PCOD9159941
_publ_section_title
;
Structure prediction by ZEFSAII (Michael W. Deem and Ramdas Pophale) SiO2 
 PCOD9159941
Probable space group: P 21/M
;
_chemical_formula_sum "Si O2"
_cell_formula_units_Z 32
_cell_length_a 18.818042
_cell_length_b 12.359289
_cell_length_c 19.579750
_cell_angle_alpha 90.000000
_cell_angle_beta 160.109033
_cell_angle_gamma 90.000000
_cell_volume 1549.349276
_symmetry_space_group_name_H-M "P 21/M"
_symmetry_group_IT_number 11
_symmetry_cell_setting 'monoclinic'
loop_
_space_group_symop_operation_xyz
x,y,z
-x,1/2+y,-z
-x,-y,-z
x,1/2-y,z
loop_
_atom_site_type_symbol
_atom_site_label
_atom_site_fract_x
_atom_site_fract_y
_atom_site_fract_z
Si Si1 0.357213 0.131590 0.118368
Si Si2 0.307421 0.129169 0.273889
Si Si3 0.508063 0.368136 0.893898
Si Si4 0.637640 0.546344 0.530470
Si Si5 0.312770 0.442221 0.576857
Si Si6 0.975055 0.129788 0.876229
Si Si7 0.085230 0.376185 0.596493
Si Si8 0.130639 0.459594 0.783806
O O1 0.450090 0.250000 0.199425
O O2 0.543744 0.048763 0.295074
O O3 0.186794 0.125263 0.023764
O O4 0.223976 0.107760 0.930452
O O5 0.370096 0.250000 0.306662
O O6 0.349694 0.123403 0.392765
O O7 0.433363 0.028901 0.355366
O O8 0.063913 0.117489 0.033146
O O9 0.605048 0.250000 0.988786
O O10 0.409917 0.378303 0.728830
O O11 0.315380 0.378060 0.771612
O O12 0.683876 0.456743 0.066123
O O13 0.663357 0.599849 0.479324
O O14 0.823738 0.460807 0.711753
O O15 0.075582 0.474936 0.379655
O O16 0.882471 0.250000 0.785325
O O17 0.004646 0.250000 0.505960
O O18 0.082987 0.385319 0.676042
O O19 0.000000 0.500000 0.500000
#
# Coordination Sequence:
#
# PCOD9159941 Si02
#       8
#     4   4   4   4   4   4   4   4
#     4  10  21  35  56  88 124 158 195 253 314 376
#     4  10  22  38  55  81 115 154 203 251 309 373
#     4  10  24  44  65  91 129 172 217 263 318 385
#     4  11  21  36  60  84 115 158 197 255 310 373
#     4  11  22  38  62  90 125 154 208 261 321 378
#     4  10  19  34  56  82 114 151 196 243 306 373
#     4  11  23  43  68 100 137 177 222 271 325 389
#     4  11  22  41  64  94 125 166 216 260 320 376
#
# _framework density 20.653831
#
# number of rings (size 3 to 8) (size 9 to 14) (size 15 to 20)
#    0.000    1.500    3.750    1.500    0.000    3.000 
#    0.000    0.625    0.000    0.000    0.000    0.000 
#    0.000    0.000    0.000    0.000    0.000    0.000 
#
# Total GULP energy -178358.065051 kJ/mol
# GULP energy per Si atom -5573.689533 kJ/mol
# Density = 2.060682 g / cm^3
# Si number density = 20.653831 Si / 1000 Ang^3
#
#
#
# Elastic Constant Matrix: (Units=GPa)
#
#
# Indices 1 2 3 4 5 6 
#
# 1 68.3945 7.4049 -0.0148 0.0000 -7.8008 0.0000
# 2 7.4049 88.7879 7.1144 0.0000 4.2678 0.0000
# 3 -0.0148 7.1144 44.0984 0.0000 -1.1238 0.0000
# 4 0.0000 0.0000 0.0000 4.2740 0.0000 2.2753
# 5 -7.8008 4.2678 -1.1238 0.0000 30.0977 0.0000
# 6 0.0000 0.0000 0.0000 2.2753 0.0000 20.1794
#
#
#
# Elastic Compliance Matrix: (Units=1/GPa)
#
#
# Indices 1 2 3 4 5 6 
#
# 1 0.015261 -0.001502 0.000354 0.000000 0.004182 0.000000
# 2 -0.001502 0.011645 -0.001933 0.000000 -0.002113 0.000000
# 3 0.000354 -0.001933 0.023020 0.000000 0.001225 0.000000
# 4 0.000000 0.000000 0.000000 0.248912 0.000000 -0.028066
# 5 0.004182 -0.002113 0.001225 0.000000 0.034654 0.000000
# 6 0.000000 0.000000 0.000000 -0.028066 0.000000 0.052720
#
#
# Mechanical properties :
#
#
# Convention : Reuss Voigt Hill
#
# Bulk Modulus (GPa) = 22.85045 25.58778 24.21911
# Shear Modulus (GPa) = 12.28618 23.36197 17.82407
#
# Velocity S-wave (km/s) = 2.44162 3.36686 2.94086
# Velocity P-wave (km/s) = 4.36306 5.24692 4.82527
#
# Compressibility (1/GPa) = 0.04376282
#
# Stress axis : x y z
#
# Youngs Moduli (GPa) = 65.52787 85.87741 43.44096
#
# Poissons Ratio (x) = 0.12900 -0.01538
# Poissons Ratio (y) = 0.09843 0.08397
# Poissons Ratio (z) = -0.02320 0.16600
#
# Static dielectric constant tensor:
#      x y z
#    x 1.766480 0.000000 -0.044310 
#    y 0.000000 1.771560 0.000000 
#    z -0.044310 0.000000 1.733500 
# 
# From -- ./inp_files/66543.got.cif
#   From: 2010.05.17/outbox.cif.g08.bks.cpg/sg11_34_cif.got.tgz:66543.got - 2010.06.03 12:22:45.
