data_PCOD9159751
_publ_section_title
;
Structure prediction by ZEFSAII (Michael W. Deem and Ramdas Pophale) SiO2 
 PCOD9159751
Probable space group: P 21/M
;
_chemical_formula_sum "Si O2"
_cell_formula_units_Z 32
_cell_length_a 13.079169
_cell_length_b 8.651988
_cell_length_c 22.079774
_cell_angle_alpha 90.000000
_cell_angle_beta 53.091050
_cell_angle_gamma 90.000000
_cell_volume 1997.829880
_symmetry_space_group_name_H-M "P 21/M"
_symmetry_group_IT_number 11
_symmetry_cell_setting 'monoclinic'
loop_
_space_group_symop_operation_xyz
x,y,z
-x,1/2+y,-z
-x,-y,-z
x,1/2-y,z
loop_
_atom_site_type_symbol
_atom_site_label
_atom_site_fract_x
_atom_site_fract_y
_atom_site_fract_z
Si Si1 0.720092 0.935819 0.159884
Si Si2 0.117557 0.064324 0.678319
Si Si3 0.597032 0.434445 0.415528
Si Si4 0.118270 0.935186 0.997365
Si Si5 0.801497 0.436256 0.581755
Si Si6 0.010605 0.934593 0.594106
Si Si7 0.493437 0.937095 0.325683
Si Si8 0.043699 0.437557 0.837429
O O1 0.726319 0.750000 0.153490
O O2 0.584829 0.979530 0.237009
O O3 0.830285 0.984508 0.168992
O O4 0.757352 0.003309 0.081401
O O5 0.125017 0.250000 0.676408
O O6 0.056611 0.010426 0.763879
O O7 0.260769 0.998014 0.623667
O O8 0.038049 0.009687 0.648815
O O9 0.500000 0.500000 0.500000
O O10 0.598397 0.250000 0.418175
O O11 0.549865 0.490268 0.366558
O O12 0.117624 0.750000 0.994906
O O13 0.080664 0.983546 0.079091
O O14 0.000000 0.000000 0.000000
O O15 0.807704 0.250000 0.585042
O O16 0.876097 0.478964 0.493390
O O17 0.653663 0.482235 0.631337
O O18 0.880646 0.509881 0.608439
O O19 0.011181 0.750000 0.599562
O O20 0.498783 0.750000 0.330323
O O21 0.045071 0.250000 0.835973
#
# Coordination Sequence:
#
# PCOD9159751 Si02
#       8
#     4   4   4   4   4   4   4   4
#     4   9  16  29  46  68  98 130 160 197 244 289
#     4  11  20  34  53  72  98 132 167 203 247 294
#     4  12  24  35  48  70 100 134 169 200 244 297
#     4   9  16  27  43  65  93 128 165 197 236 286
#     4   9  19  35  54  71  91 127 168 205 248 296
#     4  10  20  34  51  74 100 124 162 212 253 292
#     4  10  19  34  53  72  99 131 167 206 246 295
#     4   8  15  28  45  66  95 129 161 194 237 287
#
# _framework density 16.017378999999998
#
# number of rings (size 3 to 8) (size 9 to 14) (size 15 to 20)
#    0.000    2.250    1.250    3.750    0.000    2.500 
#    0.000    1.875    0.000    0.000    0.000    0.875 
#    0.000    0.000    0.000    0.000    0.000    0.000 
#
# Total GULP energy -178431.579676 kJ/mol
# GULP energy per Si atom -5575.986865 kJ/mol
# Density = 1.598092 g / cm^3
# Si number density = 16.017379 Si / 1000 Ang^3
#
#
#
# Elastic Constant Matrix: (Units=GPa)
#
#
# Indices 1 2 3 4 5 6 
#
# 1 52.0888 18.1693 27.4566 0.0000 11.5346 0.0000
# 2 18.1693 33.8601 24.4393 0.0000 3.7851 0.0000
# 3 27.4566 24.4393 106.1021 0.0000 15.9289 0.0000
# 4 0.0000 0.0000 0.0000 22.9086 0.0000 -2.0459
# 5 11.5346 3.7851 15.9289 0.0000 18.1849 0.0000
# 6 0.0000 0.0000 0.0000 -2.0459 0.0000 18.1742
#
#
#
# Elastic Compliance Matrix: (Units=1/GPa)
#
#
# Indices 1 2 3 4 5 6 
#
# 1 0.027337 -0.011418 -0.002531 0.000000 -0.012747 0.000000
# 2 -0.011418 0.040192 -0.007063 0.000000 0.005063 0.000000
# 3 -0.002531 -0.007063 0.012948 0.000000 -0.008266 0.000000
# 4 0.000000 0.000000 0.000000 0.044095 0.000000 0.004964
# 5 -0.012747 0.005063 -0.008266 0.000000 0.069262 0.000000
# 6 0.000000 0.000000 0.000000 0.004964 0.000000 0.055582
#
#
# Mechanical properties :
#
#
# Convention : Reuss Voigt Hill
#
# Bulk Modulus (GPa) = 26.00529 36.90903 31.45716
# Shear Modulus (GPa) = 16.43347 19.98594 18.20970
#
# Velocity S-wave (km/s) = 3.20656 3.53621 3.37541
# Velocity P-wave (km/s) = 5.47543 6.30604 5.90536
#
# Compressibility (1/GPa) = 0.03845371
#
# Stress axis : x y z
#
# Youngs Moduli (GPa) = 36.58022 24.88052 77.23407
#
# Poissons Ratio (x) = 0.28408 0.19545
# Poissons Ratio (y) = 0.41766 0.54553
# Poissons Ratio (z) = 0.09257 0.17574
#
# Static dielectric constant tensor:
#      x y z
#    x 1.502790 0.000000 -0.006370 
#    y 0.000000 1.675830 0.000000 
#    z -0.006370 0.000000 1.566830 
# 
# From -- ./inp_files/64218.got.cif
#   From: 2010.05.17/outbox.cif.g08.bks.cpg/sg11_33_cif.got.tgz:64218.got - 2010.06.03 12:22:45.
