data_PCOD9159293
_publ_section_title
;
Structure prediction by ZEFSAII (Michael W. Deem and Ramdas Pophale) SiO2 
 PCOD9159293
Probable space group: P 21/M
;
_chemical_formula_sum "Si O2"
_cell_formula_units_Z 32
_cell_length_a 12.228232
_cell_length_b 13.704672
_cell_length_c 10.948544
_cell_angle_alpha 90.000000
_cell_angle_beta 99.606570
_cell_angle_gamma 90.000000
_cell_volume 1809.070231
_symmetry_space_group_name_H-M "P 21/M"
_symmetry_group_IT_number 11
_symmetry_cell_setting 'monoclinic'
loop_
_space_group_symop_operation_xyz
x,y,z
-x,1/2+y,-z
-x,-y,-z
x,1/2-y,z
loop_
_atom_site_type_symbol
_atom_site_label
_atom_site_fract_x
_atom_site_fract_y
_atom_site_fract_z
Si Si1 0.551396 0.133623 0.513358
Si Si2 0.868520 0.863708 0.787118
Si Si3 0.415197 0.441426 0.899041
Si Si4 0.390536 0.639882 0.199415
Si Si5 0.873521 0.134997 0.202425
Si Si6 0.706654 0.866328 0.529919
Si Si7 0.227627 0.004263 0.024752
Si Si8 0.709465 0.466947 0.348335
O O1 0.556471 0.250000 0.505921
O O2 0.584890 0.107871 0.657820
O O3 0.422408 0.107570 0.469030
O O4 0.636390 0.090847 0.432448
O O5 0.852110 0.750000 0.819088
O O6 0.781980 0.885642 0.662219
O O7 0.994069 0.873429 0.763139
O O8 0.847548 0.934138 0.897594
O O9 0.491991 0.361120 0.850329
O O10 0.369352 0.506952 0.780170
O O11 0.500000 0.500000 0.000000
O O12 0.307845 0.422747 0.962592
O O13 0.345915 0.750000 0.191111
O O14 0.307160 0.565942 0.119124
O O15 0.846010 0.250000 0.177609
O O16 0.809973 0.094545 0.309828
O O17 0.834391 0.066417 0.082655
O O18 0.711922 0.750000 0.503868
O O19 0.743778 0.933076 0.423113
#
# Coordination Sequence:
#
# PCOD9159293 Si02
#       8
#     4   4   4   4   4   4   4   4
#     4  10  20  32  53  83 113 144 181 224 276 336
#     4  10  22  39  59  81 109 146 191 237 281 324
#     4   9  20  31  47  76 108 140 176 215 265 329
#     4  10  19  33  52  80 115 146 175 221 276 330
#     4  10  22  40  58  81 111 144 187 240 283 327
#     4  10  21  35  54  82 113 149 187 230 275 328
#     4  10  20  36  58  81 106 145 190 226 279 333
#     4  11  20  34  58  79 111 149 184 224 281 335
#
# _framework density 17.688645000000001
#
# number of rings (size 3 to 8) (size 9 to 14) (size 15 to 20)
#    0.000    2.000    1.250    2.250    3.500    1.000 
#    0.000    2.500    0.000    1.500    0.000    0.000 
#    0.000    0.000    0.000    0.000    0.000    0.000 
#
# Total GULP energy -178433.788399 kJ/mol
# GULP energy per Si atom -5576.055887 kJ/mol
# Density = 1.764838 g / cm^3
# Si number density = 17.688645 Si / 1000 Ang^3
#
#
#
# Elastic Constant Matrix: (Units=GPa)
#
#
# Indices 1 2 3 4 5 6 
#
# 1 91.4487 37.9265 56.2292 0.0000 -10.1724 0.0000
# 2 37.9265 64.7805 53.8615 0.0000 -11.1559 0.0000
# 3 56.2292 53.8615 114.5570 0.0000 -11.4850 0.0000
# 4 0.0000 0.0000 0.0000 20.6311 0.0000 -8.9605
# 5 -10.1724 -11.1559 -11.4850 0.0000 25.7600 0.0000
# 6 0.0000 0.0000 0.0000 -8.9605 0.0000 23.4691
#
#
#
# Elastic Compliance Matrix: (Units=1/GPa)
#
#
# Indices 1 2 3 4 5 6 
#
# 1 0.016622 -0.004548 -0.005820 0.000000 0.001999 0.000000
# 2 -0.004548 0.027484 -0.010129 0.000000 0.005590 0.000000
# 3 -0.005820 -0.010129 0.016412 0.000000 0.000632 0.000000
# 4 0.000000 0.000000 0.000000 0.058106 0.000000 0.022185
# 5 0.001999 0.005590 0.000632 0.000000 0.042312 0.000000
# 6 0.000000 0.000000 0.000000 0.022185 0.000000 0.051079
#
#
# Mechanical properties :
#
#
# Convention : Reuss Voigt Hill
#
# Bulk Modulus (GPa) = 51.22120 62.98005 57.10063
# Shear Modulus (GPa) = 19.26638 22.15664 20.71151
#
# Velocity S-wave (km/s) = 3.30388 3.54304 3.42554
# Velocity P-wave (km/s) = 6.60107 7.24014 6.92797
#
# Compressibility (1/GPa) = 0.01952316
#
# Stress axis : x y z
#
# Youngs Moduli (GPa) = 60.15981 36.38425 60.93167
#
# Poissons Ratio (x) = 0.16549 0.35462
# Poissons Ratio (y) = 0.27364 0.61720
# Poissons Ratio (z) = 0.35012 0.36855
#
# Static dielectric constant tensor:
#      x y z
#    x 1.601290 0.000000 -0.011900 
#    y 0.000000 1.613260 0.000000 
#    z -0.011900 0.000000 1.590630 
# 
# From -- ./inp_files/18051.got.cif
#   From: 2010.05.17/outbox.cif.g08.bks.cpg/sg11_10_cif.got.tgz:18051.got - 2010.06.03 12:22:45.
