data_PCOD9159106
_publ_section_title
;
Structure prediction by ZEFSAII (Michael W. Deem and Ramdas Pophale) SiO2 
 PCOD9159106
Probable space group: P 21/M
;
_chemical_formula_sum "Si O2"
_cell_formula_units_Z 32
_cell_length_a 30.244200
_cell_length_b 8.971435
_cell_length_c 20.967836
_cell_angle_alpha 90.000000
_cell_angle_beta 19.160991
_cell_angle_gamma 90.000000
_cell_volume 1867.357367
_symmetry_space_group_name_H-M "P 21/M"
_symmetry_group_IT_number 11
_symmetry_cell_setting 'monoclinic'
loop_
_space_group_symop_operation_xyz
x,y,z
-x,1/2+y,-z
-x,-y,-z
x,1/2-y,z
loop_
_atom_site_type_symbol
_atom_site_label
_atom_site_fract_x
_atom_site_fract_y
_atom_site_fract_z
Si Si1 0.081767 0.570109 0.702702
Si Si2 0.354098 0.928560 0.627826
Si Si3 0.901090 0.929069 0.825071
Si Si4 0.353877 0.570873 0.127150
Si Si5 0.633427 0.428972 0.740649
Si Si6 0.062811 0.930145 0.477278
Si Si7 0.940305 0.070981 0.017622
Si Si8 0.364419 0.572228 0.763757
O O1 0.076218 0.750000 0.718523
O O2 0.236208 0.527627 0.477668
O O3 0.993342 0.533076 0.760611
O O4 0.021031 0.490234 0.846690
O O5 0.371951 0.750000 0.599745
O O6 0.338899 0.967106 0.723742
O O7 0.488849 0.007653 0.419899
O O8 0.216970 0.969342 0.778706
O O9 0.886014 0.750000 0.845254
O O10 0.977506 0.972694 0.656300
O O11 0.756308 0.003534 0.031158
O O12 0.363077 0.750000 0.111539
O O13 0.341511 0.530554 0.219118
O O14 0.217998 0.523881 0.276778
O O15 0.492038 0.500713 0.913898
O O16 0.622159 0.250000 0.753453
O O17 0.060322 0.750000 0.476647
O O18 0.000000 0.000000 0.500000
O O19 0.948987 0.250000 0.008162
O O20 0.000000 0.000000 0.000000
O O21 0.364607 0.750000 0.768817
#
# Coordination Sequence:
#
# PCOD9159106 Si02
#       8
#     4   4   4   4   4   4   4   4
#     4  10  19  34  57  82 108 142 183 225 270 321
#     4   9  19  35  53  78 111 143 175 218 271 323
#     4  10  19  34  56  80 109 144 182 224 273 323
#     4   9  17  32  52  77 109 141 175 220 270 317
#     4   9  17  31  53  81 108 136 176 222 268 320
#     4  10  21  37  55  78 110 147 183 221 269 324
#     4  11  23  39  57  81 113 145 181 222 269 325
#     4  10  19  32  54  84 111 136 177 228 271 317
#
# _framework density 17.136517999999999
#
# number of rings (size 3 to 8) (size 9 to 14) (size 15 to 20)
#    0.000    2.250    2.500    0.750    0.000    3.000 
#    0.000    1.250    0.000    1.500    0.000    0.000 
#    0.000    0.000    0.000    0.000    0.000    0.000 
#
# Total GULP energy -178545.550228 kJ/mol
# GULP energy per Si atom -5579.548445 kJ/mol
# Density = 1.709751 g / cm^3
# Si number density = 17.136518 Si / 1000 Ang^3
#
#
#
# Elastic Constant Matrix: (Units=GPa)
#
#
# Indices 1 2 3 4 5 6 
#
# 1 123.4639 43.3782 90.1467 0.0000 -12.6309 0.0000
# 2 43.3782 26.0040 55.4647 0.0000 -5.3275 0.0000
# 3 90.1467 55.4647 187.0208 0.0000 -20.6341 0.0000
# 4 0.0000 0.0000 0.0000 33.4164 0.0000 -0.1442
# 5 -12.6309 -5.3275 -20.6341 0.0000 26.2620 0.0000
# 6 0.0000 0.0000 0.0000 -0.1442 0.0000 26.5761
#
#
#
# Elastic Compliance Matrix: (Units=1/GPa)
#
#
# Indices 1 2 3 4 5 6 
#
# 1 0.019869 -0.034888 0.001142 0.000000 0.003376 0.000000
# 2 -0.034888 0.166208 -0.033512 0.000000 -0.009394 0.000000
# 3 0.001142 -0.033512 0.015379 0.000000 0.005834 0.000000
# 4 0.000000 0.000000 0.000000 0.029926 0.000000 0.000162
# 5 0.003376 -0.009394 0.005834 0.000000 0.042380 0.000000
# 6 0.000000 0.000000 0.000000 0.000162 0.000000 0.037629
#
#
# Mechanical properties :
#
#
# Convention : Reuss Voigt Hill
#
# Bulk Modulus (GPa) = 14.93884 79.38532 47.16208
# Shear Modulus (GPa) = 10.67874 27.08418 18.88146
#
# Velocity S-wave (km/s) = 2.49902 3.97986 3.32298
# Velocity P-wave (km/s) = 4.13077 8.21857 6.50416
#
# Compressibility (1/GPa) = 0.06693960
#
# Stress axis : x y z
#
# Youngs Moduli (GPa) = 50.33059 6.01654 65.02505
#
# Poissons Ratio (x) = 0.20991 -0.07428
# Poissons Ratio (y) = 1.75596 2.17912
# Poissons Ratio (z) = -0.05750 0.20163
#
# Static dielectric constant tensor:
#      x y z
#    x 1.559310 0.000000 -0.007540 
#    y 0.000000 1.574250 0.000000 
#    z -0.007540 0.000000 1.571480 
# 
# From -- ./inp_files/67406.got.cif
#   From: 2010.05.17/outbox.cif.g08.bks.cpg/sg11_34_cif.got.tgz:67406.got - 2010.06.03 12:22:45.
