data_PCOD9159989
_publ_section_title
;
Structure prediction by ZEFSAII (Michael W. Deem and Ramdas Pophale) SiO2 
 PCOD9159989
Probable space group: P 21/M
;
_chemical_formula_sum "Si O2"
_cell_formula_units_Z 32
_cell_length_a 16.613800
_cell_length_b 8.830366
_cell_length_c 12.510388
_cell_angle_alpha 90.000000
_cell_angle_beta 91.118728
_cell_angle_gamma 90.000000
_cell_volume 1834.998317
_symmetry_space_group_name_H-M "P 21/M"
_symmetry_group_IT_number 11
_symmetry_cell_setting 'monoclinic'
loop_
_space_group_symop_operation_xyz
x,y,z
-x,1/2+y,-z
-x,-y,-z
x,1/2-y,z
loop_
_atom_site_type_symbol
_atom_site_label
_atom_site_fract_x
_atom_site_fract_y
_atom_site_fract_z
Si Si1 0.872731 0.067884 0.488922
Si Si2 0.462239 0.430480 0.605840
Si Si3 0.624014 0.930253 0.021241
Si Si4 0.509399 0.930515 0.826504
Si Si5 0.286457 0.932582 0.636466
Si Si6 0.774405 0.431772 0.125296
Si Si7 0.019155 0.432310 0.335421
Si Si8 0.960839 0.067087 0.104383
O O1 0.873740 0.250000 0.495531
O O2 0.784406 0.022436 0.447191
O O3 0.938948 0.024402 0.400570
O O4 0.905141 0.999586 0.599830
O O5 0.500000 0.500000 0.500000
O O6 0.464937 0.250000 0.601644
O O7 0.508524 0.489459 0.712460
O O8 0.370486 0.487375 0.616186
O O9 0.618866 0.750000 0.037846
O O10 0.567123 0.011869 0.106944
O O11 0.713716 0.988244 0.042456
O O12 0.586015 0.963560 0.904120
O O13 0.502714 0.750000 0.811888
O O14 0.297265 0.750000 0.630644
O O15 0.254981 0.967185 0.755113
O O16 0.768660 0.250000 0.112626
O O17 0.867042 0.476245 0.112693
O O18 0.023854 0.250000 0.337902
O O19 0.007099 0.481504 0.213330
O O20 0.963596 0.250000 0.100698
O O21 0.000000 0.000000 0.000000
#
# Coordination Sequence:
#
# PCOD9159989 Si02
#       8
#     4   4   4   4   4   4   4   4
#     4   9  17  31  54  82 109 139 179 225 274 327
#     4  12  25  40  59  84 114 148 188 230 279 338
#     4  10  20  33  55  87 115 142 184 234 279 327
#     4  10  20  36  56  81 116 151 183 226 279 330
#     4  10  19  35  58  83 111 145 184 231 280 329
#     4  10  19  34  57  81 111 148 187 231 282 331
#     4   9  17  32  52  77 110 144 180 223 274 324
#     4  10  21  37  55  79 111 151 188 225 277 333
#
# _framework density 17.438707000000001
#
# number of rings (size 3 to 8) (size 9 to 14) (size 15 to 20)
#    0.000    2.000    2.500    1.875    0.000    3.000 
#    0.000    1.250    0.000    3.000    0.000    0.000 
#    0.000    0.000    0.000    0.000    0.000    0.000 
#
# Total GULP energy -178620.995197 kJ/mol
# GULP energy per Si atom -5581.906100 kJ/mol
# Density = 1.739902 g / cm^3
# Si number density = 17.438707 Si / 1000 Ang^3
#
#
#
# Elastic Constant Matrix: (Units=GPa)
#
#
# Indices 1 2 3 4 5 6 
#
# 1 108.7685 49.6056 83.6894 0.0000 15.4845 0.0000
# 2 49.6056 53.7582 60.1929 0.0000 5.6478 0.0000
# 3 83.6894 60.1929 161.1276 0.0000 15.0633 0.0000
# 4 0.0000 0.0000 0.0000 31.0670 0.0000 3.5456
# 5 15.4845 5.6478 15.0633 0.0000 32.4460 0.0000
# 6 0.0000 0.0000 0.0000 3.5456 0.0000 29.2402
#
#
#
# Elastic Compliance Matrix: (Units=1/GPa)
#
#
# Indices 1 2 3 4 5 6 
#
# 1 0.018990 -0.011135 -0.005266 0.000000 -0.004680 0.000000
# 2 -0.011135 0.038507 -0.008856 0.000000 0.002723 0.000000
# 3 -0.005266 -0.008856 0.012409 0.000000 -0.001706 0.000000
# 4 0.000000 0.000000 0.000000 0.032640 0.000000 -0.003958
# 5 -0.004680 0.002723 -0.001706 0.000000 0.033372 0.000000
# 6 0.000000 0.000000 0.000000 -0.003958 0.000000 0.034679
#
#
# Mechanical properties :
#
#
# Convention : Reuss Voigt Hill
#
# Bulk Modulus (GPa) = 51.56847 78.95890 65.26368
# Shear Modulus (GPa) = 21.97053 27.22841 24.59947
#
# Velocity S-wave (km/s) = 3.55332 3.95571 3.75990
# Velocity P-wave (km/s) = 6.81691 8.13878 7.50700
#
# Compressibility (1/GPa) = 0.01939169
#
# Stress axis : x y z
#
# Youngs Moduli (GPa) = 52.65795 25.96939 80.58351
#
# Poissons Ratio (x) = 0.28917 0.42438
# Poissons Ratio (y) = 0.58636 0.71365
# Poissons Ratio (z) = 0.27731 0.22999
#
# Static dielectric constant tensor:
#      x y z
#    x 1.581170 0.000000 0.021990 
#    y 0.000000 1.586550 0.000000 
#    z 0.021990 0.000000 1.582340 
# 
# From -- ./inp_files/38065.got.cif
#   From: 2010.05.17/outbox.cif.g08.bks.cpg/sg11_20_cif.got.tgz:38065.got - 2010.06.03 12:22:45.
