data_PCOD9159196
_publ_section_title
;
Structure prediction by ZEFSAII (Michael W. Deem and Ramdas Pophale) SiO2 
 PCOD9159196
Probable space group: P 21/M
;
_chemical_formula_sum "Si O2"
_cell_formula_units_Z 32
_cell_length_a 12.712803
_cell_length_b 7.935265
_cell_length_c 23.983645
_cell_angle_alpha 90.000000
_cell_angle_beta 135.902812
_cell_angle_gamma 90.000000
_cell_volume 1683.645933
_symmetry_space_group_name_H-M "P 21/M"
_symmetry_group_IT_number 11
_symmetry_cell_setting 'monoclinic'
loop_
_space_group_symop_operation_xyz
x,y,z
-x,1/2+y,-z
-x,-y,-z
x,1/2-y,z
loop_
_atom_site_type_symbol
_atom_site_label
_atom_site_fract_x
_atom_site_fract_y
_atom_site_fract_z
Si Si1 0.565457 0.447390 0.787934
Si Si2 0.176536 0.045791 0.308611
Si Si3 0.527075 0.047606 0.648600
Si Si4 0.657142 0.055877 0.994927
Si Si5 0.622626 0.054866 0.182374
Si Si6 0.163624 0.543149 0.829801
Si Si7 0.648244 0.547254 0.520904
Si Si8 0.842575 0.943106 0.965653
O O1 0.605067 0.250000 0.798591
O O2 0.525292 0.513759 0.711391
O O3 0.432062 0.464984 0.782441
O O4 0.710274 0.538311 0.869560
O O5 0.177402 0.250000 0.308470
O O6 0.217054 0.989004 0.387378
O O7 0.009202 0.989022 0.228240
O O8 0.311667 0.990044 0.319243
O O9 0.511661 0.250000 0.644805
O O10 0.393760 0.983123 0.556797
O O11 0.610158 0.250000 0.984817
O O12 0.517107 0.958804 0.914484
O O13 0.788427 0.048811 0.998261
O O14 0.726690 0.987681 0.078480
O O15 0.646183 0.250000 0.205277
O O16 0.766362 0.990272 0.202742
O O17 0.165992 0.750000 0.831789
O O18 0.500000 0.500000 0.500000
O O19 0.660385 0.750000 0.522131
O O20 0.852455 0.750000 0.987372
O O21 0.000000 0.000000 0.000000
#
# Coordination Sequence:
#
# PCOD9159196 Si02
#       8
#     4   4   4   4   4   4   4   4
#     4  10  20  34  50  70  96 126 164 202 239 283
#     4   9  17  30  49  74  99 126 157 191 240 294
#     4   9  18  31  48  73 101 126 155 196 238 286
#     4  10  19  33  50  70  95 125 162 202 242 284
#     4  10  19  34  51  68  93 126 166 205 242 282
#     4   9  19  32  49  73  98 123 158 205 243 283
#     4   8  14  27  47  69  96 126 154 187 234 288
#     4  11  22  35  49  68  97 130 162 196 240 286
#
# _framework density 19.006373
#
# number of rings (size 3 to 8) (size 9 to 14) (size 15 to 20)
#    0.000    2.500    0.000    4.125    1.750    1.000 
#    0.000    3.750    0.000    0.750    0.000    0.000 
#    0.000    0.000    0.000    0.000    0.000    1.000 
#
# Total GULP energy -178386.173222 kJ/mol
# GULP energy per Si atom -5574.567913 kJ/mol
# Density = 1.896311 g / cm^3
# Si number density = 19.006373 Si / 1000 Ang^3
#
#
#
# Elastic Constant Matrix: (Units=GPa)
#
#
# Indices 1 2 3 4 5 6 
#
# 1 63.3131 -8.0569 35.8215 0.0000 -20.6521 0.0000
# 2 -8.0569 28.5043 -2.3511 0.0000 -1.2957 0.0000
# 3 35.8215 -2.3511 73.5949 0.0000 -32.6467 0.0000
# 4 0.0000 0.0000 0.0000 13.3854 0.0000 0.6042
# 5 -20.6521 -1.2957 -32.6467 0.0000 26.1789 0.0000
# 6 0.0000 0.0000 0.0000 0.6042 0.0000 14.0151
#
#
#
# Elastic Compliance Matrix: (Units=1/GPa)
#
#
# Indices 1 2 3 4 5 6 
#
# 1 0.023965 0.006741 -0.006524 0.000000 0.011104 0.000000
# 2 0.006741 0.037659 0.002480 0.000000 0.010274 0.000000
# 3 -0.006524 0.002480 0.032708 0.000000 0.035765 0.000000
# 4 0.000000 0.000000 0.000000 0.074854 0.000000 -0.003227
# 5 0.011104 0.010274 0.035765 0.000000 0.092068 0.000000
# 6 0.000000 0.000000 0.000000 -0.003227 0.000000 0.071491
#
#
# Mechanical properties :
#
#
# Convention : Reuss Voigt Hill
#
# Bulk Modulus (GPa) = 10.02758 24.02658 17.02708
# Shear Modulus (GPa) = 13.86603 20.04915 16.95759
#
# Velocity S-wave (km/s) = 2.70394 3.25139 2.99022
# Velocity P-wave (km/s) = 3.87760 5.17341 4.57165
#
# Compressibility (1/GPa) = 0.09972492
#
# Stress axis : x y z
#
# Youngs Moduli (GPa) = 41.72693 26.55392 30.57376
#
# Poissons Ratio (x) = -0.17899 0.19946
# Poissons Ratio (y) = -0.28127 -0.07581
# Poissons Ratio (z) = 0.27222 -0.06584
#
# Static dielectric constant tensor:
#      x y z
#    x 1.652250 0.000000 -0.022440 
#    y 0.000000 1.667500 0.000000 
#    z -0.022440 0.000000 1.687330 
# 
# From -- ./inp_files/68322.got.cif
#   From: 2010.05.17/outbox.cif.g08.bks.cpg/sg11_35_cif.got.tgz:68322.got - 2010.06.03 12:22:45.
