data_PCOD9159773
_publ_section_title
;
Structure prediction by ZEFSAII (Michael W. Deem and Ramdas Pophale) SiO2 
 PCOD9159773
Probable space group: P 21/M
;
_chemical_formula_sum "Si O2"
_cell_formula_units_Z 32
_cell_length_a 26.041660
_cell_length_b 8.802087
_cell_length_c 12.301306
_cell_angle_alpha 90.000000
_cell_angle_beta 134.783008
_cell_angle_gamma 90.000000
_cell_volume 2001.377913
_symmetry_space_group_name_H-M "P 21/M"
_symmetry_group_IT_number 11
_symmetry_cell_setting 'monoclinic'
loop_
_space_group_symop_operation_xyz
x,y,z
-x,1/2+y,-z
-x,-y,-z
x,1/2-y,z
loop_
_atom_site_type_symbol
_atom_site_label
_atom_site_fract_x
_atom_site_fract_y
_atom_site_fract_z
Si Si1 0.227107 0.433419 0.386790
Si Si2 0.427294 0.068327 0.444141
Si Si3 0.357232 0.434088 0.732616
Si Si4 0.633302 0.932155 0.001303
Si Si5 0.806039 0.568893 0.898224
Si Si6 0.922399 0.931886 0.906784
Si Si7 0.699295 0.070503 0.891773
Si Si8 0.464164 0.931812 0.725515
O O1 0.227079 0.250000 0.394386
O O2 0.286860 0.487775 0.559637
O O3 0.242107 0.467887 0.281852
O O4 0.142931 0.482269 0.271967
O O5 0.429496 0.250000 0.445042
O O6 0.500000 0.000000 0.500000
O O7 0.360740 0.010421 0.273137
O O8 0.426073 0.009852 0.565851
O O9 0.362853 0.250000 0.732688
O O10 0.426417 0.507519 0.777982
O O11 0.351952 0.472114 0.851504
O O12 0.641206 0.750000 0.000894
O O13 0.549396 0.969597 0.850971
O O14 0.684346 0.013925 0.991118
O O15 0.801005 0.750000 0.909331
O O16 0.886165 0.533691 0.970819
O O17 0.775774 0.480001 0.955060
O O18 0.927491 0.750000 0.907298
O O19 0.000000 0.000000 0.000000
O O20 0.690376 0.250000 0.871613
O O21 0.457264 0.750000 0.708147
#
# Coordination Sequence:
#
# PCOD9159773 Si02
#       8
#     4   4   4   4   4   4   4   4
#     4   7  14  29  49  73  98 126 160 193 238 291
#     4  12  23  36  53  71  94 126 165 209 258 307
#     4  10  19  34  54  72  93 132 176 211 251 295
#     4  10  22  36  50  67  95 134 174 215 255 299
#     4   8  16  31  50  72 102 134 158 191 241 294
#     4   8  15  28  48  76 107 135 156 187 236 291
#     4  12  23  34  50  72  97 129 166 208 256 300
#     4  11  22  35  50  72  98 128 167 213 262 303
#
# _framework density 15.988984
#
# number of rings (size 3 to 8) (size 9 to 14) (size 15 to 20)
#    0.750    1.500    1.250    3.750    0.000    2.500 
#    0.000    0.625    0.000    0.000    0.000    0.875 
#    0.000    0.000    0.000    0.000    0.000    0.000 
#
# Total GULP energy -178244.810137 kJ/mol
# GULP energy per Si atom -5570.150317 kJ/mol
# Density = 1.595259 g / cm^3
# Si number density = 15.988984 Si / 1000 Ang^3
#
#
#
# Elastic Constant Matrix: (Units=GPa)
#
#
# Indices 1 2 3 4 5 6 
#
# 1 122.8694 47.7805 39.1210 0.0000 -6.8154 0.0000
# 2 47.7805 55.5239 20.9293 0.0000 -7.8571 0.0000
# 3 39.1210 20.9293 34.7191 0.0000 -11.9132 0.0000
# 4 0.0000 0.0000 0.0000 16.4749 0.0000 -0.0200
# 5 -6.8154 -7.8571 -11.9132 0.0000 25.8453 0.0000
# 6 0.0000 0.0000 0.0000 -0.0200 0.0000 29.7534
#
#
#
# Elastic Compliance Matrix: (Units=1/GPa)
#
#
# Indices 1 2 3 4 5 6 
#
# 1 0.015899 -0.009047 -0.014215 0.000000 -0.005110 0.000000
# 2 -0.009047 0.028465 -0.005719 0.000000 0.003632 0.000000
# 3 -0.014215 -0.005719 0.055099 0.000000 0.019910 0.000000
# 4 0.000000 0.000000 0.000000 0.060698 0.000000 0.000041
# 5 -0.005110 0.003632 0.019910 0.000000 0.047626 0.000000
# 6 0.000000 0.000000 0.000000 0.000041 0.000000 0.033610
#
#
# Mechanical properties :
#
#
# Convention : Reuss Voigt Hill
#
# Bulk Modulus (GPa) = 24.09536 47.64154 35.86845
# Shear Modulus (GPa) = 15.96455 21.43349 18.69902
#
# Velocity S-wave (km/s) = 3.16329 3.66528 3.42350
# Velocity P-wave (km/s) = 5.33334 6.91184 6.17325
#
# Compressibility (1/GPa) = 0.04150177
#
# Stress axis : x y z
#
# Youngs Moduli (GPa) = 62.89574 35.13054 18.14904
#
# Poissons Ratio (x) = 0.31782 0.25799
# Poissons Ratio (y) = 0.56901 0.10380
# Poissons Ratio (z) = 0.89405 0.20092
#
# Static dielectric constant tensor:
#      x y z
#    x 1.554300 0.000000 0.003210 
#    y 0.000000 1.524780 0.000000 
#    z 0.003210 0.000000 1.541550 
# 
# From -- ./inp_files/44398.got.cif
#   From: 2010.05.17/outbox.cif.g08.bks.cpg/sg11_23_cif.got.tgz:44398.got - 2010.06.03 12:22:45.
