data_PCOD9159315
_publ_section_title
;
Structure prediction by ZEFSAII (Michael W. Deem and Ramdas Pophale) SiO2 
 PCOD9159315
Probable space group: P 21/M
;
_chemical_formula_sum "Si O2"
_cell_formula_units_Z 28
_cell_length_a 18.338966
_cell_length_b 8.496454
_cell_length_c 16.752595
_cell_angle_alpha 90.000000
_cell_angle_beta 25.330422
_cell_angle_gamma 90.000000
_cell_volume 1116.795966
_symmetry_space_group_name_H-M "P 21/M"
_symmetry_group_IT_number 11
_symmetry_cell_setting 'monoclinic'
loop_
_space_group_symop_operation_xyz
x,y,z
-x,1/2+y,-z
-x,-y,-z
x,1/2-y,z
loop_
_atom_site_type_symbol
_atom_site_label
_atom_site_fract_x
_atom_site_fract_y
_atom_site_fract_z
Si Si1 0.324280 0.567841 0.478489
Si Si2 0.484560 0.931798 0.857304
Si Si3 0.674253 0.928233 0.232713
Si Si4 0.130480 0.932278 0.104638
Si Si5 0.724906 0.059669 0.793493
Si Si6 0.053518 0.939898 0.566879
Si Si7 0.157019 0.565642 0.795123
O O1 0.279262 0.750000 0.509053
O O2 0.380642 0.501528 0.337869
O O3 0.498369 0.563452 0.358884
O O4 0.194774 0.492574 0.670825
O O5 0.528846 0.750000 0.826958
O O6 0.305239 0.935981 0.984790
O O7 0.426671 0.006780 0.999722
O O8 0.700568 0.750000 0.234356
O O9 0.689555 0.038826 0.294002
O O10 0.818281 0.973071 0.024973
O O11 0.096411 0.750000 0.120274
O O12 0.983378 0.003674 0.306604
O O13 0.708821 0.250000 0.809232
O O14 0.779814 0.009846 0.649544
O O15 0.895040 0.012909 0.674631
O O16 0.044848 0.750000 0.573171
O O17 0.135473 0.750000 0.804276
O O18 0.000000 0.500000 0.000000
#
# Coordination Sequence:
#
# PCOD9159315 Si02
#       7
#     4   4   4   4   4   4   4
#     4   9  19  33  50  72  97 124 158 198 238 282
#     4   8  14  24  39  59  85 118 155 192 231 275
#     4  10  19  33  53  75  96 123 159 197 239 285
#     4   9  16  26  39  59  88 120 154 192 232 275
#     4   8  14  22  31  49  80 117 153 189 230 274
#     4   9  14  20  32  51  79 116 155 191 228 272
#     4  11  23  38  53  72  98 126 156 194 239 286
#
# _framework density 25.071722999999999
#
# number of rings (size 3 to 8) (size 9 to 14) (size 15 to 20)
#    0.000    2.857    0.000    3.000    0.000    5.714 
#    0.000    0.000    0.000    0.000    0.000    0.000 
#    0.000    1.143    0.000    3.429    0.000   11.286 
#
# Total GULP energy -156499.745796 kJ/mol
# GULP energy per Si atom -5589.276636 kJ/mol
# Density = 2.501466 g / cm^3
# Si number density = 25.071723 Si / 1000 Ang^3
#
#
#
# Elastic Constant Matrix: (Units=GPa)
#
#
# Indices 1 2 3 4 5 6 
#
# 1 106.2436 3.2495 36.2264 0.0000 45.3021 0.0000
# 2 3.2495 49.4707 42.4827 0.0000 20.3140 0.0000
# 3 36.2264 42.4827 240.1394 0.0000 43.9690 0.0000
# 4 0.0000 0.0000 0.0000 32.1514 0.0000 8.3101
# 5 45.3021 20.3140 43.9690 0.0000 58.5920 0.0000
# 6 0.0000 0.0000 0.0000 8.3101 0.0000 24.4991
#
#
#
# Elastic Compliance Matrix: (Units=1/GPa)
#
#
# Indices 1 2 3 4 5 6 
#
# 1 0.014924 0.004898 -0.000805 0.000000 -0.012633 0.000000
# 2 0.004898 0.027350 -0.003649 0.000000 -0.010531 0.000000
# 3 -0.000805 -0.003649 0.005316 0.000000 -0.002102 0.000000
# 4 0.000000 0.000000 0.000000 0.034092 0.000000 -0.011564
# 5 -0.012633 -0.010531 -0.002102 0.000000 0.032063 0.000000
# 6 0.000000 0.000000 0.000000 -0.011564 0.000000 0.044740
#
#
# Mechanical properties :
#
#
# Convention : Reuss Voigt Hill
#
# Bulk Modulus (GPa) = 20.62772 62.19677 41.41224
# Shear Modulus (GPa) = 28.77593 43.97482 36.37537
#
# Velocity S-wave (km/s) = 3.39151 4.19258 3.81314
# Velocity P-wave (km/s) = 4.85611 6.94970 5.99500
#
# Compressibility (1/GPa) = 0.04847846
#
# Stress axis : x y z
#
# Youngs Moduli (GPa) = 67.00812 36.56264 188.10855
#
# Poissons Ratio (x) = -0.17909 0.15139
# Poissons Ratio (y) = -0.32822 0.68644
# Poissons Ratio (z) = 0.05393 0.13342
#
# Static dielectric constant tensor:
#      x y z
#    x 2.122620 0.000000 -0.067160 
#    y 0.000000 1.880990 0.000000 
#    z -0.067160 0.000000 2.058130 
# 
# From -- ./inp_files/61276.got.cif
#   From: 2010.05.17/outbox.cif.g08.bks.cpg/sg11_31_cif.got.tgz:61276.got - 2010.06.03 12:22:45.
