data_PCOD9159244
_publ_section_title
;
Structure prediction by ZEFSAII (Michael W. Deem and Ramdas Pophale) SiO2 
 PCOD9159244
Probable space group: P 21/M
;
_chemical_formula_sum "Si O2"
_cell_formula_units_Z 32
_cell_length_a 15.291425
_cell_length_b 8.954050
_cell_length_c 31.381758
_cell_angle_alpha 90.000000
_cell_angle_beta 28.544458
_cell_angle_gamma 90.000000
_cell_volume 2053.183293
_symmetry_space_group_name_H-M "P 21/M"
_symmetry_group_IT_number 11
_symmetry_cell_setting 'monoclinic'
loop_
_space_group_symop_operation_xyz
x,y,z
-x,1/2+y,-z
-x,-y,-z
x,1/2-y,z
loop_
_atom_site_type_symbol
_atom_site_label
_atom_site_fract_x
_atom_site_fract_y
_atom_site_fract_z
Si Si1 0.662869 0.072191 0.210189
Si Si2 0.038997 0.570516 0.079058
Si Si3 0.251666 0.927810 0.249311
Si Si4 0.286177 0.572389 0.386416
Si Si5 0.683502 0.572545 0.867246
Si Si6 0.054450 0.427556 0.409523
Si Si7 0.258716 0.571652 0.068783
Si Si8 0.378433 0.928484 0.872698
O O1 0.651855 0.250000 0.220361
O O2 0.652695 0.040530 0.163768
O O3 0.486971 0.993820 0.306265
O O4 0.851684 0.009930 0.147705
O O5 0.013485 0.750000 0.088310
O O6 0.117125 0.531855 0.092269
O O7 0.198331 0.532898 0.976909
O O8 0.246943 0.750000 0.251763
O O9 0.237573 0.990283 0.207613
O O10 0.098589 0.994793 0.346164
O O11 0.445452 0.985929 0.185091
O O12 0.294079 0.750000 0.375509
O O13 0.194046 0.493586 0.384920
O O14 0.147414 0.545547 0.484986
O O15 0.705698 0.750000 0.853533
O O16 0.764892 0.514168 0.876872
O O17 0.464801 0.540690 0.963705
O O18 0.084072 0.250000 0.393548
O O19 0.248916 0.750000 0.080506
O O20 0.410992 0.750000 0.864024
#
# Coordination Sequence:
#
# PCOD9159244 Si02
#       8
#     4   4   4   4   4   4   4   4
#     4  11  22  33  50  73 102 138 176 214 249 294
#     4  10  20  35  52  69 100 139 176 214 250 294
#     4  12  22  31  50  77 103 135 171 206 248 307
#     4  10  20  34  52  74  98 131 170 208 253 301
#     4  10  19  33  52  72 101 133 164 209 258 302
#     4  10  20  34  52  73 101 131 165 209 255 302
#     4   9  18  33  51  73  98 131 170 211 254 297
#     4  10  20  35  49  68 101 140 175 212 251 288
#
# _framework density 15.585556
#
# number of rings (size 3 to 8) (size 9 to 14) (size 15 to 20)
#    0.000    1.750    2.500    3.000    0.000    3.500 
#    0.000    0.000    0.000    0.000    0.000    0.875 
#    0.000    0.000    0.000    0.000    0.000    0.000 
#
# Total GULP energy -178692.446962 kJ/mol
# GULP energy per Si atom -5584.138968 kJ/mol
# Density = 1.555008 g / cm^3
# Si number density = 15.585556 Si / 1000 Ang^3
#
#
#
# Elastic Constant Matrix: (Units=GPa)
#
#
# Indices 1 2 3 4 5 6 
#
# 1 80.5703 52.8115 62.5617 0.0000 7.7511 0.0000
# 2 52.8115 74.2205 66.4240 0.0000 10.9367 0.0000
# 3 62.5617 66.4240 116.5960 0.0000 12.1607 0.0000
# 4 0.0000 0.0000 0.0000 24.7309 0.0000 -0.0867
# 5 7.7511 10.9367 12.1607 0.0000 23.8942 0.0000
# 6 0.0000 0.0000 0.0000 -0.0867 0.0000 25.2728
#
#
#
# Elastic Compliance Matrix: (Units=1/GPa)
#
#
# Indices 1 2 3 4 5 6 
#
# 1 0.025722 -0.012225 -0.006917 0.000000 0.000772 0.000000
# 2 -0.012225 0.033846 -0.012166 0.000000 -0.005334 0.000000
# 3 -0.006917 -0.012166 0.019436 0.000000 -0.002079 0.000000
# 4 0.000000 0.000000 0.000000 0.040436 0.000000 0.000139
# 5 0.000772 -0.005334 -0.002079 0.000000 0.045101 0.000000
# 6 0.000000 0.000000 0.000000 0.000139 0.000000 0.039569
#
#
# Mechanical properties :
#
#
# Convention : Reuss Voigt Hill
#
# Bulk Modulus (GPa) = 61.02471 70.55347 65.78909
# Shear Modulus (GPa) = 18.36962 20.75223 19.56092
#
# Velocity S-wave (km/s) = 3.43684 3.65294 3.54654
# Velocity P-wave (km/s) = 7.41545 7.94724 7.68595
#
# Compressibility (1/GPa) = 0.01638680
#
# Stress axis : x y z
#
# Youngs Moduli (GPa) = 38.87747 29.54533 51.45122
#
# Poissons Ratio (x) = 0.36121 0.35590
# Poissons Ratio (y) = 0.47530 0.62595
# Poissons Ratio (z) = 0.26893 0.35944
#
# Static dielectric constant tensor:
#      x y z
#    x 1.493410 0.000000 0.010370 
#    y 0.000000 1.517250 0.000000 
#    z 0.010370 0.000000 1.517160 
# 
# From -- ./inp_files/51236.got.cif
#   From: 2010.05.17/outbox.cif.g08.bks.cpg/sg11_26_cif.got.tgz:51236.got - 2010.06.03 12:22:45.
