data_PCOD9159966
_publ_section_title
;
Structure prediction by ZEFSAII (Michael W. Deem and Ramdas Pophale) SiO2 
 PCOD9159966
Probable space group: P 21/M
;
_chemical_formula_sum "Si O2"
_cell_formula_units_Z 32
_cell_length_a 31.112340
_cell_length_b 8.659103
_cell_length_c 11.316448
_cell_angle_alpha 90.000000
_cell_angle_beta 147.315810
_cell_angle_gamma 90.000000
_cell_volume 1646.326562
_symmetry_space_group_name_H-M "P 21/M"
_symmetry_group_IT_number 11
_symmetry_cell_setting 'monoclinic'
loop_
_space_group_symop_operation_xyz
x,y,z
-x,1/2+y,-z
-x,-y,-z
x,1/2-y,z
loop_
_atom_site_type_symbol
_atom_site_label
_atom_site_fract_x
_atom_site_fract_y
_atom_site_fract_z
Si Si1 0.999124 0.065009 0.631814
Si Si2 0.410770 0.066632 0.582831
Si Si3 0.830125 0.063792 0.344060
Si Si4 0.696585 0.565548 0.178288
Si Si5 0.839212 0.072247 0.904709
Si Si6 0.457214 0.564405 0.284424
Si Si7 0.730086 0.427641 0.883599
Si Si8 0.689139 0.936528 0.428509
O O1 0.997684 0.250000 0.619332
O O2 0.919365 0.015656 0.516951
O O3 0.000000 0.000000 0.500000
O O4 0.077204 0.010884 0.882292
O O5 0.418981 0.250000 0.615522
O O6 0.492061 0.008436 0.712819
O O7 0.376167 0.004691 0.627058
O O8 0.342569 0.030352 0.328630
O O9 0.829153 0.250000 0.353389
O O10 0.785287 0.988747 0.350290
O O11 0.775101 0.021513 0.104602
O O12 0.691772 0.750000 0.160020
O O13 0.675500 0.514606 0.262702
O O14 0.632358 0.492218 0.941044
O O15 0.851411 0.250000 0.898020
O O16 0.795114 0.071243 0.929741
O O17 0.775751 0.992325 0.671849
O O18 0.500000 0.500000 0.500000
O O19 0.458819 0.750000 0.293017
O O20 0.702164 0.250000 0.833635
O O21 0.688242 0.750000 0.430400
#
# Coordination Sequence:
#
# PCOD9159966 Si02
#       8
#     4   4   4   4   4   4   4   4
#     4  11  21  35  56  86 120 152 187 234 289 342
#     4   9  19  35  56  82 109 146 191 231 277 334
#     4  10  21  37  55  79 115 152 190 233 285 343
#     4  11  24  40  59  83 113 151 194 238 289 343
#     4  10  19  34  56  85 116 147 188 234 285 343
#     4  11  23  39  60  87 119 151 188 232 287 346
#     4   9  17  31  51  79 113 145 179 226 281 335
#     4   9  20  40  60  81 112 150 195 243 285 332
#
# _framework density 19.437213
#
# number of rings (size 3 to 8) (size 9 to 14) (size 15 to 20)
#    0.000    2.000    1.250    2.250    0.000    6.500 
#    0.000    0.625    0.000    0.000    0.000    0.000 
#    0.000    0.000    0.000    0.000    0.000    0.000 
#
# Total GULP energy -178627.940361 kJ/mol
# GULP energy per Si atom -5582.123136 kJ/mol
# Density = 1.939297 g / cm^3
# Si number density = 19.437213 Si / 1000 Ang^3
#
#
#
# Elastic Constant Matrix: (Units=GPa)
#
#
# Indices 1 2 3 4 5 6 
#
# 1 88.5073 24.4642 48.7115 0.0000 14.3623 0.0000
# 2 24.4642 25.0873 12.4804 0.0000 5.4929 0.0000
# 3 48.7115 12.4804 77.7409 0.0000 16.5769 0.0000
# 4 0.0000 0.0000 0.0000 22.9277 0.0000 1.7718
# 5 14.3623 5.4929 16.5769 0.0000 35.8305 0.0000
# 6 0.0000 0.0000 0.0000 1.7718 0.0000 23.9397
#
#
#
# Elastic Compliance Matrix: (Units=1/GPa)
#
#
# Indices 1 2 3 4 5 6 
#
# 1 0.021802 -0.015558 -0.010882 0.000000 -0.001320 0.000000
# 2 -0.015558 0.054894 0.001554 0.000000 -0.002898 0.000000
# 3 -0.010882 0.001554 0.020584 0.000000 -0.005399 0.000000
# 4 0.000000 0.000000 0.000000 0.043866 0.000000 -0.003247
# 5 -0.001320 -0.002898 -0.005399 0.000000 0.031380 0.000000
# 6 0.000000 0.000000 0.000000 -0.003247 0.000000 0.042012
#
#
# Mechanical properties :
#
#
# Convention : Reuss Voigt Hill
#
# Bulk Modulus (GPa) = 21.04940 40.29419 30.67180
# Shear Modulus (GPa) = 17.84784 23.58486 20.71635
#
# Velocity S-wave (km/s) = 3.03352 3.48715 3.26821
# Velocity P-wave (km/s) = 4.80860 6.08186 5.48232
#
# Compressibility (1/GPa) = 0.04750728
#
# Stress axis : x y z
#
# Youngs Moduli (GPa) = 45.86728 18.21696 48.58259
#
# Poissons Ratio (x) = 0.28342 0.52867
# Poissons Ratio (y) = 0.71361 -0.07549
# Poissons Ratio (z) = 0.49912 -0.02831
#
# Static dielectric constant tensor:
#      x y z
#    x 1.724050 0.000000 0.012990 
#    y 0.000000 1.662190 0.000000 
#    z 0.012990 0.000000 1.645020 
# 
# From -- ./inp_files/45261.got.cif
#   From: 2010.05.17/outbox.cif.g08.bks.cpg/sg11_23_cif.got.tgz:45261.got - 2010.06.03 12:22:45.
