data_PCOD9159585
_publ_section_title
;
Structure prediction by ZEFSAII (Michael W. Deem and Ramdas Pophale) SiO2 
 PCOD9159585
Probable space group: P 21/M
;
_chemical_formula_sum "Si O2"
_cell_formula_units_Z 32
_cell_length_a 21.681826
_cell_length_b 8.548837
_cell_length_c 26.724350
_cell_angle_alpha 90.000000
_cell_angle_beta 159.613218
_cell_angle_gamma 90.000000
_cell_volume 1725.572058
_symmetry_space_group_name_H-M "P 21/M"
_symmetry_group_IT_number 11
_symmetry_cell_setting 'monoclinic'
loop_
_space_group_symop_operation_xyz
x,y,z
-x,1/2+y,-z
-x,-y,-z
x,1/2-y,z
loop_
_atom_site_type_symbol
_atom_site_label
_atom_site_fract_x
_atom_site_fract_y
_atom_site_fract_z
Si Si1 0.288920 0.439078 0.963098
Si Si2 0.601497 0.439489 0.276734
Si Si3 0.304031 0.562642 0.863100
Si Si4 0.988502 0.937621 0.547930
Si Si5 0.304261 0.063312 0.348875
Si Si6 0.335625 0.440201 0.160065
Si Si7 0.804489 0.561014 0.843289
Si Si8 0.025271 0.061898 0.849734
O O1 0.291283 0.250000 0.961017
O O2 0.267336 0.509874 0.892004
O O3 0.126720 0.484310 0.876225
O O4 0.471203 0.483025 0.131097
O O5 0.612796 0.250000 0.284801
O O6 0.796870 0.508263 0.421984
O O7 0.499055 0.489230 0.249507
O O8 0.308181 0.750000 0.863639
O O9 0.151717 0.508892 0.707868
O O10 0.500000 0.500000 0.000000
O O11 0.995247 0.750000 0.551625
O O12 0.000000 0.000000 0.500000
O O13 0.302969 0.250000 0.349193
O O14 0.243503 0.006788 0.248178
O O15 0.500000 0.000000 0.500000
O O16 0.168262 0.002903 0.287094
O O17 0.338883 0.250000 0.162063
O O18 0.320480 0.492006 0.205851
O O19 0.156511 0.487701 0.994672
O O20 0.802881 0.750000 0.842660
O O21 0.000000 0.500000 0.000000
O O22 0.017615 0.250000 0.844395
#
# Coordination Sequence:
#
# PCOD9159585 Si02
#       8
#     4   4   4   4   4   4   4   4
#     4   9  19  36  60  88 112 142 186 228 272 332
#     4   9  18  35  59  85 112 144 183 225 273 329
#     4  11  24  40  59  84 116 149 187 229 270 323
#     4  11  24  40  58  84 116 147 181 224 271 323
#     4  11  23  36  52  78 112 149 190 233 282 337
#     4   8  15  31  56  82 108 139 178 227 277 325
#     4  10  19  33  56  82 107 140 187 235 279 331
#     4   9  17  34  59  81 108 145 184 228 280 333
#
# _framework density 18.544573
#
# number of rings (size 3 to 8) (size 9 to 14) (size 15 to 20)
#    0.000    2.250    1.250    3.375    0.000    6.500 
#    2.250    2.500    0.000    0.000    0.000    0.000 
#    0.000    0.000    0.000    0.000    0.000    0.000 
#
# Total GULP energy -178462.732695 kJ/mol
# GULP energy per Si atom -5576.960397 kJ/mol
# Density = 1.850237 g / cm^3
# Si number density = 18.544573 Si / 1000 Ang^3
#
#
#
# Elastic Constant Matrix: (Units=GPa)
#
#
# Indices 1 2 3 4 5 6 
#
# 1 139.8667 27.8963 84.8851 0.0000 6.3726 0.0000
# 2 27.8963 18.1538 30.1805 0.0000 0.3366 0.0000
# 3 84.8851 30.1805 159.3569 0.0000 11.7927 0.0000
# 4 0.0000 0.0000 0.0000 29.2224 0.0000 5.3097
# 5 6.3726 0.3366 11.7927 0.0000 32.3345 0.0000
# 6 0.0000 0.0000 0.0000 5.3097 0.0000 26.7665
#
#
#
# Elastic Compliance Matrix: (Units=1/GPa)
#
#
# Indices 1 2 3 4 5 6 
#
# 1 0.012004 -0.011519 -0.004159 0.000000 -0.000729 0.000000
# 2 -0.011519 0.092199 -0.011739 0.000000 0.005592 0.000000
# 3 -0.004159 -0.011739 0.010939 0.000000 -0.003048 0.000000
# 4 0.000000 0.000000 0.000000 0.035500 0.000000 -0.007042
# 5 -0.000729 0.005592 -0.003048 0.000000 0.032124 0.000000
# 6 0.000000 0.000000 0.000000 -0.007042 0.000000 0.038757
#
#
# Mechanical properties :
#
#
# Convention : Reuss Voigt Hill
#
# Bulk Modulus (GPa) = 16.58153 67.03347 41.80750
# Shear Modulus (GPa) = 16.86561 29.29237 23.07899
#
# Velocity S-wave (km/s) = 3.01900 3.97869 3.53159
# Velocity P-wave (km/s) = 4.59493 7.57181 6.26281
#
# Compressibility (1/GPa) = 0.06030805
#
# Stress axis : x y z
#
# Youngs Moduli (GPa) = 83.30294 10.84609 91.41286
#
# Poissons Ratio (x) = 0.12494 0.38017
# Poissons Ratio (y) = 0.95958 1.07313
# Poissons Ratio (z) = 0.34644 0.12733
#
# Static dielectric constant tensor:
#      x y z
#    x 1.656220 0.000000 0.000370 
#    y 0.000000 1.634330 0.000000 
#    z 0.000370 0.000000 1.610620 
# 
# From -- ./inp_files/72146.got.cif
#   From: 2010.05.17/outbox.cif.g08.bks.cpg/sg11_37_cif.got.tgz:72146.got - 2010.06.03 12:22:45.
