data_PCOD9159713
_publ_section_title
;
Structure prediction by ZEFSAII (Michael W. Deem and Ramdas Pophale) SiO2 
 PCOD9159713
Probable space group: P 21/M
;
_chemical_formula_sum "Si O2"
_cell_formula_units_Z 28
_cell_length_a 19.794777
_cell_length_b 13.918653
_cell_length_c 9.674731
_cell_angle_alpha 90.000000
_cell_angle_beta 31.415436
_cell_angle_gamma 90.000000
_cell_volume 1389.389765
_symmetry_space_group_name_H-M "P 21/M"
_symmetry_group_IT_number 11
_symmetry_cell_setting 'monoclinic'
loop_
_space_group_symop_operation_xyz
x,y,z
-x,1/2+y,-z
-x,-y,-z
x,1/2-y,z
loop_
_atom_site_type_symbol
_atom_site_label
_atom_site_fract_x
_atom_site_fract_y
_atom_site_fract_z
Si Si1 0.533278 0.864178 0.802018
Si Si2 0.664602 0.468918 0.431940
Si Si3 0.866593 0.005765 0.312307
Si Si4 0.770153 0.138467 0.710445
Si Si5 0.156468 0.635684 0.098018
Si Si6 0.585182 0.634634 0.032974
Si Si7 0.135388 0.364098 0.466391
O O1 0.551174 0.750000 0.757034
O O2 0.616746 0.921999 0.542889
O O3 0.381194 0.886697 0.045735
O O4 0.566417 0.891939 0.903172
O O5 0.757905 0.453737 0.400744
O O6 0.533408 0.408449 0.675682
O O7 0.748490 0.432233 0.156625
O O8 0.859855 0.072545 0.458680
O O9 0.848685 0.899118 0.403999
O O10 0.000000 0.000000 0.000000
O O11 0.784752 0.250000 0.643260
O O12 0.807693 0.129959 0.804358
O O13 0.169315 0.750000 0.033936
O O14 0.006052 0.605585 0.339280
O O15 0.578686 0.750000 0.050286
O O16 0.727462 0.602782 0.837838
O O17 0.135385 0.250000 0.457027
#
# Coordination Sequence:
#
# PCOD9159713 Si02
#       7
#     4   4   4   4   4   4   4
#     4  10  20  35  60  90 123 162 204 255 313 365
#     4  12  21  36  63  96 123 157 207 264 304 364
#     4  12  23  37  61  96 120 155 206 257 305 357
#     4  10  23  43  64  87 124 168 206 247 306 377
#     4  10  23  42  63  88 124 168 207 249 308 372
#     4  10  19  33  59  93 122 154 202 260 313 358
#     4  10  21  38  59  87 125 162 201 251 308 368
#
# _framework density 20.152733999999999
#
# number of rings (size 3 to 8) (size 9 to 14) (size 15 to 20)
#    0.000    1.429    4.286    1.714    0.000    2.286 
#    0.000    0.000    0.000    0.857    0.000    0.000 
#    0.000    0.000    0.000    0.000    0.000    0.000 
#
# Total GULP energy -156229.506262 kJ/mol
# GULP energy per Si atom -5579.625224 kJ/mol
# Density = 2.010687 g / cm^3
# Si number density = 20.152734 Si / 1000 Ang^3
#
#
#
# Elastic Constant Matrix: (Units=GPa)
#
#
# Indices 1 2 3 4 5 6 
#
# 1 67.1057 24.1620 64.8356 0.0000 -14.8188 0.0000
# 2 24.1620 71.7522 51.7699 0.0000 -5.9671 0.0000
# 3 64.8356 51.7699 143.7484 0.0000 -32.3229 0.0000
# 4 0.0000 0.0000 0.0000 31.2745 0.0000 -3.0836
# 5 -14.8188 -5.9671 -32.3229 0.0000 29.5309 0.0000
# 6 0.0000 0.0000 0.0000 -3.0836 0.0000 19.7933
#
#
#
# Elastic Compliance Matrix: (Units=1/GPa)
#
#
# Indices 1 2 3 4 5 6 
#
# 1 0.026423 -0.000447 -0.011667 0.000000 0.000399 0.000000
# 2 -0.000447 0.019364 -0.007883 0.000000 -0.004940 0.000000
# 3 -0.011667 -0.007883 0.017753 0.000000 0.011983 0.000000
# 4 0.000000 0.000000 0.000000 0.032474 0.000000 0.005059
# 5 0.000399 -0.004940 0.011983 0.000000 0.046181 0.000000
# 6 0.000000 0.000000 0.000000 0.005059 0.000000 0.051310
#
#
# Mechanical properties :
#
#
# Convention : Reuss Voigt Hill
#
# Bulk Modulus (GPa) = 42.47025 62.68236 52.57630
# Shear Modulus (GPa) = 20.71693 25.57565 23.14629
#
# Velocity S-wave (km/s) = 3.20972 3.56630 3.39269
# Velocity P-wave (km/s) = 5.90392 6.93752 6.44148
#
# Compressibility (1/GPa) = 0.02354589
#
# Stress axis : x y z
#
# Youngs Moduli (GPa) = 37.84530 51.64154 56.32967
#
# Poissons Ratio (x) = 0.02306 0.65722
# Poissons Ratio (y) = 0.01690 0.44406
# Poissons Ratio (z) = 0.44156 0.40710
#
# Static dielectric constant tensor:
#      x y z
#    x 1.713620 0.000000 -0.030810 
#    y 0.000000 1.770510 0.000000 
#    z -0.030810 0.000000 1.712960 
# 
# From -- ./inp_files/26906.got.cif
#   From: 2010.05.17/outbox.cif.g08.bks.cpg/sg11_14_cif.got.tgz:26906.got - 2010.06.03 12:22:45.
