data_PCOD9159783
_publ_section_title
;
Structure prediction by ZEFSAII (Michael W. Deem and Ramdas Pophale) SiO2 
 PCOD9159783
Probable space group: P 21/M
;
_chemical_formula_sum "Si O2"
_cell_formula_units_Z 24
_cell_length_a 22.633586
_cell_length_b 8.612337
_cell_length_c 9.945097
_cell_angle_alpha 90.000000
_cell_angle_beta 43.874569
_cell_angle_gamma 90.000000
_cell_volume 1343.593793
_symmetry_space_group_name_H-M "P 21/M"
_symmetry_group_IT_number 11
_symmetry_cell_setting 'monoclinic'
loop_
_space_group_symop_operation_xyz
x,y,z
-x,1/2+y,-z
-x,-y,-z
x,1/2-y,z
loop_
_atom_site_type_symbol
_atom_site_label
_atom_site_fract_x
_atom_site_fract_y
_atom_site_fract_z
Si Si1 0.527868 0.564374 0.309284
Si Si2 0.094442 0.063206 0.864601
Si Si3 0.724607 0.938027 0.940293
Si Si4 0.239538 0.061502 0.418146
Si Si5 0.367493 0.436348 0.435467
Si Si6 0.778136 0.434988 0.130917
O O1 0.500000 0.500000 0.500000
O O2 0.523686 0.750000 0.320402
O O3 0.460361 0.503114 0.311449
O O4 0.624898 0.519303 0.118722
O O5 0.094075 0.250000 0.871279
O O6 0.156318 0.015039 0.639391
O O7 0.140121 0.997653 0.922672
O O8 0.000000 0.000000 0.000000
O O9 0.730349 0.750000 0.938734
O O10 0.756791 0.990499 0.741322
O O11 0.774380 0.009981 0.983718
O O12 0.240437 0.250000 0.414455
O O13 0.321909 0.014651 0.371390
O O14 0.370486 0.250000 0.435391
O O15 0.304035 0.493789 0.657433
O O16 0.774275 0.250000 0.145894
#
# Coordination Sequence:
#
# PCOD9159783 Si02
#       6
#     4   4   4   4   4   4
#     4  11  21  31  50  77 109 145 190 232 268 316
#     4  10  20  38  63  87 110 138 175 219 268 326
#     4  10  20  36  55  77 108 147 184 224 274 319
#     4   8  18  36  57  79 107 142 179 222 274 324
#     4  10  19  34  54  76 106 146 188 230 272 317
#     4  11  21  34  55  82 110 142 183 223 267 322
#
# _framework density 17.862539999999999
#
# number of rings (size 3 to 8) (size 9 to 14) (size 15 to 20)
#    0.000    2.000    1.667    4.000    0.000    1.333 
#    0.000    5.833    0.000    0.000    0.000    0.000 
#    0.000    0.000    0.000    0.000    0.000    0.000 
#
# Total GULP energy -133991.007785 kJ/mol
# GULP energy per Si atom -5582.958658 kJ/mol
# Density = 1.782188 g / cm^3
# Si number density = 17.862540 Si / 1000 Ang^3
#
#
#
# Elastic Constant Matrix: (Units=GPa)
#
#
# Indices 1 2 3 4 5 6 
#
# 1 163.7602 42.0115 91.0070 0.0000 4.2251 0.0000
# 2 42.0115 52.8833 31.6076 0.0000 -0.6856 0.0000
# 3 91.0070 31.6076 98.3823 0.0000 16.1360 0.0000
# 4 0.0000 0.0000 0.0000 12.4233 0.0000 -5.0424
# 5 4.2251 -0.6856 16.1360 0.0000 35.9469 0.0000
# 6 0.0000 0.0000 0.0000 -5.0424 0.0000 33.5504
#
#
#
# Elastic Compliance Matrix: (Units=1/GPa)
#
#
# Indices 1 2 3 4 5 6 
#
# 1 0.013644 -0.003563 -0.012092 0.000000 0.003757 0.000000
# 2 -0.003563 0.024915 -0.005241 0.000000 0.003247 0.000000
# 3 -0.012092 -0.005241 0.024631 0.000000 -0.009735 0.000000
# 4 0.000000 0.000000 0.000000 0.085723 0.000000 0.012883
# 5 0.003757 0.003247 -0.009735 0.000000 0.031809 0.000000
# 6 0.000000 0.000000 0.000000 0.012883 0.000000 0.031742
#
#
# Mechanical properties :
#
#
# Convention : Reuss Voigt Hill
#
# Bulk Modulus (GPa) = 46.73677 71.58643 59.16160
# Shear Modulus (GPa) = 19.12863 26.41077 22.76970
#
# Velocity S-wave (km/s) = 3.27598 3.84937 3.57419
# Velocity P-wave (km/s) = 6.36639 7.74081 7.08700
#
# Compressibility (1/GPa) = 0.02139643
#
# Stress axis : x y z
#
# Youngs Moduli (GPa) = 73.29387 40.13716 40.59937
#
# Poissons Ratio (x) = 0.14300 0.49094
# Poissons Ratio (y) = 0.26112 0.21279
# Poissons Ratio (z) = 0.88630 0.21037
#
# Static dielectric constant tensor:
#      x y z
#    x 1.606950 0.000000 0.010820 
#    y 0.000000 1.600280 0.000000 
#    z 0.010820 0.000000 1.598800 
# 
# From -- ./inp_files/25727.got.cif
#   From: 2010.05.17/outbox.cif.g08.bks.cpg/sg11_13_cif.got.tgz:25727.got - 2010.06.03 12:22:45.
