data_PCOD9159828
_publ_section_title
;
Structure prediction by ZEFSAII (Michael W. Deem and Ramdas Pophale) SiO2 
 PCOD9159828
Probable space group: P 21/M
;
_chemical_formula_sum "Si O2"
_cell_formula_units_Z 32
_cell_length_a 11.710234
_cell_length_b 7.506119
_cell_length_c 22.300564
_cell_angle_alpha 90.000000
_cell_angle_beta 50.978697
_cell_angle_gamma 90.000000
_cell_volume 1522.890408
_symmetry_space_group_name_H-M "P 21/M"
_symmetry_group_IT_number 11
_symmetry_cell_setting 'monoclinic'
loop_
_space_group_symop_operation_xyz
x,y,z
-x,1/2+y,-z
-x,-y,-z
x,1/2-y,z
loop_
_atom_site_type_symbol
_atom_site_label
_atom_site_fract_x
_atom_site_fract_y
_atom_site_fract_z
Si Si1 0.984574 0.462859 0.575142
Si Si2 0.169903 0.960914 0.933562
Si Si3 0.279335 0.033912 0.542270
Si Si4 0.317915 0.953341 0.129638
Si Si5 0.313162 0.530858 0.264369
Si Si6 0.586203 0.960563 0.378788
Si Si7 0.658923 0.031726 0.005804
Si Si8 0.601208 0.541470 0.239705
O O1 0.983930 0.250000 0.583392
O O2 0.125522 0.530154 0.565711
O O3 0.000000 0.500000 0.500000
O O4 0.826995 0.525704 0.650790
O O5 0.189278 0.750000 0.925291
O O6 0.254724 0.027645 0.964316
O O7 0.249159 0.029331 0.847602
O O8 0.000000 0.000000 0.000000
O O9 0.276646 0.250000 0.544595
O O10 0.318302 0.968798 0.596616
O O11 0.416568 0.982835 0.454685
O O12 0.263464 0.750000 0.149741
O O13 0.289332 0.033687 0.204101
O O14 0.494812 0.957927 0.065459
O O15 0.270142 0.027724 0.080869
O O16 0.319113 0.750000 0.259685
O O17 0.466058 0.469899 0.243907
O O18 0.619189 0.750000 0.365445
O O19 0.610053 0.034719 0.304066
O O20 0.650763 0.250000 0.007264
O O21 0.566303 0.750000 0.259192
#
# Coordination Sequence:
#
# PCOD9159828 Si02
#       8
#     4   4   4   4   4   4   4   4
#     4  10  20  34  51  76 108 139 174 212 259 310
#     4  11  23  38  54  76 106 138 174 216 263 311
#     4   9  18  33  52  78 109 142 178 217 260 307
#     4   9  16  30  53  77 100 131 166 204 254 305
#     4   9  17  30  51  76 102 134 170 209 254 307
#     4   9  18  33  55  80 105 140 180 218 258 306
#     4   9  18  32  51  77 102 128 166 209 254 303
#     4  10  19  34  55  78 102 134 178 217 259 312
#
# _framework density 21.012671999999998
#
# number of rings (size 3 to 8) (size 9 to 14) (size 15 to 20)
#    0.000    2.500    1.250    1.125    0.000    2.500 
#    2.250    1.250    0.000    0.000    0.000    0.000 
#    0.000    0.000    0.000    0.000    0.000    0.000 
#
# Total GULP energy -178493.446517 kJ/mol
# GULP energy per Si atom -5577.920204 kJ/mol
# Density = 2.096485 g / cm^3
# Si number density = 21.012672 Si / 1000 Ang^3
#
#
#
# Elastic Constant Matrix: (Units=GPa)
#
#
# Indices 1 2 3 4 5 6 
#
# 1 80.1874 -2.9270 58.1637 0.0000 10.1388 0.0000
# 2 -2.9270 54.3179 -8.6536 0.0000 7.6066 0.0000
# 3 58.1637 -8.6536 171.4005 0.0000 32.2154 0.0000
# 4 0.0000 0.0000 0.0000 13.8972 0.0000 -6.9623
# 5 10.1388 7.6066 32.2154 0.0000 37.1199 0.0000
# 6 0.0000 0.0000 0.0000 -6.9623 0.0000 6.9009
#
#
#
# Elastic Compliance Matrix: (Units=1/GPa)
#
#
# Indices 1 2 3 4 5 6 
#
# 1 0.016549 -0.000079 -0.005704 0.000000 0.000446 0.000000
# 2 -0.000079 0.019556 0.002107 0.000000 -0.005814 0.000000
# 3 -0.005704 0.002107 0.009158 0.000000 -0.006822 0.000000
# 4 0.000000 0.000000 0.000000 0.145500 0.000000 0.146796
# 5 0.000446 -0.005814 -0.006822 0.000000 0.033930 0.000000
# 6 0.000000 0.000000 0.000000 0.146796 0.000000 0.293011
#
#
# Mechanical properties :
#
#
# Convention : Reuss Voigt Hill
#
# Bulk Modulus (GPa) = 26.37748 44.34133 35.35940
# Shear Modulus (GPa) = 9.29899 28.87176 19.08538
#
# Velocity S-wave (km/s) = 2.10595 3.71079 3.01704
# Velocity P-wave (km/s) = 4.30044 6.28554 5.38525
#
# Compressibility (1/GPa) = 0.03791113
#
# Stress axis : x y z
#
# Youngs Moduli (GPa) = 60.42840 51.13572 109.18935
#
# Poissons Ratio (x) = 0.00406 0.62276
# Poissons Ratio (y) = 0.00480 -0.23007
# Poissons Ratio (z) = 0.34465 -0.10775
#
# Static dielectric constant tensor:
#      x y z
#    x 1.754670 0.000000 0.052840 
#    y 0.000000 1.738790 0.000000 
#    z 0.052840 0.000000 1.752180 
# 
# From -- ./inp_files/64379.got.cif
#   From: 2010.05.17/outbox.cif.g08.bks.cpg/sg11_33_cif.got.tgz:64379.got - 2010.06.03 12:22:45.
