data_PCOD9159566
_publ_section_title
;
Structure prediction by ZEFSAII (Michael W. Deem and Ramdas Pophale) SiO2 
 PCOD9159566
Probable space group: P 21/M
;
_chemical_formula_sum "Si O2"
_cell_formula_units_Z 32
_cell_length_a 26.784325
_cell_length_b 8.981904
_cell_length_c 20.037023
_cell_angle_alpha 90.000000
_cell_angle_beta 18.837432
_cell_angle_gamma 90.000000
_cell_volume 1556.427690
_symmetry_space_group_name_H-M "P 21/M"
_symmetry_group_IT_number 11
_symmetry_cell_setting 'monoclinic'
loop_
_space_group_symop_operation_xyz
x,y,z
-x,1/2+y,-z
-x,-y,-z
x,1/2-y,z
loop_
_atom_site_type_symbol
_atom_site_label
_atom_site_fract_x
_atom_site_fract_y
_atom_site_fract_z
Si Si1 0.615734 0.427697 0.800058
Si Si2 0.618525 0.571203 0.006970
Si Si3 0.856174 0.428701 0.599773
Si Si4 0.246011 0.427128 0.682000
Si Si5 0.126140 0.420678 0.084685
Si Si6 0.834361 0.425307 0.828036
Si Si7 0.483531 0.419232 0.591199
Si Si8 0.013819 0.928296 0.878377
O O1 0.598099 0.250000 0.826747
O O2 0.784315 0.460356 0.616518
O O3 0.500000 0.500000 0.000000
O O4 0.550457 0.468705 0.809661
O O5 0.631605 0.750000 0.994798
O O6 0.739438 0.505246 0.799577
O O7 0.674783 0.498115 0.004297
O O8 0.859419 0.250000 0.605778
O O9 0.024689 0.498771 0.390290
O O10 0.257368 0.250000 0.663677
O O11 0.411411 0.497712 0.487734
O O12 0.159757 0.491915 0.726681
O O13 0.133782 0.464125 0.887410
O O14 0.083603 0.250000 0.159188
O O15 0.303379 0.415824 0.836252
O O16 0.128904 0.531257 0.142814
O O17 0.023461 0.465278 0.150996
O O18 0.831644 0.250000 0.820635
O O19 0.500000 0.500000 0.500000
O O20 0.539898 0.250000 0.514357
O O21 0.034855 0.750000 0.855244
#
# Coordination Sequence:
#
# PCOD9159566 Si02
#       8
#     4   4   4   4   4   4   4   4
#     4   8  16  30  53  82 108 136 175 220 271 322
#     4  10  19  35  58  84 113 146 185 231 277 327
#     4  10  19  35  58  84 112 145 185 231 279 329
#     4  10  19  33  55  87 116 142 180 224 271 326
#     4  10  22  41  59  78 109 147 188 230 279 335
#     4  12  25  38  53  79 111 148 190 231 281 333
#     4  11  21  36  59  86 113 144 182 226 278 333
#     4   9  18  35  56  81 111 144 180 223 273 327
#
# _framework density 20.559901
#
# number of rings (size 3 to 8) (size 9 to 14) (size 15 to 20)
#    0.000    2.000    1.250    3.000    0.000    3.000 
#    0.000    1.250    0.000    3.000    0.000    0.000 
#    0.000    0.000    0.000    0.000    0.000    0.000 
#
# Total GULP energy -178652.661565 kJ/mol
# GULP energy per Si atom -5582.895674 kJ/mol
# Density = 2.051311 g / cm^3
# Si number density = 20.559901 Si / 1000 Ang^3
#
#
#
# Elastic Constant Matrix: (Units=GPa)
#
#
# Indices 1 2 3 4 5 6 
#
# 1 142.3976 50.1392 21.4288 0.0000 -40.0505 0.0000
# 2 50.1392 67.6094 13.7750 0.0000 -14.7388 0.0000
# 3 21.4288 13.7750 23.2468 0.0000 -18.9165 0.0000
# 4 0.0000 0.0000 0.0000 20.4848 0.0000 -3.9873
# 5 -40.0505 -14.7388 -18.9165 0.0000 36.9147 0.0000
# 6 0.0000 0.0000 0.0000 -3.9873 0.0000 34.2125
#
#
#
# Elastic Compliance Matrix: (Units=1/GPa)
#
#
# Indices 1 2 3 4 5 6 
#
# 1 0.012570 -0.007203 0.002467 0.000000 0.012026 0.000000
# 2 -0.007203 0.021115 -0.009212 0.000000 -0.004105 0.000000
# 3 0.002467 -0.009212 0.077847 0.000000 0.038890 0.000000
# 4 0.000000 0.000000 0.000000 0.049950 0.000000 0.005821
# 5 0.012026 -0.004105 0.038890 0.000000 0.058427 0.000000
# 6 0.000000 0.000000 0.000000 0.005821 0.000000 0.029908
#
#
# Mechanical properties :
#
#
# Convention : Reuss Voigt Hill
#
# Bulk Modulus (GPa) = 11.95669 44.88222 28.41945
# Shear Modulus (GPa) = 16.36175 28.18311 22.27243
#
# Velocity S-wave (km/s) = 2.82407 3.70642 3.29491
# Velocity P-wave (km/s) = 4.05734 6.33988 5.32241
#
# Compressibility (1/GPa) = 0.08363519
#
# Stress axis : x y z
#
# Youngs Moduli (GPa) = 79.55493 47.36071 12.84569
#
# Poissons Ratio (x) = 0.34113 -0.03169
# Poissons Ratio (y) = 0.57302 0.11834
# Poissons Ratio (z) = -0.19626 0.43631
#
# Static dielectric constant tensor:
#      x y z
#    x 1.808090 0.000000 -0.019100 
#    y 0.000000 1.683660 0.000000 
#    z -0.019100 0.000000 1.733650 
# 
# From -- ./inp_files/67097.got.cif
#   From: 2010.05.17/outbox.cif.g08.bks.cpg/sg11_34_cif.got.tgz:67097.got - 2010.06.03 12:22:45.
