data_PCOD9159270
_publ_section_title
;
Structure prediction by ZEFSAII (Michael W. Deem and Ramdas Pophale) SiO2 
 PCOD9159270
Probable space group: P 21/M
;
_chemical_formula_sum "Si O2"
_cell_formula_units_Z 28
_cell_length_a 32.200869
_cell_length_b 8.731189
_cell_length_c 19.617402
_cell_angle_alpha 90.000000
_cell_angle_beta 17.736995
_cell_angle_gamma 90.000000
_cell_volume 1680.277339
_symmetry_space_group_name_H-M "P 21/M"
_symmetry_group_IT_number 11
_symmetry_cell_setting 'monoclinic'
loop_
_space_group_symop_operation_xyz
x,y,z
-x,1/2+y,-z
-x,-y,-z
x,1/2-y,z
loop_
_atom_site_type_symbol
_atom_site_label
_atom_site_fract_x
_atom_site_fract_y
_atom_site_fract_z
Si Si1 0.213393 0.433650 0.663156
Si Si2 0.990100 0.932875 0.625854
Si Si3 0.089741 0.931652 0.107839
Si Si4 0.609054 0.565719 0.382605
Si Si5 0.982423 0.431512 0.137949
Si Si6 0.786812 0.065167 0.834252
Si Si7 0.475874 0.436284 0.331470
O O1 0.214209 0.250000 0.651053
O O2 0.362023 0.486233 0.455293
O O3 0.150057 0.513843 0.696291
O O4 0.109882 0.463424 0.887944
O O5 0.983956 0.750000 0.642892
O O6 0.123902 0.972301 0.372079
O O7 0.862758 0.990038 0.779623
O O8 0.983326 0.010515 0.709644
O O9 0.104653 0.750000 0.086106
O O10 0.239805 0.006775 0.869830
O O11 0.008654 0.983261 0.167413
O O12 0.500000 0.500000 0.500000
O O13 0.607887 0.750000 0.381520
O O14 0.568017 0.518065 0.523613
O O15 0.978735 0.250000 0.155645
O O16 0.790847 0.250000 0.836573
O O17 0.630061 0.015867 0.075186
O O18 0.473360 0.250000 0.334550
#
# Coordination Sequence:
#
# PCOD9159270 Si02
#       7
#     4   4   4   4   4   4   4
#     4   9  17  32  52  75 103 136 167 205 257 318
#     4  10  20  34  53  77 105 137 176 222 263 305
#     4  12  23  35  52  74 103 142 181 218 259 308
#     4  11  21  34  50  76 110 142 171 208 258 315
#     4  10  19  33  52  76 104 134 169 215 260 311
#     4   9  18  34  56  79 103 136 176 215 259 314
#     4   9  17  32  53  75 103 135 168 206 255 312
#
# _framework density 16.663916
#
# number of rings (size 3 to 8) (size 9 to 14) (size 15 to 20)
#    0.000    2.000    1.429    3.429    0.000    2.286 
#    0.000    1.429    0.000    0.857    0.000    0.000 
#    0.000    0.000    0.000    0.000    0.000    0.000 
#
# Total GULP energy -156308.754079 kJ/mol
# GULP energy per Si atom -5582.455503 kJ/mol
# Density = 1.662599 g / cm^3
# Si number density = 16.663916 Si / 1000 Ang^3
#
#
#
# Elastic Constant Matrix: (Units=GPa)
#
#
# Indices 1 2 3 4 5 6 
#
# 1 122.5137 47.5549 48.8768 0.0000 -3.1640 0.0000
# 2 47.5549 51.8851 29.3237 0.0000 3.3967 0.0000
# 3 48.8768 29.3237 62.9966 0.0000 -5.5068 0.0000
# 4 0.0000 0.0000 0.0000 17.7048 0.0000 -2.8824
# 5 -3.1640 3.3967 -5.5068 0.0000 22.1262 0.0000
# 6 0.0000 0.0000 0.0000 -2.8824 0.0000 30.2697
#
#
#
# Elastic Compliance Matrix: (Units=1/GPa)
#
#
# Indices 1 2 3 4 5 6 
#
# 1 0.014677 -0.009826 -0.006643 0.000000 0.001954 0.000000
# 2 -0.009826 0.033904 -0.008931 0.000000 -0.008833 0.000000
# 3 -0.006643 -0.008931 0.025783 0.000000 0.006838 0.000000
# 4 0.000000 0.000000 0.000000 0.057371 0.000000 0.005463
# 5 0.001954 -0.008833 0.006838 0.000000 0.048532 0.000000
# 6 0.000000 0.000000 0.000000 0.005463 0.000000 0.033557
#
#
# Mechanical properties :
#
#
# Convention : Reuss Voigt Hill
#
# Bulk Modulus (GPa) = 42.43440 54.32291 48.37866
# Shear Modulus (GPa) = 18.35013 21.46280 19.90646
#
# Velocity S-wave (km/s) = 3.32202 3.59274 3.46003
# Velocity P-wave (km/s) = 6.34307 7.06260 6.71248
#
# Compressibility (1/GPa) = 0.02356578
#
# Stress axis : x y z
#
# Youngs Moduli (GPa) = 68.13448 29.49467 38.78583
#
# Poissons Ratio (x) = 0.28980 0.25765
# Poissons Ratio (y) = 0.66946 0.34638
# Poissons Ratio (z) = 0.45261 0.26341
#
# Static dielectric constant tensor:
#      x y z
#    x 1.540940 0.000000 -0.003300 
#    y 0.000000 1.559130 0.000000 
#    z -0.003300 0.000000 1.553510 
# 
# From -- ./inp_files/62279.got.cif
#   From: 2010.05.17/outbox.cif.g08.bks.cpg/sg11_32_cif.got.tgz:62279.got - 2010.06.03 12:22:45.
