data_PCOD9159401
_publ_section_title
;
Structure prediction by ZEFSAII (Michael W. Deem and Ramdas Pophale) SiO2 
 PCOD9159401
Probable space group: P 21/M
;
_chemical_formula_sum "Si O2"
_cell_formula_units_Z 28
_cell_length_a 15.877817
_cell_length_b 13.584893
_cell_length_c 7.777215
_cell_angle_alpha 90.000000
_cell_angle_beta 63.595974
_cell_angle_gamma 90.000000
_cell_volume 1502.533784
_symmetry_space_group_name_H-M "P 21/M"
_symmetry_group_IT_number 11
_symmetry_cell_setting 'monoclinic'
loop_
_space_group_symop_operation_xyz
x,y,z
-x,1/2+y,-z
-x,-y,-z
x,1/2-y,z
loop_
_atom_site_type_symbol
_atom_site_label
_atom_site_fract_x
_atom_site_fract_y
_atom_site_fract_z
Si Si1 0.468143 0.632623 0.353712
Si Si2 0.909355 0.963875 0.794733
Si Si3 0.120710 0.016789 0.580832
Si Si4 0.629794 0.005809 0.261620
Si Si5 0.268565 0.642979 0.401800
Si Si6 0.796864 0.635510 0.198874
Si Si7 0.784518 0.359733 0.946760
O O1 0.488551 0.750000 0.355224
O O2 0.427785 0.579622 0.562121
O O3 0.557441 0.565250 0.226165
O O4 0.379596 0.622995 0.306300
O O5 0.880126 0.952052 0.620171
O O6 0.876201 0.072938 0.884411
O O7 0.854621 0.891931 0.972981
O O8 0.021601 0.962682 0.702243
O O9 0.139436 0.104359 0.696349
O O10 0.204627 0.940189 0.541758
O O11 0.701033 0.928731 0.287568
O O12 0.697556 0.077247 0.094571
O O13 0.255550 0.750000 0.498247
O O14 0.232695 0.648560 0.240637
O O15 0.774495 0.750000 0.222690
O O16 0.790783 0.250000 0.014184
#
# Coordination Sequence:
#
# PCOD9159401 Si02
#       7
#     4   4   4   4   4   4   4
#     4  10  19  33  54  77 102 138 178 220 273 326
#     4   9  21  36  57  81 112 144 182 230 272 323
#     4  10  19  38  57  80 111 146 183 226 276 321
#     4  10  20  34  52  77 107 139 176 224 268 324
#     4   9  18  33  55  79 104 136 180 225 269 323
#     4  11  22  36  54  80 112 147 184 223 271 326
#     4   9  18  34  54  78 105 138 178 224 271 323
#
# _framework density 18.635187999999999
#
# number of rings (size 3 to 8) (size 9 to 14) (size 15 to 20)
#    0.000    2.286    1.429    1.286    0.000    2.286 
#    0.000    2.857    0.000    0.000    0.000    0.000 
#    0.000    0.000    0.000    0.000    0.000    0.000 
#
# Total GULP energy -155956.497766 kJ/mol
# GULP energy per Si atom -5569.874920 kJ/mol
# Density = 1.859277 g / cm^3
# Si number density = 18.635188 Si / 1000 Ang^3
#
#
#
# Elastic Constant Matrix: (Units=GPa)
#
#
# Indices 1 2 3 4 5 6 
#
# 1 55.4565 12.3216 -1.7617 0.0000 -6.1310 0.0000
# 2 12.3216 89.4148 17.7037 0.0000 7.4362 0.0000
# 3 -1.7617 17.7037 41.1558 0.0000 -5.2456 0.0000
# 4 0.0000 0.0000 0.0000 9.1270 0.0000 0.1295
# 5 -6.1310 7.4362 -5.2456 0.0000 11.0816 0.0000
# 6 0.0000 0.0000 0.0000 0.1295 0.0000 20.1430
#
#
#
# Elastic Compliance Matrix: (Units=1/GPa)
#
#
# Indices 1 2 3 4 5 6 
#
# 1 0.021485 -0.005608 0.005669 0.000000 0.018333 0.000000
# 2 -0.005608 0.015204 -0.009020 0.000000 -0.017575 0.000000
# 3 0.005669 -0.009020 0.031492 0.000000 0.024096 0.000000
# 4 0.000000 0.000000 0.000000 0.109575 0.000000 -0.000704
# 5 0.018333 -0.017575 0.024096 0.000000 0.123583 0.000000
# 6 0.000000 0.000000 0.000000 -0.000704 0.000000 0.049650
#
#
# Mechanical properties :
#
#
# Convention : Reuss Voigt Hill
#
# Bulk Modulus (GPa) = 19.89566 26.95048 23.42307
# Shear Modulus (GPa) = 12.96472 18.58786 15.77629
#
# Velocity S-wave (km/s) = 2.64050 3.16169 2.91277
# Velocity P-wave (km/s) = 4.47167 5.27465 4.88967
#
# Compressibility (1/GPa) = 0.05026221
#
# Stress axis : x y z
#
# Youngs Moduli (GPa) = 46.54404 65.77125 31.75408
#
# Poissons Ratio (x) = 0.36883 -0.18000
# Poissons Ratio (y) = 0.26101 0.28643
# Poissons Ratio (z) = -0.26384 0.59328
#
# Static dielectric constant tensor:
#      x y z
#    x 1.652880 0.000000 0.003910 
#    y 0.000000 1.667160 0.000000 
#    z 0.003910 0.000000 1.654520 
# 
# From -- ./inp_files/21429.got.cif
#   From: 2010.05.17/outbox.cif.g08.bks.cpg/sg11_11_cif.got.tgz:21429.got - 2010.06.03 12:22:45.
