data_PCOD9159606
_publ_section_title
;
Structure prediction by ZEFSAII (Michael W. Deem and Ramdas Pophale) SiO2 
 PCOD9159606
Probable space group: P 21/M
;
_chemical_formula_sum "Si O2"
_cell_formula_units_Z 32
_cell_length_a 25.571086
_cell_length_b 9.059648
_cell_length_c 16.262973
_cell_angle_alpha 90.000000
_cell_angle_beta 154.082033
_cell_angle_gamma 90.000000
_cell_volume 1646.740630
_symmetry_space_group_name_H-M "P 21/M"
_symmetry_group_IT_number 11
_symmetry_cell_setting 'monoclinic'
loop_
_space_group_symop_operation_xyz
x,y,z
-x,1/2+y,-z
-x,-y,-z
x,1/2-y,z
loop_
_atom_site_type_symbol
_atom_site_label
_atom_site_fract_x
_atom_site_fract_y
_atom_site_fract_z
Si Si1 0.626974 0.076696 0.669175
Si Si2 0.881306 0.071625 0.080376
Si Si3 0.912028 0.071435 0.308255
Si Si4 0.495038 0.418083 0.078358
Si Si5 0.398743 0.420730 0.526419
Si Si6 0.001734 0.578565 0.092405
Si Si7 0.721146 0.086922 0.506688
Si Si8 0.363736 0.572744 0.043544
O O1 0.610788 0.250000 0.654939
O O2 0.500000 0.000000 0.500000
O O3 0.657448 0.027317 0.620276
O O4 0.739735 0.033603 0.883865
O O5 0.889770 0.250000 0.084221
O O6 0.937220 0.029894 0.248058
O O7 0.932224 0.999015 0.069311
O O8 0.920804 0.250000 0.325750
O O9 0.772839 0.031716 0.129922
O O10 0.000000 0.000000 0.500000
O O11 0.453803 0.250000 0.010675
O O12 0.630795 0.416330 0.303532
O O13 0.413286 0.496821 0.031260
O O14 0.500000 0.500000 0.000000
O O15 0.394727 0.250000 0.495598
O O16 0.320605 0.452593 0.495905
O O17 0.535880 0.460591 0.744509
O O18 0.962850 0.750000 0.028421
O O19 0.140255 0.577032 0.315748
O O20 0.000000 0.500000 0.000000
O O21 0.701011 0.250000 0.518519
O O22 0.367932 0.750000 0.039930
#
# Coordination Sequence:
#
# PCOD9159606 Si02
#       8
#     4   4   4   4   4   4   4   4
#     4  11  22  36  56  81 111 145 180 223 276 332
#     4  10  23  42  60  83 118 156 194 239 292 349
#     4  10  22  41  62  83 112 152 198 247 296 345
#     4  10  20  35  56  83 114 146 185 235 289 345
#     4  10  19  33  56  84 111 141 179 221 272 335
#     4  11  23  39  60  86 118 157 197 238 287 345
#     4   9  20  37  54  76 109 146 182 223 275 333
#     4   9  19  37  58  80 112 151 187 230 287 346
#
# _framework density 19.432324000000001
#
# number of rings (size 3 to 8) (size 9 to 14) (size 15 to 20)
#    0.000    2.000    0.000    3.000    0.000   10.000 
#    0.000    5.000    0.000    0.000    0.000    0.000 
#    0.000    0.000    0.000    0.000    0.000    0.000 
#
# Total GULP energy -178461.169652 kJ/mol
# GULP energy per Si atom -5576.911552 kJ/mol
# Density = 1.938810 g / cm^3
# Si number density = 19.432324 Si / 1000 Ang^3
#
#
#
# Elastic Constant Matrix: (Units=GPa)
#
#
# Indices 1 2 3 4 5 6 
#
# 1 105.8264 42.5846 58.5746 0.0000 -15.2814 0.0000
# 2 42.5846 47.6993 41.1143 0.0000 -5.8687 0.0000
# 3 58.5746 41.1143 100.7782 0.0000 -0.7319 0.0000
# 4 0.0000 0.0000 0.0000 28.1690 0.0000 -1.6154
# 5 -15.2814 -5.8687 -0.7319 0.0000 29.2502 0.0000
# 6 0.0000 0.0000 0.0000 -1.6154 0.0000 34.6258
#
#
#
# Elastic Compliance Matrix: (Units=1/GPa)
#
#
# Indices 1 2 3 4 5 6 
#
# 1 0.017917 -0.009514 -0.006479 0.000000 0.007289 0.000000
# 2 -0.009514 0.038536 -0.010174 0.000000 0.002507 0.000000
# 3 -0.006479 -0.010174 0.017803 0.000000 -0.004981 0.000000
# 4 0.000000 0.000000 0.000000 0.035595 0.000000 0.001661
# 5 0.007289 0.002507 -0.004981 0.000000 0.038374 0.000000
# 6 0.000000 0.000000 0.000000 0.001661 0.000000 0.028958
#
#
# Mechanical properties :
#
#
# Convention : Reuss Voigt Hill
#
# Bulk Modulus (GPa) = 45.61589 59.87231 52.74410
# Shear Modulus (GPa) = 21.11275 25.87770 23.49522
#
# Velocity S-wave (km/s) = 3.29975 3.65318 3.48095
# Velocity P-wave (km/s) = 6.16790 6.97652 6.58464
#
# Compressibility (1/GPa) = 0.02192219
#
# Stress axis : x y z
#
# Youngs Moduli (GPa) = 55.81391 25.94984 56.17022
#
# Poissons Ratio (x) = 0.24688 0.36394
# Poissons Ratio (y) = 0.53100 0.57145
# Poissons Ratio (z) = 0.36164 0.26400
#
# Static dielectric constant tensor:
#      x y z
#    x 1.734450 0.000000 -0.016570 
#    y 0.000000 1.708830 0.000000 
#    z -0.016570 0.000000 1.701730 
# 
# From -- ./inp_files/55772.got.cif
#   From: 2010.05.17/outbox.cif.g08.bks.cpg/sg11_28_cif.got.tgz:55772.got - 2010.06.03 12:22:45.
