data_PCOD9159654
_publ_section_title
;
Structure prediction by ZEFSAII (Michael W. Deem and Ramdas Pophale) SiO2 
 PCOD9159654
Probable space group: P 21/M
;
_chemical_formula_sum "Si O2"
_cell_formula_units_Z 28
_cell_length_a 7.582139
_cell_length_b 13.676997
_cell_length_c 14.687239
_cell_angle_alpha 90.000000
_cell_angle_beta 102.135919
_cell_angle_gamma 90.000000
_cell_volume 1489.041446
_symmetry_space_group_name_H-M "P 21/M"
_symmetry_group_IT_number 11
_symmetry_cell_setting 'monoclinic'
loop_
_space_group_symop_operation_xyz
x,y,z
-x,1/2+y,-z
-x,-y,-z
x,1/2-y,z
loop_
_atom_site_type_symbol
_atom_site_label
_atom_site_fract_x
_atom_site_fract_y
_atom_site_fract_z
Si Si1 0.081778 0.973109 0.107467
Si Si2 0.214885 0.497929 0.612571
Si Si3 0.113903 0.365317 0.453572
Si Si4 0.834414 0.635377 0.215854
Si Si5 0.556327 0.140553 0.248704
Si Si6 0.137650 0.144024 0.243057
Si Si7 0.496846 0.481144 0.893054
O O1 0.298421 0.961311 0.119415
O O2 0.980824 0.887515 0.152201
O O3 0.045954 0.064226 0.170951
O O4 0.000000 0.000000 0.000000
O O5 0.249574 0.420612 0.536072
O O6 0.142609 0.433137 0.691037
O O7 0.374223 0.565467 0.667527
O O8 0.075036 0.577827 0.557874
O O9 0.104544 0.250000 0.471867
O O10 0.151824 0.378633 0.351058
O O11 0.838614 0.750000 0.240197
O O12 0.640735 0.603239 0.153058
O O13 0.635293 0.250000 0.263364
O O14 0.342696 0.150082 0.232896
O O15 0.584057 0.080811 0.159340
O O16 0.049141 0.250000 0.223867
O O17 0.500000 0.500000 0.000000
#
# Coordination Sequence:
#
# PCOD9159654 Si02
#       7
#     4   4   4   4   4   4   4
#     4  11  21  38  61  84 119 152 194 237 292 342
#     4  10  20  35  55  81 113 148 185 235 282 342
#     4  10  19  33  57  83 108 143 187 233 285 342
#     4  11  23  39  58  83 119 157 193 235 288 345
#     4   9  19  35  56  80 110 149 187 233 288 343
#     4   9  19  36  57  83 111 141 188 239 283 337
#     4  10  21  38  58  84 118 151 193 249 288 337
#
# _framework density 18.804041999999999
#
# number of rings (size 3 to 8) (size 9 to 14) (size 15 to 20)
#    0.000    2.000    2.857    0.857    0.000    2.286 
#    0.000    0.000    0.000    0.000    0.000    0.000 
#    0.000    0.000    0.000    0.000    0.000    0.000 
#
# Total GULP energy -155918.483398 kJ/mol
# GULP energy per Si atom -5568.517264 kJ/mol
# Density = 1.876124 g / cm^3
# Si number density = 18.804042 Si / 1000 Ang^3
#
#
#
# Elastic Constant Matrix: (Units=GPa)
#
#
# Indices 1 2 3 4 5 6 
#
# 1 56.2061 22.2309 -5.4785 0.0000 0.9492 0.0000
# 2 22.2309 136.8187 61.4375 0.0000 2.3101 0.0000
# 3 -5.4785 61.4375 92.4187 0.0000 1.9160 0.0000
# 4 0.0000 0.0000 0.0000 31.9884 0.0000 -13.8120
# 5 0.9492 2.3101 1.9160 0.0000 24.2892 0.0000
# 6 0.0000 0.0000 0.0000 -13.8120 0.0000 37.6138
#
#
#
# Elastic Compliance Matrix: (Units=1/GPa)
#
#
# Indices 1 2 3 4 5 6 
#
# 1 0.020458 -0.005508 0.004888 0.000000 -0.000661 0.000000
# 2 -0.005508 0.011907 -0.008236 0.000000 -0.000267 0.000000
# 3 0.004888 -0.008236 0.016600 0.000000 -0.000717 0.000000
# 4 0.000000 0.000000 0.000000 0.037152 0.000000 0.013642
# 5 -0.000661 -0.000267 -0.000717 0.000000 0.041278 0.000000
# 6 0.000000 0.000000 0.000000 0.013642 0.000000 0.031596
#
#
# Mechanical properties :
#
#
# Convention : Reuss Voigt Hill
#
# Bulk Modulus (GPa) = 31.99764 49.09148 40.54456
# Shear Modulus (GPa) = 26.72077 32.59520 29.65798
#
# Velocity S-wave (km/s) = 3.77372 4.16795 3.97572
# Velocity P-wave (km/s) = 6.00344 7.02324 6.53327
#
# Compressibility (1/GPa) = 0.03125231
#
# Stress axis : x y z
#
# Youngs Moduli (GPa) = 48.88138 83.98541 60.24025
#
# Poissons Ratio (x) = 0.46257 -0.29444
# Poissons Ratio (y) = 0.26923 0.49616
# Poissons Ratio (z) = -0.23892 0.69173
#
# Static dielectric constant tensor:
#      x y z
#    x 1.675380 0.000000 -0.001260 
#    y 0.000000 2.049250 0.000000 
#    z -0.001260 0.000000 1.667950 
# 
# From -- ./inp_files/21163.got.cif
#   From: 2010.05.17/outbox.cif.g08.bks.cpg/sg11_11_cif.got.tgz:21163.got - 2010.06.03 12:22:45.
