data_PCOD9159275
_publ_section_title
;
Structure prediction by ZEFSAII (Michael W. Deem and Ramdas Pophale) SiO2 
 PCOD9159275
Probable space group: P 21/M
;
_chemical_formula_sum "Si O2"
_cell_formula_units_Z 32
_cell_length_a 12.995676
_cell_length_b 8.596847
_cell_length_c 14.699841
_cell_angle_alpha 90.000000
_cell_angle_beta 89.702656
_cell_angle_gamma 90.000000
_cell_volume 1642.271143
_symmetry_space_group_name_H-M "P 21/M"
_symmetry_group_IT_number 11
_symmetry_cell_setting 'monoclinic'
loop_
_space_group_symop_operation_xyz
x,y,z
-x,1/2+y,-z
-x,-y,-z
x,1/2-y,z
loop_
_atom_site_type_symbol
_atom_site_label
_atom_site_fract_x
_atom_site_fract_y
_atom_site_fract_z
Si Si1 0.112635 0.936524 0.283897
Si Si2 0.674829 0.936702 0.232475
Si Si3 0.111302 0.439357 0.680572
Si Si4 0.467631 0.428582 0.276366
Si Si5 0.168408 0.439447 0.483428
Si Si6 0.288612 0.061982 0.151948
Si Si7 0.611603 0.562180 0.030487
Si Si8 0.393124 0.425925 0.475069
O O1 0.118338 0.750000 0.283105
O O2 0.993844 0.985565 0.269195
O O3 0.138926 0.993919 0.385822
O O4 0.191981 0.999772 0.208697
O O5 0.681009 0.750000 0.230377
O O6 0.782908 0.994142 0.273015
O O7 0.574325 0.983729 0.290398
O O8 0.647349 0.991339 0.130215
O O9 0.115023 0.250000 0.680555
O O10 0.105516 0.484827 0.573798
O O11 0.494304 0.250000 0.254382
O O12 0.394689 0.495410 0.198641
O O13 0.396596 0.426464 0.365643
O O14 0.168892 0.250000 0.476263
O O15 0.284983 0.495157 0.504481
O O16 0.287926 0.250000 0.160315
O O17 0.303309 0.021052 0.046338
O O18 0.604052 0.750000 0.032476
O O19 0.500000 0.500000 0.000000
O O20 0.500000 0.500000 0.500000
O O21 0.394464 0.250000 0.509299
#
# Coordination Sequence:
#
# PCOD9159275 Si02
#       8
#     4   4   4   4   4   4   4   4
#     4  11  22  36  56  82 108 142 190 237 266 306
#     4  10  20  36  58  83 109 142 180 220 271 331
#     4   9  20  37  56  79 111 145 181 228 278 320
#     4  10  19  33  52  76 110 143 173 216 270 322
#     4  10  19  36  57  76 106 148 182 219 278 332
#     4  10  20  37  56  78 111 146 176 217 274 328
#     4  10  20  34  58  86 111 141 178 219 269 328
#     4  10  20  32  48  73 105 143 178 214 264 319
#
# _framework density 19.485212000000001
#
# number of rings (size 3 to 8) (size 9 to 14) (size 15 to 20)
#    0.000    2.000    2.500    1.500    0.000    3.000 
#    0.000    3.125    0.000    0.000    0.000    0.000 
#    0.000    0.000    0.000    0.000    0.000    0.000 
#
# Total GULP energy -178455.451694 kJ/mol
# GULP energy per Si atom -5576.732865 kJ/mol
# Density = 1.944086 g / cm^3
# Si number density = 19.485212 Si / 1000 Ang^3
#
#
#
# Elastic Constant Matrix: (Units=GPa)
#
#
# Indices 1 2 3 4 5 6 
#
# 1 131.3569 14.6678 39.4573 0.0000 -19.5487 0.0000
# 2 14.6678 10.6869 12.2151 0.0000 -3.6699 0.0000
# 3 39.4573 12.2151 80.9433 0.0000 -15.8533 0.0000
# 4 0.0000 0.0000 0.0000 18.7924 0.0000 -1.2666
# 5 -19.5487 -3.6699 -15.8533 0.0000 28.0496 0.0000
# 6 0.0000 0.0000 0.0000 -1.2666 0.0000 20.8483
#
#
#
# Elastic Compliance Matrix: (Units=1/GPa)
#
#
# Indices 1 2 3 4 5 6 
#
# 1 0.010098 -0.009327 -0.002671 0.000000 0.004307 0.000000
# 2 -0.009327 0.122535 -0.013582 0.000000 0.001855 0.000000
# 3 -0.002671 -0.013582 0.016860 0.000000 0.005890 0.000000
# 4 0.000000 0.000000 0.000000 0.053432 0.000000 0.003246
# 5 0.004307 0.001855 0.005890 0.000000 0.042225 0.000000
# 6 0.000000 0.000000 0.000000 0.003246 0.000000 0.048163
#
#
# Mechanical properties :
#
#
# Convention : Reuss Voigt Hill
#
# Bulk Modulus (GPa) = 10.16955 39.51860 24.84408
# Shear Modulus (GPa) = 13.25386 23.98119 18.61753
#
# Velocity S-wave (km/s) = 2.61090 3.51199 3.09442
# Velocity P-wave (km/s) = 3.78411 6.06390 5.05422
#
# Compressibility (1/GPa) = 0.09833276
#
# Stress axis : x y z
#
# Youngs Moduli (GPa) = 99.03218 8.16095 59.31304
#
# Poissons Ratio (x) = 0.07612 0.15844
# Poissons Ratio (y) = 0.92366 0.80557
# Poissons Ratio (z) = 0.26453 0.11084
#
# Static dielectric constant tensor:
#      x y z
#    x 1.692070 0.000000 0.010810 
#    y 0.000000 1.664530 0.000000 
#    z 0.010810 0.000000 1.718090 
# 
# From -- ./inp_files/38118.got.cif
#   From: 2010.05.17/outbox.cif.g08.bks.cpg/sg11_20_cif.got.tgz:38118.got - 2010.06.03 12:22:45.
