data_PCOD9159698
_publ_section_title
;
Structure prediction by ZEFSAII (Michael W. Deem and Ramdas Pophale) SiO2 
 PCOD9159698
Probable space group: P 21/M
;
_chemical_formula_sum "Si O2"
_cell_formula_units_Z 24
_cell_length_a 10.451477
_cell_length_b 8.727749
_cell_length_c 14.456290
_cell_angle_alpha 90.000000
_cell_angle_beta 89.565844
_cell_angle_gamma 90.000000
_cell_volume 1318.634095
_symmetry_space_group_name_H-M "P 21/M"
_symmetry_group_IT_number 11
_symmetry_cell_setting 'monoclinic'
loop_
_space_group_symop_operation_xyz
x,y,z
-x,1/2+y,-z
-x,-y,-z
x,1/2-y,z
loop_
_atom_site_type_symbol
_atom_site_label
_atom_site_fract_x
_atom_site_fract_y
_atom_site_fract_z
Si Si1 0.147626 0.434375 0.901594
Si Si2 0.238724 0.434036 0.285391
Si Si3 0.490891 0.065765 0.396584
Si Si4 0.018105 0.565630 0.602032
Si Si5 0.737286 0.934298 0.293517
Si Si6 0.150400 0.932922 0.099335
O O1 0.149004 0.250000 0.909285
O O2 0.232325 0.478191 0.812874
O O3 0.999003 0.481277 0.885991
O O4 0.189441 0.505287 0.998617
O O5 0.242499 0.250000 0.277667
O O6 0.359491 0.482116 0.346533
O O7 0.233083 0.503592 0.183250
O O8 0.107120 0.476046 0.337674
O O9 0.493264 0.250000 0.401660
O O10 0.500000 0.000000 0.500000
O O11 0.609453 0.006273 0.335607
O O12 0.029023 0.750000 0.599596
O O13 0.143054 0.493303 0.647442
O O14 0.000000 0.500000 0.500000
O O15 0.730751 0.750000 0.299057
O O16 0.154209 0.750000 0.099581
#
# Coordination Sequence:
#
# PCOD9159698 Si02
#       6
#     4   4   4   4   4   4
#     4   9  19  35  56  85 120 154 188 237 295 348
#     4  10  22  39  58  83 117 153 193 240 293 349
#     4  11  24  42  62  86 117 159 201 243 296 353
#     4  11  22  36  58  86 115 150 193 246 299 350
#     4  11  22  39  60  86 119 155 196 242 293 351
#     4  10  19  33  58  89 117 150 192 239 293 349
#
# _framework density 18.200651000000001
#
# number of rings (size 3 to 8) (size 9 to 14) (size 15 to 20)
#    0.000    1.667    1.667    3.000    0.000    5.333 
#    0.000    0.833    0.000    0.000    0.000    0.000 
#    0.000    0.000    0.000    0.000    0.000    0.000 
#
# Total GULP energy -134094.569904 kJ/mol
# GULP energy per Si atom -5587.273746 kJ/mol
# Density = 1.815923 g / cm^3
# Si number density = 18.200651 Si / 1000 Ang^3
#
#
#
# Elastic Constant Matrix: (Units=GPa)
#
#
# Indices 1 2 3 4 5 6 
#
# 1 59.9470 13.7911 18.9678 0.0000 10.1173 0.0000
# 2 13.7911 27.4516 24.2702 0.0000 3.4451 0.0000
# 3 18.9678 24.2702 130.7276 0.0000 12.3354 0.0000
# 4 0.0000 0.0000 0.0000 36.2759 0.0000 1.5688
# 5 10.1173 3.4451 12.3354 0.0000 33.5517 0.0000
# 6 0.0000 0.0000 0.0000 1.5688 0.0000 23.5647
#
#
#
# Elastic Compliance Matrix: (Units=1/GPa)
#
#
# Indices 1 2 3 4 5 6 
#
# 1 0.019719 -0.008586 -0.000818 0.000000 -0.004764 0.000000
# 2 -0.008586 0.047398 -0.007603 0.000000 0.000517 0.000000
# 3 -0.000818 -0.007603 0.009409 0.000000 -0.002432 0.000000
# 4 0.000000 0.000000 0.000000 0.027646 0.000000 -0.001840
# 5 -0.004764 0.000517 -0.002432 0.000000 0.032082 0.000000
# 6 0.000000 0.000000 0.000000 -0.001840 0.000000 0.042559
#
#
# Mechanical properties :
#
#
# Convention : Reuss Voigt Hill
#
# Bulk Modulus (GPa) = 23.52170 36.90937 30.21554
# Shear Modulus (GPa) = 22.02670 29.41826 25.72248
#
# Velocity S-wave (km/s) = 3.48259 4.02472 3.76343
# Velocity P-wave (km/s) = 5.39656 6.47465 5.96003
#
# Compressibility (1/GPa) = 0.04251393
#
# Stress axis : x y z
#
# Youngs Moduli (GPa) = 50.71156 21.09804 106.28017
#
# Poissons Ratio (x) = 0.18114 0.08690
# Poissons Ratio (y) = 0.43540 0.80801
# Poissons Ratio (z) = 0.04146 0.16040
#
# Static dielectric constant tensor:
#      x y z
#    x 1.611070 0.000000 -0.002480 
#    y 0.000000 1.612120 0.000000 
#    z -0.002480 0.000000 1.609330 
# 
# From -- ./inp_files/40806.got.cif
#   From: 2010.05.17/outbox.cif.g08.bks.cpg/sg11_21_cif.got.tgz:40806.got - 2010.06.03 12:22:45.
