data_PCOD9159115
_publ_section_title
;
Structure prediction by ZEFSAII (Michael W. Deem and Ramdas Pophale) SiO2 
 PCOD9159115
Probable space group: P 21/M
;
_chemical_formula_sum "Si O2"
_cell_formula_units_Z 28
_cell_length_a 14.442224
_cell_length_b 8.804506
_cell_length_c 16.770409
_cell_angle_alpha 90.000000
_cell_angle_beta 139.753010
_cell_angle_gamma 90.000000
_cell_volume 1377.753846
_symmetry_space_group_name_H-M "P 21/M"
_symmetry_group_IT_number 11
_symmetry_cell_setting 'monoclinic'
loop_
_space_group_symop_operation_xyz
x,y,z
-x,1/2+y,-z
-x,-y,-z
x,1/2-y,z
loop_
_atom_site_type_symbol
_atom_site_label
_atom_site_fract_x
_atom_site_fract_y
_atom_site_fract_z
Si Si1 0.330162 0.431958 0.715129
Si Si2 0.434293 0.569390 0.376146
Si Si3 0.308543 0.569191 0.539553
Si Si4 0.659453 0.932092 0.105211
Si Si5 0.650752 0.932039 0.923903
Si Si6 0.143458 0.569201 0.267396
Si Si7 0.911286 0.428633 0.014125
O O1 0.329991 0.250000 0.708833
O O2 0.256216 0.501370 0.588615
O O3 0.271986 0.477821 0.764891
O O4 0.494068 0.492831 0.820195
O O5 0.500000 0.500000 0.500000
O O6 0.456609 0.750000 0.387163
O O7 0.530845 0.492575 0.372280
O O8 0.265905 0.544692 0.280034
O O9 0.315228 0.750000 0.548910
O O10 0.212087 0.531337 0.398628
O O11 0.648432 0.750000 0.100687
O O12 0.718004 0.968761 0.056004
O O13 0.500000 0.000000 0.000000
O O14 0.636996 0.750000 0.907437
O O15 0.757088 0.997014 0.927819
O O16 0.108756 0.750000 0.244449
O O17 0.008790 0.469994 0.154732
O O18 0.895633 0.250000 0.992549
O O19 0.000000 0.500000 0.000000
#
# Coordination Sequence:
#
# PCOD9159115 Si02
#       7
#     4   4   4   4   4   4   4
#     4  10  19  32  54  86 118 143 176 222 271 325
#     4   9  17  30  49  72 100 134 173 217 264 315
#     4  10  20  33  52  79 110 143 178 219 272 323
#     4   8  16  31  53  80 109 142 176 218 271 322
#     4  10  20  37  58  80 110 146 184 224 271 323
#     4   9  20  38  55  73 103 141 183 225 268 318
#     4  12  26  41  58  79 106 143 186 227 269 319
#
# _framework density 20.322932999999999
#
# number of rings (size 3 to 8) (size 9 to 14) (size 15 to 20)
#    0.000    2.286    0.000    3.857    2.000    4.571 
#    0.000    0.000    0.000    0.857    0.000    0.000 
#    0.000    0.000    0.000    0.000    0.000    0.000 
#
# Total GULP energy -156179.578543 kJ/mol
# GULP energy per Si atom -5577.842091 kJ/mol
# Density = 2.027668 g / cm^3
# Si number density = 20.322933 Si / 1000 Ang^3
#
#
#
# Elastic Constant Matrix: (Units=GPa)
#
#
# Indices 1 2 3 4 5 6 
#
# 1 67.8996 12.3198 13.4843 0.0000 -28.3580 0.0000
# 2 12.3198 44.6017 20.1683 0.0000 -3.0520 0.0000
# 3 13.4843 20.1683 59.9529 0.0000 -21.6699 0.0000
# 4 0.0000 0.0000 0.0000 27.6132 0.0000 -6.6267
# 5 -28.3580 -3.0520 -21.6699 0.0000 37.7740 0.0000
# 6 0.0000 0.0000 0.0000 -6.6267 0.0000 21.5852
#
#
#
# Elastic Compliance Matrix: (Units=1/GPa)
#
#
# Indices 1 2 3 4 5 6 
#
# 1 0.023184 -0.006919 0.004040 0.000000 0.019164 0.000000
# 2 -0.006919 0.028934 -0.011619 0.000000 -0.009522 0.000000
# 3 0.004040 -0.011619 0.025783 0.000000 0.016885 0.000000
# 4 0.000000 0.000000 0.000000 0.039095 0.000000 0.012002
# 5 0.019164 -0.009522 0.016885 0.000000 0.049777 0.000000
# 6 0.000000 0.000000 0.000000 0.012002 0.000000 0.050013
#
#
# Mechanical properties :
#
#
# Convention : Reuss Voigt Hill
#
# Bulk Modulus (GPa) = 20.44809 29.37766 24.91288
# Shear Modulus (GPa) = 19.07776 25.82658 22.45217
#
# Velocity S-wave (km/s) = 3.06719 3.56871 3.32741
# Velocity P-wave (km/s) = 4.75679 5.60961 5.20071
#
# Compressibility (1/GPa) = 0.04890432
#
# Stress axis : x y z
#
# Youngs Moduli (GPa) = 43.13232 34.56097 38.78545
#
# Poissons Ratio (x) = 0.23914 -0.15669
# Poissons Ratio (y) = 0.29845 0.45065
# Poissons Ratio (z) = -0.17425 0.40157
#
# Static dielectric constant tensor:
#      x y z
#    x 1.748680 0.000000 -0.049750 
#    y 0.000000 1.666470 0.000000 
#    z -0.049750 0.000000 1.773440 
# 
# From -- ./inp_files/60123.got.cif
#   From: 2010.05.17/outbox.cif.g08.bks.cpg/sg11_31_cif.got.tgz:60123.got - 2010.06.03 12:22:45.
