data_PCOD9159028
_publ_section_title
;
Structure prediction by ZEFSAII (Michael W. Deem and Ramdas Pophale) SiO2 
 PCOD9159028
Probable space group: P 21/M
;
_chemical_formula_sum "Si O2"
_cell_formula_units_Z 32
_cell_length_a 29.196271
_cell_length_b 8.034535
_cell_length_c 22.710510
_cell_angle_alpha 90.000000
_cell_angle_beta 18.719299
_cell_angle_gamma 90.000000
_cell_volume 1709.732129
_symmetry_space_group_name_H-M "P 21/M"
_symmetry_group_IT_number 11
_symmetry_cell_setting 'monoclinic'
loop_
_space_group_symop_operation_xyz
x,y,z
-x,1/2+y,-z
-x,-y,-z
x,1/2-y,z
loop_
_atom_site_type_symbol
_atom_site_label
_atom_site_fract_x
_atom_site_fract_y
_atom_site_fract_z
Si Si1 0.163896 0.447857 0.799553
Si Si2 0.665153 0.951150 0.295105
Si Si3 0.159961 0.046904 0.164505
Si Si4 0.600238 0.049701 0.575255
Si Si5 0.914322 0.451140 0.545942
Si Si6 0.590788 0.052152 0.945765
Si Si7 0.691113 0.546899 0.133346
Si Si8 0.548774 0.950306 0.126718
O O1 0.168583 0.250000 0.797322
O O2 0.247320 0.516093 0.755484
O O3 0.252679 0.497945 0.633603
O O4 0.000000 0.500000 0.000000
O O5 0.673008 0.750000 0.286090
O O6 0.719820 0.009358 0.164612
O O7 0.500000 0.000000 0.500000
O O8 0.159923 0.250000 0.164742
O O9 0.011307 0.990625 0.373133
O O10 0.198521 0.993422 0.051483
O O11 0.293516 0.994922 0.043146
O O12 0.597065 0.250000 0.579919
O O13 0.466837 0.994913 0.696504
O O14 0.562371 0.992145 0.687629
O O15 0.908793 0.250000 0.550311
O O16 0.752923 0.516111 0.744278
O O17 0.000000 0.500000 0.500000
O O18 0.600383 0.250000 0.933714
O O19 0.500000 0.000000 0.000000
O O20 0.525237 0.002041 0.088482
O O21 0.690750 0.750000 0.133907
O O22 0.548964 0.750000 0.128017
#
# Coordination Sequence:
#
# PCOD9159028 Si02
#       8
#     4   4   4   4   4   4   4   4
#     4  11  23  36  52  78 111 148 185 223 269 320
#     4  10  19  32  53  79 104 133 174 220 269 319
#     4   8  14  27  50  78 104 130 165 214 267 317
#     4   9  17  32  56  81 104 136 177 219 269 328
#     4  10  19  32  53  79 104 133 174 220 269 319
#     4  11  23  36  52  78 111 148 185 223 269 320
#     4   8  14  27  50  78 104 130 165 214 267 317
#     4   9  17  32  56  81 104 136 177 219 269 328
#
# _framework density 18.716381999999999
#
# number of rings (size 3 to 8) (size 9 to 14) (size 15 to 20)
#    0.000    2.500    2.500    2.250    0.000    1.500 
#    0.000    1.250    0.000    5.250    0.000    0.000 
#    0.000    0.000    0.000    0.000    0.000    0.000 
#
# Total GULP energy -178432.874751 kJ/mol
# GULP energy per Si atom -5576.027336 kJ/mol
# Density = 1.867378 g / cm^3
# Si number density = 18.716382 Si / 1000 Ang^3
#
#
#
# Elastic Constant Matrix: (Units=GPa)
#
#
# Indices 1 2 3 4 5 6 
#
# 1 149.8115 12.3867 90.1263 0.0000 19.8438 0.0000
# 2 12.3867 16.4932 12.8267 0.0000 2.8224 0.0000
# 3 90.1263 12.8267 155.8593 0.0000 20.1236 0.0000
# 4 0.0000 0.0000 0.0000 19.1592 0.0000 3.2296
# 5 19.8438 2.8224 20.1236 0.0000 33.2029 0.0000
# 6 0.0000 0.0000 0.0000 3.2296 0.0000 18.6619
#
#
#
# Elastic Compliance Matrix: (Units=1/GPa)
#
#
# Indices 1 2 3 4 5 6 
#
# 1 0.010629 -0.003215 -0.005529 0.000000 -0.002728 0.000000
# 2 -0.003215 0.065937 -0.003354 0.000000 -0.001651 0.000000
# 3 -0.005529 -0.003354 0.010226 0.000000 -0.002608 0.000000
# 4 0.000000 0.000000 0.000000 0.053763 0.000000 -0.009304
# 5 -0.002728 -0.001651 -0.002608 0.000000 0.033469 0.000000
# 6 0.000000 0.000000 0.000000 -0.009304 0.000000 0.055195
#
#
# Mechanical properties :
#
#
# Convention : Reuss Voigt Hill
#
# Bulk Modulus (GPa) = 15.97595 61.42706 38.70150
# Shear Modulus (GPa) = 18.22954 27.99309 23.11131
#
# Velocity S-wave (km/s) = 3.12426 3.87155 3.51781
# Velocity P-wave (km/s) = 4.64425 7.27162 6.10104
#
# Compressibility (1/GPa) = 0.06259410
#
# Stress axis : x y z
#
# Youngs Moduli (GPa) = 94.08582 15.16609 97.78887
#
# Poissons Ratio (x) = 0.04877 0.54070
# Poissons Ratio (y) = 0.30253 0.32798
# Poissons Ratio (z) = 0.52022 0.05087
#
# Static dielectric constant tensor:
#      x y z
#    x 1.643210 0.000000 0.000900 
#    y 0.000000 1.671800 0.000000 
#    z 0.000900 0.000000 1.643490 
# 
# From -- ./inp_files/67080.got.cif
#   From: 2010.05.17/outbox.cif.g08.bks.cpg/sg11_34_cif.got.tgz:67080.got - 2010.06.03 12:22:45.
