data_PCOD9159506
_publ_section_title
;
Structure prediction by ZEFSAII (Michael W. Deem and Ramdas Pophale) SiO2 
 PCOD9159506
Probable space group: P 21/M
;
_chemical_formula_sum "Si O2"
_cell_formula_units_Z 28
_cell_length_a 12.217255
_cell_length_b 7.681964
_cell_length_c 14.618387
_cell_angle_alpha 90.000000
_cell_angle_beta 69.020645
_cell_angle_gamma 90.000000
_cell_volume 1281.023616
_symmetry_space_group_name_H-M "P 21/M"
_symmetry_group_IT_number 11
_symmetry_cell_setting 'monoclinic'
loop_
_space_group_symop_operation_xyz
x,y,z
-x,1/2+y,-z
-x,-y,-z
x,1/2-y,z
loop_
_atom_site_type_symbol
_atom_site_label
_atom_site_fract_x
_atom_site_fract_y
_atom_site_fract_z
Si Si1 0.575727 0.960367 0.693713
Si Si2 0.365624 0.042870 0.520305
Si Si3 0.760333 0.049900 0.779637
Si Si4 0.160082 0.947465 0.708114
Si Si5 0.366736 0.539998 0.008334
Si Si6 0.317909 0.963134 0.815836
Si Si7 0.011505 0.052129 0.390442
O O1 0.577447 0.750000 0.701587
O O2 0.648059 0.006960 0.581712
O O3 0.440143 0.014064 0.730378
O O4 0.638459 0.040439 0.761651
O O5 0.346438 0.250000 0.535479
O O6 0.500000 0.000000 0.500000
O O7 0.277926 0.944657 0.612190
O O8 0.797695 0.250000 0.777873
O O9 0.727246 0.975230 0.888615
O O10 0.857209 0.959138 0.687913
O O11 0.119526 0.750000 0.741315
O O12 0.206519 0.025548 0.790098
O O13 0.067659 0.034601 0.666057
O O14 0.359416 0.750000 0.010397
O O15 0.500000 0.500000 0.000000
O O16 0.333670 0.480839 0.916134
O O17 0.313338 0.750000 0.816163
O O18 0.970273 0.250000 0.403903
O O19 0.000000 0.000000 0.500000
#
# Coordination Sequence:
#
# PCOD9159506 Si02
#       7
#     4   4   4   4   4   4   4
#     4  10  19  33  55  80 111 152 190 231 286 344
#     4  11  21  32  50  79 113 147 183 227 283 346
#     4  11  23  37  57  87 120 152 193 240 289 346
#     4  10  21  39  59  81 109 148 196 240 287 341
#     4  10  20  35  58  86 117 154 191 238 289 342
#     4   9  17  34  57  81 112 147 185 232 288 340
#     4  11  24  42  65  87 114 153 197 244 288 344
#
# _framework density 21.857520000000001
#
# number of rings (size 3 to 8) (size 9 to 14) (size 15 to 20)
#    0.000    1.714    2.857    2.143    0.000    5.143 
#    0.000    1.429    0.000    0.000    0.000    0.000 
#    0.000    0.000    0.000    0.000    0.000    0.000 
#
# Total GULP energy -156216.084714 kJ/mol
# GULP energy per Si atom -5579.145883 kJ/mol
# Density = 2.180777 g / cm^3
# Si number density = 21.857520 Si / 1000 Ang^3
#
#
#
# Elastic Constant Matrix: (Units=GPa)
#
#
# Indices 1 2 3 4 5 6 
#
# 1 117.3299 -2.5858 42.9711 0.0000 29.8752 0.0000
# 2 -2.5858 39.3328 7.6914 0.0000 6.4373 0.0000
# 3 42.9711 7.6914 140.1715 0.0000 28.3305 0.0000
# 4 0.0000 0.0000 0.0000 12.8714 0.0000 1.4032
# 5 29.8752 6.4373 28.3305 0.0000 40.5321 0.0000
# 6 0.0000 0.0000 0.0000 1.4032 0.0000 15.4597
#
#
#
# Elastic Compliance Matrix: (Units=1/GPa)
#
#
# Indices 1 2 3 4 5 6 
#
# 1 0.011159 0.002311 -0.002109 0.000000 -0.007118 0.000000
# 2 0.002311 0.026639 -0.001130 0.000000 -0.005144 0.000000
# 3 -0.002109 -0.001130 0.008725 0.000000 -0.004364 0.000000
# 4 0.000000 0.000000 0.000000 0.078468 0.000000 -0.007122
# 5 -0.007118 -0.005144 -0.004364 0.000000 0.033785 0.000000
# 6 0.000000 0.000000 0.000000 -0.007122 0.000000 0.065331
#
#
# Mechanical properties :
#
#
# Convention : Reuss Voigt Hill
#
# Bulk Modulus (GPa) = 22.38886 43.66530 33.02708
# Shear Modulus (GPa) = 20.75963 30.35648 25.55805
#
# Velocity S-wave (km/s) = 3.08518 3.73075 3.42322
# Velocity P-wave (km/s) = 4.79129 6.21117 5.54685
#
# Compressibility (1/GPa) = 0.04466507
#
# Stress axis : x y z
#
# Youngs Moduli (GPa) = 89.61659 37.53902 114.61621
#
# Poissons Ratio (x) = -0.08675 0.24173
# Poissons Ratio (y) = -0.20709 0.12957
# Poissons Ratio (z) = 0.18901 0.04244
#
# Static dielectric constant tensor:
#      x y z
#    x 1.829050 0.000000 0.059920 
#    y 0.000000 1.883300 0.000000 
#    z 0.059920 0.000000 1.819780 
# 
# From -- ./inp_files/37920.got.cif
#   From: 2010.05.17/outbox.cif.g08.bks.cpg/sg11_19_cif.got.tgz:37920.got - 2010.06.03 12:22:45.
