data_PCOD9159453
_publ_section_title
;
Structure prediction by ZEFSAII (Michael W. Deem and Ramdas Pophale) SiO2 
 PCOD9159453
Probable space group: P 21/M
;
_chemical_formula_sum "Si O2"
_cell_formula_units_Z 32
_cell_length_a 13.356574
_cell_length_b 10.137863
_cell_length_c 13.532163
_cell_angle_alpha 90.000000
_cell_angle_beta 90.000000
_cell_angle_gamma 90.000000
_cell_volume 1832.351183
_symmetry_space_group_name_H-M "P 21/M"
_symmetry_group_IT_number 11
_symmetry_cell_setting 'monoclinic'
loop_
_space_group_symop_operation_xyz
x,y,z
-x,1/2+y,-z
-x,-y,-z
x,1/2-y,z
loop_
_atom_site_type_symbol
_atom_site_label
_atom_site_fract_x
_atom_site_fract_y
_atom_site_fract_z
Si Si1 0.030946 0.400816 0.416544
Si Si2 0.745043 0.590992 0.858195
Si Si3 0.407611 0.408940 0.967750
Si Si4 0.030947 0.099184 0.083456
Si Si5 0.254956 0.409008 0.358195
Si Si6 0.680605 0.905969 0.250000
Si Si7 0.407610 0.408940 0.532250
Si Si8 0.863144 0.395240 0.250000
O O1 0.043722 0.250000 0.452205
O O2 0.137799 0.441280 0.370897
O O3 0.000000 0.500000 0.500000
O O4 0.939557 0.402578 0.340714
O O5 0.739401 0.750000 0.854334
O O6 0.862201 0.558720 0.870898
O O7 0.709438 0.541338 0.750000
O O8 0.681236 0.554429 0.954823
O O9 0.426837 0.250000 0.977482
O O10 0.377506 0.432825 0.853142
O O11 0.500000 0.500000 0.000000
O O12 0.043722 0.250000 0.047794
O O13 0.939558 0.097421 0.159287
O O14 0.000000 0.000000 0.000000
O O15 0.260599 0.250000 0.354334
O O16 0.318764 0.445571 0.454823
O O17 0.704534 0.750000 0.250000
O O18 0.622495 0.932825 0.353142
O O19 0.780654 0.992537 0.250000
O O20 0.500000 0.500000 0.500000
O O21 0.426836 0.250000 0.522517
O O22 0.814079 0.250000 0.249999
#
# Coordination Sequence:
#
# PCOD9159453 Si02
#       8
#     4   4   4   4   4   4   4   4
#     4  10  19  33  54  81 113 147 185 226 267 321
#     4   9  17  33  56  80 106 143 188 223 262 327
#     4  10  22  38  59  83 109 145 187 232 282 333
#     4  10  19  33  54  81 113 147 185 226 267 321
#     4   9  17  33  56  80 106 143 188 223 262 327
#     4  10  22  40  57  82 118 150 183 228 285 344
#     4  10  22  38  59  83 109 145 187 232 282 333
#     4  10  20  34  55  84 114 146 185 228 269 320
#
# _framework density 17.463901
#
# number of rings (size 3 to 8) (size 9 to 14) (size 15 to 20)
#    0.000    2.250    1.250    1.500    1.750    4.000 
#    0.000    1.250    0.000    1.500    0.000    0.000 
#    0.000    0.000    0.000    0.000    0.000    0.000 
#
# Total GULP energy -178238.377691 kJ/mol
# GULP energy per Si atom -5569.949303 kJ/mol
# Density = 1.742415 g / cm^3
# Si number density = 17.463901 Si / 1000 Ang^3
#
#
#
# Elastic Constant Matrix: (Units=GPa)
#
#
# Indices 1 2 3 4 5 6 
#
# 1 109.6402 53.3686 59.7404 0.0000 0.0002 0.0000
# 2 53.3686 60.2112 59.0065 0.0000 0.0002 0.0000
# 3 59.7404 59.0065 156.2334 0.0000 0.0003 0.0000
# 4 0.0000 0.0000 0.0000 20.7498 0.0000 0.0000
# 5 0.0002 0.0002 0.0003 0.0000 20.5997 0.0000
# 6 0.0000 0.0000 0.0000 0.0000 0.0000 36.3963
#
#
#
# Elastic Compliance Matrix: (Units=1/GPa)
#
#
# Indices 1 2 3 4 5 6 
#
# 1 0.016188 -0.013149 -0.001224 0.000000 0.000000 0.000000
# 2 -0.013149 0.037048 -0.008964 0.000000 0.000000 0.000000
# 3 -0.001224 -0.008964 0.010254 0.000000 0.000000 0.000000
# 4 0.000000 0.000000 0.000000 0.048193 0.000000 0.000000
# 5 0.000000 0.000000 0.000000 0.000000 0.048544 0.000000
# 6 0.000000 0.000000 0.000000 0.000000 0.000000 0.027475
#
#
# Mechanical properties :
#
#
# Convention : Reuss Voigt Hill
#
# Bulk Modulus (GPa) = 59.46787 74.47955 66.97371
# Shear Modulus (GPa) = 20.83480 25.81378 23.32429
#
# Velocity S-wave (km/s) = 3.45776 3.84881 3.65851
# Velocity P-wave (km/s) = 7.07582 7.90515 7.50196
#
# Compressibility (1/GPa) = 0.01681580
#
# Stress axis : x y z
#
# Youngs Moduli (GPa) = 61.77414 26.99202 97.51964
#
# Poissons Ratio (x) = 0.35492 0.11935
# Poissons Ratio (y) = 0.81227 0.87421
# Poissons Ratio (z) = 0.07560 0.24197
#
# Static dielectric constant tensor:
#      x y z
#    x 1.583300 0.000000 0.000000 
#    y 0.000000 1.576930 0.000000 
#    z 0.000000 0.000000 1.624410 
# 
# From -- ./inp_files/34805.got.cif
#   From: 2010.05.17/outbox.cif.g08.bks.cpg/sg11_18_cif.got.tgz:34805.got - 2010.06.03 12:22:45.
