data_PCOD9159829
_publ_section_title
;
Structure prediction by ZEFSAII (Michael W. Deem and Ramdas Pophale) SiO2 
 PCOD9159829
Probable space group: P 21/M
;
_chemical_formula_sum "Si O2"
_cell_formula_units_Z 32
_cell_length_a 24.786590
_cell_length_b 8.716565
_cell_length_c 23.223626
_cell_angle_alpha 90.000000
_cell_angle_beta 162.482578
_cell_angle_gamma 90.000000
_cell_volume 1510.263049
_symmetry_space_group_name_H-M "P 21/M"
_symmetry_group_IT_number 11
_symmetry_cell_setting 'monoclinic'
loop_
_space_group_symop_operation_xyz
x,y,z
-x,1/2+y,-z
-x,-y,-z
x,1/2-y,z
loop_
_atom_site_type_symbol
_atom_site_label
_atom_site_fract_x
_atom_site_fract_y
_atom_site_fract_z
Si Si1 0.431000 0.933745 0.556397
Si Si2 0.082899 0.934027 0.142493
Si Si3 0.760853 0.063655 0.038269
Si Si4 0.813626 0.433418 0.331722
Si Si5 0.826012 0.065967 0.978564
Si Si6 0.728881 0.577471 0.367182
Si Si7 0.307789 0.574878 0.910976
Si Si8 0.361943 0.568276 0.613252
O O1 0.464151 0.750000 0.586939
O O2 0.290568 0.980694 0.364348
O O3 0.324910 0.961987 0.508679
O O4 0.622591 0.016305 0.754613
O O5 0.079412 0.750000 0.137564
O O6 0.000000 0.000000 0.000000
O O7 0.961751 0.991281 0.072085
O O8 0.759607 0.250000 0.039214
O O9 0.860306 0.018505 0.080460
O O10 0.559956 0.003204 0.822243
O O11 0.801414 0.007822 0.145218
O O12 0.805290 0.250000 0.327367
O O13 0.787858 0.495777 0.369271
O O14 0.691715 0.489485 0.153440
O O15 0.000000 0.500000 0.500000
O O16 0.838688 0.250000 0.988560
O O17 0.799165 0.750000 0.439903
O O18 0.760884 0.501503 0.461671
O O19 0.512992 0.580544 0.139691
O O20 0.241799 0.750000 0.837497
O O21 0.371160 0.750000 0.631670
#
# Coordination Sequence:
#
# PCOD9159829 Si02
#       8
#     4   4   4   4   4   4   4   4
#     4   9  20  39  62  87 120 159 196 240 293 347
#     4  11  24  42  62  87 122 159 200 243 285 342
#     4   8  15  31  54  81 110 138 177 226 275 332
#     4  11  22  36  50  69 103 142 180 225 274 329
#     4  10  20  36  62  92 122 155 195 242 294 349
#     4  10  19  34  55  78 102 134 178 226 277 332
#     4   8  16  32  55  77 101 134 176 223 272 324
#     4   9  16  30  54  83 111 138 176 224 277 333
#
# _framework density 21.188362999999999
#
# number of rings (size 3 to 8) (size 9 to 14) (size 15 to 20)
#    0.000    2.500    0.000    3.000    0.000    2.500 
#    2.250    5.625    0.000    0.000    0.000    0.000 
#    0.000    0.000    0.000    0.000    0.000    0.000 
#
# Total GULP energy -178337.268816 kJ/mol
# GULP energy per Si atom -5573.039651 kJ/mol
# Density = 2.114014 g / cm^3
# Si number density = 21.188363 Si / 1000 Ang^3
#
#
#
# Elastic Constant Matrix: (Units=GPa)
#
#
# Indices 1 2 3 4 5 6 
#
# 1 74.9475 12.1223 15.8039 0.0000 9.5696 0.0000
# 2 12.1223 19.5691 8.2229 0.0000 7.7837 0.0000
# 3 15.8039 8.2229 57.9816 0.0000 -11.1989 0.0000
# 4 0.0000 0.0000 0.0000 15.1681 0.0000 4.9921
# 5 9.5696 7.7837 -11.1989 0.0000 25.8941 0.0000
# 6 0.0000 0.0000 0.0000 4.9921 0.0000 36.8888
#
#
#
# Elastic Compliance Matrix: (Units=1/GPa)
#
#
# Indices 1 2 3 4 5 6 
#
# 1 0.016052 -0.005346 -0.004858 0.000000 -0.006427 0.000000
# 2 -0.005346 0.069800 -0.013217 0.000000 -0.024722 0.000000
# 3 -0.004858 -0.013217 0.023525 0.000000 0.015943 0.000000
# 4 0.000000 0.000000 0.000000 0.069001 0.000000 -0.009338
# 5 -0.006427 -0.024722 0.015943 0.000000 0.055320 0.000000
# 6 0.000000 0.000000 0.000000 -0.009338 0.000000 0.028372
#
#
# Mechanical properties :
#
#
# Convention : Reuss Voigt Hill
#
# Bulk Modulus (GPa) = 15.99120 24.97737 20.48428
# Shear Modulus (GPa) = 15.16262 23.34680 19.25471
#
# Velocity S-wave (km/s) = 2.67799 3.32304 3.01780
# Velocity P-wave (km/s) = 4.13832 5.15144 4.67242
#
# Compressibility (1/GPa) = 0.06253441
#
# Stress axis : x y z
#
# Youngs Moduli (GPa) = 62.29578 14.32666 42.50841
#
# Poissons Ratio (x) = 0.07659 0.20653
# Poissons Ratio (y) = 0.33304 0.56183
# Poissons Ratio (z) = 0.30266 0.18935
#
# Static dielectric constant tensor:
#      x y z
#    x 1.849130 0.000000 -0.051610 
#    y 0.000000 1.730200 0.000000 
#    z -0.051610 0.000000 1.828490 
# 
# From -- ./inp_files/69996.got.cif
#   From: 2010.05.17/outbox.cif.g08.bks.cpg/sg11_35_cif.got.tgz:69996.got - 2010.06.03 12:22:45.
