data_PCOD9159243
_publ_section_title
;
Structure prediction by ZEFSAII (Michael W. Deem and Ramdas Pophale) SiO2 
 PCOD9159243
Probable space group: P 21/M
;
_chemical_formula_sum "Si O2"
_cell_formula_units_Z 32
_cell_length_a 14.476659
_cell_length_b 15.259080
_cell_length_c 8.170152
_cell_angle_alpha 90.000000
_cell_angle_beta 118.531706
_cell_angle_gamma 90.000000
_cell_volume 1585.604110
_symmetry_space_group_name_H-M "P 21/M"
_symmetry_group_IT_number 11
_symmetry_cell_setting 'monoclinic'
loop_
_space_group_symop_operation_xyz
x,y,z
-x,1/2+y,-z
-x,-y,-z
x,1/2-y,z
loop_
_atom_site_type_symbol
_atom_site_label
_atom_site_fract_x
_atom_site_fract_y
_atom_site_fract_z
Si Si1 0.113509 0.351407 0.223263
Si Si2 0.065819 0.991437 0.390645
Si Si3 0.442442 0.413940 0.390430
Si Si4 0.664026 0.655931 0.390372
Si Si5 0.169470 0.853150 0.272992
Si Si6 0.624172 0.153129 0.316935
Si Si7 0.217302 0.017409 0.080056
Si Si8 0.278484 0.498779 0.764594
O O1 0.078053 0.250000 0.173713
O O2 0.042488 0.422424 0.260824
O O3 0.222113 0.346125 0.421144
O O4 0.142024 0.405178 0.083255
O O5 0.074776 0.900051 0.297099
O O6 0.185626 0.997170 0.553590
O O7 0.000000 0.000000 0.500000
O O8 0.500000 0.500000 0.500000
O O9 0.416902 0.358144 0.530318
O O10 0.517746 0.367668 0.324364
O O11 0.332528 0.447841 0.226571
O O12 0.651209 0.750000 0.302062
O O13 0.656450 0.584149 0.243195
O O14 0.148330 0.750000 0.213651
O O15 0.278063 0.851284 0.470936
O O16 0.190366 0.925327 0.147440
O O17 0.621270 0.250000 0.245366
O O18 0.649515 0.083122 0.198807
O O19 0.223092 0.007739 0.891479
#
# Coordination Sequence:
#
# PCOD9159243 Si02
#       8
#     4   4   4   4   4   4   4   4
#     4   8  16  32  52  72  97 131 167 196 241 298
#     4   9  18  34  56  78  97 127 168 206 245 296
#     4  11  17  32  52  71  94 130 174 205 234 282
#     4   9  17  31  50  70  95 130 168 206 242 289
#     4   9  18  34  53  74  99 135 170 199 242 300
#     4  10  19  33  52  71  98 135 174 207 241 291
#     4  10  20  32  52  73 103 135 161 206 251 293
#     4  10  20  34  50  74 104 130 160 207 259 298
#
# _framework density 20.181581999999999
#
# number of rings (size 3 to 8) (size 9 to 14) (size 15 to 20)
#    0.000    2.500    2.500    1.875    0.000    2.500 
#    0.000    2.500    0.000    1.500    0.000    0.000 
#    0.000    0.000    0.000    0.000    0.000    0.000 
#
# Total GULP energy -178245.063128 kJ/mol
# GULP energy per Si atom -5570.158223 kJ/mol
# Density = 2.013565 g / cm^3
# Si number density = 20.181582 Si / 1000 Ang^3
#
#
#
# Elastic Constant Matrix: (Units=GPa)
#
#
# Indices 1 2 3 4 5 6 
#
# 1 79.4099 50.5577 14.2473 0.0000 -18.1639 0.0000
# 2 50.5577 206.3942 45.5708 0.0000 -33.9188 0.0000
# 3 14.2473 45.5708 50.6884 0.0000 -20.3727 0.0000
# 4 0.0000 0.0000 0.0000 -16.5064 0.0000 -0.5194
# 5 -18.1639 -33.9188 -20.3727 0.0000 37.1031 0.0000
# 6 0.0000 0.0000 0.0000 -0.5194 0.0000 6.2616
#
#
#
# Elastic Compliance Matrix: (Units=1/GPa)
#
#
# Indices 1 2 3 4 5 6 
#
# 1 0.015645 -0.003093 0.000417 0.000000 0.005061 0.000000
# 2 -0.003093 0.006981 -0.004427 0.000000 0.002437 0.000000
# 3 0.000417 -0.004427 0.028290 0.000000 0.011690 0.000000
# 4 0.000000 0.000000 0.000000 -0.060425 0.000000 -0.005012
# 5 0.005061 0.002437 0.011690 0.000000 0.038076 0.000000
# 6 0.000000 0.000000 0.000000 -0.005012 0.000000 0.159289
#
#
# Mechanical properties :
#
#
# Convention : Reuss Voigt Hill
#
# Bulk Modulus (GPa) = 27.24089 61.91602 44.57846
# Shear Modulus (GPa) = 23.33206 20.44610 21.88908
#
# Velocity S-wave (km/s) = 3.40385 3.18639 3.29691
# Velocity P-wave (km/s) = 5.38288 6.65458 6.05223
#
# Compressibility (1/GPa) = 0.03670951
#
# Stress axis : x y z
#
# Youngs Moduli (GPa) = 63.91979 143.25392 35.34815
#
# Poissons Ratio (x) = 0.44304 -0.01474
# Poissons Ratio (y) = 0.19768 0.15650
# Poissons Ratio (z) = -0.02666 0.63422
#
# Static dielectric constant tensor:
#      x y z
#    x 1.660260 0.000000 -0.022580 
#    y 0.000000 1.748960 0.000000 
#    z -0.022580 0.000000 1.763740 
# 
# From -- ./inp_files/21878.got.cif
#   From: 2010.05.17/outbox.cif.g08.bks.cpg/sg11_11_cif.got.tgz:21878.got - 2010.06.03 12:22:45.
