data_PCOD9159432
_publ_section_title
;
Structure prediction by ZEFSAII (Michael W. Deem and Ramdas Pophale) SiO2 
 PCOD9159432
Probable space group: P 21/M
;
_chemical_formula_sum "Si O2"
_cell_formula_units_Z 32
_cell_length_a 16.654151
_cell_length_b 20.020998
_cell_length_c 8.611389
_cell_angle_alpha 90.000000
_cell_angle_beta 140.860140
_cell_angle_gamma 90.000000
_cell_volume 1812.421107
_symmetry_space_group_name_H-M "P 21/M"
_symmetry_group_IT_number 11
_symmetry_cell_setting 'monoclinic'
loop_
_space_group_symop_operation_xyz
x,y,z
-x,1/2+y,-z
-x,-y,-z
x,1/2-y,z
loop_
_atom_site_type_symbol
_atom_site_label
_atom_site_fract_x
_atom_site_fract_y
_atom_site_fract_z
Si Si1 0.513965 0.175038 0.708307
Si Si2 0.228711 0.324851 0.780677
Si Si3 0.631265 0.461212 0.883446
Si Si4 0.513965 0.324962 0.333588
Si Si5 0.228711 0.175149 0.405456
Si Si6 0.876204 0.963748 0.749503
Si Si7 0.631265 0.461212 0.510349
Si Si8 0.123796 0.463748 0.620892
O O1 0.554862 0.250000 0.813603
O O2 0.607179 0.115456 0.895260
O O3 0.503393 0.172220 0.505090
O O4 0.373036 0.164010 0.564512
O O5 0.189995 0.250000 0.773703
O O6 0.229876 0.325151 0.594815
O O7 0.143429 0.387073 0.705902
O O8 0.373036 0.335990 0.054597
O O9 0.649904 0.463904 0.724856
O O10 0.500000 0.500000 0.721100
O O11 0.750319 0.495978 0.141263
O O12 0.554862 0.250000 0.350984
O O13 0.607180 0.384544 0.426278
O O14 0.189995 0.250000 0.296283
O O15 0.143429 0.112927 0.224384
O O16 0.885339 0.962251 0.578009
O O17 0.750319 0.004022 0.609695
O O18 0.000000 0.000000 0.000000
O O19 0.000000 0.500000 0.500000
#
# Coordination Sequence:
#
# PCOD9159432 Si02
#       8
#     4   4   4   4   4   4   4   4
#     4   9  17  30  51  79 108 139 174 213 259 310
#     4   9  18  33  53  77 103 133 172 217 263 312
#     4  10  19  33  54  80 109 138 172 216 262 310
#     4   9  17  30  51  79 108 139 174 213 259 310
#     4   9  18  33  53  77 103 133 172 217 263 312
#     4  11  23  37  55  78 107 142 179 219 265 316
#     4  10  19  33  54  80 109 138 172 216 262 310
#     4  11  23  37  55  78 107 142 179 219 265 316
#
# _framework density 17.655942
#
# number of rings (size 3 to 8) (size 9 to 14) (size 15 to 20)
#    0.000    2.250    2.500    0.750    0.000    2.500 
#    0.000    1.250    0.000    7.500    0.000    0.000 
#    0.000    0.000    0.000    0.000    0.000    0.000 
#
# Total GULP energy -178458.880471 kJ/mol
# GULP energy per Si atom -5576.840015 kJ/mol
# Density = 1.761576 g / cm^3
# Si number density = 17.655942 Si / 1000 Ang^3
#
#
#
# Elastic Constant Matrix: (Units=GPa)
#
#
# Indices 1 2 3 4 5 6 
#
# 1 53.2011 47.0522 12.5569 0.0000 24.2491 0.0000
# 2 47.0522 183.2810 62.5817 0.0000 20.0948 0.0000
# 3 12.5569 62.5817 82.0351 0.0000 13.0616 0.0000
# 4 0.0000 0.0000 0.0000 25.3526 0.0000 3.0997
# 5 24.2491 20.0948 13.0616 0.0000 15.2157 0.0000
# 6 0.0000 0.0000 0.0000 3.0997 0.0000 22.9572
#
#
#
# Elastic Compliance Matrix: (Units=1/GPa)
#
#
# Indices 1 2 3 4 5 6 
#
# 1 0.096510 -0.015349 0.021079 0.000000 -0.151631 0.000000
# 2 -0.015349 0.010270 -0.008364 0.000000 0.018078 0.000000
# 3 0.021079 -0.008364 0.021931 0.000000 -0.041375 0.000000
# 4 0.000000 0.000000 0.000000 0.040106 0.000000 -0.005415
# 5 -0.151631 0.018078 -0.041375 0.000000 0.319019 0.000000
# 6 0.000000 0.000000 0.000000 -0.005415 0.000000 0.044290
#
#
# Mechanical properties :
#
#
# Convention : Reuss Voigt Hill
#
# Bulk Modulus (GPa) = 8.10078 62.54432 35.32255
# Shear Modulus (GPa) = 8.64242 25.79352 17.21797
#
# Velocity S-wave (km/s) = 2.21484 3.82632 3.12620
# Velocity P-wave (km/s) = 3.33749 7.41767 5.75155
#
# Compressibility (1/GPa) = 0.12344485
#
# Stress axis : x y z
#
# Youngs Moduli (GPa) = 10.36162 97.36787 45.59671
#
# Poissons Ratio (x) = 1.49450 -0.96115
# Poissons Ratio (y) = 0.15904 0.38136
# Poissons Ratio (z) = -0.21842 0.81436
#
# Static dielectric constant tensor:
#      x y z
#    x 1.586230 0.000000 -0.028320 
#    y 0.000000 1.660380 0.000000 
#    z -0.028320 0.000000 1.564350 
# 
# From -- ./inp_files/23100.got.cif
#   From: 2010.05.17/outbox.cif.g08.bks.cpg/sg11_12_cif.got.tgz:23100.got - 2010.06.03 12:22:45.
