data_PCOD9159140
_publ_section_title
;
Structure prediction by ZEFSAII (Michael W. Deem and Ramdas Pophale) SiO2 
 PCOD9159140
Probable space group: P 21/M
;
_chemical_formula_sum "Si O2"
_cell_formula_units_Z 32
_cell_length_a 21.382063
_cell_length_b 9.080088
_cell_length_c 27.434916
_cell_angle_alpha 90.000000
_cell_angle_beta 160.333440
_cell_angle_gamma 90.000000
_cell_volume 1792.616431
_symmetry_space_group_name_H-M "P 21/M"
_symmetry_group_IT_number 11
_symmetry_cell_setting 'monoclinic'
loop_
_space_group_symop_operation_xyz
x,y,z
-x,1/2+y,-z
-x,-y,-z
x,1/2-y,z
loop_
_atom_site_type_symbol
_atom_site_label
_atom_site_fract_x
_atom_site_fract_y
_atom_site_fract_z
Si Si1 0.919264 0.427436 0.208101
Si Si2 0.710383 0.925463 0.769502
Si Si3 0.996086 0.073322 0.444588
Si Si4 0.298368 0.572320 0.852098
Si Si5 0.613043 0.926228 0.319924
Si Si6 0.249652 0.426390 0.011227
Si Si7 0.348436 0.426716 0.537822
Si Si8 0.970459 0.573924 0.053069
O O1 0.908895 0.250000 0.195407
O O2 0.816832 0.465573 0.183583
O O3 0.136989 0.467980 0.370153
O O4 0.821152 0.504084 0.090726
O O5 0.700113 0.750000 0.757861
O O6 0.506850 0.995077 0.622742
O O7 0.817650 0.961734 0.899127
O O8 0.841561 0.991973 0.823969
O O9 0.986080 0.250000 0.442567
O O10 0.186630 0.039957 0.555927
O O11 0.823102 0.026717 0.283954
O O12 0.000000 0.000000 0.500000
O O13 0.315780 0.750000 0.863830
O O14 0.500000 0.500000 0.000000
O O15 0.582953 0.750000 0.293645
O O16 0.616381 0.963614 0.379577
O O17 0.450278 0.010992 0.173078
O O18 0.256759 0.250000 0.013000
O O19 0.111606 0.465710 0.954632
O O20 0.365133 0.250000 0.545123
O O21 0.000188 0.750000 0.073115
#
# Coordination Sequence:
#
# PCOD9159140 Si02
#       8
#     4   4   4   4   4   4   4   4
#     4  10  22  41  61  82 113 154 195 233 278 342
#     4  10  19  32  55  85 115 147 186 235 285 336
#     4  10  22  40  60  86 117 149 189 237 284 336
#     4  10  22  41  61  83 115 152 192 234 280 338
#     4  10  20  37  61  84 111 150 193 235 283 340
#     4  11  23  38  57  86 120 150 186 239 289 332
#     4  10  19  36  61  84 109 149 193 235 283 335
#     4   9  19  35  52  79 117 151 185 231 284 337
#
# _framework density 17.851002000000001
#
# number of rings (size 3 to 8) (size 9 to 14) (size 15 to 20)
#    0.000    2.000    2.500    0.750    1.750    3.500 
#    0.000    0.625    0.000    0.000    0.000    0.000 
#    0.000    0.000    0.000    0.000    0.000    0.000 
#
# Total GULP energy -178683.856040 kJ/mol
# GULP energy per Si atom -5583.870501 kJ/mol
# Density = 1.781037 g / cm^3
# Si number density = 17.851002 Si / 1000 Ang^3
#
#
#
# Elastic Constant Matrix: (Units=GPa)
#
#
# Indices 1 2 3 4 5 6 
#
# 1 90.4782 35.3385 73.7852 0.0000 0.6416 0.0000
# 2 35.3385 22.7724 53.9069 0.0000 3.3880 0.0000
# 3 73.7852 53.9069 167.6745 0.0000 5.4574 0.0000
# 4 0.0000 0.0000 0.0000 27.0855 0.0000 6.9003
# 5 0.6416 3.3880 5.4574 0.0000 35.1247 0.0000
# 6 0.0000 0.0000 0.0000 6.9003 0.0000 29.0729
#
#
#
# Elastic Compliance Matrix: (Units=1/GPa)
#
#
# Indices 1 2 3 4 5 6 
#
# 1 0.030855 -0.067281 0.007900 0.000000 0.004699 0.000000
# 2 -0.067281 0.333100 -0.076867 0.000000 -0.018958 0.000000
# 3 0.007900 -0.076867 0.027100 0.000000 0.003059 0.000000
# 4 0.000000 0.000000 0.000000 0.039296 0.000000 -0.009327
# 5 0.004699 -0.018958 0.003059 0.000000 0.029737 0.000000
# 6 0.000000 0.000000 0.000000 -0.009327 0.000000 0.036610
#
#
# Mechanical properties :
#
#
# Convention : Reuss Voigt Hill
#
# Bulk Modulus (GPa) = 8.43455 67.44292 37.93873
# Shear Modulus (GPa) = 6.18265 26.11624 16.14945
#
# Velocity S-wave (km/s) = 1.86306 3.82908 3.01105
# Velocity P-wave (km/s) = 3.05994 7.57709 5.77821
#
# Compressibility (1/GPa) = 0.11856004
#
# Stress axis : x y z
#
# Youngs Moduli (GPa) = 32.40980 3.00210 36.89992
#
# Poissons Ratio (x) = 0.20198 -0.29151
# Poissons Ratio (y) = 2.18057 2.83637
# Poissons Ratio (z) = -0.25604 0.23076
#
# Static dielectric constant tensor:
#      x y z
#    x 1.594250 0.000000 0.003090 
#    y 0.000000 1.591150 0.000000 
#    z 0.003090 0.000000 1.587350 
# 
# From -- ./inp_files/72150.got.cif
#   From: 2010.05.17/outbox.cif.g08.bks.cpg/sg11_37_cif.got.tgz:72150.got - 2010.06.03 12:22:45.
