data_PCOD9159236
_publ_section_title
;
Structure prediction by ZEFSAII (Michael W. Deem and Ramdas Pophale) SiO2 
 PCOD9159236
Probable space group: P 21/M
;
_chemical_formula_sum "Si O2"
_cell_formula_units_Z 20
_cell_length_a 12.287356
_cell_length_b 8.921374
_cell_length_c 12.883192
_cell_angle_alpha 90.000000
_cell_angle_beta 121.617136
_cell_angle_gamma 90.000000
_cell_volume 1202.635759
_symmetry_space_group_name_H-M "P 21/M"
_symmetry_group_IT_number 11
_symmetry_cell_setting 'monoclinic'
loop_
_space_group_symop_operation_xyz
x,y,z
-x,1/2+y,-z
-x,-y,-z
x,1/2-y,z
loop_
_atom_site_type_symbol
_atom_site_label
_atom_site_fract_x
_atom_site_fract_y
_atom_site_fract_z
Si Si1 0.139967 0.928612 0.569983
Si Si2 0.683473 0.927649 0.168885
Si Si3 0.316528 0.427646 0.485413
Si Si4 0.386699 0.928919 0.076067
Si Si5 0.613303 0.071084 0.689370
O O1 0.132248 0.750000 0.566124
O O2 0.218302 0.985977 0.709178
O O3 0.218303 0.985975 0.509123
O O4 0.000000 0.000000 0.500000
O O5 0.706406 0.750000 0.187061
O O6 0.538753 0.956182 0.137154
O O7 0.684372 0.983935 0.050876
O O8 0.293585 0.250000 0.480651
O O9 0.315634 0.483932 0.366508
O O10 0.461247 0.456167 0.598403
O O11 0.367618 0.750000 0.054060
O O12 0.350684 0.971418 0.175342
O O13 0.632394 0.250000 0.686447
#
# Coordination Sequence:
#
# PCOD9159236 Si02
#       5
#     4   4   4   4   4
#     4  12  24  38  56  76 104 142 181 220 265 314
#     4  10  19  33  51  77 108 138 177 219 262 312
#     4  10  19  33  51  77 108 138 177 219 262 312
#     4   9  17  31  51  77 110 142 172 214 263 312
#     4   9  17  31  51  77 110 142 172 214 263 312
#
# _framework density 16.630139
#
# number of rings (size 3 to 8) (size 9 to 14) (size 15 to 20)
#    0.000    2.000    2.000    3.000    0.000    2.400 
#    0.000    0.000    0.000    1.200    0.000    0.000 
#    0.000    0.000    0.000    0.000    0.000    0.000 
#
# Total GULP energy -111631.884846 kJ/mol
# GULP energy per Si atom -5581.594242 kJ/mol
# Density = 1.659229 g / cm^3
# Si number density = 16.630139 Si / 1000 Ang^3
#
#
#
# Elastic Constant Matrix: (Units=GPa)
#
#
# Indices 1 2 3 4 5 6 
#
# 1 84.3174 70.6744 75.9239 0.0000 -13.1557 0.0000
# 2 70.6744 106.7226 74.2146 0.0000 -4.7761 0.0000
# 3 75.9239 74.2146 114.3281 0.0000 -27.2851 0.0000
# 4 0.0000 0.0000 0.0000 29.7643 0.0000 -4.2566
# 5 -13.1557 -4.7761 -27.2851 0.0000 28.1448 0.0000
# 6 0.0000 0.0000 0.0000 -4.2566 0.0000 26.6089
#
#
#
# Elastic Compliance Matrix: (Units=1/GPa)
#
#
# Indices 1 2 3 4 5 6 
#
# 1 0.038344 -0.013901 -0.016556 0.000000 -0.000486 0.000000
# 2 -0.013901 0.024720 -0.009582 0.000000 -0.011592 0.000000
# 3 -0.016556 -0.009582 0.030868 0.000000 0.020560 0.000000
# 4 0.000000 0.000000 0.000000 0.034384 0.000000 0.005500
# 5 -0.000486 -0.011592 0.020560 0.000000 0.053269 0.000000
# 6 0.000000 0.000000 0.000000 0.005500 0.000000 0.038461
#
#
# Mechanical properties :
#
#
# Convention : Reuss Voigt Hill
#
# Bulk Modulus (GPa) = 72.17852 82.99930 77.58891
# Shear Modulus (GPa) = 16.40741 22.54060 19.47400
#
# Velocity S-wave (km/s) = 3.14444 3.68558 3.42571
# Velocity P-wave (km/s) = 7.52860 8.25401 7.89963
#
# Compressibility (1/GPa) = 0.01385454
#
# Stress axis : x y z
#
# Youngs Moduli (GPa) = 26.07993 40.45335 32.39601
#
# Poissons Ratio (x) = 0.56234 0.53635
# Poissons Ratio (y) = 0.36253 0.31040
# Poissons Ratio (z) = 0.43178 0.38761
#
# Static dielectric constant tensor:
#      x y z
#    x 1.540940 0.000000 -0.016940 
#    y 0.000000 1.549770 0.000000 
#    z -0.016940 0.000000 1.553490 
# 
# From -- ./inp_files/33407.got.cif
#   From: 2010.05.17/outbox.cif.g08.bks.cpg/sg11_17_cif.got.tgz:33407.got - 2010.06.03 12:22:45.
