data_PCOD9159070
_publ_section_title
;
Structure prediction by ZEFSAII (Michael W. Deem and Ramdas Pophale) SiO2 
 PCOD9159070
Probable space group: P 21/M
;
_chemical_formula_sum "Si O2"
_cell_formula_units_Z 32
_cell_length_a 12.003167
_cell_length_b 8.584676
_cell_length_c 24.691422
_cell_angle_alpha 90.000000
_cell_angle_beta 136.299324
_cell_angle_gamma 90.000000
_cell_volume 1757.823870
_symmetry_space_group_name_H-M "P 21/M"
_symmetry_group_IT_number 11
_symmetry_cell_setting 'monoclinic'
loop_
_space_group_symop_operation_xyz
x,y,z
-x,1/2+y,-z
-x,-y,-z
x,1/2-y,z
loop_
_atom_site_type_symbol
_atom_site_label
_atom_site_fract_x
_atom_site_fract_y
_atom_site_fract_z
Si Si1 0.413624 0.561828 0.722892
Si Si2 0.161769 0.439186 0.812442
Si Si3 0.346600 0.436546 0.979400
Si Si4 0.800983 0.436642 0.665549
Si Si5 0.047874 0.937629 0.575687
Si Si6 0.270558 0.436733 0.473551
Si Si7 0.515010 0.563778 0.137134
Si Si8 0.540765 0.936739 0.650087
O O1 0.414796 0.750000 0.725965
O O2 0.226459 0.508967 0.654605
O O3 0.493420 0.495575 0.804832
O O4 0.497567 0.515153 0.696114
O O5 0.161631 0.250000 0.809906
O O6 0.313024 0.491487 0.828638
O O7 0.986466 0.493097 0.732157
O O8 0.198892 0.481482 0.888150
O O9 0.353090 0.250000 0.984172
O O10 0.372241 0.503670 0.048084
O O11 0.500000 0.500000 0.000000
O O12 0.799314 0.250000 0.662462
O O13 0.713272 0.502655 0.581613
O O14 0.704525 0.492408 0.684199
O O15 0.051012 0.750000 0.574192
O O16 0.907755 0.983159 0.568080
O O17 0.000000 0.000000 0.500000
O O18 0.284701 0.250000 0.479403
O O19 0.398919 0.506985 0.560215
O O20 0.515599 0.750000 0.135840
O O21 0.548214 0.750000 0.650959
#
# Coordination Sequence:
#
# PCOD9159070 Si02
#       8
#     4   4   4   4   4   4   4   4
#     4  10  21  36  53  75 105 140 174 213 263 313
#     4   8  17  33  53  79 108 138 168 206 258 310
#     4   9  16  30  52  79 111 141 170 205 256 313
#     4  11  22  37  56  76 102 136 178 221 262 307
#     4  10  20  34  53  77 104 135 171 212 261 315
#     4  11  22  36  55  79 104 133 176 220 264 314
#     4  10  19  32  53  83 112 138 171 208 257 315
#     4  11  23  39  55  72 101 139 180 222 266 310
#
# _framework density 18.204325999999998
#
# number of rings (size 3 to 8) (size 9 to 14) (size 15 to 20)
#    0.000    2.000    1.250    3.750    0.000    2.000 
#    0.000    6.875    0.000    0.750    0.000    0.000 
#    0.000    0.000    0.000    0.000    0.000    0.000 
#
# Total GULP energy -178599.107508 kJ/mol
# GULP energy per Si atom -5581.222110 kJ/mol
# Density = 1.816289 g / cm^3
# Si number density = 18.204326 Si / 1000 Ang^3
#
#
#
# Elastic Constant Matrix: (Units=GPa)
#
#
# Indices 1 2 3 4 5 6 
#
# 1 59.8275 5.8850 22.2170 0.0000 -14.6727 0.0000
# 2 5.8850 19.4013 13.1108 0.0000 -7.0069 0.0000
# 3 22.2170 13.1108 117.4095 0.0000 -27.4431 0.0000
# 4 0.0000 0.0000 0.0000 27.3122 0.0000 -5.9551
# 5 -14.6727 -7.0069 -27.4431 0.0000 21.2238 0.0000
# 6 0.0000 0.0000 0.0000 -5.9551 0.0000 22.3764
#
#
#
# Elastic Compliance Matrix: (Units=1/GPa)
#
#
# Indices 1 2 3 4 5 6 
#
# 1 0.020198 -0.001053 -0.000748 0.000000 0.012649 0.000000
# 2 -0.001053 0.059269 -0.002889 0.000000 0.015104 0.000000
# 3 -0.000748 -0.002889 0.012379 0.000000 0.014535 0.000000
# 4 0.000000 0.000000 0.000000 0.038869 0.000000 0.010344
# 5 0.012649 0.015104 0.014535 0.000000 0.079643 0.000000
# 6 0.000000 0.000000 0.000000 0.010344 0.000000 0.047443
#
#
# Mechanical properties :
#
#
# Convention : Reuss Voigt Hill
#
# Bulk Modulus (GPa) = 12.12607 31.00710 21.56659
# Shear Modulus (GPa) = 16.96814 24.54418 20.75616
#
# Velocity S-wave (km/s) = 3.05633 3.67585 3.38031
# Velocity P-wave (km/s) = 4.37384 5.92331 5.20654
#
# Compressibility (1/GPa) = 0.08246697
#
# Stress axis : x y z
#
# Youngs Moduli (GPa) = 49.50939 16.87210 80.78331
#
# Poissons Ratio (x) = 0.01777 0.06042
# Poissons Ratio (y) = 0.05214 0.23336
# Poissons Ratio (z) = 0.03703 0.04874
#
# Static dielectric constant tensor:
#      x y z
#    x 1.625690 0.000000 0.007180 
#    y 0.000000 1.614820 0.000000 
#    z 0.007180 0.000000 1.626320 
# 
# From -- ./inp_files/64408.got.cif
#   From: 2010.05.17/outbox.cif.g08.bks.cpg/sg11_33_cif.got.tgz:64408.got - 2010.06.03 12:22:45.
