data_PCOD9159827
_publ_section_title
;
Structure prediction by ZEFSAII (Michael W. Deem and Ramdas Pophale) SiO2 
 PCOD9159827
Probable space group: P 21/M
;
_chemical_formula_sum "Si O2"
_cell_formula_units_Z 32
_cell_length_a 16.780353
_cell_length_b 15.381973
_cell_length_c 14.338370
_cell_angle_alpha 90.000000
_cell_angle_beta 31.296189
_cell_angle_gamma 90.000000
_cell_volume 1922.502597
_symmetry_space_group_name_H-M "P 21/M"
_symmetry_group_IT_number 11
_symmetry_cell_setting 'monoclinic'
loop_
_space_group_symop_operation_xyz
x,y,z
-x,1/2+y,-z
-x,-y,-z
x,1/2-y,z
loop_
_atom_site_type_symbol
_atom_site_label
_atom_site_fract_x
_atom_site_fract_y
_atom_site_fract_z
Si Si1 0.819050 0.013156 0.180949
Si Si2 0.614307 0.848828 0.885684
Si Si3 0.614273 0.843247 0.385723
Si Si4 0.334740 0.650108 0.025361
Si Si5 0.396748 0.913756 0.758040
Si Si6 0.665265 0.150107 0.694836
Si Si7 0.178527 0.979505 0.321477
Si Si8 0.603235 0.086239 0.551556
O O1 0.749676 0.061058 0.159171
O O2 0.749661 0.061054 0.341491
O O3 0.735453 0.920149 0.264543
O O4 0.000000 0.000000 0.000000
O O5 0.679193 0.750000 0.820798
O O6 0.729839 0.929241 0.770154
O O7 0.500033 0.856795 0.911372
O O8 0.500017 0.856795 0.088558
O O9 0.689993 0.750000 0.310003
O O10 0.504733 0.854993 0.584705
O O11 0.504743 0.854993 0.405809
O O12 0.282546 0.750000 0.091971
O O13 0.228741 0.579730 0.183125
O O14 0.351498 0.629004 0.900190
O O15 0.499989 0.999998 0.672305
O O16 0.717461 0.250000 0.657042
O O17 0.771276 0.079732 0.640581
O O18 0.648484 0.128995 0.603207
O O19 0.000000 0.000000 0.500000
#
# Coordination Sequence:
#
# PCOD9159827 Si02
#       8
#     4   4   4   4   4   4   4   4
#     4   9  19  33  49  72 105 138 164 195 249 307
#     4   9  19  34  54  75  97 129 172 213 250 292
#     4   9  17  31  50  74  97 126 170 215 250 287
#     4  10  19  34  55  77  98 128 171 215 250 291
#     4   9  17  31  53  74  97 131 168 208 249 292
#     4  10  19  34  55  77  98 128 171 215 250 291
#     4  11  22  34  51  75 107 139 161 199 252 306
#     4   9  17  31  53  74  97 131 168 208 249 292
#
# _framework density 16.644971000000002
#
# number of rings (size 3 to 8) (size 9 to 14) (size 15 to 20)
#    0.000    2.500    0.000    6.375    0.000    2.000 
#    0.000    3.750    0.000    0.000    0.000    0.000 
#    0.000    0.000    0.000    0.000    0.000    0.000 
#
# Total GULP energy -178373.157315 kJ/mol
# GULP energy per Si atom -5574.161166 kJ/mol
# Density = 1.660709 g / cm^3
# Si number density = 16.644971 Si / 1000 Ang^3
#
#
#
# Elastic Constant Matrix: (Units=GPa)
#
#
# Indices 1 2 3 4 5 6 
#
# 1 99.5410 56.3021 75.6185 0.0000 19.2905 0.0000
# 2 56.3021 136.4120 57.7037 0.0000 -1.4431 0.0000
# 3 75.6185 57.7037 89.0537 0.0000 -8.7323 0.0000
# 4 0.0000 0.0000 0.0000 9.6853 0.0000 3.3656
# 5 19.2905 -1.4431 -8.7323 0.0000 30.7904 0.0000
# 6 0.0000 0.0000 0.0000 3.3656 0.0000 13.0114
#
#
#
# Elastic Compliance Matrix: (Units=1/GPa)
#
#
# Indices 1 2 3 4 5 6 
#
# 1 0.087887 -0.003164 -0.080222 0.000000 -0.077962 0.000000
# 2 -0.003164 0.010274 -0.003835 0.000000 0.001376 0.000000
# 3 -0.080222 -0.003835 0.089226 0.000000 0.075385 0.000000
# 4 0.000000 0.000000 0.000000 0.113447 0.000000 -0.029345
# 5 -0.077962 0.001376 0.075385 0.000000 0.102766 0.000000
# 6 0.000000 0.000000 0.000000 -0.029345 0.000000 0.084447
#
#
# Mechanical properties :
#
#
# Convention : Reuss Voigt Hill
#
# Bulk Modulus (GPa) = 77.26119 78.25059 77.75589
# Shear Modulus (GPa) = 7.49848 19.72289 13.61069
#
# Velocity S-wave (km/s) = 2.12479 3.44600 2.86266
# Velocity P-wave (km/s) = 7.24828 7.93390 7.59883
#
# Compressibility (1/GPa) = 0.01294311
#
# Stress axis : x y z
#
# Youngs Moduli (GPa) = 11.37830 97.33719 11.20756
#
# Poissons Ratio (x) = 0.30797 0.89909
# Poissons Ratio (y) = 0.03600 0.04298
# Poissons Ratio (z) = 0.91279 0.37332
#
# Static dielectric constant tensor:
#      x y z
#    x 1.544240 0.000000 0.016650 
#    y 0.000000 1.580090 0.000000 
#    z 0.016650 0.000000 1.527780 
# 
# From -- ./inp_files/53721.got.cif
#   From: 2010.05.17/outbox.cif.g08.bks.cpg/sg11_27_cif.got.tgz:53721.got - 2010.06.03 12:22:45.
