data_PCOD9159624
_publ_section_title
;
Structure prediction by ZEFSAII (Michael W. Deem and Ramdas Pophale) SiO2 
 PCOD9159624
Probable space group: P 21/M
;
_chemical_formula_sum "Si O2"
_cell_formula_units_Z 32
_cell_length_a 25.025704
_cell_length_b 8.786158
_cell_length_c 20.696732
_cell_angle_alpha 90.000000
_cell_angle_beta 23.719411
_cell_angle_gamma 90.000000
_cell_volume 1830.592771
_symmetry_space_group_name_H-M "P 21/M"
_symmetry_group_IT_number 11
_symmetry_cell_setting 'monoclinic'
loop_
_space_group_symop_operation_xyz
x,y,z
-x,1/2+y,-z
-x,-y,-z
x,1/2-y,z
loop_
_atom_site_type_symbol
_atom_site_label
_atom_site_fract_x
_atom_site_fract_y
_atom_site_fract_z
Si Si1 0.266950 0.933593 0.558025
Si Si2 0.035111 0.932174 0.277208
Si Si3 0.817907 0.433159 0.018977
Si Si4 0.505144 0.933022 0.065762
Si Si5 0.306846 0.567227 0.038408
Si Si6 0.243043 0.567152 0.434691
Si Si7 0.981517 0.932497 0.091284
Si Si8 0.570211 0.932162 0.228489
O O1 0.252355 0.750000 0.576907
O O2 0.251165 0.982337 0.500596
O O3 0.417478 0.971288 0.412102
O O4 0.153914 0.008704 0.726282
O O5 0.019982 0.750000 0.295238
O O6 0.152919 0.974157 0.195988
O O7 0.091048 0.973714 0.143995
O O8 0.893525 0.007692 0.444057
O O9 0.801152 0.250000 0.036412
O O10 0.676113 0.510110 0.163708
O O11 0.897025 0.477282 0.995592
O O12 0.509078 0.750000 0.059415
O O13 0.372934 0.981344 0.251511
O O14 0.500000 0.000000 0.000000
O O15 0.629403 0.995183 0.968869
O O16 0.316436 0.750000 0.029537
O O17 0.386574 0.506675 0.887440
O O18 0.241955 0.750000 0.436095
O O19 0.979216 0.750000 0.091069
O O20 0.000000 0.000000 0.000000
O O21 0.578969 0.750000 0.211823
#
# Coordination Sequence:
#
# PCOD9159624 Si02
#       8
#     4   4   4   4   4   4   4   4
#     4  10  20  36  56  84 115 144 184 235 279 325
#     4   9  18  33  54  83 113 140 183 231 276 327
#     4   9  19  35  53  80 114 145 182 230 278 329
#     4  11  23  40  58  83 115 150 190 230 281 338
#     4  10  20  35  55  82 115 149 184 229 279 329
#     4  10  20  35  56  83 114 143 183 233 276 325
#     4  11  23  39  58  82 114 151 189 231 280 338
#     4  10  19  33  56  85 114 144 184 233 279 328
#
# _framework density 17.480677
#
# number of rings (size 3 to 8) (size 9 to 14) (size 15 to 20)
#    0.000    2.000    2.500    2.250    0.000    5.500 
#    0.000    1.250    0.000    0.000    0.000    0.000 
#    0.000    0.000    0.000    0.000    0.000    0.000 
#
# Total GULP energy -178618.618916 kJ/mol
# GULP energy per Si atom -5581.831841 kJ/mol
# Density = 1.744089 g / cm^3
# Si number density = 17.480677 Si / 1000 Ang^3
#
#
#
# Elastic Constant Matrix: (Units=GPa)
#
#
# Indices 1 2 3 4 5 6 
#
# 1 136.1827 37.2274 58.1362 0.0000 -16.6275 0.0000
# 2 37.2274 34.4158 27.5572 0.0000 -6.8102 0.0000
# 3 58.1362 27.5572 88.5958 0.0000 -14.0183 0.0000
# 4 0.0000 0.0000 0.0000 51.0623 0.0000 -2.0795
# 5 -16.6275 -6.8102 -14.0183 0.0000 30.4748 0.0000
# 6 0.0000 0.0000 0.0000 -2.0795 0.0000 32.5079
#
#
#
# Elastic Compliance Matrix: (Units=1/GPa)
#
#
# Indices 1 2 3 4 5 6 
#
# 1 0.012088 -0.008725 -0.004835 0.000000 0.002421 0.000000
# 2 -0.008725 0.045311 -0.008110 0.000000 0.001635 0.000000
# 3 -0.004835 -0.008110 0.017556 0.000000 0.003625 0.000000
# 4 0.000000 0.000000 0.000000 0.019635 0.000000 0.001256
# 5 0.002421 0.001635 0.003625 0.000000 0.036168 0.000000
# 6 0.000000 0.000000 0.000000 0.001256 0.000000 0.030842
#
#
# Mechanical properties :
#
#
# Convention : Reuss Voigt Hill
#
# Bulk Modulus (GPa) = 31.62993 56.11509 43.87251
# Shear Modulus (GPa) = 23.20417 31.89389 27.54903
#
# Velocity S-wave (km/s) = 3.64733 4.27608 3.97416
# Velocity P-wave (km/s) = 5.98923 7.52002 6.79785
#
# Compressibility (1/GPa) = 0.03161563
#
# Stress axis : x y z
#
# Youngs Moduli (GPa) = 82.72792 22.06963 56.95996
#
# Poissons Ratio (x) = 0.19255 0.27541
# Poissons Ratio (y) = 0.72177 0.46195
# Poissons Ratio (z) = 0.40000 0.17899
#
# Static dielectric constant tensor:
#      x y z
#    x 1.591590 0.000000 -0.017060 
#    y 0.000000 1.588280 0.000000 
#    z -0.017060 0.000000 1.573360 
# 
# From -- ./inp_files/67120.got.cif
#   From: 2010.05.17/outbox.cif.g08.bks.cpg/sg11_34_cif.got.tgz:67120.got - 2010.06.03 12:22:45.
