data_PCOD9159615
_publ_section_title
;
Structure prediction by ZEFSAII (Michael W. Deem and Ramdas Pophale) SiO2 
 PCOD9159615
Probable space group: P 21/M
;
_chemical_formula_sum "Si O2"
_cell_formula_units_Z 32
_cell_length_a 17.013605
_cell_length_b 13.792313
_cell_length_c 12.032418
_cell_angle_alpha 90.000000
_cell_angle_beta 152.757764
_cell_angle_gamma 90.000000
_cell_volume 1292.462585
_symmetry_space_group_name_H-M "P 21/M"
_symmetry_group_IT_number 11
_symmetry_cell_setting 'monoclinic'
loop_
_space_group_symop_operation_xyz
x,y,z
-x,1/2+y,-z
-x,-y,-z
x,1/2-y,z
loop_
_atom_site_type_symbol
_atom_site_label
_atom_site_fract_x
_atom_site_fract_y
_atom_site_fract_z
Si Si1 0.287027 0.852901 0.815504
Si Si2 0.997901 0.427148 0.677853
Si Si3 0.244659 0.902992 0.010916
Si Si4 0.695704 0.857415 0.362594
Si Si5 0.105766 0.138550 0.048547
Si Si6 0.214294 0.917289 0.210142
Si Si7 0.717753 0.859738 0.142083
Si Si8 0.436868 0.522367 0.671910
O O1 0.237056 0.750000 0.701841
O O2 0.231562 0.853359 0.874689
O O3 0.184997 0.928043 0.612594
O O4 0.491035 0.859344 0.076550
O O5 0.076351 0.530683 0.805766
O O6 0.130762 0.387578 0.751683
O O7 0.013798 0.367754 0.811798
O O8 0.255410 0.862289 0.147886
O O9 0.421020 0.962682 0.217837
O O10 0.733574 0.750000 0.458612
O O11 0.777664 0.862550 0.344498
O O12 0.705025 0.948617 0.456292
O O13 0.177008 0.250000 0.148490
O O14 0.966236 0.118895 0.968925
O O15 0.215605 0.036493 0.191199
O O16 0.349377 0.903159 0.478853
O O17 0.664399 0.750000 0.051650
O O18 0.553610 0.927276 0.912279
#
# Coordination Sequence:
#
# PCOD9159615 Si02
#       8
#     4   4   4   4   4   4   4   4
#     4  10  19  33  56  84 113 149 185 230 287 342
#     4  10  20  37  59  82 112 150 192 234 287 340
#     4   9  20  38  56  82 115 149 185 237 283 335
#     4   9  20  36  54  82 117 148 186 232 282 341
#     4  10  22  40  59  81 114 151 190 241 284 332
#     4  10  22  39  58  85 112 149 198 233 277 345
#     4  10  20  35  54  85 118 146 188 238 283 340
#     4  10  20  36  59  82 111 151 188 233 288 334
#
# _framework density 24.758935999999999
#
# number of rings (size 3 to 8) (size 9 to 14) (size 15 to 20)
#    0.000    2.250    0.000    2.250    1.750    1.500 
#    6.750    0.000    0.000    4.500    0.000    0.000 
#    0.000    0.000    0.000    0.000    0.000    0.000 
#
# Total GULP energy -178717.245935 kJ/mol
# GULP energy per Si atom -5584.913935 kJ/mol
# Density = 2.470258 g / cm^3
# Si number density = 24.758936 Si / 1000 Ang^3
#
#
#
# Elastic Constant Matrix: (Units=GPa)
#
#
# Indices 1 2 3 4 5 6 
#
# 1 104.1835 0.0676 18.4700 0.0000 -24.5159 0.0000
# 2 0.0676 96.5887 2.5395 0.0000 0.0261 0.0000
# 3 18.4700 2.5395 62.5415 0.0000 -15.0870 0.0000
# 4 0.0000 0.0000 0.0000 4.8206 0.0000 -8.6796
# 5 -24.5159 0.0261 -15.0870 0.0000 30.3398 0.0000
# 6 0.0000 0.0000 0.0000 -8.6796 0.0000 3.1508
#
#
#
# Elastic Compliance Matrix: (Units=1/GPa)
#
#
# Indices 1 2 3 4 5 6 
#
# 1 0.011954 0.000025 -0.001365 0.000000 0.008980 0.000000
# 2 0.000025 0.010366 -0.000484 0.000000 -0.000229 0.000000
# 3 -0.001365 -0.000484 0.018347 0.000000 0.008021 0.000000
# 4 0.000000 0.000000 0.000000 -0.052386 0.000000 -0.144308
# 5 0.008980 -0.000229 0.008021 0.000000 0.044205 0.000000
# 6 0.000000 0.000000 0.000000 -0.144308 0.000000 -0.080148
#
#
# Mechanical properties :
#
#
# Convention : Reuss Voigt Hill
#
# Bulk Modulus (GPa) = 27.01256 33.94087 30.47671
# Shear Modulus (GPa) = -157.85128 23.81135 -67.01997
#
# Velocity S-wave (km/s) = -7.99335 3.10454 -5.20843
# Velocity P-wave (km/s) = 8.61729 5.15647 4.88203
#
# Compressibility (1/GPa) = 0.03701982
#
# Stress axis : x y z
#
# Youngs Moduli (GPa) = 83.65693 96.46978 54.50482
#
# Poissons Ratio (x) = -0.00242 0.07439
# Poissons Ratio (y) = -0.00210 0.02636
# Poissons Ratio (z) = 0.11418 0.04665
#
# Static dielectric constant tensor:
#      x y z
#    x 1.956320 0.000000 -0.002160 
#    y 0.000000 2.055400 0.000000 
#    z -0.002160 0.000000 1.932800 
# 
# From -- ./inp_files/41733.got.cif
#   From: 2010.05.17/outbox.cif.g08.bks.cpg/sg11_21_cif.got.tgz:41733.got - 2010.06.03 12:22:45.
