data_PCOD9159577
_publ_section_title
;
Structure prediction by ZEFSAII (Michael W. Deem and Ramdas Pophale) SiO2 
 PCOD9159577
Probable space group: P 21/M
;
_chemical_formula_sum "Si O2"
_cell_formula_units_Z 32
_cell_length_a 14.844312
_cell_length_b 8.567500
_cell_length_c 12.874548
_cell_angle_alpha 90.000000
_cell_angle_beta 89.358255
_cell_angle_gamma 90.000000
_cell_volume 1637.264840
_symmetry_space_group_name_H-M "P 21/M"
_symmetry_group_IT_number 11
_symmetry_cell_setting 'monoclinic'
loop_
_space_group_symop_operation_xyz
x,y,z
-x,1/2+y,-z
-x,-y,-z
x,1/2-y,z
loop_
_atom_site_type_symbol
_atom_site_label
_atom_site_fract_x
_atom_site_fract_y
_atom_site_fract_z
Si Si1 0.473770 0.560521 0.614920
Si Si2 0.982743 0.933943 0.827818
Si Si3 0.823963 0.058983 0.113736
Si Si4 0.770925 0.069797 0.550935
Si Si5 0.787012 0.064179 0.887715
Si Si6 0.026283 0.929808 0.389460
Si Si7 0.729130 0.439206 0.325437
Si Si8 0.649125 0.932567 0.722063
O O1 0.500000 0.500000 0.500000
O O2 0.475410 0.750000 0.610571
O O3 0.373833 0.512049 0.651500
O O4 0.548798 0.508356 0.697753
O O5 0.972409 0.750000 0.844347
O O6 0.071063 0.990959 0.888226
O O7 0.887531 0.012489 0.853399
O O8 0.005173 0.968456 0.706948
O O9 0.825360 0.250000 0.116646
O O10 0.774107 0.003220 0.218712
O O11 0.776588 0.011341 0.007449
O O12 0.737245 0.250000 0.551947
O O13 0.865127 0.068141 0.609040
O O14 0.781859 0.021433 0.430981
O O15 0.702498 0.963379 0.614166
O O16 0.785295 0.250000 0.884819
O O17 0.709293 0.006305 0.811818
O O18 0.996856 0.750000 0.379440
O O19 0.000000 0.000000 0.500000
O O20 0.729413 0.250000 0.317896
O O21 0.643899 0.750000 0.743648
#
# Coordination Sequence:
#
# PCOD9159577 Si02
#       8
#     4   4   4   4   4   4   4   4
#     4  10  20  34  58  87 115 146 183 228 282 343
#     4  11  21  36  58  84 113 145 187 243 291 335
#     4   9  20  37  58  83 111 147 193 238 283 338
#     4  10  19  33  56  80 109 147 186 225 274 338
#     4  11  22  38  59  82 110 151 199 237 277 340
#     4  11  22  34  51  80 116 154 193 230 278 340
#     4   9  17  34  58  83 111 147 185 228 281 338
#     4  11  22  35  54  84 116 145 182 232 285 331
#
# _framework density 19.544792000000001
#
# number of rings (size 3 to 8) (size 9 to 14) (size 15 to 20)
#    0.000    1.750    2.500    2.625    0.000    3.000 
#    0.000    2.500    0.000    3.750    0.000    0.000 
#    0.000    0.000    0.000    0.000    0.000    0.000 
#
# Total GULP energy -178619.030802 kJ/mol
# GULP energy per Si atom -5581.844713 kJ/mol
# Density = 1.950031 g / cm^3
# Si number density = 19.544792 Si / 1000 Ang^3
#
#
#
# Elastic Constant Matrix: (Units=GPa)
#
#
# Indices 1 2 3 4 5 6 
#
# 1 85.4156 15.1558 43.6333 0.0000 19.8889 0.0000
# 2 15.1558 20.6671 8.5784 0.0000 9.6452 0.0000
# 3 43.6333 8.5784 129.0851 0.0000 20.7438 0.0000
# 4 0.0000 0.0000 0.0000 12.2101 0.0000 -5.5829
# 5 19.8889 9.6452 20.7438 0.0000 30.2215 0.0000
# 6 0.0000 0.0000 0.0000 -5.5829 0.0000 12.6559
#
#
#
# Elastic Compliance Matrix: (Units=1/GPa)
#
#
# Indices 1 2 3 4 5 6 
#
# 1 0.016508 -0.007802 -0.004176 0.000000 -0.005507 0.000000
# 2 -0.007802 0.060650 0.001003 0.000000 -0.014910 0.000000
# 3 -0.004176 0.001003 0.009780 0.000000 -0.004285 0.000000
# 4 0.000000 0.000000 0.000000 0.102593 0.000000 0.045257
# 5 -0.005507 -0.014910 -0.004285 0.000000 0.044413 0.000000
# 6 0.000000 0.000000 0.000000 0.045257 0.000000 0.098979
#
#
# Mechanical properties :
#
#
# Convention : Reuss Voigt Hill
#
# Bulk Modulus (GPa) = 15.38776 41.10031 28.24404
# Shear Modulus (GPa) = 13.27897 22.20417 17.74157
#
# Velocity S-wave (km/s) = 2.60938 3.37421 3.01614
# Velocity P-wave (km/s) = 4.11930 6.02120 5.15866
#
# Compressibility (1/GPa) = 0.06498670
#
# Stress axis : x y z
#
# Youngs Moduli (GPa) = 60.57818 16.48813 102.24474
#
# Poissons Ratio (x) = 0.12864 0.42702
# Poissons Ratio (y) = 0.47262 -0.10253
# Poissons Ratio (z) = 0.25300 -0.01653
#
# Static dielectric constant tensor:
#      x y z
#    x 1.705840 0.000000 0.013900 
#    y 0.000000 1.677910 0.000000 
#    z 0.013900 0.000000 1.704320 
# 
# From -- ./inp_files/38103.got.cif
#   From: 2010.05.17/outbox.cif.g08.bks.cpg/sg11_20_cif.got.tgz:38103.got - 2010.06.03 12:22:45.
