data_PCOD9159024
_publ_section_title
;
Structure prediction by ZEFSAII (Michael W. Deem and Ramdas Pophale) SiO2 
 PCOD9159024
Probable space group: P 21/M
;
_chemical_formula_sum "Si O2"
_cell_formula_units_Z 32
_cell_length_a 12.562985
_cell_length_b 8.717562
_cell_length_c 21.165540
_cell_angle_alpha 90.000000
_cell_angle_beta 52.166551
_cell_angle_gamma 90.000000
_cell_volume 1830.765649
_symmetry_space_group_name_H-M "P 21/M"
_symmetry_group_IT_number 11
_symmetry_cell_setting 'monoclinic'
loop_
_space_group_symop_operation_xyz
x,y,z
-x,1/2+y,-z
-x,-y,-z
x,1/2-y,z
loop_
_atom_site_type_symbol
_atom_site_label
_atom_site_fract_x
_atom_site_fract_y
_atom_site_fract_z
Si Si1 0.647632 0.066143 0.119877
Si Si2 0.652331 0.566958 0.259026
Si Si3 0.631610 0.934547 0.625921
Si Si4 0.941087 0.564867 0.203604
Si Si5 0.931692 0.065080 0.710427
Si Si6 0.915535 0.932631 0.971922
Si Si7 0.343049 0.066059 0.235518
Si Si8 0.916174 0.935500 0.471620
O O1 0.660047 0.250000 0.112708
O O2 0.493797 0.023740 0.158655
O O3 0.667817 0.012636 0.184987
O O4 0.762550 0.989315 0.036317
O O5 0.649282 0.750000 0.250701
O O6 0.510286 0.511407 0.338610
O O7 0.782987 0.528132 0.252902
O O8 0.615378 0.750000 0.629658
O O9 0.664518 0.975245 0.687144
O O10 0.759835 0.979443 0.537418
O O11 0.953543 0.750000 0.194987
O O12 0.002074 0.513617 0.248113
O O13 0.020205 0.492936 0.116099
O O14 0.933148 0.250000 0.709615
O O15 0.017267 0.012980 0.618189
O O16 0.779171 0.009482 0.756933
O O17 0.921813 0.750000 0.972392
O O18 0.000000 0.000000 0.000000
O O19 0.330748 0.250000 0.236049
O O20 0.921818 0.750000 0.472253
O O21 0.000000 0.000000 0.500000
#
# Coordination Sequence:
#
# PCOD9159024 Si02
#       8
#     4   4   4   4   4   4   4   4
#     4  10  20  35  56  82 113 142 176 227 279 322
#     4  10  19  32  53  78 107 143 184 226 271 325
#     4   9  18  32  51  77 111 142 176 228 281 323
#     4  10  22  39  55  78 113 148 182 227 278 325
#     4  10  21  36  56  80 110 148 186 226 276 332
#     4  12  23  36  58  86 111 141 184 228 271 323
#     4   9  18  33  53  79 111 144 176 221 277 327
#     4  10  19  33  54  81 109 143 184 229 278 326
#
# _framework density 17.479026999999999
#
# number of rings (size 3 to 8) (size 9 to 14) (size 15 to 20)
#    0.000    2.000    2.500    2.625    0.000    4.000 
#    0.000    1.250    0.000    0.000    0.000    0.000 
#    0.000    0.000    0.000    0.000    0.000    0.000 
#
# Total GULP energy -178600.077949 kJ/mol
# GULP energy per Si atom -5581.252436 kJ/mol
# Density = 1.743924 g / cm^3
# Si number density = 17.479027 Si / 1000 Ang^3
#
#
#
# Elastic Constant Matrix: (Units=GPa)
#
#
# Indices 1 2 3 4 5 6 
#
# 1 159.1844 44.9773 94.8332 0.0000 -13.3138 0.0000
# 2 44.9773 35.1431 37.8199 0.0000 -5.0609 0.0000
# 3 94.8332 37.8199 128.9617 0.0000 -14.0157 0.0000
# 4 0.0000 0.0000 0.0000 24.1897 0.0000 -6.3605
# 5 -13.3138 -5.0609 -14.0157 0.0000 30.1123 0.0000
# 6 0.0000 0.0000 0.0000 -6.3605 0.0000 25.8978
#
#
#
# Elastic Compliance Matrix: (Units=1/GPa)
#
#
# Indices 1 2 3 4 5 6 
#
# 1 0.012986 -0.009226 -0.006728 0.000000 0.001059 0.000000
# 2 -0.009226 0.048187 -0.007278 0.000000 0.000632 0.000000
# 3 -0.006728 -0.007278 0.015146 0.000000 0.002852 0.000000
# 4 0.000000 0.000000 0.000000 0.044194 0.000000 0.010854
# 5 0.001059 0.000632 0.002852 0.000000 0.035111 0.000000
# 6 0.000000 0.000000 0.000000 0.010854 0.000000 0.041279
#
#
# Mechanical properties :
#
#
# Convention : Reuss Voigt Hill
#
# Bulk Modulus (GPa) = 33.49718 75.39443 54.44580
# Shear Modulus (GPa) = 19.73788 25.75055 22.74422
#
# Velocity S-wave (km/s) = 3.36405 3.84243 3.61117
# Velocity P-wave (km/s) = 5.85619 7.93180 6.97167
#
# Compressibility (1/GPa) = 0.02985326
#
# Stress axis : x y z
#
# Youngs Moduli (GPa) = 77.00630 20.75257 66.02219
#
# Poissons Ratio (x) = 0.19147 0.44423
# Poissons Ratio (y) = 0.71049 0.48052
# Poissons Ratio (z) = 0.51813 0.15104
#
# Static dielectric constant tensor:
#      x y z
#    x 1.581010 0.000000 -0.019010 
#    y 0.000000 1.592590 0.000000 
#    z -0.019010 0.000000 1.590870 
# 
# From -- ./inp_files/64400.got.cif
#   From: 2010.05.17/outbox.cif.g08.bks.cpg/sg11_33_cif.got.tgz:64400.got - 2010.06.03 12:22:45.
