data_PCOD9159725
_publ_section_title
;
Structure prediction by ZEFSAII (Michael W. Deem and Ramdas Pophale) SiO2 
 PCOD9159725
Probable space group: P 21/M
;
_chemical_formula_sum "Si O2"
_cell_formula_units_Z 28
_cell_length_a 9.112456
_cell_length_b 14.416711
_cell_length_c 20.485089
_cell_angle_alpha 90.000000
_cell_angle_beta 30.280848
_cell_angle_gamma 90.000000
_cell_volume 1356.987722
_symmetry_space_group_name_H-M "P 21/M"
_symmetry_group_IT_number 11
_symmetry_cell_setting 'monoclinic'
loop_
_space_group_symop_operation_xyz
x,y,z
-x,1/2+y,-z
-x,-y,-z
x,1/2-y,z
loop_
_atom_site_type_symbol
_atom_site_label
_atom_site_fract_x
_atom_site_fract_y
_atom_site_fract_z
Si Si1 0.848221 0.145415 0.135509
Si Si2 0.989913 0.152783 0.226238
Si Si3 0.809176 0.358214 0.826867
Si Si4 0.647595 0.004538 0.643251
Si Si5 0.405993 0.455725 0.874190
Si Si6 0.347901 0.034978 0.623304
Si Si7 0.621209 0.144793 0.042553
O O1 0.776802 0.250000 0.141156
O O2 0.027126 0.155000 0.134525
O O3 0.551223 0.089333 0.268655
O O4 0.092710 0.093743 0.998619
O O5 0.827228 0.250000 0.305331
O O6 0.284597 0.153806 0.153005
O O7 0.853911 0.053746 0.287920
O O8 0.734095 0.250000 0.852199
O O9 0.617851 0.414067 0.848400
O O10 0.148094 0.377325 0.684358
O O11 0.764611 0.388553 0.919466
O O12 0.554837 0.056550 0.745935
O O13 0.533213 0.046279 0.618409
O O14 0.000000 0.000000 0.500000
O O15 0.364964 0.564363 0.909176
O O16 0.500000 0.000000 0.500000
O O17 0.728973 0.250000 0.015538
#
# Coordination Sequence:
#
# PCOD9159725 Si02
#       7
#     4   4   4   4   4   4   4
#     4  10  21  40  67  96 127 169 219 265 320 392
#     4   9  17  33  60  93 120 154 206 258 307 369
#     4  11  22  38  65  99 128 161 211 266 325 385
#     4  11  26  44  62  92 133 178 223 266 331 393
#     4  12  21  39  68  99 133 172 207 272 332 391
#     4  11  23  42  64  87 122 173 216 265 315 383
#     4  10  19  33  62  99 128 157 202 258 315 377
#
# _framework density 20.633938000000001
#
# number of rings (size 3 to 8) (size 9 to 14) (size 15 to 20)
#    0.000    1.429    2.857    3.857    0.000    1.143 
#    0.000    7.857    0.000    0.857    0.000    0.000 
#    0.000    0.000    0.000    0.000    0.000    0.000 
#
# Total GULP energy -155968.751904 kJ/mol
# GULP energy per Si atom -5570.312568 kJ/mol
# Density = 2.058697 g / cm^3
# Si number density = 20.633938 Si / 1000 Ang^3
#
#
#
# Elastic Constant Matrix: (Units=GPa)
#
#
# Indices 1 2 3 4 5 6 
#
# 1 123.0440 17.9376 59.2670 0.0000 1.3137 0.0000
# 2 17.9376 65.9792 39.6611 0.0000 -4.6823 0.0000
# 3 59.2670 39.6611 117.3433 0.0000 3.6145 0.0000
# 4 0.0000 0.0000 0.0000 14.8042 0.0000 -7.9802
# 5 1.3137 -4.6823 3.6145 0.0000 42.7412 0.0000
# 6 0.0000 0.0000 0.0000 -7.9802 0.0000 -14.7164
#
#
#
# Elastic Compliance Matrix: (Units=1/GPa)
#
#
# Indices 1 2 3 4 5 6 
#
# 1 0.010751 0.000450 -0.005588 0.000000 0.000191 0.000000
# 2 0.000450 0.019340 -0.006847 0.000000 0.002684 0.000000
# 3 -0.005588 -0.006847 0.013712 0.000000 -0.001738 0.000000
# 4 0.000000 0.000000 0.000000 0.052270 0.000000 -0.028344
# 5 0.000191 0.002684 -0.001738 0.000000 0.023832 0.000000
# 6 0.000000 0.000000 0.000000 -0.028344 0.000000 -0.052581
#
#
# Mechanical properties :
#
#
# Convention : Reuss Voigt Hill
#
# Bulk Modulus (GPa) = 50.41986 60.01087 55.21536
# Shear Modulus (GPa) = 51.07033 21.19919 36.13476
#
# Velocity S-wave (km/s) = 4.98040 3.20878 4.18931
# Velocity P-wave (km/s) = 7.58689 6.54790 7.08647
#
# Compressibility (1/GPa) = 0.01983346
#
# Stress axis : x y z
#
# Youngs Moduli (GPa) = 93.01312 51.70598 72.92872
#
# Poissons Ratio (x) = -0.02326 0.40753
# Poissons Ratio (y) = -0.04183 0.49932
# Poissons Ratio (z) = 0.51976 0.35401
#
# Static dielectric constant tensor:
#      x y z
#    x 2.054480 0.000000 0.926730 
#    y 0.000000 1.762460 0.000000 
#    z 0.926730 0.000000 4.774990 
# 
# From -- ./inp_files/26930.got.cif
#   From: 2010.05.17/outbox.cif.g08.bks.cpg/sg11_14_cif.got.tgz:26930.got - 2010.06.03 12:22:45.
