data_PCOD9159062
_publ_section_title
;
Structure prediction by ZEFSAII (Michael W. Deem and Ramdas Pophale) SiO2 
 PCOD9159062
Probable space group: P 21/M
;
_chemical_formula_sum "Si O2"
_cell_formula_units_Z 32
_cell_length_a 11.579092
_cell_length_b 7.555362
_cell_length_c 21.577954
_cell_angle_alpha 90.000000
_cell_angle_beta 50.479036
_cell_angle_gamma 90.000000
_cell_volume 1456.179997
_symmetry_space_group_name_H-M "P 21/M"
_symmetry_group_IT_number 11
_symmetry_cell_setting 'monoclinic'
loop_
_space_group_symop_operation_xyz
x,y,z
-x,1/2+y,-z
-x,-y,-z
x,1/2-y,z
loop_
_atom_site_type_symbol
_atom_site_label
_atom_site_fract_x
_atom_site_fract_y
_atom_site_fract_z
Si Si1 0.547689 0.037041 0.261179
Si Si2 0.812534 0.547188 0.996270
Si Si3 0.701571 0.451894 0.749083
Si Si4 0.873880 0.034459 0.116390
Si Si5 0.521679 0.466284 0.407728
Si Si6 0.996001 0.548016 0.574689
Si Si7 0.490549 0.963144 0.075993
Si Si8 0.761038 0.049081 0.414359
O O1 0.538536 0.250000 0.256684
O O2 0.722097 0.987804 0.202473
O O3 0.488093 0.988123 0.348610
O O4 0.449982 0.956108 0.239985
O O5 0.797843 0.750000 0.979634
O O6 0.964508 0.473071 0.914054
O O7 0.849094 0.541474 0.056370
O O8 0.650342 0.463667 0.044662
O O9 0.751030 0.250000 0.741550
O O10 0.832316 0.535797 0.662433
O O11 0.647420 0.529111 0.834128
O O12 0.880969 0.250000 0.109717
O O13 0.517285 0.250000 0.414289
O O14 0.388360 0.547676 0.492826
O O15 0.685414 0.524971 0.377081
O O16 0.045230 0.750000 0.556224
O O17 0.000000 0.500000 0.500000
O O18 0.111858 0.462953 0.585260
O O19 0.485675 0.750000 0.086533
O O20 0.500000 0.000000 0.000000
O O21 0.809711 0.250000 0.382143
#
# Coordination Sequence:
#
# PCOD9159062 Si02
#       8
#     4   4   4   4   4   4   4   4
#     4  10  19  32  53  82 109 137 178 227 281 339
#     4   9  17  33  52  76 105 137 175 220 278 332
#     4  11  23  39  58  82 115 151 191 241 287 338
#     4   9  17  29  51  79 105 133 169 219 274 331
#     4   9  18  33  54  79 107 139 174 218 272 331
#     4  11  23  39  60  88 118 154 195 236 283 334
#     4  10  22  39  58  80 110 152 196 239 288 339
#     4   9  19  36  54  76 107 142 181 221 268 327
#
# _framework density 21.975307999999998
#
# number of rings (size 3 to 8) (size 9 to 14) (size 15 to 20)
#    0.000    2.250    1.250    1.500    0.000    5.000 
#    2.250    0.000    0.000    0.000    0.000    0.000 
#    0.000    0.000    0.000    0.000    0.000    0.000 
#
# Total GULP energy -178152.450698 kJ/mol
# GULP energy per Si atom -5567.264084 kJ/mol
# Density = 2.192529 g / cm^3
# Si number density = 21.975308 Si / 1000 Ang^3
#
#
#
# Elastic Constant Matrix: (Units=GPa)
#
#
# Indices 1 2 3 4 5 6 
#
# 1 77.6826 -0.5423 30.6507 0.0000 -3.5582 0.0000
# 2 -0.5423 51.6771 -7.7516 0.0000 0.5708 0.0000
# 3 30.6507 -7.7516 87.3863 0.0000 1.4884 0.0000
# 4 0.0000 0.0000 0.0000 14.5151 0.0000 2.2366
# 5 -3.5582 0.5708 1.4884 0.0000 35.8105 0.0000
# 6 0.0000 0.0000 0.0000 2.2366 0.0000 13.5509
#
#
#
# Elastic Compliance Matrix: (Units=1/GPa)
#
#
# Indices 1 2 3 4 5 6 
#
# 1 0.015068 -0.000667 -0.005374 0.000000 0.001731 0.000000
# 2 -0.000667 0.019647 0.001985 0.000000 -0.000462 0.000000
# 3 -0.005374 0.001985 0.013523 0.000000 -0.001128 0.000000
# 4 0.000000 0.000000 0.000000 0.070692 0.000000 -0.011668
# 5 0.001731 -0.000462 -0.001128 0.000000 0.028151 0.000000
# 6 0.000000 0.000000 0.000000 -0.011668 0.000000 0.075722
#
#
# Mechanical properties :
#
#
# Convention : Reuss Voigt Hill
#
# Bulk Modulus (GPa) = 24.92168 29.05109 26.98638
# Shear Modulus (GPa) = 20.46750 25.73458 23.10104
#
# Velocity S-wave (km/s) = 3.05517 3.42580 3.24578
# Velocity P-wave (km/s) = 4.87963 5.37557 5.13359
#
# Compressibility (1/GPa) = 0.04012571
#
# Stress axis : x y z
#
# Youngs Moduli (GPa) = 66.36678 50.89912 73.94538
#
# Poissons Ratio (x) = 0.03395 0.39736
# Poissons Ratio (y) = 0.04427 -0.14675
# Poissons Ratio (z) = 0.35663 -0.10101
#
# Static dielectric constant tensor:
#      x y z
#    x 1.857470 0.000000 -0.015660 
#    y 0.000000 1.927400 0.000000 
#    z -0.015660 0.000000 1.846480 
# 
# From -- ./inp_files/68315.got.cif
#   From: 2010.05.17/outbox.cif.g08.bks.cpg/sg11_35_cif.got.tgz:68315.got - 2010.06.03 12:22:45.
