data_PCOD9159635
_publ_section_title
;
Structure prediction by ZEFSAII (Michael W. Deem and Ramdas Pophale) SiO2 
 PCOD9159635
Probable space group: P 21/M
;
_chemical_formula_sum "Si O2"
_cell_formula_units_Z 32
_cell_length_a 11.983854
_cell_length_b 18.320024
_cell_length_c 10.416989
_cell_angle_alpha 90.000000
_cell_angle_beta 37.889120
_cell_angle_gamma 90.000000
_cell_volume 1404.522977
_symmetry_space_group_name_H-M "P 21/M"
_symmetry_group_IT_number 11
_symmetry_cell_setting 'monoclinic'
loop_
_space_group_symop_operation_xyz
x,y,z
-x,1/2+y,-z
-x,-y,-z
x,1/2-y,z
loop_
_atom_site_type_symbol
_atom_site_label
_atom_site_fract_x
_atom_site_fract_y
_atom_site_fract_z
Si Si1 0.847180 0.448161 0.482415
Si Si2 0.564512 0.337009 0.655905
Si Si3 0.744323 0.959386 0.831011
Si Si4 0.201756 0.662718 0.790782
Si Si5 0.535844 0.098357 0.091611
Si Si6 0.879605 0.334933 0.850931
Si Si7 0.800001 0.661758 0.119359
Si Si8 0.762073 0.589601 0.432591
O O1 0.713780 0.379508 0.601341
O O2 0.797440 0.493636 0.655341
O O3 0.790421 0.502824 0.418077
O O4 0.062866 0.434729 0.288919
O O5 0.578274 0.250000 0.663268
O O6 0.352620 0.358737 0.846142
O O7 0.630179 0.355659 0.450402
O O8 0.603316 0.901186 0.901100
O O9 0.628660 0.017995 0.017607
O O10 0.210865 0.750000 0.796318
O O11 0.009822 0.646223 0.896169
O O12 0.183281 0.634934 0.952065
O O13 0.415888 0.112219 0.326948
O O14 0.704691 0.152161 0.923470
O O15 0.925431 0.250000 0.818301
O O16 0.061397 0.377988 0.653270
O O17 0.784328 0.750000 0.153300
O O18 0.766192 0.622128 0.286303
#
# Coordination Sequence:
#
# PCOD9159635 Si02
#       8
#     4   4   4   4   4   4   4   4
#     4  10  20  38  60  77 109 148 188 239 284 332
#     4  10  20  36  57  79 107 149 187 221 274 333
#     4   9  20  39  58  76 103 145 190 234 290 326
#     4   8  16  32  52  77 110 145 174 212 269 333
#     4  10  19  35  59  80 103 144 188 224 276 347
#     4  10  19  33  56  86 117 143 177 227 280 333
#     4   9  18  34  54  80 116 148 177 220 275 334
#     4  10  19  33  57  85 113 144 185 221 279 340
#
# _framework density 22.783536000000002
#
# number of rings (size 3 to 8) (size 9 to 14) (size 15 to 20)
#    0.000    2.500    1.250    1.875    0.000    2.500 
#    6.750    3.750    0.000    0.000    0.000    0.000 
#    0.000    0.000    0.000    0.000    0.000    0.000 
#
# Total GULP energy -178653.628213 kJ/mol
# GULP energy per Si atom -5582.925882 kJ/mol
# Density = 2.273168 g / cm^3
# Si number density = 22.783536 Si / 1000 Ang^3
#
#
#
# Elastic Constant Matrix: (Units=GPa)
#
#
# Indices 1 2 3 4 5 6 
#
# 1 85.6488 22.5033 25.0378 0.0000 -29.5582 0.0000
# 2 22.5033 52.6037 3.4336 0.0000 -15.1585 0.0000
# 3 25.0378 3.4336 88.3221 0.0000 -33.9240 0.0000
# 4 0.0000 0.0000 0.0000 19.3278 0.0000 -6.4682
# 5 -29.5582 -15.1585 -33.9240 0.0000 45.7227 0.0000
# 6 0.0000 0.0000 0.0000 -6.4682 0.0000 31.3973
#
#
#
# Elastic Compliance Matrix: (Units=1/GPa)
#
#
# Indices 1 2 3 4 5 6 
#
# 1 0.015946 -0.004477 -0.001338 0.000000 0.007831 0.000000
# 2 -0.004477 0.022711 0.003030 0.000000 0.006883 0.000000
# 3 -0.001338 0.003030 0.016276 0.000000 0.012215 0.000000
# 4 0.000000 0.000000 0.000000 0.055570 0.000000 0.011448
# 5 0.007831 0.006883 0.012215 0.000000 0.038278 0.000000
# 6 0.000000 0.000000 0.000000 0.011448 0.000000 0.034208
#
#
# Mechanical properties :
#
#
# Convention : Reuss Voigt Hill
#
# Bulk Modulus (GPa) = 20.25894 36.50265 28.38080
# Shear Modulus (GPa) = 24.38851 30.99622 27.69236
#
# Velocity S-wave (km/s) = 3.27531 3.69245 3.49012
# Velocity P-wave (km/s) = 4.81817 5.85109 5.35957
#
# Compressibility (1/GPa) = 0.04936093
#
# Stress axis : x y z
#
# Youngs Moduli (GPa) = 62.71242 44.03120 61.44191
#
# Poissons Ratio (x) = 0.19715 0.08224
# Poissons Ratio (y) = 0.28079 -0.18618
# Poissons Ratio (z) = 0.08394 -0.13342
#
# Static dielectric constant tensor:
#      x y z
#    x 1.919170 0.000000 0.017690 
#    y 0.000000 1.847300 0.000000 
#    z 0.017690 0.000000 1.852280 
# 
# From -- ./inp_files/36336.got.cif
#   From: 2010.05.17/outbox.cif.g08.bks.cpg/sg11_19_cif.got.tgz:36336.got - 2010.06.03 12:22:45.
