data_PCOD9159859
_publ_section_title
;
Structure prediction by ZEFSAII (Michael W. Deem and Ramdas Pophale) SiO2 
 PCOD9159859
Probable space group: P 21/M
;
_chemical_formula_sum "Si O2"
_cell_formula_units_Z 16
_cell_length_a 12.640254
_cell_length_b 11.070048
_cell_length_c 7.920801
_cell_angle_alpha 90.000000
_cell_angle_beta 39.965095
_cell_angle_gamma 90.000000
_cell_volume 711.912142
_symmetry_space_group_name_H-M "P 21/M"
_symmetry_group_IT_number 11
_symmetry_cell_setting 'monoclinic'
loop_
_space_group_symop_operation_xyz
x,y,z
-x,1/2+y,-z
-x,-y,-z
x,1/2-y,z
loop_
_atom_site_type_symbol
_atom_site_label
_atom_site_fract_x
_atom_site_fract_y
_atom_site_fract_z
Si Si1 0.891423 0.497533 0.802118
Si Si2 0.374253 0.250000 0.280115
Si Si3 0.972643 0.750000 0.235131
Si Si4 0.496430 0.995525 0.801676
Si Si5 0.854595 0.750000 0.001724
Si Si6 0.498259 0.750000 0.259418
O O1 0.930853 0.624289 0.843372
O O2 0.000000 0.500000 0.500000
O O3 0.932440 0.374054 0.849788
O O4 0.695638 0.494669 0.009176
O O5 0.186161 0.250000 0.448114
O O6 0.416845 0.368452 0.336814
O O7 0.470170 0.250000 0.983139
O O8 0.886337 0.750000 0.160403
O O9 0.577392 0.116266 0.622306
O O10 0.500000 0.000000 0.000000
O O11 0.667576 0.750000 0.158891
#
# Coordination Sequence:
#
# PCOD9159859 Si02
#       6
#     4   2   2   4   2   2
#     4  11  21  38  63  89 113 151 200 245 288 346
#     4  10  19  34  55  80 111 152 192 234 286 342
#     4  12  23  37  56  85 122 157 189 238 292 350
#     4   9  17  32  56  83 109 141 188 243 286 332
#     4  10  22  38  56  84 120 152 188 242 301 344
#     4   8  16  33  53  75 105 143 189 236 277 332
#
# _framework density 22.474684
#
# number of rings (size 3 to 8) (size 9 to 14) (size 15 to 20)
#    0.000    2.000    0.000    6.750    0.000    0.000 
#    0.000    8.750    0.000   12.000    0.000    0.000 
#    0.000    0.000    0.000    0.000    0.000    0.000 
#
# Total GULP energy -89267.464115 kJ/mol
# GULP energy per Si atom -5579.216507 kJ/mol
# Density = 2.242353 g / cm^3
# Si number density = 22.474684 Si / 1000 Ang^3
#
#
#
# Elastic Constant Matrix: (Units=GPa)
#
#
# Indices 1 2 3 4 5 6 
#
# 1 70.1548 79.0648 16.2574 0.0000 -0.9379 0.0000
# 2 79.0648 272.0815 26.6321 0.0000 -8.3452 0.0000
# 3 16.2574 26.6321 25.4706 0.0000 -7.1422 0.0000
# 4 0.0000 0.0000 0.0000 19.9787 0.0000 -2.8727
# 5 -0.9379 -8.3452 -7.1422 0.0000 24.6876 0.0000
# 6 0.0000 0.0000 0.0000 -2.8727 0.0000 20.8522
#
#
#
# Elastic Compliance Matrix: (Units=1/GPa)
#
#
# Indices 1 2 3 4 5 6 
#
# 1 0.023066 -0.005876 -0.009675 0.000000 -0.003909 0.000000
# 2 -0.005876 0.005592 -0.001773 0.000000 0.001154 0.000000
# 3 -0.009675 -0.001773 0.051170 0.000000 0.013837 0.000000
# 4 0.000000 0.000000 0.000000 0.051065 0.000000 0.007035
# 5 -0.003909 0.001154 0.013837 0.000000 0.044751 0.000000
# 6 0.000000 0.000000 0.000000 0.007035 0.000000 0.048926
#
#
# Mechanical properties :
#
#
# Convention : Reuss Voigt Hill
#
# Bulk Modulus (GPa) = 22.13335 67.95726 45.04530
# Shear Modulus (GPa) = 18.22979 29.48721 23.85850
#
# Velocity S-wave (km/s) = 2.85112 3.62611 3.26171
# Velocity P-wave (km/s) = 4.55060 6.91625 5.85416
#
# Compressibility (1/GPa) = 0.04518070
#
# Stress axis : x y z
#
# Youngs Moduli (GPa) = 43.35410 178.83645 19.54267
#
# Poissons Ratio (x) = 1.05078 0.18908
# Poissons Ratio (y) = 0.25473 0.03464
# Poissons Ratio (z) = 0.41945 0.31703
#
# Static dielectric constant tensor:
#      x y z
#    x 1.790040 0.000000 0.021450 
#    y 0.000000 1.945060 0.000000 
#    z 0.021450 0.000000 1.878580 
# 
# From -- ./inp_files/11321.got.cif
#   From: 2010.05.17/outbox.cif.g08.bks.cpg/sg11_6_cif.got.tgz:11321.got - 2010.06.03 12:22:45.
