data_PCOD9159811
_publ_section_title
;
Structure prediction by ZEFSAII (Michael W. Deem and Ramdas Pophale) SiO2 
 PCOD9159811
Probable space group: P 21/M
;
_chemical_formula_sum "Si O2"
_cell_formula_units_Z 32
_cell_length_a 9.310353
_cell_length_b 11.500565
_cell_length_c 20.282184
_cell_angle_alpha 90.000000
_cell_angle_beta 131.942776
_cell_angle_gamma 90.000000
_cell_volume 1615.338929
_symmetry_space_group_name_H-M "P 21/M"
_symmetry_group_IT_number 11
_symmetry_cell_setting 'monoclinic'
loop_
_space_group_symop_operation_xyz
x,y,z
-x,1/2+y,-z
-x,-y,-z
x,1/2-y,z
loop_
_atom_site_type_symbol
_atom_site_label
_atom_site_fract_x
_atom_site_fract_y
_atom_site_fract_z
Si Si1 0.127894 0.618966 0.693075
Si Si2 0.379535 0.381343 0.978143
Si Si3 0.653967 0.387966 0.367650
Si Si4 0.864272 0.615864 0.962746
Si Si5 0.744602 0.948928 0.507677
Si Si6 0.221264 0.118587 0.212696
Si Si7 0.668181 0.372483 0.600395
Si Si8 0.965472 0.952282 0.213959
O O1 0.161379 0.750000 0.727959
O O2 0.291842 0.585278 0.691088
O O3 0.933856 0.618788 0.588391
O O4 0.104948 0.529632 0.745729
O O5 0.471761 0.250000 0.004370
O O6 0.208584 0.382968 0.871553
O O7 0.500000 0.500000 0.000000
O O8 0.279423 0.393972 0.019324
O O9 0.687032 0.250000 0.387159
O O10 0.772539 0.466408 0.454427
O O11 0.426380 0.410992 0.308436
O O12 0.951653 0.750000 0.994727
O O13 0.758460 0.615443 0.859670
O O14 0.000000 0.500000 0.000000
O O15 0.699575 0.026859 0.557764
O O16 0.545310 0.880692 0.434609
O O17 0.174695 0.250000 0.218515
O O18 0.051097 0.037326 0.184651
O O19 0.679220 0.250000 0.567043
O O20 0.846711 0.381318 0.704989
#
# Coordination Sequence:
#
# PCOD9159811 Si02
#       8
#     4   4   4   4   4   4   4   4
#     4  10  22  35  55  86 121 159 200 250 297 360
#     4  11  26  44  67  94 128 166 207 255 314 384
#     4  10  20  35  55  81 115 154 200 248 300 357
#     4  10  21  40  65  94 124 159 202 255 311 372
#     4  10  19  34  54  80 112 156 194 242 297 348
#     4  10  20  35  59  87 116 151 197 249 302 364
#     4  10  20  33  54  81 111 145 191 242 291 344
#     4  11  21  39  61  85 118 153 197 244 304 358
#
# _framework density 19.810084
#
# number of rings (size 3 to 8) (size 9 to 14) (size 15 to 20)
#    0.000    1.750    2.500    1.875    1.750    1.500 
#    0.000    0.000    0.000    2.250    0.000    0.000 
#    0.000    0.000    0.000    0.000    0.000    0.000 
#
# Total GULP energy -178318.230272 kJ/mol
# GULP energy per Si atom -5572.444696 kJ/mol
# Density = 1.976500 g / cm^3
# Si number density = 19.810084 Si / 1000 Ang^3
#
#
#
# Elastic Constant Matrix: (Units=GPa)
#
#
# Indices 1 2 3 4 5 6 
#
# 1 64.3686 34.6866 6.5131 0.0000 -7.4275 0.0000
# 2 34.6866 108.3130 19.7785 0.0000 3.0194 0.0000
# 3 6.5131 19.7785 56.7160 0.0000 -5.0173 0.0000
# 4 0.0000 0.0000 0.0000 25.4094 0.0000 -5.5279
# 5 -7.4275 3.0194 -5.0173 0.0000 29.4282 0.0000
# 6 0.0000 0.0000 0.0000 -5.5279 0.0000 26.0608
#
#
#
# Elastic Compliance Matrix: (Units=1/GPa)
#
#
# Indices 1 2 3 4 5 6 
#
# 1 0.019677 -0.006559 0.000535 0.000000 0.005730 0.000000
# 2 -0.006559 0.012124 -0.003788 0.000000 -0.003545 0.000000
# 3 0.000535 -0.003788 0.019228 0.000000 0.003802 0.000000
# 4 0.000000 0.000000 0.000000 0.041259 0.000000 0.008752
# 5 0.005730 -0.003545 0.003802 0.000000 0.036439 0.000000
# 6 0.000000 0.000000 0.000000 0.008752 0.000000 0.040228
#
#
# Mechanical properties :
#
#
# Convention : Reuss Voigt Hill
#
# Bulk Modulus (GPa) = 31.84387 39.03934 35.44160
# Shear Modulus (GPa) = 25.11958 27.40766 26.26362
#
# Velocity S-wave (km/s) = 3.56479 3.72361 3.64506
# Velocity P-wave (km/s) = 5.74918 6.18357 5.97033
#
# Compressibility (1/GPa) = 0.03140322
#
# Stress axis : x y z
#
# Youngs Moduli (GPa) = 50.82058 82.48431 52.00830
#
# Poissons Ratio (x) = 0.54100 -0.02780
# Poissons Ratio (y) = 0.33332 0.19702
# Poissons Ratio (z) = -0.02717 0.31247
#
# Static dielectric constant tensor:
#      x y z
#    x 1.690200 0.000000 0.020560 
#    y 0.000000 1.727110 0.000000 
#    z 0.020560 0.000000 1.710690 
# 
# From -- ./inp_files/26586.got.cif
#   From: 2010.05.17/outbox.cif.g08.bks.cpg/sg11_14_cif.got.tgz:26586.got - 2010.06.03 12:22:45.
