data_PCOD9159623
_publ_section_title
;
Structure prediction by ZEFSAII (Michael W. Deem and Ramdas Pophale) SiO2 
 PCOD9159623
Probable space group: P 21/M
;
_chemical_formula_sum "Si O2"
_cell_formula_units_Z 30
_cell_length_a 12.351722
_cell_length_b 7.444916
_cell_length_c 29.226623
_cell_angle_alpha 90.000000
_cell_angle_beta 31.410527
_cell_angle_gamma 90.000000
_cell_volume 1400.691185
_symmetry_space_group_name_H-M "P 21/M"
_symmetry_group_IT_number 11
_symmetry_cell_setting 'monoclinic'
loop_
_space_group_symop_operation_xyz
x,y,z
-x,1/2+y,-z
-x,-y,-z
x,1/2-y,z
loop_
_atom_site_type_symbol
_atom_site_label
_atom_site_fract_x
_atom_site_fract_y
_atom_site_fract_z
Si Si1 0.543295 0.034268 0.673290
Si Si2 0.738362 0.469063 0.506870
Si Si3 0.644233 0.034933 0.992133
Si Si4 0.337820 0.032096 0.179724
Si Si5 0.118498 0.459625 0.691760
Si Si6 0.500000 0.000000 0.500000
Si Si7 0.102621 0.469633 0.802176
Si Si8 0.207859 0.037454 0.324290
O O1 0.538763 0.250000 0.672335
O O2 0.659032 0.972122 0.585429
O O3 0.303672 0.973244 0.758203
O O4 0.665460 0.987826 0.674978
O O5 0.734600 0.250000 0.507977
O O6 0.582962 0.525995 0.522880
O O7 0.973194 0.533652 0.413534
O O8 0.660473 0.250000 0.990366
O O9 0.525772 0.967747 0.080018
O O10 0.877745 0.966793 0.900053
O O11 0.500000 0.000000 0.000000
O O12 0.343594 0.250000 0.176748
O O13 0.326143 0.969743 0.236430
O O14 0.121211 0.973872 0.235064
O O15 0.190622 0.250000 0.663220
O O16 0.262852 0.549043 0.602066
O O17 0.137862 0.522548 0.736705
O O18 0.096417 0.250000 0.803942
O O19 0.183936 0.250000 0.326016
#
# Coordination Sequence:
#
# PCOD9159623 Si02
#       8
#     4   4   4   4   4   2   4   4
#     4  10  20  37  58  77 101 143 193 232 267 319
#     4  10  20  35  54  76 109 146 179 220 275 329
#     4  10  19  33  56  85 113 145 180 222 279 340
#     4  10  21  36  56  81 113 149 182 223 281 337
#     4  11  21  34  56  83 113 149 184 224 272 327
#     4  12  20  32  54  86 116 142 174 214 278 334
#     4   9  18  34  56  81 111 143 179 226 279 326
#     4  10  21  38  54  73 107 147 184 229 277 322
#
# _framework density 21.417998000000001
#
# number of rings (size 3 to 8) (size 9 to 14) (size 15 to 20)
#    0.000    1.867    4.000    0.800    0.000    1.067 
#    0.000    3.333    0.000    0.000    0.000    0.000 
#    0.000    0.000    0.000    0.000    0.000    0.000 
#
# Total GULP energy -167151.101087 kJ/mol
# GULP energy per Si atom -5571.703370 kJ/mol
# Density = 2.136925 g / cm^3
# Si number density = 21.417998 Si / 1000 Ang^3
#
#
#
# Elastic Constant Matrix: (Units=GPa)
#
#
# Indices 1 2 3 4 5 6 
#
# 1 155.5540 -12.3483 59.0540 0.0000 5.7386 0.0000
# 2 -12.3483 65.6582 3.9763 0.0000 2.4365 0.0000
# 3 59.0540 3.9763 177.9079 0.0000 8.9092 0.0000
# 4 0.0000 0.0000 0.0000 21.9409 0.0000 12.1941
# 5 5.7386 2.4365 8.9092 0.0000 25.7218 0.0000
# 6 0.0000 0.0000 0.0000 12.1941 0.0000 11.4560
#
#
#
# Elastic Compliance Matrix: (Units=1/GPa)
#
#
# Indices 1 2 3 4 5 6 
#
# 1 0.007537 0.001604 -0.002489 0.000000 -0.000971 0.000000
# 2 0.001604 0.015639 -0.000804 0.000000 -0.001561 0.000000
# 3 -0.002489 -0.000804 0.006547 0.000000 -0.001636 0.000000
# 4 0.000000 0.000000 0.000000 0.111594 0.000000 -0.118784
# 5 -0.000971 -0.001561 -0.001636 0.000000 0.039809 0.000000
# 6 0.000000 0.000000 0.000000 -0.118784 0.000000 0.213728
#
#
# Mechanical properties :
#
#
# Convention : Reuss Voigt Hill
#
# Bulk Modulus (GPa) = 37.95758 55.60933 46.78345
# Shear Modulus (GPa) = 12.28465 35.05294 23.66880
#
# Velocity S-wave (km/s) = 2.39752 4.04989 3.32789
# Velocity P-wave (km/s) = 5.04231 6.92019 6.05450
#
# Compressibility (1/GPa) = 0.02634520
#
# Stress axis : x y z
#
# Youngs Moduli (GPa) = 132.68413 63.94397 152.74287
#
# Poissons Ratio (x) = -0.10258 0.38016
# Poissons Ratio (y) = -0.21285 0.12278
# Poissons Ratio (z) = 0.33024 0.05140
#
# Static dielectric constant tensor:
#      x y z
#    x 1.729240 0.000000 0.021180 
#    y 0.000000 1.878660 0.000000 
#    z 0.021180 0.000000 1.780810 
# 
# From -- ./inp_files/72981.got.cif
#   From: 2010.05.17/outbox.cif.g08.bks.cpg/sg11_37_cif.got.tgz:72981.got - 2010.06.03 12:22:45.
