data_PCOD9159067
_publ_section_title
;
Structure prediction by ZEFSAII (Michael W. Deem and Ramdas Pophale) SiO2 
 PCOD9159067
Probable space group: P 21/M
;
_chemical_formula_sum "Si O2"
_cell_formula_units_Z 32
_cell_length_a 29.005306
_cell_length_b 8.546615
_cell_length_c 22.532597
_cell_angle_alpha 90.000000
_cell_angle_beta 161.185729
_cell_angle_gamma 90.000000
_cell_volume 1801.418190
_symmetry_space_group_name_H-M "P 21/M"
_symmetry_group_IT_number 11
_symmetry_cell_setting 'monoclinic'
loop_
_space_group_symop_operation_xyz
x,y,z
-x,1/2+y,-z
-x,-y,-z
x,1/2-y,z
loop_
_atom_site_type_symbol
_atom_site_label
_atom_site_fract_x
_atom_site_fract_y
_atom_site_fract_z
Si Si1 0.339762 0.937109 0.805561
Si Si2 0.092302 0.939603 0.418887
Si Si3 0.808915 0.062520 0.137571
Si Si4 0.052260 0.438513 0.876200
Si Si5 0.664886 0.061400 0.842235
Si Si6 0.088917 0.439298 0.052930
Si Si7 0.161572 0.064322 0.699382
Si Si8 0.417985 0.438828 0.457808
O O1 0.344489 0.750000 0.811436
O O2 0.242816 0.986872 0.630916
O O3 0.255363 0.993498 0.760932
O O4 0.500000 0.000000 0.000000
O O5 0.082212 0.750000 0.409488
O O6 0.059445 0.988474 0.311034
O O7 0.964216 0.008732 0.302754
O O8 0.808945 0.250000 0.144224
O O9 0.779241 0.984088 0.164194
O O10 0.699016 0.016443 0.951452
O O11 0.052717 0.250000 0.877361
O O12 0.207498 0.493562 0.042536
O O13 0.030286 0.491849 0.916970
O O14 0.674511 0.250000 0.851005
O O15 0.513175 0.013068 0.630415
O O16 0.086905 0.250000 0.051330
O O17 0.254210 0.491593 0.259133
O O18 0.000000 0.500000 0.000000
O O19 0.157606 0.250000 0.688500
O O20 0.000000 0.000000 0.500000
O O21 0.500000 0.500000 0.500000
O O22 0.416716 0.250000 0.453798
#
# Coordination Sequence:
#
# PCOD9159067 Si02
#       8
#     4   4   4   4   4   4   4   4
#     4  11  23  39  58  83 114 150 187 230 281 335
#     4   9  18  33  55  79 107 141 181 226 274 325
#     4  10  19  32  53  82 113 144 181 226 277 329
#     4   9  17  32  53  78 105 137 178 225 269 320
#     4   9  18  31  51  80 111 140 175 225 276 324
#     4  10  21  35  52  76 108 144 181 222 269 322
#     4  12  23  37  58  84 113 146 185 231 279 331
#     4  10  19  33  53  79 108 138 177 223 272 322
#
# _framework density 17.763783
#
# number of rings (size 3 to 8) (size 9 to 14) (size 15 to 20)
#    0.000    2.000    2.500    1.875    0.000    2.000 
#    0.000    1.250    0.000    3.000    0.000    0.000 
#    0.000    0.000    0.000    0.000    0.000    0.000 
#
# Total GULP energy -178547.630625 kJ/mol
# GULP energy per Si atom -5579.613457 kJ/mol
# Density = 1.772335 g / cm^3
# Si number density = 17.763783 Si / 1000 Ang^3
#
#
#
# Elastic Constant Matrix: (Units=GPa)
#
#
# Indices 1 2 3 4 5 6 
#
# 1 142.2028 22.6928 90.0705 0.0000 -15.0551 0.0000
# 2 22.6928 24.4254 31.7997 0.0000 -4.6237 0.0000
# 3 90.0705 31.7997 154.7715 0.0000 -15.3339 0.0000
# 4 0.0000 0.0000 0.0000 20.9090 0.0000 2.9105
# 5 -15.0551 -4.6237 -15.3339 0.0000 31.0854 0.0000
# 6 0.0000 0.0000 0.0000 2.9105 0.0000 30.0447
#
#
#
# Elastic Compliance Matrix: (Units=1/GPa)
#
#
# Indices 1 2 3 4 5 6 
#
# 1 0.011407 -0.002485 -0.005906 0.000000 0.002242 0.000000
# 2 -0.002485 0.056663 -0.009968 0.000000 0.002308 0.000000
# 3 -0.005906 -0.009968 0.012107 0.000000 0.001630 0.000000
# 4 0.000000 0.000000 0.000000 0.048480 0.000000 -0.004696
# 5 0.002242 0.002308 0.001630 0.000000 0.034402 0.000000
# 6 0.000000 0.000000 0.000000 -0.004696 0.000000 0.033739
#
#
# Mechanical properties :
#
#
# Convention : Reuss Voigt Hill
#
# Bulk Modulus (GPa) = 23.00878 67.83619 45.42248
# Shear Modulus (GPa) = 20.16122 28.19692 24.17907
#
# Velocity S-wave (km/s) = 3.37257 3.98845 3.69337
# Velocity P-wave (km/s) = 5.30532 7.71240 6.61920
#
# Compressibility (1/GPa) = 0.04346167
#
# Stress axis : x y z
#
# Youngs Moduli (GPa) = 87.66863 17.64814 82.59455
#
# Poissons Ratio (x) = 0.04385 0.48777
# Poissons Ratio (y) = 0.21782 0.82327
# Poissons Ratio (z) = 0.51773 0.17591
#
# Static dielectric constant tensor:
#      x y z
#    x 1.586780 0.000000 -0.051440 
#    y 0.000000 1.604750 0.000000 
#    z -0.051440 0.000000 1.620730 
# 
# From -- ./inp_files/67179.got.cif
#   From: 2010.05.17/outbox.cif.g08.bks.cpg/sg11_34_cif.got.tgz:67179.got - 2010.06.03 12:22:45.
