data_PCOD9159392
_publ_section_title
;
Structure prediction by ZEFSAII (Michael W. Deem and Ramdas Pophale) SiO2 
 PCOD9159392
Probable space group: P 21/M
;
_chemical_formula_sum "Si O2"
_cell_formula_units_Z 32
_cell_length_a 12.617490
_cell_length_b 8.093036
_cell_length_c 28.231613
_cell_angle_alpha 90.000000
_cell_angle_beta 145.147579
_cell_angle_gamma 90.000000
_cell_volume 1647.439508
_symmetry_space_group_name_H-M "P 21/M"
_symmetry_group_IT_number 11
_symmetry_cell_setting 'monoclinic'
loop_
_space_group_symop_operation_xyz
x,y,z
-x,1/2+y,-z
-x,-y,-z
x,1/2-y,z
loop_
_atom_site_type_symbol
_atom_site_label
_atom_site_fract_x
_atom_site_fract_y
_atom_site_fract_z
Si Si1 0.430387 0.440686 0.237792
Si Si2 0.576179 0.444617 0.192076
Si Si3 0.295691 0.448294 0.283878
Si Si4 0.924385 0.555533 0.270688
Si Si5 0.340962 0.552351 0.405719
Si Si6 0.336936 0.437506 0.016693
Si Si7 0.000287 0.560899 0.946805
Si Si8 0.873698 0.054168 0.147779
O O1 0.499295 0.250000 0.266314
O O2 0.522483 0.514797 0.224059
O O3 0.424972 0.515511 0.288738
O O4 0.210927 0.438305 0.146861
O O5 0.523474 0.250000 0.174426
O O6 0.790537 0.465629 0.258278
O O7 0.466748 0.513164 0.105698
O O8 0.289962 0.250000 0.275403
O O9 0.370101 0.487336 0.363257
O O10 0.078236 0.503153 0.204074
O O11 0.922367 0.750000 0.280480
O O12 0.848153 0.527661 0.189452
O O13 0.136502 0.494127 0.347308
O O14 0.500000 0.500000 0.500000
O O15 0.332655 0.750000 0.400230
O O16 0.400249 0.250000 0.031038
O O17 0.135410 0.444132 0.967424
O O18 0.290495 0.519896 0.949474
O O19 0.069259 0.750000 0.967280
O O20 0.000000 0.500000 0.000000
O O21 0.887051 0.250000 0.159850
#
# Coordination Sequence:
#
# PCOD9159392 Si02
#       8
#     4   4   4   4   4   4   4   4
#     4   9  17  32  51  74 106 143 183 223 264 313
#     4  10  21  36  52  72 105 151 192 223 263 318
#     4   9  17  32  55  82 111 140 171 215 269 318
#     4  10  22  39  56  79 109 137 174 223 268 318
#     4  10  21  38  62  90 113 132 161 208 263 322
#     4  11  21  32  48  73 105 143 189 239 278 312
#     4  11  19  31  47  70 102 141 189 238 279 315
#     4  10  19  33  54  76 102 142 186 228 278 327
#
# _framework density 19.424083
#
# number of rings (size 3 to 8) (size 9 to 14) (size 15 to 20)
#    0.000    2.000    2.500    1.875    0.000    3.500 
#    0.000    0.625    0.000    0.750    0.000    0.000 
#    0.000    0.000    0.000    0.000    0.000    0.000 
#
# Total GULP energy -178422.315548 kJ/mol
# GULP energy per Si atom -5575.697361 kJ/mol
# Density = 1.937987 g / cm^3
# Si number density = 19.424083 Si / 1000 Ang^3
#
#
#
# Elastic Constant Matrix: (Units=GPa)
#
#
# Indices 1 2 3 4 5 6 
#
# 1 126.3849 0.4933 65.1698 0.0000 -0.6406 0.0000
# 2 0.4933 19.5934 1.5241 0.0000 -1.1321 0.0000
# 3 65.1698 1.5241 76.6393 0.0000 -16.9715 0.0000
# 4 0.0000 0.0000 0.0000 19.2169 0.0000 0.5357
# 5 -0.6406 -1.1321 -16.9715 0.0000 22.8894 0.0000
# 6 0.0000 0.0000 0.0000 0.5357 0.0000 18.1347
#
#
#
# Elastic Compliance Matrix: (Units=1/GPa)
#
#
# Indices 1 2 3 4 5 6 
#
# 1 0.016387 0.000193 -0.016553 0.000000 -0.011805 0.000000
# 2 0.000193 0.051205 -0.000742 0.000000 0.001988 0.000000
# 3 -0.016553 -0.000742 0.032337 0.000000 0.023477 0.000000
# 4 0.000000 0.000000 0.000000 0.052080 0.000000 -0.001538
# 5 -0.011805 0.001988 0.023477 0.000000 0.060863 0.000000
# 6 0.000000 0.000000 0.000000 -0.001538 0.000000 0.055188
#
#
# Mechanical properties :
#
#
# Convention : Reuss Voigt Hill
#
# Bulk Modulus (GPa) = 15.21477 39.66580 27.44028
# Shear Modulus (GPa) = 15.42382 22.41022 18.91702
#
# Velocity S-wave (km/s) = 2.82096 3.40035 3.12411
# Velocity P-wave (km/s) = 4.29655 5.99014 5.21259
#
# Compressibility (1/GPa) = 0.06572562
#
# Stress axis : x y z
#
# Youngs Moduli (GPa) = 61.02390 19.52925 30.92418
#
# Poissons Ratio (x) = -0.00377 0.51188
# Poissons Ratio (y) = -0.01177 0.02295
# Poissons Ratio (z) = 1.01010 0.01449
#
# Static dielectric constant tensor:
#      x y z
#    x 1.730170 0.000000 -0.012540 
#    y 0.000000 1.708490 0.000000 
#    z -0.012540 0.000000 1.663110 
# 
# From -- ./inp_files/73147.got.cif
#   From: 2010.05.17/outbox.cif.g08.bks.cpg/sg11_37_cif.got.tgz:73147.got - 2010.06.03 12:22:45.
