data_PCOD9159162
_publ_section_title
;
Structure prediction by ZEFSAII (Michael W. Deem and Ramdas Pophale) SiO2 
 PCOD9159162
Probable space group: P 21/M
;
_chemical_formula_sum "Si O2"
_cell_formula_units_Z 32
_cell_length_a 11.449872
_cell_length_b 19.886246
_cell_length_c 14.379338
_cell_angle_alpha 90.000000
_cell_angle_beta 32.436285
_cell_angle_gamma 90.000000
_cell_volume 1756.102425
_symmetry_space_group_name_H-M "P 21/M"
_symmetry_group_IT_number 11
_symmetry_cell_setting 'monoclinic'
loop_
_space_group_symop_operation_xyz
x,y,z
-x,1/2+y,-z
-x,-y,-z
x,1/2-y,z
loop_
_atom_site_type_symbol
_atom_site_label
_atom_site_fract_x
_atom_site_fract_y
_atom_site_fract_z
Si Si1 0.074617 0.892799 0.726364
Si Si2 0.745156 0.422210 0.204703
Si Si3 0.486637 0.929141 0.954854
Si Si4 0.388817 0.328737 0.967010
Si Si5 0.009310 0.052057 0.735217
Si Si6 0.336325 0.048259 0.360795
Si Si7 0.189381 0.081757 0.803156
Si Si8 0.595797 0.111206 0.649668
O O1 0.237615 0.890286 0.704690
O O2 0.194324 0.869926 0.552181
O O3 0.854822 0.853199 0.894767
O O4 0.013991 0.971824 0.753371
O O5 0.526762 0.415323 0.292150
O O6 0.770519 0.502517 0.203709
O O7 0.958900 0.400104 0.004415
O O8 0.236559 0.923464 0.090567
O O9 0.546738 0.870930 0.985597
O O10 0.641604 0.931627 0.760930
O O11 0.500000 0.000000 0.000000
O O12 0.393622 0.250000 0.980576
O O13 0.546064 0.348576 0.776174
O O14 0.110781 0.061941 0.565211
O O15 0.160839 0.086224 0.711663
O O16 0.380231 0.967868 0.339442
O O17 0.388412 0.117659 0.720081
#
# Coordination Sequence:
#
# PCOD9159162 Si02
#       8
#     4   4   4   4   4   4   4   4
#     4  10  19  34  57  85 116 145 177 224 283 344
#     4   9  15  27  53  85 118 142 166 213 277 334
#     4  12  22  37  57  78 109 151 197 243 278 326
#     4  12  26  41  55  77 111 153 194 233 281 336
#     4  10  19  32  56  89 116 142 180 233 288 331
#     4  10  19  32  56  89 116 142 180 233 288 331
#     4   9  15  27  53  85 118 142 166 213 277 334
#     4  10  19  34  57  85 116 145 177 224 283 344
#
# _framework density 18.222170999999999
#
# number of rings (size 3 to 8) (size 9 to 14) (size 15 to 20)
#    0.000    1.750    5.000    0.750    0.000    5.000 
#    0.000    0.000    0.000    3.000    0.000    0.000 
#    0.000    0.000    0.000    0.000    0.000    0.000 
#
# Total GULP energy -178573.718664 kJ/mol
# GULP energy per Si atom -5580.428708 kJ/mol
# Density = 1.818070 g / cm^3
# Si number density = 18.222171 Si / 1000 Ang^3
#
#
#
# Elastic Constant Matrix: (Units=GPa)
#
#
# Indices 1 2 3 4 5 6 
#
# 1 57.3433 20.4934 3.6319 0.0000 27.7927 0.0000
# 2 20.4934 45.6246 15.2045 0.0000 14.0593 0.0000
# 3 3.6319 15.2045 64.2827 0.0000 33.4926 0.0000
# 4 0.0000 0.0000 0.0000 7.6583 0.0000 2.1431
# 5 27.7927 14.0593 33.4926 0.0000 36.7953 0.0000
# 6 0.0000 0.0000 0.0000 2.1431 0.0000 7.6162
#
#
#
# Elastic Compliance Matrix: (Units=1/GPa)
#
#
# Indices 1 2 3 4 5 6 
#
# 1 0.052060 -0.014829 0.034431 0.000000 -0.064997 0.000000
# 2 -0.014829 0.029173 -0.011585 0.000000 0.010599 0.000000
# 3 0.034431 -0.011585 0.052487 0.000000 -0.069356 0.000000
# 4 0.000000 0.000000 0.000000 0.141738 0.000000 -0.039884
# 5 -0.064997 0.010599 -0.069356 0.000000 0.135353 0.000000
# 6 0.000000 0.000000 0.000000 -0.039884 0.000000 0.142523
#
#
# Mechanical properties :
#
#
# Convention : Reuss Voigt Hill
#
# Bulk Modulus (GPa) = 6.67757 27.32334 17.00046
# Shear Modulus (GPa) = 8.51471 18.94201 13.72836
#
# Velocity S-wave (km/s) = 2.16399 3.22763 2.74777
# Velocity P-wave (km/s) = 3.14902 5.37748 4.40645
#
# Compressibility (1/GPa) = 0.14975512
#
# Stress axis : x y z
#
# Youngs Moduli (GPa) = 19.20856 34.27776 19.05228
#
# Poissons Ratio (x) = 0.50831 -0.65599
# Poissons Ratio (y) = 0.28485 0.22071
# Poissons Ratio (z) = -0.66137 0.39709
#
# Static dielectric constant tensor:
#      x y z
#    x 1.655680 0.000000 0.000020 
#    y 0.000000 1.581530 0.000000 
#    z 0.000020 0.000000 1.649690 
# 
# From -- ./inp_files/50662.got.cif
#   From: 2010.05.17/outbox.cif.g08.bks.cpg/sg11_26_cif.got.tgz:50662.got - 2010.06.03 12:22:45.
