data_PCOD9159469
_publ_section_title
;
Structure prediction by ZEFSAII (Michael W. Deem and Ramdas Pophale) SiO2 
 PCOD9159469
Probable space group: P 21/M
;
_chemical_formula_sum "Si O2"
_cell_formula_units_Z 28
_cell_length_a 12.040396
_cell_length_b 8.556389
_cell_length_c 15.567641
_cell_angle_alpha 90.000000
_cell_angle_beta 115.328137
_cell_angle_gamma 90.000000
_cell_volume 1449.643817
_symmetry_space_group_name_H-M "P 21/M"
_symmetry_group_IT_number 11
_symmetry_cell_setting 'monoclinic'
loop_
_space_group_symop_operation_xyz
x,y,z
-x,1/2+y,-z
-x,-y,-z
x,1/2-y,z
loop_
_atom_site_type_symbol
_atom_site_label
_atom_site_fract_x
_atom_site_fract_y
_atom_site_fract_z
Si Si1 0.065883 0.940325 0.269816
Si Si2 0.786162 0.935751 0.175391
Si Si3 0.668090 0.436490 0.962400
Si Si4 0.308039 0.561681 0.438774
Si Si5 0.489660 0.434354 0.637402
Si Si6 0.884438 0.061398 0.908049
Si Si7 0.566410 0.432483 0.198189
O O1 0.068546 0.750000 0.270735
O O2 0.169714 0.989089 0.371690
O O3 0.104610 0.991239 0.186704
O O4 0.925661 0.988582 0.239362
O O5 0.788594 0.750000 0.161293
O O6 0.691348 0.975919 0.219130
O O7 0.733328 0.015978 0.072255
O O8 0.651333 0.250000 0.954081
O O9 0.760075 0.484472 0.915682
O O10 0.537811 0.517011 0.904002
O O11 0.312231 0.750000 0.453711
O O12 0.373103 0.478402 0.539840
O O13 0.391929 0.529110 0.382409
O O14 0.492538 0.250000 0.657084
O O15 0.482969 0.525330 0.724022
O O16 0.888615 0.250000 0.909648
O O17 0.000000 0.000000 0.000000
O O18 0.590560 0.250000 0.198369
#
# Coordination Sequence:
#
# PCOD9159469 Si02
#       7
#     4   4   4   4   4   4   4
#     4   9  18  34  57  83 114 151 186 225 279 334
#     4  11  22  38  58  80 113 152 194 236 280 336
#     4  11  22  37  58  84 115 150 190 236 286 335
#     4   9  18  36  62  89 117 147 180 224 281 341
#     4  10  20  37  61  89 118 144 181 231 283 336
#     4  10  19  33  54  82 115 148 183 226 275 328
#     4  12  25  40  58  80 110 149 196 239 283 336
#
# _framework density 19.315090000000001
#
# number of rings (size 3 to 8) (size 9 to 14) (size 15 to 20)
#    0.000    1.714    1.429    3.857    0.000    3.429 
#    0.000    2.857    0.000    0.000    0.000    0.000 
#    0.000    0.000    0.000    0.000    0.000    0.000 
#
# Total GULP energy -156464.158154 kJ/mol
# GULP energy per Si atom -5588.005648 kJ/mol
# Density = 1.927113 g / cm^3
# Si number density = 19.315090 Si / 1000 Ang^3
#
#
#
# Elastic Constant Matrix: (Units=GPa)
#
#
# Indices 1 2 3 4 5 6 
#
# 1 66.2129 5.6792 20.7646 0.0000 18.8597 0.0000
# 2 5.6792 7.6535 0.7783 0.0000 1.4635 0.0000
# 3 20.7646 0.7783 63.8247 0.0000 26.0954 0.0000
# 4 0.0000 0.0000 0.0000 30.7379 0.0000 -2.0012
# 5 18.8597 1.4635 26.0954 0.0000 29.8284 0.0000
# 6 0.0000 0.0000 0.0000 -2.0012 0.0000 21.4866
#
#
#
# Elastic Compliance Matrix: (Units=1/GPa)
#
#
# Indices 1 2 3 4 5 6 
#
# 1 0.019687 -0.012490 -0.002201 0.000000 -0.009909 0.000000
# 2 -0.012490 0.139927 0.003013 0.000000 -0.001605 0.000000
# 3 -0.002201 0.003013 0.024659 0.000000 -0.020329 0.000000
# 4 0.000000 0.000000 0.000000 0.032732 0.000000 0.003049
# 5 -0.009909 -0.001605 -0.020329 0.000000 0.057654 0.000000
# 6 0.000000 0.000000 0.000000 0.003049 0.000000 0.046825
#
#
# Mechanical properties :
#
#
# Convention : Reuss Voigt Hill
#
# Bulk Modulus (GPa) = 6.21438 21.34837 13.78137
# Shear Modulus (GPa) = 12.54777 23.77518 18.16148
#
# Velocity S-wave (km/s) = 2.55156 3.51224 3.06972
# Velocity P-wave (km/s) = 3.45036 5.24638 4.44013
#
# Compressibility (1/GPa) = 0.16091720
#
# Stress axis : x y z
#
# Youngs Moduli (GPa) = 50.79556 7.14659 40.55310
#
# Poissons Ratio (x) = 0.08926 0.08926
# Poissons Ratio (y) = 0.63442 -0.12219
# Poissons Ratio (z) = 0.11181 -0.02153
#
# Static dielectric constant tensor:
#      x y z
#    x 1.680290 0.000000 -0.000620 
#    y 0.000000 1.657180 0.000000 
#    z -0.000620 0.000000 1.654010 
# 
# From -- ./inp_files/49498.got.cif
#   From: 2010.05.17/outbox.cif.g08.bks.cpg/sg11_25_cif.got.tgz:49498.got - 2010.06.03 12:22:45.
