data_PCOD9159198
_publ_section_title
;
Structure prediction by ZEFSAII (Michael W. Deem and Ramdas Pophale) SiO2 
 PCOD9159198
Probable space group: P 21/M
;
_chemical_formula_sum "Si O2"
_cell_formula_units_Z 32
_cell_length_a 15.404867
_cell_length_b 8.328667
_cell_length_c 15.471542
_cell_angle_alpha 90.000000
_cell_angle_beta 100.310850
_cell_angle_gamma 90.000000
_cell_volume 1952.973968
_symmetry_space_group_name_H-M "P 21/M"
_symmetry_group_IT_number 11
_symmetry_cell_setting 'monoclinic'
loop_
_space_group_symop_operation_xyz
x,y,z
-x,1/2+y,-z
-x,-y,-z
x,1/2-y,z
loop_
_atom_site_type_symbol
_atom_site_label
_atom_site_fract_x
_atom_site_fract_y
_atom_site_fract_z
Si Si1 0.752094 0.445841 0.250733
Si Si2 0.371732 0.556279 0.919519
Si Si3 0.883874 0.059374 0.562611
Si Si4 0.694573 0.564679 0.560737
Si Si5 0.073126 0.943948 0.628099
Si Si6 0.439082 0.555628 0.113112
Si Si7 0.612250 0.061310 0.373030
Si Si8 0.581493 0.060282 0.697029
O O1 0.753902 0.250000 0.251304
O O2 0.710500 0.499908 0.152635
O O3 0.850362 0.498381 0.293085
O O4 0.684012 0.492528 0.314695
O O5 0.369810 0.750000 0.919832
O O6 0.461893 0.504243 0.888173
O O7 0.380768 0.502140 0.020515
O O8 0.870115 0.250000 0.562989
O O9 0.895568 0.012191 0.463607
O O10 0.797977 0.974807 0.584870
O O11 0.976168 0.014824 0.623745
O O12 0.682035 0.750000 0.535832
O O13 0.653094 0.463075 0.474892
O O14 0.643938 0.525759 0.639758
O O15 0.066727 0.750000 0.629422
O O16 0.441369 0.750000 0.113988
O O17 0.408201 0.502916 0.202103
O O18 0.595010 0.250000 0.355418
O O19 0.520320 0.970033 0.346396
O O20 0.599771 0.250000 0.696717
#
# Coordination Sequence:
#
# PCOD9159198 Si02
#       8
#     4   4   4   4   4   4   4   4
#     4   9  16  28  49  73  98 129 160 192 234 286
#     4   9  16  29  49  71  96 127 160 196 241 288
#     4  10  19  33  50  71  97 126 159 199 241 284
#     4  12  24  36  50  69  93 130 170 206 242 285
#     4   9  17  31  49  71  97 126 159 193 236 289
#     4   9  18  30  46  70  97 125 161 202 242 282
#     4  11  20  34  50  70  98 132 168 202 236 281
#     4  11  22  35  48  68  98 133 168 206 242 283
#
# _framework density 16.385266000000001
#
# number of rings (size 3 to 8) (size 9 to 14) (size 15 to 20)
#    0.000    2.000    2.500    2.625    0.000    1.000 
#    0.000    0.625    0.000    0.000    0.000    0.875 
#    0.000    0.000    0.000    0.000    0.000    0.000 
#
# Total GULP energy -178544.112814 kJ/mol
# GULP energy per Si atom -5579.503525 kJ/mol
# Density = 1.634797 g / cm^3
# Si number density = 16.385266 Si / 1000 Ang^3
#
#
#
# Elastic Constant Matrix: (Units=GPa)
#
#
# Indices 1 2 3 4 5 6 
#
# 1 68.4182 -0.5346 47.5602 0.0000 12.9555 0.0000
# 2 -0.5346 11.2257 -3.1489 0.0000 0.4320 0.0000
# 3 47.5602 -3.1489 98.7200 0.0000 18.9673 0.0000
# 4 0.0000 0.0000 0.0000 10.3090 0.0000 -2.5416
# 5 12.9555 0.4320 18.9673 0.0000 25.6927 0.0000
# 6 0.0000 0.0000 0.0000 -2.5416 0.0000 17.9892
#
#
#
# Elastic Compliance Matrix: (Units=1/GPa)
#
#
# Indices 1 2 3 4 5 6 
#
# 1 0.022328 -0.001618 -0.010081 0.000000 -0.003790 0.000000
# 2 -0.001618 0.090399 0.004426 0.000000 -0.003972 0.000000
# 3 -0.010081 0.004426 0.016506 0.000000 -0.007177 0.000000
# 4 0.000000 0.000000 0.000000 0.100504 0.000000 0.014200
# 5 -0.003790 -0.003972 -0.007177 0.000000 0.046198 0.000000
# 6 0.000000 0.000000 0.000000 0.014200 0.000000 0.057595
#
#
# Mechanical properties :
#
#
# Convention : Reuss Voigt Hill
#
# Bulk Modulus (GPa) = 8.71931 29.56859 19.14395
# Shear Modulus (GPa) = 12.94315 19.76399 16.35357
#
# Velocity S-wave (km/s) = 2.81361 3.47681 3.16264
# Velocity P-wave (km/s) = 3.98600 5.84830 5.00454
#
# Compressibility (1/GPa) = 0.11468791
#
# Stress axis : x y z
#
# Youngs Moduli (GPa) = 44.78605 11.06209 60.58317
#
# Poissons Ratio (x) = 0.01790 0.61071
# Poissons Ratio (y) = 0.07248 -0.26816
# Poissons Ratio (z) = 0.45147 -0.04896
#
# Static dielectric constant tensor:
#      x y z
#    x 1.525470 0.000000 0.018460 
#    y 0.000000 1.559970 0.000000 
#    z 0.018460 0.000000 1.566640 
# 
# From -- ./inp_files/51307.got.cif
#   From: 2010.05.17/outbox.cif.g08.bks.cpg/sg11_26_cif.got.tgz:51307.got - 2010.06.03 12:22:45.
