data_PCOD9159708
_publ_section_title
;
Structure prediction by ZEFSAII (Michael W. Deem and Ramdas Pophale) SiO2 
 PCOD9159708
Probable space group: P 21/M
;
_chemical_formula_sum "Si O2"
_cell_formula_units_Z 28
_cell_length_a 15.044102
_cell_length_b 14.995980
_cell_length_c 8.836823
_cell_angle_alpha 90.000000
_cell_angle_beta 46.316165
_cell_angle_gamma 90.000000
_cell_volume 1441.693359
_symmetry_space_group_name_H-M "P 21/M"
_symmetry_group_IT_number 11
_symmetry_cell_setting 'monoclinic'
loop_
_space_group_symop_operation_xyz
x,y,z
-x,1/2+y,-z
-x,-y,-z
x,1/2-y,z
loop_
_atom_site_type_symbol
_atom_site_label
_atom_site_fract_x
_atom_site_fract_y
_atom_site_fract_z
Si Si1 0.906962 0.047670 0.223356
Si Si2 0.313884 0.990555 0.324481
Si Si3 0.528348 0.145415 0.667096
Si Si4 0.725902 0.354837 0.208174
Si Si5 0.021449 0.096970 0.401231
Si Si6 0.778678 0.350420 0.814443
Si Si7 0.697015 0.852286 0.877650
O O1 0.805873 0.987910 0.431399
O O2 0.820486 0.110065 0.222349
O O3 0.981517 0.094791 0.271857
O O4 0.000000 0.000000 0.000000
O O5 0.409992 0.934049 0.309235
O O6 0.272527 0.918323 0.248312
O O7 0.352712 0.079060 0.190315
O O8 0.563765 0.250000 0.665968
O O9 0.587412 0.131814 0.432299
O O10 0.385109 0.139084 0.874000
O O11 0.747226 0.250000 0.169266
O O12 0.752068 0.390847 0.010813
O O13 0.161460 0.125080 0.257175
O O14 0.923526 0.154575 0.609672
O O15 0.000000 0.000000 0.500000
O O16 0.726605 0.250000 0.861874
O O17 0.686039 0.750000 0.839391
#
# Coordination Sequence:
#
# PCOD9159708 Si02
#       7
#     4   4   4   4   4   4   4
#     4  10  20  33  57  78 112 143 180 230 280 333
#     4  10  20  36  58  83 112 145 190 229 273 330
#     4   9  19  37  59  83 112 145 186 229 278 330
#     4   9  19  34  55  82 108 142 182 228 278 328
#     4  11  20  36  55  80 113 145 185 229 276 336
#     4  10  19  33  59  85 110 142 185 231 274 327
#     4  11  22  36  58  82 112 149 186 230 277 329
#
# _framework density 19.421605
#
# number of rings (size 3 to 8) (size 9 to 14) (size 15 to 20)
#    0.000    2.000    2.857    2.143    0.000    4.000 
#    0.000    0.714    3.143    0.000    0.000    0.000 
#    0.000    0.000    0.000    0.000    0.000    0.000 
#
# Total GULP energy -156001.739645 kJ/mol
# GULP energy per Si atom -5571.490702 kJ/mol
# Density = 1.937740 g / cm^3
# Si number density = 19.421605 Si / 1000 Ang^3
#
#
#
# Elastic Constant Matrix: (Units=GPa)
#
#
# Indices 1 2 3 4 5 6 
#
# 1 20.8185 5.0939 31.4438 0.0000 3.9447 0.0000
# 2 5.0939 74.3941 33.1630 0.0000 -2.0972 0.0000
# 3 31.4438 33.1630 156.5032 0.0000 4.7485 0.0000
# 4 0.0000 0.0000 0.0000 26.0062 0.0000 -2.7840
# 5 3.9447 -2.0972 4.7485 0.0000 30.0422 0.0000
# 6 0.0000 0.0000 0.0000 -2.7840 0.0000 11.0701
#
#
#
# Elastic Compliance Matrix: (Units=1/GPa)
#
#
# Indices 1 2 3 4 5 6 
#
# 1 0.070531 0.001324 -0.014241 0.000000 -0.006918 0.000000
# 2 0.001324 0.014940 -0.003475 0.000000 0.001418 0.000000
# 3 -0.014241 -0.003475 0.009986 0.000000 0.000049 0.000000
# 4 0.000000 0.000000 0.000000 0.039516 0.000000 0.009938
# 5 -0.006918 0.001418 0.000049 0.000000 0.034286 0.000000
# 6 0.000000 0.000000 0.000000 0.009938 0.000000 0.092833
#
#
# Mechanical properties :
#
#
# Convention : Reuss Voigt Hill
#
# Bulk Modulus (GPa) = 15.95600 43.45749 29.70674
# Shear Modulus (GPa) = 15.83445 25.55804 20.69625
#
# Velocity S-wave (km/s) = 2.85845 3.63155 3.26794
# Velocity P-wave (km/s) = 4.37352 6.32524 5.43766
#
# Compressibility (1/GPa) = 0.06267234
#
# Stress axis : x y z
#
# Youngs Moduli (GPa) = 14.17823 66.93317 100.14249
#
# Poissons Ratio (x) = -0.08862 1.42616
# Poissons Ratio (y) = -0.01877 0.34798
# Poissons Ratio (z) = 0.20192 0.23259
#
# Static dielectric constant tensor:
#      x y z
#    x 1.688150 0.000000 -0.001910 
#    y 0.000000 1.759620 0.000000 
#    z -0.001910 0.000000 1.737930 
# 
# From -- ./inp_files/24911.got.cif
#   From: 2010.05.17/outbox.cif.g08.bks.cpg/sg11_13_cif.got.tgz:24911.got - 2010.06.03 12:22:45.
