data_PCOD9159231
_publ_section_title
;
Structure prediction by ZEFSAII (Michael W. Deem and Ramdas Pophale) SiO2 
 PCOD9159231
Probable space group: P 21/M
;
_chemical_formula_sum "Si O2"
_cell_formula_units_Z 28
_cell_length_a 16.254928
_cell_length_b 8.995955
_cell_length_c 19.297691
_cell_angle_alpha 90.000000
_cell_angle_beta 31.692690
_cell_angle_gamma 90.000000
_cell_volume 1482.508651
_symmetry_space_group_name_H-M "P 21/M"
_symmetry_group_IT_number 11
_symmetry_cell_setting 'monoclinic'
loop_
_space_group_symop_operation_xyz
x,y,z
-x,1/2+y,-z
-x,-y,-z
x,1/2-y,z
loop_
_atom_site_type_symbol
_atom_site_label
_atom_site_fract_x
_atom_site_fract_y
_atom_site_fract_z
Si Si1 0.831581 0.574150 0.112808
Si Si2 0.310621 0.923968 0.913302
Si Si3 0.651017 0.576111 0.603238
Si Si4 0.673823 0.915172 0.807991
Si Si5 0.147879 0.923562 0.431121
Si Si6 0.462975 0.570159 0.600977
Si Si7 0.702001 0.416373 0.918271
O O1 0.835539 0.750000 0.122922
O O2 0.775716 0.535867 0.075350
O O3 0.701970 0.494983 0.253987
O O4 0.000000 0.500000 0.000000
O O5 0.271889 0.750000 0.925166
O O6 0.495419 0.937444 0.763252
O O7 0.267322 0.951894 0.023830
O O8 0.692026 0.750000 0.571374
O O9 0.791768 0.489684 0.539266
O O10 0.590665 0.531092 0.569746
O O11 0.726069 0.750000 0.748716
O O12 0.715827 0.037307 0.721425
O O13 0.749340 0.965556 0.826498
O O14 0.487204 0.908207 0.949886
O O15 0.122191 0.750000 0.456098
O O16 0.000000 0.000000 0.500000
O O17 0.500000 0.500000 0.500000
O O18 0.456322 0.750000 0.602555
O O19 0.762630 0.250000 0.858967
#
# Coordination Sequence:
#
# PCOD9159231 Si02
#       7
#     4   4   4   4   4   4   4
#     4  11  22  37  58  86 119 154 194 239 291 348
#     4   9  17  33  56  81 112 146 182 228 280 335
#     4   9  18  36  58  82 112 146 186 233 283 336
#     4  10  19  33  51  75 107 139 175 220 268 317
#     4  12  24  37  55  77 107 147 191 236 282 334
#     4  10  21  39  64  92 122 155 193 241 295 355
#     4   9  17  31  52  78 107 139 173 216 267 318
#
# _framework density 18.886904000000001
#
# number of rings (size 3 to 8) (size 9 to 14) (size 15 to 20)
#    0.000    2.000    1.429    4.286    0.000    4.000 
#    0.000    1.429    0.000    8.571    0.000    0.000 
#    0.000    0.000    0.000    0.000    0.000    0.000 
#
# Total GULP energy -156156.816312 kJ/mol
# GULP energy per Si atom -5577.029154 kJ/mol
# Density = 1.884392 g / cm^3
# Si number density = 18.886904 Si / 1000 Ang^3
#
#
#
# Elastic Constant Matrix: (Units=GPa)
#
#
# Indices 1 2 3 4 5 6 
#
# 1 128.4901 72.2073 46.5744 0.0000 0.9279 0.0000
# 2 72.2073 106.7546 37.7371 0.0000 -15.4777 0.0000
# 3 46.5744 37.7371 33.1156 0.0000 -10.4533 0.0000
# 4 0.0000 0.0000 0.0000 24.5201 0.0000 0.3792
# 5 0.9279 -15.4777 -10.4533 0.0000 26.6951 0.0000
# 6 0.0000 0.0000 0.0000 0.3792 0.0000 35.4245
#
#
#
# Elastic Compliance Matrix: (Units=1/GPa)
#
#
# Indices 1 2 3 4 5 6 
#
# 1 0.022113 -0.007527 -0.027548 0.000000 -0.015920 0.000000
# 2 -0.007527 0.018383 -0.007891 0.000000 0.007830 0.000000
# 3 -0.027548 -0.007891 0.087622 0.000000 0.030694 0.000000
# 4 0.000000 0.000000 0.000000 0.040790 0.000000 -0.000437
# 5 -0.015920 0.007830 0.030694 0.000000 0.054572 0.000000
# 6 0.000000 0.000000 0.000000 -0.000437 0.000000 0.028234
#
#
# Mechanical properties :
#
#
# Convention : Reuss Voigt Hill
#
# Bulk Modulus (GPa) = 23.70425 64.59976 44.15200
# Shear Modulus (GPa) = 14.21636 24.78406 19.50021
#
# Velocity S-wave (km/s) = 2.74653 3.62641 3.21670
# Velocity P-wave (km/s) = 4.75771 7.19807 6.10115
#
# Compressibility (1/GPa) = 0.04218653
#
# Stress axis : x y z
#
# Youngs Moduli (GPa) = 45.22194 54.39803 11.41267
#
# Poissons Ratio (x) = 0.40946 0.31440
# Poissons Ratio (y) = 0.34039 0.09005
# Poissons Ratio (z) = 1.24578 0.42923
#
# Static dielectric constant tensor:
#      x y z
#    x 1.689750 0.000000 -0.003130 
#    y 0.000000 1.669920 0.000000 
#    z -0.003130 0.000000 1.683600 
# 
# From -- ./inp_files/65380.got.cif
#   From: 2010.05.17/outbox.cif.g08.bks.cpg/sg11_33_cif.got.tgz:65380.got - 2010.06.03 12:22:45.
