data_PCOD9159974
_publ_section_title
;
Structure prediction by ZEFSAII (Michael W. Deem and Ramdas Pophale) SiO2 
 PCOD9159974
Probable space group: P 21/M
;
_chemical_formula_sum "Si O2"
_cell_formula_units_Z 28
_cell_length_a 5.367417
_cell_length_b 20.877548
_cell_length_c 12.954383
_cell_angle_alpha 90.000000
_cell_angle_beta 101.420854
_cell_angle_gamma 90.000000
_cell_volume 1422.904952
_symmetry_space_group_name_H-M "P 21/M"
_symmetry_group_IT_number 11
_symmetry_cell_setting 'monoclinic'
loop_
_space_group_symop_operation_xyz
x,y,z
-x,1/2+y,-z
-x,-y,-z
x,1/2-y,z
loop_
_atom_site_type_symbol
_atom_site_label
_atom_site_fract_x
_atom_site_fract_y
_atom_site_fract_z
Si Si1 0.265415 0.750000 0.463949
Si Si2 0.979419 0.926371 0.959005
Si Si3 0.633378 0.607561 0.284659
Si Si4 0.292460 0.876878 0.604196
Si Si5 0.698733 0.750000 0.324924
Si Si6 0.186399 0.943107 0.393088
Si Si7 0.477630 0.071650 0.951115
Si Si8 0.156692 0.416947 0.291240
O O1 0.275852 0.812902 0.535379
O O2 0.507208 0.750000 0.407416
O O3 0.994275 0.750000 0.383215
O O4 0.915600 0.926583 0.833665
O O5 0.753894 0.896379 0.007280
O O6 0.252003 0.896331 0.005413
O O7 0.000000 0.000000 0.000000
O O8 0.643313 0.683361 0.263394
O O9 0.407697 0.592596 0.346380
O O10 0.579730 0.569655 0.174671
O O11 0.908007 0.587198 0.351048
O O12 0.251796 0.934767 0.518695
O O13 0.569612 0.883933 0.676170
O O14 0.067923 0.879769 0.668743
O O15 0.178717 0.014753 0.349930
O O16 0.500000 0.000000 0.000000
#
# Coordination Sequence:
#
# PCOD9159974 Si02
#       8
#     2   4   4   4   2   4   4   4
#     4  12  24  46  66  83 130 173 224 248 306 370
#     4  10  20  37  58  85 119 158 201 250 304 379
#     4  12  22  37  65  92 127 169 213 262 319 377
#     4  12  24  41  62  91 126 172 206 263 300 380
#     4  12  22  42  62  93 122 167 224 260 300 384
#     4  12  22  39  59  95 133 165 193 260 325 381
#     4  10  19  34  56  88 119 159 204 253 317 376
#     4  12  24  39  63  96 127 161 210 256 323 378
#
# _framework density 19.678052999999998
#
# number of rings (size 3 to 8) (size 9 to 14) (size 15 to 20)
#    0.000    0.571    2.857    8.571    0.000    0.000 
#    0.000    0.000    0.000    5.143    0.000    0.000 
#    0.000    0.000    0.000    0.000    0.000    0.000 
#
# Total GULP energy -156549.879256 kJ/mol
# GULP energy per Si atom -5591.067116 kJ/mol
# Density = 1.963326 g / cm^3
# Si number density = 19.678053 Si / 1000 Ang^3
#
#
#
# Elastic Constant Matrix: (Units=GPa)
#
#
# Indices 1 2 3 4 5 6 
#
# 1 169.4323 -6.5421 44.8354 0.0000 20.8602 0.0000
# 2 -6.5421 34.5933 -22.8009 0.0000 3.5397 0.0000
# 3 44.8354 -22.8009 115.7586 0.0000 3.3185 0.0000
# 4 0.0000 0.0000 0.0000 24.5968 0.0000 -1.3212
# 5 20.8602 3.5397 3.3185 0.0000 21.5813 0.0000
# 6 0.0000 0.0000 0.0000 -1.3212 0.0000 16.0895
#
#
#
# Elastic Compliance Matrix: (Units=1/GPa)
#
#
# Indices 1 2 3 4 5 6 
#
# 1 0.007454 0.000390 -0.002613 0.000000 -0.006867 0.000000
# 2 0.000390 0.034169 0.006781 0.000000 -0.007024 0.000000
# 3 -0.002613 0.006781 0.010994 0.000000 -0.000277 0.000000
# 4 0.000000 0.000000 0.000000 0.040836 0.000000 0.003353
# 5 -0.006867 -0.007024 -0.000277 0.000000 0.054169 0.000000
# 6 0.000000 0.000000 0.000000 0.003353 0.000000 0.062428
#
#
# Mechanical properties :
#
#
# Convention : Reuss Voigt Hill
#
# Bulk Modulus (GPa) = 16.19926 38.97433 27.58680
# Shear Modulus (GPa) = 22.57204 32.73963 27.65584
#
# Velocity S-wave (km/s) = 3.39051 4.08335 3.75295
# Velocity P-wave (km/s) = 4.85566 6.48696 5.72966
#
# Compressibility (1/GPa) = 0.06173120
#
# Stress axis : x y z
#
# Youngs Moduli (GPa) = 134.15310 29.26641 90.95523
#
# Poissons Ratio (x) = -0.01141 0.23771
# Poissons Ratio (y) = -0.05229 -0.61673
# Poissons Ratio (z) = 0.35061 -0.19844
#
# Static dielectric constant tensor:
#      x y z
#    x 1.668680 0.000000 0.002950 
#    y 0.000000 1.686290 0.000000 
#    z 0.002950 0.000000 1.658620 
# 
# From -- ./inp_files/30030.got.cif
#   From: 2010.05.17/outbox.cif.g08.bks.cpg/sg11_16_cif.got.tgz:30030.got - 2010.06.03 12:22:45.
