data_PCOD9159033
_publ_section_title
;
Structure prediction by ZEFSAII (Michael W. Deem and Ramdas Pophale) SiO2 
 PCOD9159033
Probable space group: P 21/M
;
_chemical_formula_sum "Si O2"
_cell_formula_units_Z 28
_cell_length_a 16.438344
_cell_length_b 9.842510
_cell_length_c 21.304584
_cell_angle_alpha 90.000000
_cell_angle_beta 25.081497
_cell_angle_gamma 90.000000
_cell_volume 1461.192831
_symmetry_space_group_name_H-M "P 21/M"
_symmetry_group_IT_number 11
_symmetry_cell_setting 'monoclinic'
loop_
_space_group_symop_operation_xyz
x,y,z
-x,1/2+y,-z
-x,-y,-z
x,1/2-y,z
loop_
_atom_site_type_symbol
_atom_site_label
_atom_site_fract_x
_atom_site_fract_y
_atom_site_fract_z
Si Si1 0.787802 0.409513 0.288197
Si Si2 0.215895 0.090276 0.033986
Si Si3 0.570270 0.409910 0.690382
Si Si4 0.702719 0.893701 0.804520
Si Si5 0.156466 0.092764 0.425937
Si Si6 0.474806 0.409773 0.612282
Si Si7 0.746521 0.401202 0.870500
O O1 0.763526 0.250000 0.290194
O O2 0.666095 0.436123 0.437046
O O3 0.692289 0.500421 0.301318
O O4 0.011744 0.434605 0.143319
O O5 0.222137 0.250000 0.048947
O O6 0.225724 0.994463 0.087967
O O7 0.390469 0.069252 0.863310
O O8 0.626549 0.250000 0.656567
O O9 0.740962 0.510135 0.590923
O O10 0.509618 0.435959 0.661137
O O11 0.799726 0.750000 0.753067
O O12 0.691881 0.901356 0.737500
O O13 0.808605 0.016434 0.765159
O O14 0.482438 0.886672 0.979051
O O15 0.100439 0.250000 0.478751
O O16 0.000000 0.000000 0.500000
O O17 0.429074 0.250000 0.637233
O O18 0.828836 0.250000 0.819015
#
# Coordination Sequence:
#
# PCOD9159033 Si02
#       7
#     4   4   4   4   4   4   4
#     4   9  19  36  57  81 109 143 181 224 275 332
#     4  10  20  34  54  81 114 148 184 227 280 335
#     4  10  21  37  57  81 111 148 186 227 278 336
#     4   9  19  35  52  73 104 141 180 223 274 324
#     4  11  23  39  57  80 111 147 188 231 278 332
#     4   9  19  37  58  80 109 144 182 224 275 332
#     4  10  19  32  53  79 105 137 181 227 272 323
#
# _framework density 19.162426
#
# number of rings (size 3 to 8) (size 9 to 14) (size 15 to 20)
#    0.000    2.286    1.429    0.857    0.000    4.571 
#    0.000    2.857    0.000    0.000    0.000    0.000 
#    0.000    0.000    0.000    0.000    0.000    0.000 
#
# Total GULP energy -156057.796442 kJ/mol
# GULP energy per Si atom -5573.492730 kJ/mol
# Density = 1.911881 g / cm^3
# Si number density = 19.162426 Si / 1000 Ang^3
#
#
#
# Elastic Constant Matrix: (Units=GPa)
#
#
# Indices 1 2 3 4 5 6 
#
# 1 124.8510 96.6295 23.8952 0.0000 -1.9598 0.0000
# 2 96.6295 132.9527 35.5203 0.0000 -16.3811 0.0000
# 3 23.8952 35.5203 35.2780 0.0000 -16.3597 0.0000
# 4 0.0000 0.0000 0.0000 16.5079 0.0000 -3.2572
# 5 -1.9598 -16.3811 -16.3597 0.0000 24.0358 0.0000
# 6 0.0000 0.0000 0.0000 -3.2572 0.0000 40.5729
#
#
#
# Elastic Compliance Matrix: (Units=1/GPa)
#
#
# Indices 1 2 3 4 5 6 
#
# 1 0.020204 -0.015076 -0.003662 0.000000 -0.011120 0.000000
# 2 -0.015076 0.021539 -0.007654 0.000000 0.008241 0.000000
# 3 -0.003662 -0.007654 0.052568 0.000000 0.030265 0.000000
# 4 0.000000 0.000000 0.000000 0.061552 0.000000 0.004941
# 5 -0.011120 0.008241 0.030265 0.000000 0.066913 0.000000
# 6 0.000000 0.000000 0.000000 0.004941 0.000000 0.025044
#
#
# Mechanical properties :
#
#
# Convention : Reuss Voigt Hill
#
# Bulk Modulus (GPa) = 24.08067 67.24131 45.66099
# Shear Modulus (GPa) = 15.90100 25.35909 20.63004
#
# Velocity S-wave (km/s) = 2.88375 3.64177 3.28470
# Velocity P-wave (km/s) = 4.86641 7.26978 6.18594
#
# Compressibility (1/GPa) = 0.04152708
#
# Stress axis : x y z
#
# Youngs Moduli (GPa) = 49.49523 46.42826 19.02298
#
# Poissons Ratio (x) = 0.69994 0.06967
# Poissons Ratio (y) = 0.74618 0.14559
# Poissons Ratio (z) = 0.18127 0.35534
#
# Static dielectric constant tensor:
#      x y z
#    x 1.626220 0.000000 0.027430 
#    y 0.000000 1.743690 0.000000 
#    z 0.027430 0.000000 1.711080 
# 
# From -- ./inp_files/48929.got.cif
#   From: 2010.05.17/outbox.cif.g08.bks.cpg/sg11_25_cif.got.tgz:48929.got - 2010.06.03 12:22:45.
