data_PCOD9159976
_publ_section_title
;
Structure prediction by ZEFSAII (Michael W. Deem and Ramdas Pophale) SiO2 
 PCOD9159976
Probable space group: P 21/M
;
_chemical_formula_sum "Si O2"
_cell_formula_units_Z 26
_cell_length_a 14.127860
_cell_length_b 7.797062
_cell_length_c 17.171153
_cell_angle_alpha 90.000000
_cell_angle_beta 32.993674
_cell_angle_gamma 90.000000
_cell_volume 1030.010725
_symmetry_space_group_name_H-M "P 21/M"
_symmetry_group_IT_number 11
_symmetry_cell_setting 'monoclinic'
loop_
_space_group_symop_operation_xyz
x,y,z
-x,1/2+y,-z
-x,-y,-z
x,1/2-y,z
loop_
_atom_site_type_symbol
_atom_site_label
_atom_site_fract_x
_atom_site_fract_y
_atom_site_fract_z
Si Si1 0.651390 0.456646 0.703785
Si Si2 0.711929 0.052970 0.232064
Si Si3 0.952579 0.053138 0.924964
Si Si4 0.293336 0.445213 0.028489
Si Si5 0.661422 0.448042 0.517761
Si Si6 0.115063 0.250000 0.621166
Si Si7 0.820598 0.439920 0.735065
O O1 0.658396 0.250000 0.690820
O O2 0.645449 0.515284 0.619370
O O3 0.801579 0.509790 0.661031
O O4 0.475148 0.508420 0.869394
O O5 0.659969 0.250000 0.255743
O O6 0.537494 0.954250 0.374078
O O7 0.804799 0.988892 0.088085
O O8 0.869967 0.046051 0.183844
O O9 0.988122 0.250000 0.921916
O O10 0.862182 0.049823 0.903593
O O11 0.270044 0.250000 0.019002
O O12 0.279146 0.455125 0.130643
O O13 0.723953 0.250000 0.470460
O O14 0.782700 0.596735 0.401505
O O15 0.008234 0.397894 0.641179
O O16 0.733093 0.250000 0.794139
#
# Coordination Sequence:
#
# PCOD9159976 Si02
#       7
#     4   4   4   4   4   2   4
#     4   9  19  36  58  88 120 152 198 251 309 365
#     4  10  19  34  56  90 128 154 192 245 304 373
#     4  10  20  32  55  89 126 160 189 238 310 374
#     4  11  20  34  59  88 119 157 195 247 308 369
#     4  11  21  38  63  90 123 161 203 254 309 361
#     4  10  24  42  60  86 118 166 216 258 296 348
#     4   9  21  41  55  78 120 156 204 256 295 349
#
# _framework density 25.242456000000001
#
# number of rings (size 3 to 8) (size 9 to 14) (size 15 to 20)
#    0.462    1.538    2.308    1.846    0.000    2.462 
#    2.769    0.000    0.000    0.923    0.000    0.000 
#    0.000    0.000    0.000    0.000    0.000    0.000 
#
# Total GULP energy -144769.429757 kJ/mol
# GULP energy per Si atom -5568.054991 kJ/mol
# Density = 2.518500 g / cm^3
# Si number density = 25.242456 Si / 1000 Ang^3
#
#
#
# Elastic Constant Matrix: (Units=GPa)
#
#
# Indices 1 2 3 4 5 6 
#
# 1 90.2318 0.7958 17.4809 0.0000 -3.9770 0.0000
# 2 0.7958 101.9777 18.4301 0.0000 -8.3267 0.0000
# 3 17.4809 18.4301 79.8554 0.0000 -20.7306 0.0000
# 4 0.0000 0.0000 0.0000 2.7063 0.0000 -9.3988
# 5 -3.9770 -8.3267 -20.7306 0.0000 37.6006 0.0000
# 6 0.0000 0.0000 0.0000 -9.3988 0.0000 21.8057
#
#
#
# Elastic Compliance Matrix: (Units=1/GPa)
#
#
# Indices 1 2 3 4 5 6 
#
# 1 0.011589 0.000378 -0.002666 0.000000 -0.000160 0.000000
# 2 0.000378 0.010286 -0.002165 0.000000 0.001124 0.000000
# 3 -0.002666 -0.002165 0.015648 0.000000 0.007866 0.000000
# 4 0.000000 0.000000 0.000000 -0.743601 0.000000 -0.320511
# 5 -0.000160 0.001124 0.007866 0.000000 0.031164 0.000000
# 6 0.000000 0.000000 0.000000 -0.320511 0.000000 -0.092288
#
#
# Mechanical properties :
#
#
# Convention : Reuss Voigt Hill
#
# Bulk Modulus (GPa) = 34.94325 38.38650 36.66488
# Shear Modulus (GPa) = -6.67771 28.11304 10.71766
#
# Velocity S-wave (km/s) = -1.62824 3.34087 2.06279
# Velocity P-wave (km/s) = 3.21531 5.48835 4.49779
#
# Compressibility (1/GPa) = 0.02861783
#
# Stress axis : x y z
#
# Youngs Moduli (GPa) = 86.29163 97.21786 63.90669
#
# Poissons Ratio (x) = -0.03677 0.17036
# Poissons Ratio (y) = -0.03264 0.13835
# Poissons Ratio (z) = 0.23003 0.21047
#
# Static dielectric constant tensor:
#      x y z
#    x 2.012870 0.000000 0.033110 
#    y 0.000000 0.789870 0.000000 
#    z 0.033110 0.000000 2.086990 
# 
# From -- ./inp_files/37328.got.cif
#   From: 2010.05.17/outbox.cif.g08.bks.cpg/sg11_19_cif.got.tgz:37328.got - 2010.06.03 12:22:45.
