data_PCOD9159272
_publ_section_title
;
Structure prediction by ZEFSAII (Michael W. Deem and Ramdas Pophale) SiO2 
 PCOD9159272
Probable space group: P 21/M
;
_chemical_formula_sum "Si O2"
_cell_formula_units_Z 28
_cell_length_a 11.623841
_cell_length_b 8.080115
_cell_length_c 16.257591
_cell_angle_alpha 90.000000
_cell_angle_beta 62.372222
_cell_angle_gamma 90.000000
_cell_volume 1352.840998
_symmetry_space_group_name_H-M "P 21/M"
_symmetry_group_IT_number 11
_symmetry_cell_setting 'monoclinic'
loop_
_space_group_symop_operation_xyz
x,y,z
-x,1/2+y,-z
-x,-y,-z
x,1/2-y,z
loop_
_atom_site_type_symbol
_atom_site_label
_atom_site_fract_x
_atom_site_fract_y
_atom_site_fract_z
Si Si1 0.865364 0.949307 0.871292
Si Si2 0.414517 0.453133 0.773219
Si Si3 0.133204 0.444256 0.595672
Si Si4 0.671024 0.442486 0.603225
Si Si5 0.151101 0.448743 0.777550
Si Si6 0.599556 0.550369 0.037635
Si Si7 0.147153 0.443851 0.314335
O O1 0.863812 0.750000 0.870330
O O2 0.744090 0.007639 0.965219
O O3 0.847024 0.004083 0.782232
O O4 0.007481 0.002010 0.853835
O O5 0.417135 0.250000 0.771986
O O6 0.528946 0.507532 0.674424
O O7 0.272838 0.508145 0.790102
O O8 0.439115 0.507744 0.858636
O O9 0.101305 0.250000 0.610230
O O10 0.252399 0.469482 0.495177
O O11 0.163214 0.503742 0.678322
O O12 0.002852 0.535331 0.609395
O O13 0.660325 0.250000 0.584620
O O14 0.758558 0.461021 0.655949
O O15 0.157231 0.250000 0.775917
O O16 0.602815 0.750000 0.038807
O O17 0.500000 0.500000 0.000000
O O18 0.181701 0.250000 0.305469
#
# Coordination Sequence:
#
# PCOD9159272 Si02
#       7
#     4   4   4   4   4   4   4
#     4   9  19  34  54  80 108 137 168 213 264 301
#     4   9  20  37  55  76 105 140 174 212 256 305
#     4  10  20  34  53  76 102 134 174 217 259 307
#     4  11  21  33  51  75 104 138 175 214 260 308
#     4   9  19  37  57  76 101 137 179 213 250 309
#     4  10  20  36  57  81 110 139 170 209 256 308
#     4  10  19  33  52  76 107 137 170 212 259 310
#
# _framework density 20.697185000000001
#
# number of rings (size 3 to 8) (size 9 to 14) (size 15 to 20)
#    0.000    2.286    0.000    2.571    0.000    2.857 
#    0.000    2.857    0.000    0.000    0.000    0.000 
#    0.000    0.000    0.000    0.000    0.000    0.000 
#
# Total GULP energy -156376.940693 kJ/mol
# GULP energy per Si atom -5584.890739 kJ/mol
# Density = 2.065008 g / cm^3
# Si number density = 20.697185 Si / 1000 Ang^3
#
#
#
# Elastic Constant Matrix: (Units=GPa)
#
#
# Indices 1 2 3 4 5 6 
#
# 1 83.1412 -6.9362 3.0745 0.0000 -13.2009 0.0000
# 2 -6.9362 12.7947 -2.9762 0.0000 0.3529 0.0000
# 3 3.0745 -2.9762 48.2509 0.0000 -29.0887 0.0000
# 4 0.0000 0.0000 0.0000 9.5424 0.0000 -2.0798
# 5 -13.2009 0.3529 -29.0887 0.0000 28.8675 0.0000
# 6 0.0000 0.0000 0.0000 -2.0798 0.0000 21.8372
#
#
#
# Elastic Compliance Matrix: (Units=1/GPa)
#
#
# Indices 1 2 3 4 5 6 
#
# 1 0.015109 0.009957 0.009537 0.000000 0.016398 0.000000
# 2 0.009957 0.087026 0.017418 0.000000 0.021041 0.000000
# 3 0.009537 0.017418 0.060360 0.000000 0.064971 0.000000
# 4 0.000000 0.000000 0.000000 0.107017 0.000000 0.010193
# 5 0.016398 0.021041 0.064971 0.000000 0.107351 0.000000
# 6 0.000000 0.000000 0.000000 0.010193 0.000000 0.046764
#
#
# Mechanical properties :
#
#
# Convention : Reuss Voigt Hill
#
# Bulk Modulus (GPa) = 4.23153 14.50124 9.36639
# Shear Modulus (GPa) = 11.66650 22.11773 16.89211
#
# Velocity S-wave (km/s) = 2.37676 3.27254 2.85994
# Velocity P-wave (km/s) = 3.09531 4.61530 3.92950
#
# Compressibility (1/GPa) = 0.23632099
#
# Stress axis : x y z
#
# Youngs Moduli (GPa) = 66.18430 11.49078 16.56714
#
# Poissons Ratio (x) = -0.11441 -0.15800
# Poissons Ratio (y) = -0.65900 -0.28857
# Poissons Ratio (z) = -0.63120 -0.20015
#
# Static dielectric constant tensor:
#      x y z
#    x 1.716910 0.000000 -0.005970 
#    y 0.000000 1.739790 0.000000 
#    z -0.005970 0.000000 1.743650 
# 
# From -- ./inp_files/49183.got.cif
#   From: 2010.05.17/outbox.cif.g08.bks.cpg/sg11_25_cif.got.tgz:49183.got - 2010.06.03 12:22:45.
