data_PCOD9159893
_publ_section_title
;
Structure prediction by ZEFSAII (Michael W. Deem and Ramdas Pophale) SiO2 
 PCOD9159893
Probable space group: P 21/M
;
_chemical_formula_sum "Si O2"
_cell_formula_units_Z 28
_cell_length_a 8.032446
_cell_length_b 7.602204
_cell_length_c 27.076754
_cell_angle_alpha 90.000000
_cell_angle_beta 39.100418
_cell_angle_gamma 90.000000
_cell_volume 1042.783147
_symmetry_space_group_name_H-M "P 21/M"
_symmetry_group_IT_number 11
_symmetry_cell_setting 'monoclinic'
loop_
_space_group_symop_operation_xyz
x,y,z
-x,1/2+y,-z
-x,-y,-z
x,1/2-y,z
loop_
_atom_site_type_symbol
_atom_site_label
_atom_site_fract_x
_atom_site_fract_y
_atom_site_fract_z
Si Si1 0.419068 0.955074 0.733585
Si Si2 0.138079 0.465105 0.115259
Si Si3 0.964233 0.451428 0.305157
Si Si4 0.801713 0.539897 0.447339
Si Si5 0.466833 0.451420 0.834611
Si Si6 0.632561 0.963429 0.588404
Si Si7 0.713700 0.544717 0.023449
O O1 0.408681 0.750000 0.723287
O O2 0.630385 0.029040 0.645716
O O3 0.121753 0.026264 0.796465
O O4 0.458313 0.963887 0.782926
O O5 0.144339 0.250000 0.113917
O O6 0.411031 0.530063 0.074458
O O7 0.126585 0.525182 0.060395
O O8 0.989941 0.250000 0.283551
O O9 0.220568 0.545168 0.225145
O O10 0.968665 0.460510 0.364128
O O11 0.671316 0.508980 0.357000
O O12 0.500000 0.500000 0.500000
O O13 0.839260 0.750000 0.437548
O O14 0.813142 0.470277 0.501372
O O15 0.389272 0.250000 0.846606
O O16 0.299356 0.532650 0.918328
O O17 0.660190 0.750000 0.579110
O O18 0.776455 0.750000 0.013982
#
# Coordination Sequence:
#
# PCOD9159893 Si02
#       7
#     4   4   4   4   4   4   4
#     4  10  20  35  53  74 102 137 175 211 249 299
#     4   9  18  34  57  81 103 132 172 213 253 302
#     4  10  19  34  56  79 101 131 174 219 262 308
#     4   9  16  29  50  78 108 135 167 211 261 308
#     4  11  23  36  49  72 107 141 172 210 258 309
#     4   8  16  31  53  78 102 129 166 212 255 300
#     4   9  19  35  54  78 107 135 167 211 259 305
#
# _framework density 26.851220000000001
#
# number of rings (size 3 to 8) (size 9 to 14) (size 15 to 20)
#    0.000    2.571    0.000    3.000    0.000    3.429 
#    0.000    5.000    0.000    0.000    0.000    0.000 
#    0.000    0.000    0.000    0.000    0.000    0.000 
#
# Total GULP energy -156528.440327 kJ/mol
# GULP energy per Si atom -5590.301440 kJ/mol
# Density = 2.679011 g / cm^3
# Si number density = 26.851220 Si / 1000 Ang^3
#
#
#
# Elastic Constant Matrix: (Units=GPa)
#
#
# Indices 1 2 3 4 5 6 
#
# 1 90.0530 3.2961 31.5028 0.0000 28.8109 0.0000
# 2 3.2961 82.3096 12.2622 0.0000 -6.4511 0.0000
# 3 31.5028 12.2622 215.8840 0.0000 31.7806 0.0000
# 4 0.0000 0.0000 0.0000 16.4220 0.0000 -8.1756
# 5 28.8109 -6.4511 31.7806 0.0000 63.3302 0.0000
# 6 0.0000 0.0000 0.0000 -8.1756 0.0000 21.6546
#
#
#
# Elastic Compliance Matrix: (Units=1/GPa)
#
#
# Indices 1 2 3 4 5 6 
#
# 1 0.013299 -0.000812 -0.001071 0.000000 -0.005595 0.000000
# 2 -0.000812 0.012479 -0.000898 0.000000 0.002091 0.000000
# 3 -0.001071 -0.000898 0.005163 0.000000 -0.002195 0.000000
# 4 0.000000 0.000000 0.000000 0.074989 0.000000 0.028312
# 5 -0.005595 0.002091 -0.002195 0.000000 0.019650 0.000000
# 6 0.000000 0.000000 0.000000 0.028312 0.000000 0.056869
#
#
# Mechanical properties :
#
#
# Convention : Reuss Voigt Hill
#
# Bulk Modulus (GPa) = 39.40157 53.59653 46.49905
# Shear Modulus (GPa) = 25.44913 43.02706 34.23810
#
# Velocity S-wave (km/s) = 3.08195 4.00737 3.57473
# Velocity P-wave (km/s) = 5.23168 6.43552 5.86457
#
# Compressibility (1/GPa) = 0.02537970
#
# Stress axis : x y z
#
# Youngs Moduli (GPa) = 75.19328 80.13163 193.70340
#
# Poissons Ratio (x) = 0.06503 0.20743
# Poissons Ratio (y) = 0.06103 0.17399
# Poissons Ratio (z) = 0.08052 0.07198
#
# Static dielectric constant tensor:
#      x y z
#    x 2.260000 0.000000 0.044260 
#    y 0.000000 1.955190 0.000000 
#    z 0.044260 0.000000 2.111590 
# 
# From -- ./inp_files/61236.got.cif
#   From: 2010.05.17/outbox.cif.g08.bks.cpg/sg11_31_cif.got.tgz:61236.got - 2010.06.03 12:22:45.
