data_PCOD9159840
_publ_section_title
;
Structure prediction by ZEFSAII (Michael W. Deem and Ramdas Pophale) SiO2 
 PCOD9159840
Probable space group: P 21/M
;
_chemical_formula_sum "Si O2"
_cell_formula_units_Z 32
_cell_length_a 35.757989
_cell_length_b 8.640026
_cell_length_c 14.508606
_cell_angle_alpha 90.000000
_cell_angle_beta 23.220502
_cell_angle_gamma 90.000000
_cell_volume 1767.292404
_symmetry_space_group_name_H-M "P 21/M"
_symmetry_group_IT_number 11
_symmetry_cell_setting 'monoclinic'
loop_
_space_group_symop_operation_xyz
x,y,z
-x,1/2+y,-z
-x,-y,-z
x,1/2-y,z
loop_
_atom_site_type_symbol
_atom_site_label
_atom_site_fract_x
_atom_site_fract_y
_atom_site_fract_z
Si Si1 0.780238 0.566196 0.684678
Si Si2 0.394128 0.436012 0.435584
Si Si3 0.146620 0.935455 0.295581
Si Si4 0.606863 0.065067 0.753964
Si Si5 0.027950 0.936008 0.837214
Si Si6 0.213875 0.437430 0.948391
Si Si7 0.385794 0.936900 0.058759
Si Si8 0.056466 0.062499 0.161586
O O1 0.790107 0.750000 0.660156
O O2 0.789370 0.505799 0.768286
O O3 0.867676 0.491030 0.430240
O O4 0.682530 0.514148 0.859681
O O5 0.395880 0.250000 0.426204
O O6 0.353687 0.496103 0.429579
O O7 0.321596 0.482171 0.679714
O O8 0.503569 0.485796 0.200104
O O9 0.151957 0.750000 0.287007
O O10 0.038799 0.980847 0.566649
O O11 0.176583 0.994791 0.128094
O O12 0.604270 0.250000 0.753612
O O13 0.648963 0.023729 0.758384
O O14 0.500000 0.000000 0.000000
O O15 0.027008 0.750000 0.842218
O O16 0.958590 0.988308 0.910164
O O17 0.000000 0.000000 0.000000
O O18 0.209325 0.250000 0.963872
O O19 0.146621 0.489253 0.016060
O O20 0.382404 0.750000 0.057319
O O21 0.059873 0.250000 0.151199
#
# Coordination Sequence:
#
# PCOD9159840 Si02
#       8
#     4   4   4   4   4   4   4   4
#     4  11  22  36  56  79 100 136 184 224 263 312
#     4   9  19  33  51  77 110 141 172 215 265 310
#     4  10  20  36  55  77 105 136 169 215 269 320
#     4   9  17  30  50  73 101 135 171 210 256 307
#     4  10  20  36  55  81 116 148 176 213 259 308
#     4  10  19  34  55  79 105 135 172 216 260 311
#     4   9  18  34  52  74 105 141 176 216 264 313
#     4   8  17  33  54  78 106 138 172 209 255 309
#
# _framework density 18.106795999999999
#
# number of rings (size 3 to 8) (size 9 to 14) (size 15 to 20)
#    0.000    2.500    0.000    4.125    0.000    4.000 
#    0.000    5.000    0.000    0.000    0.000    0.000 
#    0.000    0.000    0.000    0.000    0.000    0.000 
#
# Total GULP energy -178429.939259 kJ/mol
# GULP energy per Si atom -5575.935602 kJ/mol
# Density = 1.806558 g / cm^3
# Si number density = 18.106796 Si / 1000 Ang^3
#
#
#
# Elastic Constant Matrix: (Units=GPa)
#
#
# Indices 1 2 3 4 5 6 
#
# 1 137.0246 33.1036 72.3593 0.0000 4.7501 0.0000
# 2 33.1036 36.7373 25.2732 0.0000 1.7892 0.0000
# 3 72.3593 25.2732 78.9913 0.0000 16.9807 0.0000
# 4 0.0000 0.0000 0.0000 22.5020 0.0000 7.3504
# 5 4.7501 1.7892 16.9807 0.0000 29.7122 0.0000
# 6 0.0000 0.0000 0.0000 7.3504 0.0000 28.8928
#
#
#
# Elastic Compliance Matrix: (Units=1/GPa)
#
#
# Indices 1 2 3 4 5 6 
#
# 1 0.015692 -0.004707 -0.014125 0.000000 0.005847 0.000000
# 2 -0.004707 0.036946 -0.008200 0.000000 0.003214 0.000000
# 3 -0.014125 -0.008200 0.031501 0.000000 -0.015251 0.000000
# 4 0.000000 0.000000 0.000000 0.048468 0.000000 -0.012330
# 5 0.005847 0.003214 -0.015251 0.000000 0.041244 0.000000
# 6 0.000000 0.000000 0.000000 -0.012330 0.000000 0.037748
#
#
# Mechanical properties :
#
#
# Convention : Reuss Voigt Hill
#
# Bulk Modulus (GPa) = 33.25083 57.13615 45.19349
# Shear Modulus (GPa) = 18.13645 24.35586 21.24616
#
# Velocity S-wave (km/s) = 3.16830 3.67157 3.42918
# Velocity P-wave (km/s) = 5.63806 7.04255 6.37908
#
# Compressibility (1/GPa) = 0.03007444
#
# Stress axis : x y z
#
# Youngs Moduli (GPa) = 63.72860 27.06627 31.74507
#
# Poissons Ratio (x) = 0.12740 0.44840
# Poissons Ratio (y) = 0.29997 0.26031
# Poissons Ratio (z) = 0.90018 0.22195
#
# Static dielectric constant tensor:
#      x y z
#    x 1.623590 0.000000 -0.001900 
#    y 0.000000 1.610520 0.000000 
#    z -0.001900 0.000000 1.616390 
# 
# From -- ./inp_files/45182.got.cif
#   From: 2010.05.17/outbox.cif.g08.bks.cpg/sg11_23_cif.got.tgz:45182.got - 2010.06.03 12:22:45.
