data_PCOD9159718
_publ_section_title
;
Structure prediction by ZEFSAII (Michael W. Deem and Ramdas Pophale) SiO2 
 PCOD9159718
Probable space group: P 21/M
;
_chemical_formula_sum "Si O2"
_cell_formula_units_Z 28
_cell_length_a 9.479276
_cell_length_b 13.824249
_cell_length_c 13.418059
_cell_angle_alpha 90.000000
_cell_angle_beta 137.795300
_cell_angle_gamma 90.000000
_cell_volume 1181.229704
_symmetry_space_group_name_H-M "P 21/M"
_symmetry_group_IT_number 11
_symmetry_cell_setting 'monoclinic'
loop_
_space_group_symop_operation_xyz
x,y,z
-x,1/2+y,-z
-x,-y,-z
x,1/2-y,z
loop_
_atom_site_type_symbol
_atom_site_label
_atom_site_fract_x
_atom_site_fract_y
_atom_site_fract_z
Si Si1 0.914521 0.632659 0.831115
Si Si2 0.505590 0.467291 0.310000
Si Si3 0.769282 0.365910 0.825991
Si Si4 0.057633 0.632055 0.464025
Si Si5 0.079497 0.359041 0.814756
Si Si6 0.009499 0.640241 0.660477
Si Si7 0.523215 0.080901 0.094614
O O1 0.910356 0.750000 0.828289
O O2 0.698358 0.593385 0.763404
O O3 0.933187 0.597871 0.725961
O O4 0.111115 0.607616 0.007351
O O5 0.446813 0.577153 0.307158
O O6 0.717882 0.412674 0.450591
O O7 0.522436 0.467988 0.200704
O O8 0.742051 0.250000 0.811548
O O9 0.927281 0.398694 0.820417
O O10 0.075910 0.750000 0.483067
O O11 0.976890 0.599413 0.531352
O O12 0.915600 0.602060 0.295616
O O13 0.000441 0.250000 0.760420
O O14 0.313018 0.357473 0.977986
O O15 0.928994 0.750000 0.615741
O O16 0.262204 0.638864 0.804048
O O17 0.500000 0.000000 0.000000
#
# Coordination Sequence:
#
# PCOD9159718 Si02
#       7
#     4   4   4   4   4   4   4
#     4  10  19  33  60  93 123 155 198 254 305 357
#     4  11  21  36  62  91 121 160 202 254 298 362
#     4  10  21  35  58  89 119 156 202 254 309 355
#     4   9  20  39  62  89 122 163 205 242 295 364
#     4  10  21  39  62  87 122 161 199 247 301 361
#     4   9  19  35  57  86 120 157 200 246 292 355
#     4  11  22  35  60  90 115 154 202 251 302 358
#
# _framework density 23.70411
#
# number of rings (size 3 to 8) (size 9 to 14) (size 15 to 20)
#    0.000    2.000    1.429    2.143    2.000    1.714 
#    0.000    3.571    6.286    0.000    0.000    1.000 
#    0.000    0.000    0.000    0.000    0.000    0.000 
#
# Total GULP energy -156404.244671 kJ/mol
# GULP energy per Si atom -5585.865881 kJ/mol
# Density = 2.365016 g / cm^3
# Si number density = 23.704110 Si / 1000 Ang^3
#
#
#
# Elastic Constant Matrix: (Units=GPa)
#
#
# Indices 1 2 3 4 5 6 
#
# 1 93.6053 15.4770 5.6717 0.0000 -18.4758 0.0000
# 2 15.4770 86.3594 6.4572 0.0000 -6.3538 0.0000
# 3 5.6717 6.4572 61.9576 0.0000 -21.3251 0.0000
# 4 0.0000 0.0000 0.0000 21.8270 0.0000 4.2110
# 5 -18.4758 -6.3538 -21.3251 0.0000 38.6802 0.0000
# 6 0.0000 0.0000 0.0000 4.2110 0.0000 24.7613
#
#
#
# Elastic Compliance Matrix: (Units=1/GPa)
#
#
# Indices 1 2 3 4 5 6 
#
# 1 0.012125 -0.001810 0.001197 0.000000 0.006154 0.000000
# 2 -0.001810 0.012015 -0.000870 0.000000 0.000630 0.000000
# 3 0.001197 -0.000870 0.020079 0.000000 0.011499 0.000000
# 4 0.000000 0.000000 0.000000 0.047369 0.000000 -0.008056
# 5 0.006154 0.000630 0.011499 0.000000 0.035235 0.000000
# 6 0.000000 0.000000 0.000000 -0.008056 0.000000 0.041756
#
#
# Mechanical properties :
#
#
# Convention : Reuss Voigt Hill
#
# Bulk Modulus (GPa) = 24.24049 33.01491 28.62770
# Shear Modulus (GPa) = 26.98403 31.34146 29.16275
#
# Velocity S-wave (km/s) = 3.37763 3.64015 3.51134
# Velocity P-wave (km/s) = 5.04576 5.62367 5.34254
#
# Compressibility (1/GPa) = 0.04125329
#
# Stress axis : x y z
#
# Youngs Moduli (GPa) = 82.47761 83.22786 49.80360
#
# Poissons Ratio (x) = 0.15061 -0.05961
# Poissons Ratio (y) = 0.14925 0.04332
# Poissons Ratio (z) = -0.09871 0.07239
#
# Static dielectric constant tensor:
#      x y z
#    x 1.885260 0.000000 -0.005190 
#    y 0.000000 1.984090 0.000000 
#    z -0.005190 0.000000 1.921210 
# 
# From -- ./inp_files/31961.got.cif
#   From: 2010.05.17/outbox.cif.g08.bks.cpg/sg11_16_cif.got.tgz:31961.got - 2010.06.03 12:22:45.
