data_PCOD9159723
_publ_section_title
;
Structure prediction by ZEFSAII (Michael W. Deem and Ramdas Pophale) SiO2 
 PCOD9159723
Probable space group: P 21/M
;
_chemical_formula_sum "Si O2"
_cell_formula_units_Z 20
_cell_length_a 10.405818
_cell_length_b 7.698703
_cell_length_c 21.068894
_cell_angle_alpha 90.000000
_cell_angle_beta 135.242682
_cell_angle_gamma 90.000000
_cell_volume 1188.428945
_symmetry_space_group_name_H-M "P 21/M"
_symmetry_group_IT_number 11
_symmetry_cell_setting 'monoclinic'
loop_
_space_group_symop_operation_xyz
x,y,z
-x,1/2+y,-z
-x,-y,-z
x,1/2-y,z
loop_
_atom_site_type_symbol
_atom_site_label
_atom_site_fract_x
_atom_site_fract_y
_atom_site_fract_z
Si Si1 0.198393 0.046972 0.905821
Si Si2 0.937959 0.750000 0.636013
Si Si3 0.081828 0.250000 0.218303
Si Si4 0.522700 0.953187 0.113023
Si Si5 0.361865 0.750000 0.752453
Si Si6 0.608477 0.944070 0.474957
Si Si7 0.490037 0.750000 0.653447
O O1 0.150043 0.250000 0.891956
O O2 0.317827 0.018038 0.883594
O O3 0.028006 0.918728 0.843944
O O4 0.335224 0.999925 0.011115
O O5 0.925046 0.750000 0.707453
O O6 0.819736 0.912939 0.568412
O O7 0.143989 0.750000 0.685665
O O8 0.290438 0.250000 0.270235
O O9 0.522799 0.750000 0.130091
O O10 0.559025 0.081618 0.183565
O O11 0.414732 0.750000 0.697804
O O12 0.543899 0.750000 0.433678
O O13 0.500000 0.000000 0.500000
O O14 0.576992 0.082906 0.409631
#
# Coordination Sequence:
#
# PCOD9159723 Si02
#       7
#     4   2   2   4   2   4   2
#     4  10  19  33  62  94 118 157 203 253 293 333
#     4  10  22  40  66  90 120 151 208 255 283 378
#     4  12  20  38  60  98 112 153 220 245 273 376
#     4  10  19  35  61  90 124 161 195 248 300 345
#     4  12  24  42  58  92 129 157 202 246 303 361
#     4  10  20  41  66  90 116 152 198 252 309 348
#     4  12  26  42  64  86 125 163 192 260 311 351
#
# _framework density 16.828941
#
# number of rings (size 3 to 8) (size 9 to 14) (size 15 to 20)
#    0.600    0.800    7.000    0.000    0.000    2.400 
#    3.600    1.000    0.000    0.000    0.000    0.000 
#    0.000    0.000    0.000    0.000    0.000    0.000 
#
# Total GULP energy -111570.314239 kJ/mol
# GULP energy per Si atom -5578.515712 kJ/mol
# Density = 1.679064 g / cm^3
# Si number density = 16.828941 Si / 1000 Ang^3
#
#
#
# Elastic Constant Matrix: (Units=GPa)
#
#
# Indices 1 2 3 4 5 6 
#
# 1 115.7685 51.3614 66.9334 0.0000 -13.5124 0.0000
# 2 51.3614 135.3902 64.5584 0.0000 -15.9919 0.0000
# 3 66.9334 64.5584 115.6332 0.0000 -0.9077 0.0000
# 4 0.0000 0.0000 0.0000 48.1842 0.0000 -4.7066
# 5 -13.5124 -15.9919 -0.9077 0.0000 29.4934 0.0000
# 6 0.0000 0.0000 0.0000 -4.7066 0.0000 15.2949
#
#
#
# Elastic Compliance Matrix: (Units=1/GPa)
#
#
# Indices 1 2 3 4 5 6 
#
# 1 0.014136 -0.001111 -0.007518 0.000000 0.005642 0.000000
# 2 -0.001111 0.011051 -0.005484 0.000000 0.005314 0.000000
# 3 -0.007518 -0.005484 0.016015 0.000000 -0.005925 0.000000
# 4 0.000000 0.000000 0.000000 0.021397 0.000000 0.006584
# 5 0.005642 0.005314 -0.005925 0.000000 0.039190 0.000000
# 6 0.000000 0.000000 0.000000 0.006584 0.000000 0.067408
#
#
# Mechanical properties :
#
#
# Convention : Reuss Voigt Hill
#
# Bulk Modulus (GPa) = 77.07501 81.38869 79.23185
# Shear Modulus (GPa) = 24.78337 30.85709 27.82023
#
# Velocity S-wave (km/s) = 3.84169 4.28667 4.07027
# Velocity P-wave (km/s) = 8.09794 8.54213 8.32300
#
# Compressibility (1/GPa) = 0.01297437
#
# Stress axis : x y z
#
# Youngs Moduli (GPa) = 70.74075 90.49338 62.44102
#
# Poissons Ratio (x) = 0.10058 0.46942
# Poissons Ratio (y) = 0.07863 0.34246
# Poissons Ratio (z) = 0.53181 0.49631
#
# Static dielectric constant tensor:
#      x y z
#    x 1.531310 0.000000 0.007010 
#    y 0.000000 1.571000 0.000000 
#    z 0.007010 0.000000 1.560490 
# 
# From -- ./inp_files/63340.got.cif
#   From: 2010.05.17/outbox.cif.g08.bks.cpg/sg11_32_cif.got.tgz:63340.got - 2010.06.03 12:22:45.
