data_PCOD9159899
_publ_section_title
;
Structure prediction by ZEFSAII (Michael W. Deem and Ramdas Pophale) SiO2 
 PCOD9159899
Probable space group: P 21/M
;
_chemical_formula_sum "Si O2"
_cell_formula_units_Z 32
_cell_length_a 12.334929
_cell_length_b 8.027321
_cell_length_c 31.904382
_cell_angle_alpha 90.000000
_cell_angle_beta 150.434318
_cell_angle_gamma 90.000000
_cell_volume 1558.745581
_symmetry_space_group_name_H-M "P 21/M"
_symmetry_group_IT_number 11
_symmetry_cell_setting 'monoclinic'
loop_
_space_group_symop_operation_xyz
x,y,z
-x,1/2+y,-z
-x,-y,-z
x,1/2-y,z
loop_
_atom_site_type_symbol
_atom_site_label
_atom_site_fract_x
_atom_site_fract_y
_atom_site_fract_z
Si Si1 0.918795 0.061385 0.928157
Si Si2 0.302060 0.556165 0.999656
Si Si3 0.231387 0.557435 0.814259
Si Si4 0.944767 0.552100 0.160166
Si Si5 0.647773 0.046275 0.762525
Si Si6 0.751789 0.951227 0.426758
Si Si7 0.836042 0.951200 0.630061
Si Si8 0.593462 0.548856 0.465187
O O1 0.850217 0.250000 0.912155
O O2 0.726712 0.982408 0.834647
O O3 0.000000 0.000000 0.000000
O O4 0.132019 0.047532 0.970398
O O5 0.239879 0.750000 0.979994
O O6 0.544961 0.535524 0.099312
O O7 0.260719 0.489189 0.939055
O O8 0.286986 0.750000 0.824692
O O9 0.083916 0.543645 0.806418
O O10 0.075958 0.489603 0.725149
O O11 0.952149 0.750000 0.170904
O O12 0.161732 0.504317 0.207047
O O13 0.647244 0.250000 0.764344
O O14 0.416928 0.990371 0.666031
O O15 0.739999 0.750000 0.423613
O O16 0.667407 0.010454 0.444158
O O17 0.000000 0.000000 0.500000
O O18 0.844495 0.750000 0.632241
O O19 0.753589 0.009342 0.556753
O O20 0.649724 0.000363 0.601136
O O21 0.600503 0.750000 0.466731
#
# Coordination Sequence:
#
# PCOD9159899 Si02
#       8
#     4   4   4   4   4   4   4   4
#     4  10  20  38  60  81 107 142 184 230 276 327
#     4  11  22  36  53  77 109 143 181 222 269 328
#     4  11  21  33  49  76 113 147 178 219 270 324
#     4  10  19  34  56  79 105 141 182 225 273 325
#     4   8  17  34  56  79 105 138 178 223 272 326
#     4  10  20  36  56  80 111 144 181 228 279 329
#     4   9  19  34  54  80 109 142 181 227 275 330
#     4   9  18  35  57  78 106 142 182 226 278 335
#
# _framework density 20.529329000000001
#
# number of rings (size 3 to 8) (size 9 to 14) (size 15 to 20)
#    0.000    2.250    0.000    4.125    0.000    2.500 
#    2.250    3.750    0.000    0.000    0.000    0.000 
#    0.000    0.000    0.000    0.000    0.000    0.000 
#
# Total GULP energy -178531.729855 kJ/mol
# GULP energy per Si atom -5579.116558 kJ/mol
# Density = 2.048260 g / cm^3
# Si number density = 20.529329 Si / 1000 Ang^3
#
#
#
# Elastic Constant Matrix: (Units=GPa)
#
#
# Indices 1 2 3 4 5 6 
#
# 1 64.3607 4.0473 24.9385 0.0000 -14.1540 0.0000
# 2 4.0473 30.4700 -21.5681 0.0000 3.8117 0.0000
# 3 24.9385 -21.5681 235.4114 0.0000 -20.6238 0.0000
# 4 0.0000 0.0000 0.0000 20.1153 0.0000 3.2041
# 5 -14.1540 3.8117 -20.6238 0.0000 29.0982 0.0000
# 6 0.0000 0.0000 0.0000 3.2041 0.0000 24.5855
#
#
#
# Elastic Compliance Matrix: (Units=1/GPa)
#
#
# Indices 1 2 3 4 5 6 
#
# 1 0.018297 -0.004629 -0.001631 0.000000 0.008351 0.000000
# 2 -0.004629 0.036434 0.003426 0.000000 -0.004596 0.000000
# 3 -0.001631 0.003426 0.004932 0.000000 0.002254 0.000000
# 4 0.000000 0.000000 0.000000 0.050767 0.000000 -0.006616
# 5 0.008351 -0.004596 0.002254 0.000000 0.040628 0.000000
# 6 0.000000 0.000000 0.000000 -0.006616 0.000000 0.041537
#
#
# Mechanical properties :
#
#
# Convention : Reuss Voigt Hill
#
# Bulk Modulus (GPa) = 18.52064 38.34196 28.43130
# Shear Modulus (GPa) = 23.12015 36.28140 29.70077
#
# Velocity S-wave (km/s) = 3.35953 4.20848 3.80774
# Velocity P-wave (km/s) = 4.90813 6.50633 5.76290
#
# Compressibility (1/GPa) = 0.05399382
#
# Stress axis : x y z
#
# Youngs Moduli (GPa) = 54.65401 27.44691 202.75985
#
# Poissons Ratio (x) = 0.12706 0.33067
# Poissons Ratio (y) = 0.25302 -0.69461
# Poissons Ratio (z) = 0.08913 -0.09403
#
# Static dielectric constant tensor:
#      x y z
#    x 1.721870 0.000000 -0.035790 
#    y 0.000000 1.730690 0.000000 
#    z -0.035790 0.000000 1.782220 
# 
# From -- ./inp_files/73179.got.cif
#   From: 2010.05.17/outbox.cif.g08.bks.cpg/sg11_37_cif.got.tgz:73179.got - 2010.06.03 12:22:45.
