data_PCOD9159638
_publ_section_title
;
Structure prediction by ZEFSAII (Michael W. Deem and Ramdas Pophale) SiO2 
 PCOD9159638
Probable space group: P 21/M
;
_chemical_formula_sum "Si O2"
_cell_formula_units_Z 28
_cell_length_a 11.224826
_cell_length_b 13.872014
_cell_length_c 9.428106
_cell_angle_alpha 90.000000
_cell_angle_beta 64.241080
_cell_angle_gamma 90.000000
_cell_volume 1322.179099
_symmetry_space_group_name_H-M "P 21/M"
_symmetry_group_IT_number 11
_symmetry_cell_setting 'monoclinic'
loop_
_space_group_symop_operation_xyz
x,y,z
-x,1/2+y,-z
-x,-y,-z
x,1/2-y,z
loop_
_atom_site_type_symbol
_atom_site_label
_atom_site_fract_x
_atom_site_fract_y
_atom_site_fract_z
Si Si1 0.025701 0.007372 0.822338
Si Si2 0.146877 0.865286 0.283355
Si Si3 0.528171 0.638621 0.464480
Si Si4 0.950866 0.865656 0.630384
Si Si5 0.382640 0.632470 0.975693
Si Si6 0.318024 0.529770 0.722150
Si Si7 0.655916 0.634831 0.709401
O O1 0.182654 0.009835 0.730657
O O2 0.973914 0.912770 0.769719
O O3 0.950384 0.095291 0.788195
O O4 0.000000 0.000000 0.000000
O O5 0.145792 0.750000 0.285761
O O6 0.072004 0.896361 0.465488
O O7 0.296441 0.893015 0.159627
O O8 0.539551 0.750000 0.418641
O O9 0.380229 0.607575 0.581953
O O10 0.584819 0.562423 0.324200
O O11 0.604663 0.621231 0.574946
O O12 0.950776 0.750000 0.635439
O O13 0.805388 0.900119 0.654302
O O14 0.377391 0.750000 0.961915
O O15 0.311942 0.581544 0.877523
O O16 0.537170 0.603582 0.877111
O O17 0.663968 0.750000 0.724505
#
# Coordination Sequence:
#
# PCOD9159638 Si02
#       7
#     4   4   4   4   4   4   4
#     4  12  24  38  59  90 130 161 200 247 305 371
#     4  10  21  39  61  87 119 164 214 255 304 364
#     4   9  18  33  58  86 116 158 206 254 302 364
#     4  10  22  39  62  90 120 158 205 256 310 363
#     4   9  17  33  60  87 116 156 208 258 302 357
#     4  10  19  33  56  86 121 156 201 245 305 372
#     4   8  15  32  57  84 111 149 203 255 302 351
#
# _framework density 21.177160000000001
#
# number of rings (size 3 to 8) (size 9 to 14) (size 15 to 20)
#    0.000    2.286    1.429    2.571    0.000    3.429 
#    0.000    0.714    6.286    0.000    0.000    0.000 
#    0.000    0.000    0.000    0.000    0.000    0.000 
#
# Total GULP energy -156188.464450 kJ/mol
# GULP energy per Si atom -5578.159445 kJ/mol
# Density = 2.112896 g / cm^3
# Si number density = 21.177160 Si / 1000 Ang^3
#
#
#
# Elastic Constant Matrix: (Units=GPa)
#
#
# Indices 1 2 3 4 5 6 
#
# 1 37.7051 9.5476 56.5318 0.0000 -31.4949 0.0000
# 2 9.5476 79.5296 35.0129 0.0000 -14.3362 0.0000
# 3 56.5318 35.0129 102.9192 0.0000 -14.5996 0.0000
# 4 0.0000 0.0000 0.0000 23.5988 0.0000 -3.8351
# 5 -31.4949 -14.3362 -14.5996 0.0000 27.8657 0.0000
# 6 0.0000 0.0000 0.0000 -3.8351 0.0000 29.5777
#
#
#
# Elastic Compliance Matrix: (Units=1/GPa)
#
#
# Indices 1 2 3 4 5 6 
#
# 1 -0.050310 -0.014268 0.025258 0.000000 -0.050970 0.000000
# 2 -0.014268 0.011526 0.002668 0.000000 -0.008799 0.000000
# 3 0.025258 0.002668 -0.000887 0.000000 0.029456 0.000000
# 4 0.000000 0.000000 0.000000 0.043287 0.000000 0.005613
# 5 -0.050970 -0.008799 0.029456 0.000000 -0.010816 0.000000
# 6 0.000000 0.000000 0.000000 0.005613 0.000000 0.034537
#
#
# Mechanical properties :
#
#
# Convention : Reuss Voigt Hill
#
# Bulk Modulus (GPa) = -80.94125 46.92651 -17.00737
# Shear Modulus (GPa) = -1220.60435 24.14588 -598.22924
#
# Velocity S-wave (km/s) = -24.03391 3.38033 -16.82561
# Velocity P-wave (km/s) = 28.43371 6.11904 19.63458
#
# Compressibility (1/GPa) = -0.01235464
#
# Stress axis : x y z
#
# Youngs Moduli (GPa) = -19.87668 86.75862 -1127.76399
#
# Poissons Ratio (x) = 1.23788 28.48532
# Poissons Ratio (y) = -0.28360 3.00875
# Poissons Ratio (z) = 0.50205 -0.23146
#
# Static dielectric constant tensor:
#      x y z
#    x 1.812220 0.000000 -0.052950 
#    y 0.000000 1.779350 0.000000 
#    z -0.052950 0.000000 1.814570 
# 
# From -- ./inp_files/17911.got.cif
#   From: 2010.05.17/outbox.cif.g08.bks.cpg/sg11_9_cif.got.tgz:17911.got - 2010.06.03 12:22:45.
