data_PCOD9159192
_publ_section_title
;
Structure prediction by ZEFSAII (Michael W. Deem and Ramdas Pophale) SiO2 
 PCOD9159192
Probable space group: P 21/M
;
_chemical_formula_sum "Si O2"
_cell_formula_units_Z 32
_cell_length_a 9.677510
_cell_length_b 18.620891
_cell_length_c 14.492299
_cell_angle_alpha 90.000000
_cell_angle_beta 146.480025
_cell_angle_gamma 90.000000
_cell_volume 1442.180221
_symmetry_space_group_name_H-M "P 21/M"
_symmetry_group_IT_number 11
_symmetry_cell_setting 'monoclinic'
loop_
_space_group_symop_operation_xyz
x,y,z
-x,1/2+y,-z
-x,-y,-z
x,1/2-y,z
loop_
_atom_site_type_symbol
_atom_site_label
_atom_site_fract_x
_atom_site_fract_y
_atom_site_fract_z
Si Si1 0.119785 0.578831 0.559569
Si Si2 0.513462 0.584520 0.032102
Si Si3 0.214517 0.170064 0.268324
Si Si4 0.025196 0.098975 0.334332
Si Si5 0.060427 0.574091 0.318848
Si Si6 0.220737 0.916922 0.209436
Si Si7 0.633543 0.169143 0.877766
Si Si8 0.340275 0.436343 0.180793
O O1 0.965239 0.618807 0.552856
O O2 0.415610 0.572079 0.746180
O O3 0.000000 0.500000 0.500000
O O4 0.113730 0.603191 0.450752
O O5 0.783612 0.604765 0.144270
O O6 0.501014 0.608886 0.133172
O O7 0.500000 0.500000 0.000000
O O8 0.261301 0.617800 0.851596
O O9 0.313905 0.250000 0.322457
O O10 0.342591 0.121735 0.263193
O O11 0.208677 0.138377 0.367432
O O12 0.921987 0.169992 0.074106
O O13 0.053608 0.013242 0.328900
O O14 0.230017 0.589324 0.324691
O O15 0.335639 0.854017 0.211380
O O16 0.349712 0.988191 0.240155
O O17 0.924864 0.929151 0.019153
O O18 0.532421 0.250000 0.833366
#
# Coordination Sequence:
#
# PCOD9159192 Si02
#       8
#     4   4   4   4   4   4   4   4
#     4  10  22  34  51  79 118 145 180 236 281 326
#     4   9  18  30  58  81 109 143 185 233 272 329
#     4   9  17  34  57  81 111 142 182 238 288 328
#     4   9  17  33  51  81 109 139 184 229 276 329
#     4  10  19  33  49  85 108 144 183 227 279 321
#     4  10  20  32  59  84 111 143 184 238 282 326
#     4   9  19  34  54  86 116 144 183 230 284 336
#     4  10  20  34  55  87 110 141 188 237 275 335
#
# _framework density 22.188628000000001
#
# number of rings (size 3 to 8) (size 9 to 14) (size 15 to 20)
#    0.000    2.500    1.250    0.750   10.500    0.500 
#    0.000    1.250    0.000   10.500    0.000    0.000 
#    0.000    0.000    0.000    0.000    0.000    0.000 
#
# Total GULP energy -178497.404506 kJ/mol
# GULP energy per Si atom -5578.043891 kJ/mol
# Density = 2.213813 g / cm^3
# Si number density = 22.188628 Si / 1000 Ang^3
#
#
#
# Elastic Constant Matrix: (Units=GPa)
#
#
# Indices 1 2 3 4 5 6 
#
# 1 168.1241 45.6122 29.4171 0.0000 -28.8272 0.0000
# 2 45.6122 66.2822 6.7038 0.0000 -4.4321 0.0000
# 3 29.4171 6.7038 51.5854 0.0000 -3.7663 0.0000
# 4 0.0000 0.0000 0.0000 3.6841 0.0000 -3.9225
# 5 -28.8272 -4.4321 -3.7663 0.0000 48.1329 0.0000
# 6 0.0000 0.0000 0.0000 -3.9225 0.0000 19.1710
#
#
#
# Elastic Compliance Matrix: (Units=1/GPa)
#
#
# Indices 1 2 3 4 5 6 
#
# 1 0.008897 -0.005412 -0.004041 0.000000 0.004514 0.000000
# 2 -0.005412 0.018656 0.000554 0.000000 -0.001480 0.000000
# 3 -0.004041 0.000554 0.021568 0.000000 -0.000681 0.000000
# 4 0.000000 0.000000 0.000000 0.347038 0.000000 0.071005
# 5 0.004514 -0.001480 -0.000681 0.000000 0.023290 0.000000
# 6 0.000000 0.000000 0.000000 0.071005 0.000000 0.066690
#
#
# Mechanical properties :
#
#
# Convention : Reuss Voigt Hill
#
# Bulk Modulus (GPa) = 31.92527 49.93978 40.93253
# Shear Modulus (GPa) = 9.72046 27.81484 18.76765
#
# Velocity S-wave (km/s) = 2.09531 3.54441 2.91146
# Velocity P-wave (km/s) = 4.50257 6.26947 5.45799
#
# Compressibility (1/GPa) = 0.03132315
#
# Stress axis : x y z
#
# Youngs Moduli (GPa) = 112.39258 53.60081 46.36508
#
# Poissons Ratio (x) = 0.29010 0.18736
# Poissons Ratio (y) = 0.60829 -0.02568
# Poissons Ratio (z) = 0.45417 -0.02968
#
# Static dielectric constant tensor:
#      x y z
#    x 1.735550 0.000000 0.005640 
#    y 0.000000 1.786010 0.000000 
#    z 0.005640 0.000000 1.943900 
# 
# From -- ./inp_files/48269.got.cif
#   From: 2010.05.17/outbox.cif.g08.bks.cpg/sg11_25_cif.got.tgz:48269.got - 2010.06.03 12:22:45.
