data_PCOD9159629
_publ_section_title
;
Structure prediction by ZEFSAII (Michael W. Deem and Ramdas Pophale) SiO2 
 PCOD9159629
Probable space group: P 21/M
;
_chemical_formula_sum "Si O2"
_cell_formula_units_Z 32
_cell_length_a 21.034332
_cell_length_b 8.994349
_cell_length_c 27.136977
_cell_angle_alpha 90.000000
_cell_angle_beta 160.112833
_cell_angle_gamma 90.000000
_cell_volume 1746.443660
_symmetry_space_group_name_H-M "P 21/M"
_symmetry_group_IT_number 11
_symmetry_cell_setting 'monoclinic'
loop_
_space_group_symop_operation_xyz
x,y,z
-x,1/2+y,-z
-x,-y,-z
x,1/2-y,z
loop_
_atom_site_type_symbol
_atom_site_label
_atom_site_fract_x
_atom_site_fract_y
_atom_site_fract_z
Si Si1 0.140722 0.925152 0.849404
Si Si2 0.836229 0.927885 0.027565
Si Si3 0.207798 0.427001 0.267575
Si Si4 0.471298 0.074679 0.926322
Si Si5 0.236240 0.428594 0.480188
Si Si6 0.203450 0.928665 0.653232
Si Si7 0.462276 0.071968 0.548153
Si Si8 0.411510 0.571488 0.703162
O O1 0.112966 0.750000 0.841900
O O2 0.970212 0.969030 0.689525
O O3 0.140693 0.018031 0.899361
O O4 0.336759 0.941002 0.964557
O O5 0.847849 0.750000 0.033771
O O6 0.628765 0.974969 0.859520
O O7 0.004884 0.999558 0.120014
O O8 0.192960 0.250000 0.252819
O O9 0.347869 0.490867 0.328709
O O10 0.309273 0.461888 0.394019
O O11 0.431069 0.250000 0.902130
O O12 0.309312 0.994233 0.777587
O O13 0.500000 0.000000 0.000000
O O14 0.241352 0.250000 0.489159
O O15 0.378631 0.470310 0.539968
O O16 0.295087 0.501700 0.573986
O O17 0.191375 0.750000 0.647753
O O18 0.323764 0.967866 0.692184
O O19 0.000000 0.000000 0.500000
O O20 0.490765 0.250000 0.567965
O O21 0.405441 0.750000 0.694816
#
# Coordination Sequence:
#
# PCOD9159629 Si02
#       8
#     4   4   4   4   4   4   4   4
#     4  10  21  39  61  88 118 151 197 247 294 348
#     4  11  21  37  60  86 116 155 197 243 294 344
#     4  10  19  33  56  85 118 152 193 242 291 350
#     4  11  24  41  64  93 125 160 199 249 302 357
#     4  10  21  38  60  87 119 154 194 244 295 349
#     4  11  24  44  64  88 122 161 204 249 301 361
#     4   9  18  34  54  83 119 150 188 241 294 348
#     4  10  24  42  59  85 120 155 196 244 292 352
#
# _framework density 18.322949999999999
#
# number of rings (size 3 to 8) (size 9 to 14) (size 15 to 20)
#    0.000    1.750    2.500    1.500    1.750    4.000 
#    0.000    0.625    0.000    0.000    0.000    0.000 
#    0.000    0.000    0.000    0.000    0.000    0.000 
#
# Total GULP energy -178784.039035 kJ/mol
# GULP energy per Si atom -5587.001220 kJ/mol
# Density = 1.828125 g / cm^3
# Si number density = 18.322950 Si / 1000 Ang^3
#
#
#
# Elastic Constant Matrix: (Units=GPa)
#
#
# Indices 1 2 3 4 5 6 
#
# 1 55.0517 30.7440 38.7391 0.0000 -8.4970 0.0000
# 2 30.7440 46.6311 44.9004 0.0000 5.1128 0.0000
# 3 38.7391 44.9004 136.3569 0.0000 -2.3119 0.0000
# 4 0.0000 0.0000 0.0000 31.8441 0.0000 -2.9713
# 5 -8.4970 5.1128 -2.3119 0.0000 33.4113 0.0000
# 6 0.0000 0.0000 0.0000 -2.9713 0.0000 28.7773
#
#
#
# Elastic Compliance Matrix: (Units=1/GPa)
#
#
# Indices 1 2 3 4 5 6 
#
# 1 0.033300 -0.020932 -0.002373 0.000000 0.011508 0.000000
# 2 -0.020932 0.045612 -0.009292 0.000000 -0.012946 0.000000
# 3 -0.002373 -0.009292 0.011095 0.000000 0.001586 0.000000
# 4 0.000000 0.000000 0.000000 0.031708 0.000000 0.003274
# 5 0.011508 -0.012946 0.001586 0.000000 0.034947 0.000000
# 6 0.000000 0.000000 0.000000 0.003274 0.000000 0.035088
#
#
# Mechanical properties :
#
#
# Convention : Reuss Voigt Hill
#
# Bulk Modulus (GPa) = 40.30145 51.86738 46.08442
# Shear Modulus (GPa) = 18.85263 27.05029 22.95146
#
# Velocity S-wave (km/s) = 3.21114 3.84644 3.54306
# Velocity P-wave (km/s) = 5.98259 6.93510 6.47638
#
# Compressibility (1/GPa) = 0.02481300
#
# Stress axis : x y z
#
# Youngs Moduli (GPa) = 30.02986 21.92404 90.13452
#
# Poissons Ratio (x) = 0.45891 0.21389
# Poissons Ratio (y) = 0.62858 0.83755
# Poissons Ratio (z) = 0.07126 0.20372
#
# Static dielectric constant tensor:
#      x y z
#    x 1.610210 0.000000 0.015060 
#    y 0.000000 1.609830 0.000000 
#    z 0.015060 0.000000 1.615950 
# 
# From -- ./inp_files/72227.got.cif
#   From: 2010.05.17/outbox.cif.g08.bks.cpg/sg11_37_cif.got.tgz:72227.got - 2010.06.03 12:22:45.
