data_PCOD9159964
_publ_section_title
;
Structure prediction by ZEFSAII (Michael W. Deem and Ramdas Pophale) SiO2 
 PCOD9159964
Probable space group: P 21/M
;
_chemical_formula_sum "Si O2"
_cell_formula_units_Z 32
_cell_length_a 12.305751
_cell_length_b 15.431257
_cell_length_c 8.880287
_cell_angle_alpha 90.000000
_cell_angle_beta 64.276077
_cell_angle_gamma 90.000000
_cell_volume 1519.186273
_symmetry_space_group_name_H-M "P 21/M"
_symmetry_group_IT_number 11
_symmetry_cell_setting 'monoclinic'
loop_
_space_group_symop_operation_xyz
x,y,z
-x,1/2+y,-z
-x,-y,-z
x,1/2-y,z
loop_
_atom_site_type_symbol
_atom_site_label
_atom_site_fract_x
_atom_site_fract_y
_atom_site_fract_z
Si Si1 0.721640 0.524884 0.220751
Si Si2 0.966033 0.405529 0.588883
Si Si3 0.312158 0.851270 0.290221
Si Si4 0.424949 0.934362 0.938044
Si Si5 0.384157 0.025469 0.414141
Si Si6 0.035763 0.987210 0.808817
Si Si7 0.159369 0.349832 0.070604
Si Si8 0.783508 0.656003 0.637258
O O1 0.685739 0.475353 0.089699
O O2 0.614649 0.536668 0.405426
O O3 0.821237 0.477405 0.264631
O O4 0.779017 0.611703 0.116035
O O5 0.830791 0.375165 0.636295
O O6 0.000000 0.500000 0.500000
O O7 0.988103 0.429037 0.749660
O O8 0.072593 0.343363 0.472635
O O9 0.326165 0.750000 0.326704
O O10 0.372016 0.925949 0.361377
O O11 0.372974 0.865311 0.087859
O O12 0.516188 0.921335 0.742975
O O13 0.500000 0.000000 0.000000
O O14 0.265476 0.076846 0.428605
O O15 0.959795 0.903088 0.812643
O O16 0.000000 0.000000 0.000000
O O17 0.131618 0.250000 0.066464
O O18 0.242609 0.358303 0.169710
O O19 0.734398 0.750000 0.622039
#
# Coordination Sequence:
#
# PCOD9159964 Si02
#       8
#     4   4   4   4   4   4   4   4
#     4  11  21  40  63  89 122 165 211 260 324 372
#     4  12  19  37  62  91 130 166 210 250 309 375
#     4  11  23  41  66  96 130 172 214 255 311 379
#     4  10  23  43  68  88 116 163 216 259 314 374
#     4  11  22  42  66  94 127 165 211 271 316 368
#     4  10  19  34  56  84 127 167 198 244 313 375
#     4  10  21  36  57  91 130 170 209 250 308 380
#     4  11  22  37  63  96 128 166 212 259 309 371
#
# _framework density 21.063907
#
# number of rings (size 3 to 8) (size 9 to 14) (size 15 to 20)
#    0.000    1.250    3.750    3.750    0.000    1.000 
#    0.000    8.125    0.000    3.000    0.000    0.000 
#    0.000    0.000    0.000    0.000    0.000    0.000 
#
# Total GULP energy -178212.155199 kJ/mol
# GULP energy per Si atom -5569.129850 kJ/mol
# Density = 2.101596 g / cm^3
# Si number density = 21.063907 Si / 1000 Ang^3
#
#
#
# Elastic Constant Matrix: (Units=GPa)
#
#
# Indices 1 2 3 4 5 6 
#
# 1 40.9536 18.6043 -3.0677 0.0000 -1.7737 0.0000
# 2 18.6043 122.9628 32.6777 0.0000 8.7383 0.0000
# 3 -3.0677 32.6777 114.2398 0.0000 1.9362 0.0000
# 4 0.0000 0.0000 0.0000 15.6334 0.0000 0.9899
# 5 -1.7737 8.7383 1.9362 0.0000 39.5164 0.0000
# 6 0.0000 0.0000 0.0000 0.9899 0.0000 10.3150
#
#
#
# Elastic Compliance Matrix: (Units=1/GPa)
#
#
# Indices 1 2 3 4 5 6 
#
# 1 0.026824 -0.004755 0.002044 0.000000 0.002155 0.000000
# 2 -0.004755 0.009778 -0.002887 0.000000 -0.002234 0.000000
# 3 0.002044 -0.002887 0.009630 0.000000 0.000258 0.000000
# 4 0.000000 0.000000 0.000000 0.064357 0.000000 -0.006176
# 5 0.002155 -0.002234 0.000258 0.000000 0.025884 0.000000
# 6 0.000000 0.000000 0.000000 -0.006176 0.000000 0.097539
#
#
# Mechanical properties :
#
#
# Convention : Reuss Voigt Hill
#
# Bulk Modulus (GPa) = 28.54159 41.62052 35.08105
# Shear Modulus (GPa) = 19.46386 28.42241 23.94313
#
# Velocity S-wave (km/s) = 3.04310 3.67732 3.37514
# Velocity P-wave (km/s) = 5.09182 6.15080 5.64619
#
# Compressibility (1/GPa) = 0.03503659
#
# Stress axis : x y z
#
# Youngs Moduli (GPa) = 37.27957 102.27174 103.84476
#
# Poissons Ratio (x) = 0.48629 -0.21225
# Poissons Ratio (y) = 0.17726 0.29977
# Poissons Ratio (z) = -0.07620 0.29523
#
# Static dielectric constant tensor:
#      x y z
#    x 2.342170 0.000000 -0.027460 
#    y 0.000000 2.025890 0.000000 
#    z -0.027460 0.000000 1.842590 
# 
# From -- ./inp_files/22177.got.cif
#   From: 2010.05.17/outbox.cif.g08.bks.cpg/sg11_12_cif.got.tgz:22177.got - 2010.06.03 12:22:45.
