data_PCOD9159666
_publ_section_title
;
Structure prediction by ZEFSAII (Michael W. Deem and Ramdas Pophale) SiO2 
 PCOD9159666
Probable space group: P 21/M
;
_chemical_formula_sum "Si O2"
_cell_formula_units_Z 28
_cell_length_a 12.399436
_cell_length_b 13.923026
_cell_length_c 8.990455
_cell_angle_alpha 90.000000
_cell_angle_beta 56.337405
_cell_angle_gamma 90.000000
_cell_volume 1291.830604
_symmetry_space_group_name_H-M "P 21/M"
_symmetry_group_IT_number 11
_symmetry_cell_setting 'monoclinic'
loop_
_space_group_symop_operation_xyz
x,y,z
-x,1/2+y,-z
-x,-y,-z
x,1/2-y,z
loop_
_atom_site_type_symbol
_atom_site_label
_atom_site_fract_x
_atom_site_fract_y
_atom_site_fract_z
Si Si1 0.811158 0.081740 0.927653
Si Si2 0.518824 0.359558 0.189732
Si Si3 0.190633 0.530342 0.745971
Si Si4 0.050213 0.430725 0.591338
Si Si5 0.402114 0.363715 0.601985
Si Si6 0.287667 0.041327 0.240416
Si Si7 0.648402 0.360141 0.607273
O O1 0.773636 0.982044 0.871615
O O2 0.925983 0.128724 0.741877
O O3 0.671110 0.130473 0.048064
O O4 0.857755 0.066122 0.059432
O O5 0.482592 0.250000 0.202548
O O6 0.476824 0.388431 0.389782
O O7 0.429525 0.414632 0.140549
O O8 0.087135 0.493339 0.706741
O O9 0.286584 0.439700 0.699987
O O10 0.268034 0.615174 0.603450
O O11 0.187262 0.395905 0.418099
O O12 0.000000 0.500000 0.500000
O O13 0.365375 0.250000 0.623781
O O14 0.501046 0.374748 0.664094
O O15 0.304661 0.938083 0.309532
O O16 0.664925 0.250000 0.641869
#
# Coordination Sequence:
#
# PCOD9159666 Si02
#       7
#     4   4   4   4   4   4   4
#     4  11  22  35  59  89 118 150 196 249 295 340
#     4  11  21  36  59  90 122 154 196 247 293 345
#     4  11  19  36  60  82 116 154 197 243 297 345
#     4   9  20  38  59  82 114 156 198 235 291 359
#     4  10  19  33  57  87 116 153 196 239 293 356
#     4  10  21  40  59  85 119 162 199 233 293 357
#     4  10  19  33  57  85 116 152 195 242 291 349
#
# _framework density 21.674669000000002
#
# number of rings (size 3 to 8) (size 9 to 14) (size 15 to 20)
#    0.000    1.714    4.286    2.143    0.000    0.571 
#    0.000    3.571    0.000   27.429    0.000    0.000 
#    0.000    0.000    0.000    0.000    0.000    0.000 
#
# Total GULP energy -156215.559679 kJ/mol
# GULP energy per Si atom -5579.127131 kJ/mol
# Density = 2.162534 g / cm^3
# Si number density = 21.674669 Si / 1000 Ang^3
#
#
#
# Elastic Constant Matrix: (Units=GPa)
#
#
# Indices 1 2 3 4 5 6 
#
# 1 91.5795 2.8799 17.4042 0.0000 0.9407 0.0000
# 2 2.8799 51.9899 14.1012 0.0000 -16.0409 0.0000
# 3 17.4042 14.1012 73.7257 0.0000 2.7249 0.0000
# 4 0.0000 0.0000 0.0000 11.0835 0.0000 1.8137
# 5 0.9407 -16.0409 2.7249 0.0000 35.3896 0.0000
# 6 0.0000 0.0000 0.0000 1.8137 0.0000 2.0236
#
#
#
# Elastic Compliance Matrix: (Units=1/GPa)
#
#
# Indices 1 2 3 4 5 6 
#
# 1 0.011433 0.000085 -0.002713 0.000000 -0.000056 0.000000
# 2 0.000085 0.024086 -0.005045 0.000000 0.011303 0.000000
# 3 -0.002713 -0.005045 0.015295 0.000000 -0.003392 0.000000
# 4 0.000000 0.000000 0.000000 0.105730 0.000000 -0.094760
# 5 -0.000056 0.011303 -0.003392 0.000000 0.033643 0.000000
# 6 0.000000 0.000000 0.000000 -0.094760 0.000000 0.579089
#
#
# Mechanical properties :
#
#
# Convention : Reuss Voigt Hill
#
# Bulk Modulus (GPa) = 28.19453 31.78507 29.98980
# Shear Modulus (GPa) = 6.27791 21.89334 14.08563
#
# Velocity S-wave (km/s) = 1.70374 3.18164 2.55201
# Velocity P-wave (km/s) = 4.11176 5.30976 4.74869
#
# Compressibility (1/GPa) = 0.03546787
#
# Stress axis : x y z
#
# Youngs Moduli (GPa) = 87.46616 41.51869 65.38289
#
# Poissons Ratio (x) = -0.00354 0.17739
# Poissons Ratio (y) = -0.00745 0.32983
# Poissons Ratio (z) = 0.23731 0.20945
#
# Static dielectric constant tensor:
#      x y z
#    x 1.833300 0.000000 -0.027420 
#    y 0.000000 1.759220 0.000000 
#    z -0.027420 0.000000 1.862910 
# 
# From -- ./inp_files/17907.got.cif
#   From: 2010.05.17/outbox.cif.g08.bks.cpg/sg11_9_cif.got.tgz:17907.got - 2010.06.03 12:22:45.
