data_PCOD9159197
_publ_section_title
;
Structure prediction by ZEFSAII (Michael W. Deem and Ramdas Pophale) SiO2 
 PCOD9159197
Probable space group: P 21/M
;
_chemical_formula_sum "Si O2"
_cell_formula_units_Z 32
_cell_length_a 24.209323
_cell_length_b 8.293874
_cell_length_c 16.034447
_cell_angle_alpha 90.000000
_cell_angle_beta 32.350062
_cell_angle_gamma 90.000000
_cell_volume 1722.746830
_symmetry_space_group_name_H-M "P 21/M"
_symmetry_group_IT_number 11
_symmetry_cell_setting 'monoclinic'
loop_
_space_group_symop_operation_xyz
x,y,z
-x,1/2+y,-z
-x,-y,-z
x,1/2-y,z
loop_
_atom_site_type_symbol
_atom_site_label
_atom_site_fract_x
_atom_site_fract_y
_atom_site_fract_z
Si Si1 0.068994 0.555026 0.532912
Si Si2 0.596909 0.437775 0.323475
Si Si3 0.103475 0.942813 0.825096
Si Si4 0.370918 0.947584 0.905111
Si Si5 0.854768 0.055215 0.747294
Si Si6 0.305194 0.436809 0.649724
Si Si7 0.596090 0.555658 0.648057
Si Si8 0.804704 0.056977 0.467731
O O1 0.069427 0.750000 0.534279
O O2 0.116045 0.502283 0.383843
O O3 0.140953 0.496475 0.517158
O O4 0.949385 0.500727 0.685235
O O5 0.500000 0.500000 0.500000
O O6 0.580841 0.250000 0.331434
O O7 0.617051 0.505238 0.206052
O O8 0.687493 0.470031 0.273201
O O9 0.117764 0.750000 0.817008
O O10 0.119522 0.978863 0.706735
O O11 0.193018 0.040443 0.756108
O O12 0.000000 0.000000 0.000000
O O13 0.368860 0.750000 0.908669
O O14 0.477586 0.994691 0.815944
O O15 0.260137 0.000782 0.081466
O O16 0.854239 0.250000 0.749186
O O17 0.329867 0.250000 0.633676
O O18 0.377223 0.497233 0.481354
O O19 0.599139 0.750000 0.643109
O O20 0.689695 0.501389 0.588454
O O21 0.796527 0.250000 0.484926
#
# Coordination Sequence:
#
# PCOD9159197 Si02
#       8
#     4   4   4   4   4   4   4   4
#     4   9  18  35  56  77 103 130 164 210 260 306
#     4  11  20  32  49  72 102 135 171 210 250 299
#     4  10  20  34  50  71 100 135 170 211 255 302
#     4   9  18  33  51  75 105 134 170 211 253 303
#     4   9  18  34  57  78  99 133 168 205 254 308
#     4  10  19  33  50  70  97 134 174 211 250 297
#     4   9  17  32  51  71  99 134 169 205 245 298
#     4   9  19  34  52  74 100 132 168 208 256 304
#
# _framework density 18.574985999999999
#
# number of rings (size 3 to 8) (size 9 to 14) (size 15 to 20)
#    0.000    2.500    1.250    1.125    0.000    2.500 
#    0.000    5.000    0.000    0.000    0.000    0.000 
#    0.000    0.000    0.000    0.000    0.000    0.000 
#
# Total GULP energy -178243.409066 kJ/mol
# GULP energy per Si atom -5570.106533 kJ/mol
# Density = 1.853271 g / cm^3
# Si number density = 18.574986 Si / 1000 Ang^3
#
#
#
# Elastic Constant Matrix: (Units=GPa)
#
#
# Indices 1 2 3 4 5 6 
#
# 1 142.1300 12.5858 67.2135 0.0000 -10.6336 0.0000
# 2 12.5858 10.9784 12.1465 0.0000 0.7903 0.0000
# 3 67.2135 12.1465 132.8981 0.0000 -26.5840 0.0000
# 4 0.0000 0.0000 0.0000 20.6313 0.0000 -6.6998
# 5 -10.6336 0.7903 -26.5840 0.0000 19.6346 0.0000
# 6 0.0000 0.0000 0.0000 -6.6998 0.0000 24.7841
#
#
#
# Elastic Compliance Matrix: (Units=1/GPa)
#
#
# Indices 1 2 3 4 5 6 
#
# 1 0.009625 -0.006116 -0.004412 0.000000 -0.000514 0.000000
# 2 -0.006116 0.113247 -0.012112 0.000000 -0.024269 0.000000
# 3 -0.004412 -0.012112 0.014376 0.000000 0.017562 0.000000
# 4 0.000000 0.000000 0.000000 0.053134 0.000000 0.014364
# 5 -0.000514 -0.024269 0.017562 0.000000 0.075407 0.000000
# 6 0.000000 0.000000 0.000000 0.014364 0.000000 0.044231
#
#
# Mechanical properties :
#
#
# Convention : Reuss Voigt Hill
#
# Bulk Modulus (GPa) = 10.87330 52.21091 31.54210
# Shear Modulus (GPa) = 12.95482 25.94739 19.45111
#
# Velocity S-wave (km/s) = 2.64376 3.74157 3.23951
# Velocity P-wave (km/s) = 3.89689 6.84361 5.56869
#
# Compressibility (1/GPa) = 0.09196839
#
# Stress axis : x y z
#
# Youngs Moduli (GPa) = 103.89255 8.83026 69.56079
#
# Poissons Ratio (x) = 0.05401 0.30690
# Poissons Ratio (y) = 0.63543 0.84251
# Poissons Ratio (z) = 0.45837 0.10695
#
# Static dielectric constant tensor:
#      x y z
#    x 1.641790 0.000000 0.001960 
#    y 0.000000 1.865490 0.000000 
#    z 0.001960 0.000000 1.657530 
# 
# From -- ./inp_files/55550.got.cif
#   From: 2010.05.17/outbox.cif.g08.bks.cpg/sg11_28_cif.got.tgz:55550.got - 2010.06.03 12:22:45.
