data_PCOD9159251
_publ_section_title
;
Structure prediction by ZEFSAII (Michael W. Deem and Ramdas Pophale) SiO2 
 PCOD9159251
Probable space group: P 21/M
;
_chemical_formula_sum "Si O2"
_cell_formula_units_Z 30
_cell_length_a 12.244981
_cell_length_b 9.495796
_cell_length_c 11.700496
_cell_angle_alpha 90.000000
_cell_angle_beta 70.376476
_cell_angle_gamma 90.000000
_cell_volume 1281.467569
_symmetry_space_group_name_H-M "P 21/M"
_symmetry_group_IT_number 11
_symmetry_cell_setting 'monoclinic'
loop_
_space_group_symop_operation_xyz
x,y,z
-x,1/2+y,-z
-x,-y,-z
x,1/2-y,z
loop_
_atom_site_type_symbol
_atom_site_label
_atom_site_fract_x
_atom_site_fract_y
_atom_site_fract_z
Si Si1 0.120424 0.411630 0.833007
Si Si2 0.470573 0.472068 0.853328
Si Si3 0.383288 0.410995 0.639736
Si Si4 0.187084 0.919493 0.279594
Si Si5 0.295695 0.585155 0.465775
Si Si6 0.963637 0.414136 0.340230
Si Si7 0.783795 0.589158 0.959729
Si Si8 0.460071 0.750000 0.002561
O O1 0.075924 0.250000 0.835567
O O2 0.251558 0.411741 0.736778
O O3 0.052601 0.525605 0.782697
O O4 0.134695 0.445691 0.961322
O O5 0.461364 0.458592 0.719961
O O6 0.556419 0.370983 0.891305
O O7 0.346174 0.413675 0.944226
O O8 0.479630 0.627401 0.898713
O O9 0.410491 0.250000 0.600650
O O10 0.374241 0.505258 0.529851
O O11 0.180495 0.750000 0.282011
O O12 0.280407 0.967975 0.341588
O O13 0.207882 0.982246 0.146959
O O14 0.062671 0.986807 0.357227
O O15 0.325639 0.750000 0.453115
O O16 0.163038 0.574813 0.559307
O O17 0.996532 0.250000 0.332223
O O18 0.805701 0.750000 0.914770
#
# Coordination Sequence:
#
# PCOD9159251 Si02
#       8
#     4   4   4   4   4   4   4   2
#     4   8  16  31  50  71  98 136 169 210 262 302
#     4  10  19  35  54  89 114 137 160 202 250 311
#     4   9  16  30  52  77 107 135 168 210 255 301
#     4  11  23  35  49  72 101 140 182 219 264 305
#     4   9  20  35  51  74 100 134 182 229 261 294
#     4  10  19  33  52  73  99 130 176 230 269 304
#     4  10  20  36  53  73 109 141 172 209 251 315
#     4  10  20  32  58  86 118 134 160 196 256 310
#
# _framework density 23.410658999999999
#
# number of rings (size 3 to 8) (size 9 to 14) (size 15 to 20)
#    0.000    2.400    1.333    2.000    1.867    2.667 
#    2.400    0.000    0.000    0.000    0.000    5.600 
#    0.000    0.000    0.000    0.000    0.000    0.000 
#
# Total GULP energy -167289.502528 kJ/mol
# GULP energy per Si atom -5576.316751 kJ/mol
# Density = 2.335738 g / cm^3
# Si number density = 23.410659 Si / 1000 Ang^3
#
#
#
# Elastic Constant Matrix: (Units=GPa)
#
#
# Indices 1 2 3 4 5 6 
#
# 1 89.5718 29.8234 23.5695 0.0000 19.3859 0.0000
# 2 29.8234 167.7472 78.7832 0.0000 48.9579 0.0000
# 3 23.5695 78.7832 149.9855 0.0000 32.3235 0.0000
# 4 0.0000 0.0000 0.0000 30.0506 0.0000 15.5955
# 5 19.3859 48.9579 32.3235 0.0000 50.2860 0.0000
# 6 0.0000 0.0000 0.0000 15.5955 0.0000 7.5762
#
#
#
# Elastic Compliance Matrix: (Units=1/GPa)
#
#
# Indices 1 2 3 4 5 6 
#
# 1 0.012394 -0.000830 -0.000762 0.000000 -0.003480 0.000000
# 2 -0.000830 0.009787 -0.003513 0.000000 -0.006951 0.000000
# 3 -0.000762 -0.003513 0.009091 0.000000 -0.002130 0.000000
# 4 0.000000 0.000000 0.000000 -0.487195 0.000000 1.002886
# 5 -0.003480 -0.006951 -0.002130 0.000000 0.029365 0.000000
# 6 0.000000 0.000000 0.000000 1.002886 0.000000 -1.932438
#
#
# Mechanical properties :
#
#
# Convention : Reuss Voigt Hill
#
# Bulk Modulus (GPa) = 47.47374 74.62851 61.05113
# Shear Modulus (GPa) = -2.13514 35.92445 16.89466
#
# Velocity S-wave (km/s) = -0.95604 3.92156 2.68930
# Velocity P-wave (km/s) = 4.37081 7.24238 5.98148
#
# Compressibility (1/GPa) = 0.02106428
#
# Stress axis : x y z
#
# Youngs Moduli (GPa) = 80.68235 102.17352 109.99710
#
# Poissons Ratio (x) = 0.08481 0.08377
# Poissons Ratio (y) = 0.06697 0.38637
# Poissons Ratio (z) = 0.06145 0.35889
#
# Static dielectric constant tensor:
#      x y z
#    x 2.027940 0.000000 -0.069910 
#    y 0.000000 1.793980 0.000000 
#    z -0.069910 0.000000 1.896930 
# 
# From -- ./inp_files/37558.got.cif
#   From: 2010.05.17/outbox.cif.g08.bks.cpg/sg11_19_cif.got.tgz:37558.got - 2010.06.03 12:22:45.
