data_PCOD9159559
_publ_section_title
;
Structure prediction by ZEFSAII (Michael W. Deem and Ramdas Pophale) SiO2 
 PCOD9159559
Probable space group: P 21/M
;
_chemical_formula_sum "Si O2"
_cell_formula_units_Z 28
_cell_length_a 9.583184
_cell_length_b 8.555754
_cell_length_c 27.273285
_cell_angle_alpha 90.000000
_cell_angle_beta 143.096021
_cell_angle_gamma 90.000000
_cell_volume 1342.768197
_symmetry_space_group_name_H-M "P 21/M"
_symmetry_group_IT_number 11
_symmetry_cell_setting 'monoclinic'
loop_
_space_group_symop_operation_xyz
x,y,z
-x,1/2+y,-z
-x,-y,-z
x,1/2-y,z
loop_
_atom_site_type_symbol
_atom_site_label
_atom_site_fract_x
_atom_site_fract_y
_atom_site_fract_z
Si Si1 0.869016 0.563736 0.195925
Si Si2 0.250199 0.069324 0.370674
Si Si3 0.049720 0.566546 0.409862
Si Si4 0.571973 0.066525 0.292885
Si Si5 0.338785 0.433245 0.574715
Si Si6 0.929887 0.434931 0.857749
Si Si7 0.392561 0.562988 0.020662
O O1 0.894041 0.750000 0.213050
O O2 0.594838 0.525431 0.116430
O O3 0.012450 0.463877 0.274647
O O4 0.980068 0.536129 0.172940
O O5 0.320576 0.250000 0.385880
O O6 0.203079 0.023621 0.413200
O O7 0.441143 0.960520 0.398964
O O8 0.089574 0.750000 0.416958
O O9 0.125693 0.507165 0.484824
O O10 0.780446 0.526435 0.325707
O O11 0.610939 0.250000 0.297871
O O12 0.596506 0.019262 0.356916
O O13 0.314668 0.019561 0.203867
O O14 0.300885 0.250000 0.573578
O O15 0.896841 0.250000 0.853197
O O16 0.136679 0.491166 0.951433
O O17 0.375038 0.750000 0.012973
O O18 0.500000 0.500000 0.000000
#
# Coordination Sequence:
#
# PCOD9159559 Si02
#       7
#     4   4   4   4   4   4   4
#     4   9  18  33  54  82 117 154 193 237 288 343
#     4  12  24  39  61  89 119 155 198 243 292 347
#     4  12  26  44  62  84 117 156 196 242 297 351
#     4  12  24  40  62  89 119 154 197 242 292 349
#     4  12  24  42  64  88 118 152 196 244 293 347
#     4  10  19  33  55  84 118 153 193 237 290 344
#     4   9  17  29  49  79 116 151 190 238 290 341
#
# _framework density 20.852444999999999
#
# number of rings (size 3 to 8) (size 9 to 14) (size 15 to 20)
#    0.000    1.143    1.429    7.714    0.000    2.857 
#    0.000    0.000    0.000    0.857    0.000    0.000 
#    0.000    0.000    0.000    0.000    0.000    0.000 
#
# Total GULP energy -156608.382092 kJ/mol
# GULP energy per Si atom -5593.156503 kJ/mol
# Density = 2.080498 g / cm^3
# Si number density = 20.852445 Si / 1000 Ang^3
#
#
#
# Elastic Constant Matrix: (Units=GPa)
#
#
# Indices 1 2 3 4 5 6 
#
# 1 32.8393 -19.7360 -0.7886 0.0000 9.2260 0.0000
# 2 -19.7360 70.2084 21.7430 0.0000 -4.2684 0.0000
# 3 -0.7886 21.7430 95.6878 0.0000 27.1867 0.0000
# 4 0.0000 0.0000 0.0000 35.8308 0.0000 6.1026
# 5 9.2260 -4.2684 27.1867 0.0000 24.9214 0.0000
# 6 0.0000 0.0000 0.0000 6.1026 0.0000 23.6807
#
#
#
# Elastic Compliance Matrix: (Units=1/GPa)
#
#
# Indices 1 2 3 4 5 6 
#
# 1 0.040983 0.009610 0.002894 0.000000 -0.016684 0.000000
# 2 0.009610 0.019225 -0.006107 0.000000 0.006397 0.000000
# 3 0.002894 -0.006107 0.018062 0.000000 -0.021821 0.000000
# 4 0.000000 0.000000 0.000000 0.029190 0.000000 -0.007522
# 5 -0.016684 0.006397 -0.021821 0.000000 0.071202 0.000000
# 6 0.000000 0.000000 0.000000 -0.007522 0.000000 0.044167
#
#
# Mechanical properties :
#
#
# Convention : Reuss Voigt Hill
#
# Bulk Modulus (GPa) = 10.98111 22.35249 16.66680
# Shear Modulus (GPa) = 20.79957 30.05441 25.42699
#
# Velocity S-wave (km/s) = 3.16169 3.80055 3.49575
# Velocity P-wave (km/s) = 4.31346 5.47737 4.92988
#
# Compressibility (1/GPa) = 0.09106547
#
# Stress axis : x y z
#
# Youngs Moduli (GPa) = 24.40008 52.01602 55.36524
#
# Poissons Ratio (x) = -0.49988 -0.16024
# Poissons Ratio (y) = -0.23449 0.33810
# Poissons Ratio (z) = -0.07062 0.31764
#
# Static dielectric constant tensor:
#      x y z
#    x 1.745600 0.000000 0.025050 
#    y 0.000000 1.686920 0.000000 
#    z 0.025050 0.000000 1.782830 
# 
# From -- ./inp_files/70885.got.cif
#   From: 2010.05.17/outbox.cif.g08.bks.cpg/sg11_36_cif.got.tgz:70885.got - 2010.06.03 12:22:45.
