data_PCOD9159595
_publ_section_title
;
Structure prediction by ZEFSAII (Michael W. Deem and Ramdas Pophale) SiO2 
 PCOD9159595
Probable space group: P 21/M
;
_chemical_formula_sum "Si O2"
_cell_formula_units_Z 32
_cell_length_a 12.441367
_cell_length_b 9.007527
_cell_length_c 29.629285
_cell_angle_alpha 90.000000
_cell_angle_beta 34.022024
_cell_angle_gamma 90.000000
_cell_volume 1857.821101
_symmetry_space_group_name_H-M "P 21/M"
_symmetry_group_IT_number 11
_symmetry_cell_setting 'monoclinic'
loop_
_space_group_symop_operation_xyz
x,y,z
-x,1/2+y,-z
-x,-y,-z
x,1/2-y,z
loop_
_atom_site_type_symbol
_atom_site_label
_atom_site_fract_x
_atom_site_fract_y
_atom_site_fract_z
Si Si1 0.679098 0.927778 0.463216
Si Si2 0.248722 0.073556 0.130814
Si Si3 0.206120 0.926461 0.483579
Si Si4 0.181195 0.928751 0.960954
Si Si5 0.755744 0.926673 0.623316
Si Si6 0.084409 0.572700 0.274908
Si Si7 0.296862 0.927468 0.020139
Si Si8 0.589408 0.571238 0.776207
O O1 0.658490 0.750000 0.472139
O O2 0.875689 0.963061 0.367840
O O3 0.500000 0.000000 0.500000
O O4 0.703574 0.992338 0.504989
O O5 0.221536 0.250000 0.141745
O O6 0.120215 0.995430 0.213175
O O7 0.218640 0.011117 0.091114
O O8 0.474077 0.042649 0.063411
O O9 0.231922 0.750000 0.478555
O O10 0.976264 0.957396 0.561586
O O11 0.284414 0.985701 0.408568
O O12 0.167547 0.750000 0.963900
O O13 0.380054 0.970824 0.867139
O O14 0.199170 0.971474 0.007257
O O15 0.000000 0.000000 0.000000
O O16 0.742740 0.750000 0.619065
O O17 0.622865 0.964798 0.712060
O O18 0.104460 0.750000 0.266167
O O19 0.246602 0.505187 0.251155
O O20 0.276611 0.750000 0.033493
O O21 0.610773 0.750000 0.773795
#
# Coordination Sequence:
#
# PCOD9159595 Si02
#       8
#     4   4   4   4   4   4   4   4
#     4  11  24  40  58  82 114 149 187 229 280 339
#     4  10  19  33  56  83 111 143 184 229 277 331
#     4  10  19  33  56  83 113 147 184 226 278 332
#     4  10  21  37  56  80 113 149 185 226 273 328
#     4   9  18  32  55  83 112 145 184 231 276 324
#     4  11  22  35  56  86 114 141 182 234 280 327
#     4   9  18  34  54  79 112 146 184 230 277 322
#     4  10  19  36  58  82 111 146 188 230 274 327
#
# _framework density 17.224478999999999
#
# number of rings (size 3 to 8) (size 9 to 14) (size 15 to 20)
#    0.000    2.000    2.500    1.500    0.000    4.000 
#    0.000    1.250    0.000    3.000    0.000    0.000 
#    0.000    0.000    0.000    0.000    0.000    0.000 
#
# Total GULP energy -178649.390268 kJ/mol
# GULP energy per Si atom -5582.793446 kJ/mol
# Density = 1.718528 g / cm^3
# Si number density = 17.224479 Si / 1000 Ang^3
#
#
#
# Elastic Constant Matrix: (Units=GPa)
#
#
# Indices 1 2 3 4 5 6 
#
# 1 166.8249 67.8415 92.8571 0.0000 14.1498 0.0000
# 2 67.8415 49.6604 58.1609 0.0000 4.7595 0.0000
# 3 92.8571 58.1609 117.1430 0.0000 12.7490 0.0000
# 4 0.0000 0.0000 0.0000 24.5341 0.0000 2.6657
# 5 14.1498 4.7595 12.7490 0.0000 28.7859 0.0000
# 6 0.0000 0.0000 0.0000 2.6657 0.0000 36.0241
#
#
#
# Elastic Compliance Matrix: (Units=1/GPa)
#
#
# Indices 1 2 3 4 5 6 
#
# 1 0.014431 -0.015321 -0.003505 0.000000 -0.003008 0.000000
# 2 -0.015321 0.064589 -0.020573 0.000000 0.005963 0.000000
# 3 -0.003505 -0.020573 0.022033 0.000000 -0.004634 0.000000
# 4 0.000000 0.000000 0.000000 0.041090 0.000000 -0.003041
# 5 -0.003008 0.005963 -0.004634 0.000000 0.037284 0.000000
# 6 0.000000 0.000000 0.000000 -0.003041 0.000000 0.027984
#
#
# Mechanical properties :
#
#
# Convention : Reuss Voigt Hill
#
# Bulk Modulus (GPa) = 44.93050 85.70527 65.31789
# Shear Modulus (GPa) = 17.02837 25.52008 21.27423
#
# Velocity S-wave (km/s) = 3.14764 3.85335 3.51823
# Velocity P-wave (km/s) = 6.27312 8.34647 7.38294
#
# Compressibility (1/GPa) = 0.02225659
#
# Stress axis : x y z
#
# Youngs Moduli (GPa) = 69.29661 15.48243 45.38554
#
# Poissons Ratio (x) = 0.23720 0.15907
# Poissons Ratio (y) = 1.06168 0.93371
# Poissons Ratio (z) = 0.24288 0.31852
#
# Static dielectric constant tensor:
#      x y z
#    x 1.560180 0.000000 0.012500 
#    y 0.000000 1.576980 0.000000 
#    z 0.012500 0.000000 1.573020 
# 
# From -- ./inp_files/73129.got.cif
#   From: 2010.05.17/outbox.cif.g08.bks.cpg/sg11_37_cif.got.tgz:73129.got - 2010.06.03 12:22:45.
