data_PCOD9159938
_publ_section_title
;
Structure prediction by ZEFSAII (Michael W. Deem and Ramdas Pophale) SiO2 
 PCOD9159938
Probable space group: P 21/M
;
_chemical_formula_sum "Si O2"
_cell_formula_units_Z 32
_cell_length_a 21.170469
_cell_length_b 14.518820
_cell_length_c 14.755256
_cell_angle_alpha 90.000000
_cell_angle_beta 156.936638
_cell_angle_gamma 90.000000
_cell_volume 1776.708920
_symmetry_space_group_name_H-M "P 21/M"
_symmetry_group_IT_number 11
_symmetry_cell_setting 'monoclinic'
loop_
_space_group_symop_operation_xyz
x,y,z
-x,1/2+y,-z
-x,-y,-z
x,1/2-y,z
loop_
_atom_site_type_symbol
_atom_site_label
_atom_site_fract_x
_atom_site_fract_y
_atom_site_fract_z
Si Si1 0.883438 0.426947 0.529719
Si Si2 0.796789 0.356341 0.753026
Si Si3 0.599586 0.982810 0.222115
Si Si4 0.691993 0.493846 0.767037
Si Si5 0.046844 0.357731 0.927069
Si Si6 0.670260 0.356540 0.086348
Si Si7 0.219278 0.008776 0.909532
Si Si8 0.498472 0.356768 0.223777
O O1 0.785428 0.514591 0.440023
O O2 0.762822 0.371607 0.304537
O O3 0.948853 0.372914 0.703785
O O4 0.035393 0.459890 0.672721
O O5 0.831124 0.250000 0.820669
O O6 0.771844 0.416718 0.808783
O O7 0.626940 0.359002 0.474896
O O8 0.934348 0.388224 0.863159
O O9 0.569397 0.072900 0.243520
O O10 0.514621 0.893363 0.151562
O O11 0.500000 0.000000 0.000000
O O12 0.500000 0.500000 0.500000
O O13 0.788026 0.586139 0.864976
O O14 0.728080 0.478169 0.920380
O O15 0.077974 0.250000 0.979205
O O16 0.678751 0.250000 0.072209
O O17 0.750658 0.427169 0.121666
O O18 0.330495 0.096570 0.030724
O O19 0.482699 0.250000 0.173747
#
# Coordination Sequence:
#
# PCOD9159938 Si02
#       8
#     4   4   4   4   4   4   4   4
#     4  10  19  36  59  85 113 144 182 241 287 324
#     4  10  20  36  57  81 109 145 187 233 281 330
#     4   9  19  34  55  82 112 145 185 228 279 337
#     4  11  22  37  56  80 115 153 183 233 287 331
#     4  10  21  36  60  89 110 139 188 237 285 336
#     4  10  21  37  56  81 117 155 187 222 277 343
#     4  10  22  37  56  82 116 150 194 227 281 337
#     4  10  19  34  56  82 112 145 185 235 282 328
#
# _framework density 18.010829000000001
#
# number of rings (size 3 to 8) (size 9 to 14) (size 15 to 20)
#    0.000    2.000    2.500    1.125    0.000    5.500 
#    0.000    0.625    0.000    0.750    0.000    0.000 
#    0.000    0.000    0.000    0.000    0.000    0.000 
#
# Total GULP energy -178386.556222 kJ/mol
# GULP energy per Si atom -5574.579882 kJ/mol
# Density = 1.796984 g / cm^3
# Si number density = 18.010829 Si / 1000 Ang^3
#
#
#
# Elastic Constant Matrix: (Units=GPa)
#
#
# Indices 1 2 3 4 5 6 
#
# 1 43.1687 8.0015 12.7341 0.0000 13.6000 0.0000
# 2 8.0015 71.6952 27.6465 0.0000 3.4072 0.0000
# 3 12.7341 27.6465 76.7016 0.0000 25.9740 0.0000
# 4 0.0000 0.0000 0.0000 18.2950 0.0000 -5.7373
# 5 13.6000 3.4072 25.9740 0.0000 37.5926 0.0000
# 6 0.0000 0.0000 0.0000 -5.7373 0.0000 15.9898
#
#
#
# Elastic Compliance Matrix: (Units=1/GPa)
#
#
# Indices 1 2 3 4 5 6 
#
# 1 0.026604 -0.002345 -0.000502 0.000000 -0.009065 0.000000
# 2 -0.002345 0.016736 -0.007071 0.000000 0.004217 0.000000
# 3 -0.000502 -0.007071 0.020092 0.000000 -0.013060 0.000000
# 4 0.000000 0.000000 0.000000 0.061590 0.000000 0.022099
# 5 -0.009065 0.004217 -0.013060 0.000000 0.038522 0.000000
# 6 0.000000 0.000000 0.000000 0.022099 0.000000 0.070469
#
#
# Mechanical properties :
#
#
# Convention : Reuss Voigt Hill
#
# Bulk Modulus (GPa) = 22.93772 32.03664 27.48718
# Shear Modulus (GPa) = 18.63030 23.92103 21.27566
#
# Velocity S-wave (km/s) = 3.21969 3.64833 3.44069
# Velocity P-wave (km/s) = 5.15607 5.96432 5.57486
#
# Compressibility (1/GPa) = 0.04359630
#
# Stress axis : x y z
#
# Youngs Moduli (GPa) = 37.58903 59.75173 49.77064
#
# Poissons Ratio (x) = 0.14010 0.02497
# Poissons Ratio (y) = 0.08814 0.35193
# Poissons Ratio (z) = 0.01886 0.42251
#
# Static dielectric constant tensor:
#      x y z
#    x 1.631090 0.000000 0.019750 
#    y 0.000000 1.602380 0.000000 
#    z 0.019750 0.000000 1.622790 
# 
# From -- ./inp_files/18038.got.cif
#   From: 2010.05.17/outbox.cif.g08.bks.cpg/sg11_10_cif.got.tgz:18038.got - 2010.06.03 12:22:45.
