data_PCOD9159493
_publ_section_title
;
Structure prediction by ZEFSAII (Michael W. Deem and Ramdas Pophale) SiO2 
 PCOD9159493
Probable space group: P 21/M
;
_chemical_formula_sum "Si O2"
_cell_formula_units_Z 28
_cell_length_a 18.365453
_cell_length_b 7.747865
_cell_length_c 15.791354
_cell_angle_alpha 90.000000
_cell_angle_beta 141.170319
_cell_angle_gamma 90.000000
_cell_volume 1408.885695
_symmetry_space_group_name_H-M "P 21/M"
_symmetry_group_IT_number 11
_symmetry_cell_setting 'monoclinic'
loop_
_space_group_symop_operation_xyz
x,y,z
-x,1/2+y,-z
-x,-y,-z
x,1/2-y,z
loop_
_atom_site_type_symbol
_atom_site_label
_atom_site_fract_x
_atom_site_fract_y
_atom_site_fract_z
Si Si1 0.391744 0.458050 0.840460
Si Si2 0.182885 0.543872 0.145597
Si Si3 0.133386 0.441182 0.606924
Si Si4 0.145049 0.548101 0.429348
Si Si5 0.974099 0.041707 0.843007
Si Si6 0.599669 0.959659 0.347450
Si Si7 0.440156 0.958006 0.356760
O O1 0.382205 0.250000 0.829681
O O2 0.260403 0.523537 0.746854
O O3 0.417658 0.514535 0.766549
O O4 0.500000 0.500000 0.000000
O O5 0.192189 0.750000 0.165004
O O6 0.118563 0.476004 0.171408
O O7 0.309745 0.472949 0.244431
O O8 0.098460 0.509256 0.990802
O O9 0.136472 0.250000 0.646816
O O10 0.142827 0.444696 0.513914
O O11 0.000000 0.500000 0.500000
O O12 0.122881 0.750000 0.428666
O O13 0.056907 0.482963 0.278747
O O14 0.274689 0.528835 0.511047
O O15 0.966512 0.250000 0.834812
O O16 0.602578 0.750000 0.350498
O O17 0.507530 0.019005 0.333997
O O18 0.436137 0.750000 0.346033
O O19 0.500000 0.000000 0.500000
#
# Coordination Sequence:
#
# PCOD9159493 Si02
#       7
#     4   4   4   4   4   4   4
#     4   9  19  36  57  80 109 144 182 224 274 329
#     4   9  18  32  49  70 100 136 174 213 257 311
#     4  10  21  38  58  83 113 142 179 226 273 327
#     4  10  19  33  55  79 105 136 174 217 262 315
#     4   9  18  32  49  71 100 134 171 215 260 306
#     4   9  19  35  53  76 107 139 176 220 263 320
#     4  10  20  34  52  75 105 137 174 220 266 314
#
# _framework density 19.873861000000002
#
# number of rings (size 3 to 8) (size 9 to 14) (size 15 to 20)
#    0.000    2.571    0.000    2.571    0.000    6.286 
#    2.571    2.857    0.000    0.000    0.000    0.000 
#    0.000    0.000    0.000    0.000    0.000    0.000 
#
# Total GULP energy -155982.394516 kJ/mol
# GULP energy per Si atom -5570.799804 kJ/mol
# Density = 1.982863 g / cm^3
# Si number density = 19.873861 Si / 1000 Ang^3
#
#
#
# Elastic Constant Matrix: (Units=GPa)
#
#
# Indices 1 2 3 4 5 6 
#
# 1 100.2610 2.8848 66.6953 0.0000 34.3564 0.0000
# 2 2.8848 29.9258 -5.7914 0.0000 3.2771 0.0000
# 3 66.6953 -5.7914 126.3972 0.0000 18.7111 0.0000
# 4 0.0000 0.0000 0.0000 25.7124 0.0000 -0.3260
# 5 34.3564 3.2771 18.7111 0.0000 29.5912 0.0000
# 6 0.0000 0.0000 0.0000 -0.3260 0.0000 18.1075
#
#
#
# Elastic Compliance Matrix: (Units=1/GPa)
#
#
# Indices 1 2 3 4 5 6 
#
# 1 0.023497 -0.001754 -0.009344 0.000000 -0.021179 0.000000
# 2 -0.001754 0.034586 0.003063 0.000000 -0.003730 0.000000
# 3 -0.009344 0.003063 0.012607 0.000000 0.002538 0.000000
# 4 0.000000 0.000000 0.000000 0.038901 0.000000 0.000700
# 5 -0.021179 -0.003730 0.002538 0.000000 0.057191 0.000000
# 6 0.000000 0.000000 0.000000 0.000700 0.000000 0.055238
#
#
# Mechanical properties :
#
#
# Convention : Reuss Voigt Hill
#
# Bulk Modulus (GPa) = 18.30859 42.68458 30.49659
# Shear Modulus (GPa) = 19.50854 27.53526 23.52190
#
# Velocity S-wave (km/s) = 3.13648 3.72627 3.44402
# Velocity P-wave (km/s) = 4.72748 6.32755 5.58511
#
# Compressibility (1/GPa) = 0.05461916
#
# Stress axis : x y z
#
# Youngs Moduli (GPa) = 42.55778 28.91322 79.32322
#
# Poissons Ratio (x) = 0.05072 0.74119
# Poissons Ratio (y) = 0.07465 -0.24293
# Poissons Ratio (z) = 0.39766 -0.08855
#
# Static dielectric constant tensor:
#      x y z
#    x 1.721660 0.000000 0.032860 
#    y 0.000000 1.738180 0.000000 
#    z 0.032860 0.000000 1.691100 
# 
# From -- ./inp_files/53298.got.cif
#   From: 2010.05.17/outbox.cif.g08.bks.cpg/sg11_27_cif.got.tgz:53298.got - 2010.06.03 12:22:45.
