data_PCOD9159258
_publ_section_title
;
Structure prediction by ZEFSAII (Michael W. Deem and Ramdas Pophale) SiO2 
 PCOD9159258
Probable space group: P 21/M
;
_chemical_formula_sum "Si O2"
_cell_formula_units_Z 28
_cell_length_a 8.367678
_cell_length_b 13.666853
_cell_length_c 15.095335
_cell_angle_alpha 90.000000
_cell_angle_beta 129.733951
_cell_angle_gamma 90.000000
_cell_volume 1327.560705
_symmetry_space_group_name_H-M "P 21/M"
_symmetry_group_IT_number 11
_symmetry_cell_setting 'monoclinic'
loop_
_space_group_symop_operation_xyz
x,y,z
-x,1/2+y,-z
-x,-y,-z
x,1/2-y,z
loop_
_atom_site_type_symbol
_atom_site_label
_atom_site_fract_x
_atom_site_fract_y
_atom_site_fract_z
Si Si1 0.542883 0.365535 0.142457
Si Si2 0.662066 0.136232 0.800318
Si Si3 0.032747 0.494407 0.175819
Si Si4 0.635419 0.366891 0.987737
Si Si5 0.413958 0.134231 0.286118
Si Si6 0.058907 0.992669 0.668764
Si Si7 0.707517 0.540255 0.419630
O O1 0.572224 0.250000 0.156323
O O2 0.489607 0.388833 0.021290
O O3 0.395009 0.387309 0.172979
O O4 0.761715 0.415761 0.242331
O O5 0.711872 0.250000 0.815138
O O6 0.492746 0.107328 0.666637
O O7 0.866108 0.072190 0.854646
O O8 0.562224 0.114117 0.861830
O O9 0.210250 0.412569 0.256009
O O10 0.986774 0.544288 0.254413
O O11 0.836896 0.434275 0.071336
O O12 0.684701 0.250000 0.009420
O O13 0.434723 0.250000 0.307202
O O14 0.612334 0.070159 0.386587
O O15 0.850492 0.944669 0.555066
O O16 0.149414 0.051943 0.617275
#
# Coordination Sequence:
#
# PCOD9159258 Si02
#       7
#     4   4   4   4   4   4   4
#     4   8  15  29  50  74  98 128 168 209 242 280
#     4  10  21  35  50  73 105 136 164 200 250 301
#     4  10  19  33  52  75 101 132 165 205 248 291
#     4   9  17  32  53  75 101 133 169 205 241 287
#     4   9  17  30  49  75 101 125 160 204 250 294
#     4   9  18  34  53  72  96 128 169 208 244 290
#     4   9  19  36  53  70  97 131 166 206 245 292
#
# _framework density 21.091315000000002
#
# number of rings (size 3 to 8) (size 9 to 14) (size 15 to 20)
#    0.000    2.857    0.000    0.857    0.000    3.429 
#    0.000   17.857    0.000    3.429    0.000    0.000 
#    0.000    0.000    0.000    0.000    0.000    0.000 
#
# Total GULP energy -156066.225463 kJ/mol
# GULP energy per Si atom -5573.793767 kJ/mol
# Density = 2.104331 g / cm^3
# Si number density = 21.091315 Si / 1000 Ang^3
#
#
#
# Elastic Constant Matrix: (Units=GPa)
#
#
# Indices 1 2 3 4 5 6 
#
# 1 43.9748 17.4719 7.8067 0.0000 -5.0241 0.0000
# 2 17.4719 74.2991 19.8461 0.0000 -7.8654 0.0000
# 3 7.8067 19.8461 67.5563 0.0000 -8.9289 0.0000
# 4 0.0000 0.0000 0.0000 13.3908 0.0000 -7.4694
# 5 -5.0241 -7.8654 -8.9289 0.0000 23.5525 0.0000
# 6 0.0000 0.0000 0.0000 -7.4694 0.0000 14.9297
#
#
#
# Elastic Compliance Matrix: (Units=1/GPa)
#
#
# Indices 1 2 3 4 5 6 
#
# 1 0.025417 -0.005384 -0.000923 0.000000 0.003274 0.000000
# 2 -0.005384 0.016012 -0.003713 0.000000 0.002791 0.000000
# 3 -0.000923 -0.003713 0.016644 0.000000 0.004873 0.000000
# 4 0.000000 0.000000 0.000000 0.103586 0.000000 0.051825
# 5 0.003274 0.002791 0.004873 0.000000 0.045936 0.000000
# 6 0.000000 0.000000 0.000000 0.051825 0.000000 0.092909
#
#
# Mechanical properties :
#
#
# Convention : Reuss Voigt Hill
#
# Bulk Modulus (GPa) = 26.29200 30.67548 28.48374
# Shear Modulus (GPa) = 15.00499 19.75496 17.37997
#
# Velocity S-wave (km/s) = 2.67016 3.06378 2.87371
# Velocity P-wave (km/s) = 4.69033 5.20493 4.95432
#
# Compressibility (1/GPa) = 0.03803438
#
# Stress axis : x y z
#
# Youngs Moduli (GPa) = 39.34326 62.45151 60.08201
#
# Poissons Ratio (x) = 0.33624 0.05544
# Poissons Ratio (y) = 0.21182 0.22308
# Poissons Ratio (z) = 0.03631 0.23188
#
# Static dielectric constant tensor:
#      x y z
#    x 1.817810 0.000000 -0.052000 
#    y 0.000000 1.737190 0.000000 
#    z -0.052000 0.000000 1.776330 
# 
# From -- ./inp_files/21790.got.cif
#   From: 2010.05.17/outbox.cif.g08.bks.cpg/sg11_11_cif.got.tgz:21790.got - 2010.06.03 12:22:45.
