data_PCOD9159276
_publ_section_title
;
Structure prediction by ZEFSAII (Michael W. Deem and Ramdas Pophale) SiO2 
 PCOD9159276
Probable space group: P 21/M
;
_chemical_formula_sum "Si O2"
_cell_formula_units_Z 28
_cell_length_a 20.132768
_cell_length_b 8.786335
_cell_length_c 18.622879
_cell_angle_alpha 90.000000
_cell_angle_beta 28.969482
_cell_angle_gamma 90.000000
_cell_volume 1595.554776
_symmetry_space_group_name_H-M "P 21/M"
_symmetry_group_IT_number 11
_symmetry_cell_setting 'monoclinic'
loop_
_space_group_symop_operation_xyz
x,y,z
-x,1/2+y,-z
-x,-y,-z
x,1/2-y,z
loop_
_atom_site_type_symbol
_atom_site_label
_atom_site_fract_x
_atom_site_fract_y
_atom_site_fract_z
Si Si1 0.929833 0.069717 0.171118
Si Si2 0.480156 0.070508 0.597243
Si Si3 0.655085 0.567429 0.700882
Si Si4 0.594698 0.067057 0.973412
Si Si5 0.706946 0.066667 0.496625
Si Si6 0.200279 0.927486 0.860174
Si Si7 0.153616 0.933385 0.353827
O O1 0.963696 0.250000 0.137781
O O2 0.847208 0.034776 0.321196
O O3 0.834379 0.043542 0.191209
O O4 0.064440 0.971288 0.031765
O O5 0.500290 0.250000 0.571395
O O6 0.587165 0.015209 0.555520
O O7 0.500000 0.000000 0.500000
O O8 0.326768 0.028693 0.764560
O O9 0.667598 0.750000 0.694598
O O10 0.693083 0.511488 0.586091
O O11 0.758132 0.492490 0.661467
O O12 0.496028 0.525461 0.870969
O O13 0.593697 0.250000 0.970256
O O14 0.750853 0.021365 0.805838
O O15 0.500000 0.000000 0.000000
O O16 0.697164 0.250000 0.514631
O O17 0.233654 0.750000 0.836007
O O18 0.145082 0.750000 0.364126
O O19 0.000000 0.000000 0.500000
#
# Coordination Sequence:
#
# PCOD9159276 Si02
#       7
#     4   4   4   4   4   4   4
#     4   9  18  34  52  73 102 137 174 218 269 324
#     4  11  21  35  54  77 104 137 179 228 275 322
#     4  10  20  35  55  81 109 140 179 220 266 321
#     4   8  16  31  52  77 106 137 172 212 254 305
#     4  10  21  37  54  76 108 142 178 221 273 326
#     4  10  19  33  52  77 102 131 175 224 272 324
#     4  10  19  34  57  84 112 144 178 218 263 310
#
# _framework density 17.548753999999999
#
# number of rings (size 3 to 8) (size 9 to 14) (size 15 to 20)
#    0.000    2.286    1.429    1.714    0.000    3.429 
#    0.000    1.429    0.000    3.429    0.000    0.000 
#    0.000    0.000    0.000    0.000    0.000    0.000 
#
# Total GULP energy -156044.702682 kJ/mol
# GULP energy per Si atom -5573.025096 kJ/mol
# Density = 1.750881 g / cm^3
# Si number density = 17.548754 Si / 1000 Ang^3
#
#
#
# Elastic Constant Matrix: (Units=GPa)
#
#
# Indices 1 2 3 4 5 6 
#
# 1 59.7487 23.5635 48.7739 0.0000 4.9289 0.0000
# 2 23.5635 31.0745 34.6374 0.0000 2.8420 0.0000
# 3 48.7739 34.6374 135.9902 0.0000 7.2046 0.0000
# 4 0.0000 0.0000 0.0000 30.6644 0.0000 -0.4614
# 5 4.9289 2.8420 7.2046 0.0000 28.9354 0.0000
# 6 0.0000 0.0000 0.0000 -0.4614 0.0000 25.4217
#
#
#
# Elastic Compliance Matrix: (Units=1/GPa)
#
#
# Indices 1 2 3 4 5 6 
#
# 1 0.027353 -0.013614 -0.006249 0.000000 -0.001766 0.000000
# 2 -0.013614 0.051787 -0.008270 0.000000 -0.000708 0.000000
# 3 -0.006249 -0.008270 0.011757 0.000000 -0.001051 0.000000
# 4 0.000000 0.000000 0.000000 0.032620 0.000000 0.000592
# 5 -0.001766 -0.000708 -0.001051 0.000000 0.035192 0.000000
# 6 0.000000 0.000000 0.000000 0.000592 0.000000 0.039347
#
#
# Mechanical properties :
#
#
# Convention : Reuss Voigt Hill
#
# Bulk Modulus (GPa) = 28.87664 48.97368 38.92516
# Shear Modulus (GPa) = 18.80641 24.99354 21.89998
#
# Velocity S-wave (km/s) = 3.27718 3.77800 3.53647
# Velocity P-wave (km/s) = 5.55074 6.85557 6.23737
#
# Compressibility (1/GPa) = 0.03463007
#
# Stress axis : x y z
#
# Youngs Moduli (GPa) = 36.55913 19.30970 85.05665
#
# Poissons Ratio (x) = 0.26289 0.53153
# Poissons Ratio (y) = 0.49773 0.70343
# Poissons Ratio (z) = 0.22846 0.15969
#
# Static dielectric constant tensor:
#      x y z
#    x 1.568430 0.000000 -0.004790 
#    y 0.000000 1.597740 0.000000 
#    z -0.004790 0.000000 1.641770 
# 
# From -- ./inp_files/61244.got.cif
#   From: 2010.05.17/outbox.cif.g08.bks.cpg/sg11_31_cif.got.tgz:61244.got - 2010.06.03 12:22:45.
