data_PCOD9159464
_publ_section_title
;
Structure prediction by ZEFSAII (Michael W. Deem and Ramdas Pophale) SiO2 
 PCOD9159464
Probable space group: P 21/M
;
_chemical_formula_sum "Si O2"
_cell_formula_units_Z 28
_cell_length_a 15.663508
_cell_length_b 8.631401
_cell_length_c 20.137517
_cell_angle_alpha 90.000000
_cell_angle_beta 35.371587
_cell_angle_gamma 90.000000
_cell_volume 1576.022635
_symmetry_space_group_name_H-M "P 21/M"
_symmetry_group_IT_number 11
_symmetry_cell_setting 'monoclinic'
loop_
_space_group_symop_operation_xyz
x,y,z
-x,1/2+y,-z
-x,-y,-z
x,1/2-y,z
loop_
_atom_site_type_symbol
_atom_site_label
_atom_site_fract_x
_atom_site_fract_y
_atom_site_fract_z
Si Si1 0.114959 0.063425 0.751272
Si Si2 0.205947 0.937861 0.092668
Si Si3 0.485855 0.435738 0.171111
Si Si4 0.604771 0.436144 0.492029
Si Si5 0.353976 0.564071 0.128973
Si Si6 0.150890 0.565328 0.874471
Si Si7 0.544496 0.935447 0.273636
O O1 0.117742 0.250000 0.752907
O O2 0.948905 0.010521 0.839369
O O3 0.233587 0.004854 0.622990
O O4 0.162446 0.996108 0.792107
O O5 0.206393 0.750000 0.089450
O O6 0.226458 0.979857 0.157374
O O7 0.352267 0.988074 0.959579
O O8 0.485466 0.250000 0.172145
O O9 0.364198 0.494648 0.195847
O O10 0.468611 0.501562 0.255497
O O11 0.500000 0.500000 0.500000
O O12 0.608417 0.250000 0.485130
O O13 0.539249 0.479386 0.605336
O O14 0.360395 0.750000 0.128629
O O15 0.500000 0.500000 0.000000
O O16 0.148568 0.750000 0.877189
O O17 0.291499 0.505079 0.825727
O O18 0.000000 0.500000 0.000000
O O19 0.553796 0.750000 0.265243
#
# Coordination Sequence:
#
# PCOD9159464 Si02
#       7
#     4   4   4   4   4   4   4
#     4  11  21  36  57  80 108 142 184 229 273 325
#     4   8  17  32  52  79 110 143 175 215 269 325
#     4  10  19  33  54  82 113 144 179 221 275 333
#     4  11  23  39  58  78 104 141 187 232 277 326
#     4   9  16  30  51  77 110 145 181 220 267 325
#     4  12  24  37  54  78 111 145 180 220 272 328
#     4  11  23  38  56  78 106 142 184 228 274 326
#
# _framework density 17.766241999999998
#
# number of rings (size 3 to 8) (size 9 to 14) (size 15 to 20)
#    0.000    1.714    1.429    5.143    0.000    2.857 
#    0.000    7.857    0.000    0.857    0.000    0.000 
#    0.000    0.000    0.000    0.000    0.000    0.000 
#
# Total GULP energy -156311.332884 kJ/mol
# GULP energy per Si atom -5582.547603 kJ/mol
# Density = 1.772581 g / cm^3
# Si number density = 17.766242 Si / 1000 Ang^3
#
#
#
# Elastic Constant Matrix: (Units=GPa)
#
#
# Indices 1 2 3 4 5 6 
#
# 1 79.4563 17.6071 4.6469 0.0000 31.2463 0.0000
# 2 17.6071 65.9944 20.5197 0.0000 15.3067 0.0000
# 3 4.6469 20.5197 59.6571 0.0000 21.4359 0.0000
# 4 0.0000 0.0000 0.0000 26.5568 0.0000 3.1112
# 5 31.2463 15.3067 21.4359 0.0000 30.1717 0.0000
# 6 0.0000 0.0000 0.0000 3.1112 0.0000 27.1526
#
#
#
# Elastic Compliance Matrix: (Units=1/GPa)
#
#
# Indices 1 2 3 4 5 6 
#
# 1 0.025246 -0.002503 0.010517 0.000000 -0.032347 0.000000
# 2 -0.002503 0.018062 -0.004910 0.000000 -0.003083 0.000000
# 3 0.010517 -0.004910 0.027730 0.000000 -0.028102 0.000000
# 4 0.000000 0.000000 0.000000 0.038167 0.000000 -0.004373
# 5 -0.032347 -0.003083 -0.028102 0.000000 0.088173 0.000000
# 6 0.000000 0.000000 0.000000 -0.004373 0.000000 0.037330
#
#
# Mechanical properties :
#
#
# Convention : Reuss Voigt Hill
#
# Bulk Modulus (GPa) = 12.94558 32.29501 22.62030
# Shear Modulus (GPa) = 19.66583 27.59848 23.63216
#
# Velocity S-wave (km/s) = 3.33065 3.94562 3.65111
# Velocity P-wave (km/s) = 4.70036 6.24295 5.52575
#
# Compressibility (1/GPa) = 0.07724645
#
# Stress axis : x y z
#
# Youngs Moduli (GPa) = 39.61056 55.36385 36.06247
#
# Poissons Ratio (x) = 0.13858 -0.37929
# Poissons Ratio (y) = 0.09915 0.17707
# Poissons Ratio (z) = -0.41660 0.27184
#
# Static dielectric constant tensor:
#      x y z
#    x 1.582700 0.000000 -0.074920 
#    y 0.000000 1.616600 0.000000 
#    z -0.074920 0.000000 1.358940 
# 
# From -- ./inp_files/53234.got.cif
#   From: 2010.05.17/outbox.cif.g08.bks.cpg/sg11_27_cif.got.tgz:53234.got - 2010.06.03 12:22:45.
