data_PCOD9159038
_publ_section_title
;
Structure prediction by ZEFSAII (Michael W. Deem and Ramdas Pophale) SiO2 
 PCOD9159038
Probable space group: P 21/M
;
_chemical_formula_sum "Si O2"
_cell_formula_units_Z 28
_cell_length_a 19.274885
_cell_length_b 8.766681
_cell_length_c 16.570991
_cell_angle_alpha 90.000000
_cell_angle_beta 148.672328
_cell_angle_gamma 90.000000
_cell_volume 1455.867330
_symmetry_space_group_name_H-M "P 21/M"
_symmetry_group_IT_number 11
_symmetry_cell_setting 'monoclinic'
loop_
_space_group_symop_operation_xyz
x,y,z
-x,1/2+y,-z
-x,-y,-z
x,1/2-y,z
loop_
_atom_site_type_symbol
_atom_site_label
_atom_site_fract_x
_atom_site_fract_y
_atom_site_fract_z
Si Si1 0.909244 0.067473 0.839174
Si Si2 0.596111 0.433470 0.527994
Si Si3 0.696163 0.079703 0.216001
Si Si4 0.423157 0.077080 0.045164
Si Si5 0.891129 0.433259 0.637972
Si Si6 0.060134 0.072882 0.478323
Si Si7 0.406332 0.431766 0.647617
O O1 0.923633 0.250000 0.854981
O O2 0.752871 0.032274 0.699004
O O3 0.939506 0.018754 0.776061
O O4 0.000000 0.000000 0.000000
O O5 0.500000 0.500000 0.500000
O O6 0.583666 0.250000 0.508329
O O7 0.559555 0.515218 0.408372
O O8 0.755478 0.250000 0.280707
O O9 0.552713 0.088450 0.115678
O O10 0.783207 0.957292 0.349841
O O11 0.679784 0.024305 0.107975
O O12 0.375157 0.250000 0.012057
O O13 0.481026 0.996927 0.181308
O O14 0.889231 0.250000 0.633179
O O15 0.968997 0.495381 0.637041
O O16 0.738340 0.492115 0.479748
O O17 0.029266 0.250000 0.443245
O O18 0.000000 0.000000 0.500000
O O19 0.395332 0.250000 0.644047
#
# Coordination Sequence:
#
# PCOD9159038 Si02
#       7
#     4   4   4   4   4   4   4
#     4   9  20  37  61  89 119 151 190 239 292 349
#     4  10  21  38  58  85 118 152 191 239 294 352
#     4  10  20  34  53  77 109 142 178 225 276 327
#     4  10  19  32  53  79 110 142 177 225 274 322
#     4  10  20  37  57  82 113 147 191 241 286 339
#     4  12  24  38  57  80 110 150 194 239 288 342
#     4  11  20  32  55  84 112 147 189 231 280 339
#
# _framework density 19.232521999999999
#
# number of rings (size 3 to 8) (size 9 to 14) (size 15 to 20)
#    0.000    1.714    1.429    5.143    0.000    4.571 
#    0.000    1.429    0.000    3.429    0.000    0.000 
#    0.000    0.000    0.000    0.000    0.000    0.000 
#
# Total GULP energy -156232.719448 kJ/mol
# GULP energy per Si atom -5579.739980 kJ/mol
# Density = 1.918875 g / cm^3
# Si number density = 19.232522 Si / 1000 Ang^3
#
#
#
# Elastic Constant Matrix: (Units=GPa)
#
#
# Indices 1 2 3 4 5 6 
#
# 1 120.9494 45.5765 38.4383 0.0000 -38.9650 0.0000
# 2 45.5765 100.1218 23.2734 0.0000 -19.2367 0.0000
# 3 38.4383 23.2734 93.8654 0.0000 -45.7277 0.0000
# 4 0.0000 0.0000 0.0000 31.5974 0.0000 -6.0996
# 5 -38.9650 -19.2367 -45.7277 0.0000 31.4180 0.0000
# 6 0.0000 0.0000 0.0000 -6.0996 0.0000 30.4977
#
#
#
# Elastic Compliance Matrix: (Units=1/GPa)
#
#
# Indices 1 2 3 4 5 6 
#
# 1 0.017711 -0.003755 0.011201 0.000000 0.035968 0.000000
# 2 -0.003755 0.012221 -0.000398 0.000000 0.002246 0.000000
# 3 0.011201 -0.000398 0.044042 0.000000 0.077749 0.000000
# 4 0.000000 0.000000 0.000000 0.032919 0.000000 0.006584
# 5 0.035968 0.002246 0.077749 0.000000 0.190973 0.000000
# 6 0.000000 0.000000 0.000000 0.006584 0.000000 0.034106
#
#
# Mechanical properties :
#
#
# Convention : Reuss Voigt Hill
#
# Bulk Modulus (GPa) = 11.35474 58.83479 35.09477
# Shear Modulus (GPa) = 14.39955 32.54585 23.47270
#
# Velocity S-wave (km/s) = 2.73922 4.11814 3.49731
# Velocity P-wave (km/s) = 3.99014 7.29861 5.88179
#
# Compressibility (1/GPa) = 0.08806894
#
# Stress axis : x y z
#
# Youngs Moduli (GPa) = 56.46280 81.82417 22.70576
#
# Poissons Ratio (x) = 0.30726 -0.25432
# Poissons Ratio (y) = 0.21202 0.00904
# Poissons Ratio (z) = -0.63243 0.03258
#
# Static dielectric constant tensor:
#      x y z
#    x 1.772440 0.000000 -0.019230 
#    y 0.000000 1.663660 0.000000 
#    z -0.019230 0.000000 1.700000 
# 
# From -- ./inp_files/53284.got.cif
#   From: 2010.05.17/outbox.cif.g08.bks.cpg/sg11_27_cif.got.tgz:53284.got - 2010.06.03 12:22:45.
