data_PCOD9159946
_publ_section_title
;
Structure prediction by ZEFSAII (Michael W. Deem and Ramdas Pophale) SiO2 
 PCOD9159946
Probable space group: P 21/M
;
_chemical_formula_sum "Si O2"
_cell_formula_units_Z 28
_cell_length_a 24.317122
_cell_length_b 7.603540
_cell_length_c 20.365840
_cell_angle_alpha 90.000000
_cell_angle_beta 19.345158
_cell_angle_gamma 90.000000
_cell_volume 1247.374642
_symmetry_space_group_name_H-M "P 21/M"
_symmetry_group_IT_number 11
_symmetry_cell_setting 'monoclinic'
loop_
_space_group_symop_operation_xyz
x,y,z
-x,1/2+y,-z
-x,-y,-z
x,1/2-y,z
loop_
_atom_site_type_symbol
_atom_site_label
_atom_site_fract_x
_atom_site_fract_y
_atom_site_fract_z
Si Si1 0.183648 0.540942 0.310317
Si Si2 0.666107 0.048660 0.120089
Si Si3 0.295250 0.046745 0.557937
Si Si4 0.599626 0.549870 0.056100
Si Si5 0.381682 0.539983 0.197032
Si Si6 0.688390 0.459682 0.311527
Si Si7 0.939542 0.464883 0.912650
O O1 0.219261 0.750000 0.266367
O O2 0.213793 0.482304 0.351553
O O3 0.000000 0.500000 0.500000
O O4 0.288487 0.450141 0.135031
O O5 0.652636 0.250000 0.159746
O O6 0.481160 0.968302 0.339047
O O7 0.827072 0.976611 0.976909
O O8 0.682606 0.045763 0.023115
O O9 0.308350 0.250000 0.521166
O O10 0.270982 0.040632 0.663648
O O11 0.129793 0.972305 0.708909
O O12 0.571790 0.750000 0.109002
O O13 0.435352 0.467232 0.207038
O O14 0.381879 0.750000 0.206094
O O15 0.500000 0.500000 0.000000
O O16 0.500000 0.500000 0.500000
O O17 0.699631 0.250000 0.305802
O O18 0.823558 0.514883 0.105184
O O19 0.950636 0.250000 0.899080
#
# Coordination Sequence:
#
# PCOD9159946 Si02
#       7
#     4   4   4   4   4   4   4
#     4  10  19  34  56  83 112 142 178 223 272 324
#     4  10  20  37  56  77 112 152 188 225 273 337
#     4  10  20  37  59  81 109 145 185 234 286 335
#     4  10  20  36  56  79 108 143 180 223 274 324
#     4   8  16  31  52  74 100 132 169 214 262 312
#     4  11  20  34  57  84 112 146 188 236 287 336
#     4   9  19  36  57  81 111 145 186 233 281 336
#
# _framework density 22.447144000000002
#
# number of rings (size 3 to 8) (size 9 to 14) (size 15 to 20)
#    0.000    2.286    1.429    1.714    0.000    1.714 
#    2.571    1.429    0.000    0.000    0.000    0.000 
#    0.000    0.000    0.000    0.000    0.000    0.000 
#
# Total GULP energy -155906.195690 kJ/mol
# GULP energy per Si atom -5568.078418 kJ/mol
# Density = 2.239605 g / cm^3
# Si number density = 22.447144 Si / 1000 Ang^3
#
#
#
# Elastic Constant Matrix: (Units=GPa)
#
#
# Indices 1 2 3 4 5 6 
#
# 1 160.8238 3.3211 49.8430 0.0000 -41.6744 0.0000
# 2 3.3211 56.6426 0.7448 0.0000 -2.2760 0.0000
# 3 49.8430 0.7448 61.1210 0.0000 -44.3831 0.0000
# 4 0.0000 0.0000 0.0000 8.8156 0.0000 3.8396
# 5 -41.6744 -2.2760 -44.3831 0.0000 45.2658 0.0000
# 6 0.0000 0.0000 0.0000 3.8396 0.0000 17.0187
#
#
#
# Elastic Compliance Matrix: (Units=1/GPa)
#
#
# Indices 1 2 3 4 5 6 
#
# 1 0.008489 -0.000299 -0.004356 0.000000 0.003529 0.000000
# 2 -0.000299 0.017740 0.001651 0.000000 0.002236 0.000000
# 3 -0.004356 0.001651 0.059169 0.000000 0.054088 0.000000
# 4 0.000000 0.000000 0.000000 0.125796 0.000000 -0.028381
# 5 0.003529 0.002236 0.054088 0.000000 0.078486 0.000000
# 6 0.000000 0.000000 0.000000 -0.028381 0.000000 0.065162
#
#
# Mechanical properties :
#
#
# Convention : Reuss Voigt Hill
#
# Bulk Modulus (GPa) = 12.59609 42.93392 27.76500
# Shear Modulus (GPa) = 12.90944 29.19860 21.05402
#
# Velocity S-wave (km/s) = 2.40073 3.61053 3.06590
# Velocity P-wave (km/s) = 3.64806 6.04562 4.99288
#
# Compressibility (1/GPa) = 0.07938974
#
# Stress axis : x y z
#
# Youngs Moduli (GPa) = 117.80376 56.36922 16.90072
#
# Poissons Ratio (x) = 0.01683 0.07362
# Poissons Ratio (y) = 0.03518 -0.02790
# Poissons Ratio (z) = 0.51317 -0.09305
#
# Static dielectric constant tensor:
#      x y z
#    x 1.880660 0.000000 -0.063890 
#    y 0.000000 1.751870 0.000000 
#    z -0.063890 0.000000 1.926050 
# 
# From -- ./inp_files/66665.got.cif
#   From: 2010.05.17/outbox.cif.g08.bks.cpg/sg11_34_cif.got.tgz:66665.got - 2010.06.03 12:22:45.
