data_PCOD9159913
_publ_section_title
;
Structure prediction by ZEFSAII (Michael W. Deem and Ramdas Pophale) SiO2 
 PCOD9159913
Probable space group: P 21/M
;
_chemical_formula_sum "Si O2"
_cell_formula_units_Z 24
_cell_length_a 16.443031
_cell_length_b 13.135250
_cell_length_c 6.237860
_cell_angle_alpha 90.000000
_cell_angle_beta 111.073593
_cell_angle_gamma 90.000000
_cell_volume 1257.167194
_symmetry_space_group_name_H-M "P 21/M"
_symmetry_group_IT_number 11
_symmetry_cell_setting 'monoclinic'
loop_
_space_group_symop_operation_xyz
x,y,z
-x,1/2+y,-z
-x,-y,-z
x,1/2-y,z
loop_
_atom_site_type_symbol
_atom_site_label
_atom_site_fract_x
_atom_site_fract_y
_atom_site_fract_z
Si Si1 0.067064 0.027610 0.751490
Si Si2 0.363083 0.506943 0.991438
Si Si3 0.919046 0.130027 0.856211
Si Si4 0.209424 0.497154 0.560854
Si Si5 0.525343 0.633156 0.217242
Si Si6 0.685821 0.632277 0.674962
O O1 0.152278 0.053626 0.695729
O O2 0.015797 0.108784 0.849606
O O3 0.000000 0.000000 0.500000
O O4 0.085020 0.931414 0.923682
O O5 0.429264 0.587951 0.154602
O O6 0.314366 0.442731 0.125623
O O7 0.291927 0.548996 0.756898
O O8 0.424155 0.429278 0.917427
O O9 0.903642 0.250000 0.863283
O O10 0.849700 0.075653 0.630727
O O11 0.247911 0.412065 0.438534
O O12 0.519801 0.750000 0.147220
O O13 0.588219 0.626476 0.482568
O O14 0.704365 0.750000 0.743174
#
# Coordination Sequence:
#
# PCOD9159913 Si02
#       6
#     4   4   4   4   4   4
#     4   9  20  39  59  82 112 143 181 224 270 327
#     4  10  19  34  56  80 113 147 186 237 282 330
#     4  10  21  39  62  85 112 147 183 223 274 331
#     4  10  21  37  56  84 116 144 181 229 279 331
#     4   9  19  34  53  78 108 148 193 235 282 330
#     4  10  20  35  55  79 110 150 193 235 279 327
#
# _framework density 19.090537999999999
#
# number of rings (size 3 to 8) (size 9 to 14) (size 15 to 20)
#    0.000    2.333    0.000    2.000    0.000    4.667 
#    0.000   14.167    0.000    0.000    0.000    0.000 
#    0.000    0.000    0.000    0.000    0.000    0.000 
#
# Total GULP energy -133792.680117 kJ/mol
# GULP energy per Si atom -5574.695005 kJ/mol
# Density = 1.904709 g / cm^3
# Si number density = 19.090538 Si / 1000 Ang^3
#
#
#
# Elastic Constant Matrix: (Units=GPa)
#
#
# Indices 1 2 3 4 5 6 
#
# 1 97.9977 23.3761 45.5995 0.0000 7.8556 0.0000
# 2 23.3761 69.7732 42.6670 0.0000 26.4551 0.0000
# 3 45.5995 42.6670 91.1046 0.0000 -0.6054 0.0000
# 4 0.0000 0.0000 0.0000 11.5541 0.0000 7.5615
# 5 7.8556 26.4551 -0.6054 0.0000 26.4605 0.0000
# 6 0.0000 0.0000 0.0000 7.5615 0.0000 13.8883
#
#
#
# Elastic Compliance Matrix: (Units=1/GPa)
#
#
# Indices 1 2 3 4 5 6 
#
# 1 0.014093 0.003853 -0.008913 0.000000 -0.008241 0.000000
# 2 0.003853 0.044977 -0.023302 0.000000 -0.046644 0.000000
# 3 -0.008913 -0.023302 0.026527 0.000000 0.026551 0.000000
# 4 0.000000 0.000000 0.000000 0.134458 0.000000 -0.073206
# 5 -0.008241 -0.046644 0.026551 0.000000 0.087481 0.000000
# 6 0.000000 0.000000 0.000000 -0.073206 0.000000 0.111860
#
#
# Mechanical properties :
#
#
# Convention : Reuss Voigt Hill
#
# Bulk Modulus (GPa) = 34.63532 53.57340 44.10436
# Shear Modulus (GPa) = 10.29347 20.19610 15.24479
#
# Velocity S-wave (km/s) = 2.32457 3.25608 2.82893
# Velocity P-wave (km/s) = 5.03854 6.50076 5.81579
#
# Compressibility (1/GPa) = 0.02887226
#
# Stress axis : x y z
#
# Youngs Moduli (GPa) = 70.95627 22.23383 37.69693
#
# Poissons Ratio (x) = -0.08568 0.33601
# Poissons Ratio (y) = -0.27343 0.87843
# Poissons Ratio (z) = 0.63246 0.51810
#
# Static dielectric constant tensor:
#      x y z
#    x 1.702120 0.000000 0.021540 
#    y 0.000000 1.619490 0.000000 
#    z 0.021540 0.000000 1.685340 
# 
# From -- ./inp_files/7723.got.cif
#   From: 2010.05.17/outbox.cif.g08.bks.cpg/sg11_4_cif.got.tgz:7723.got - 2010.06.03 12:22:45.
