data_PCOD9159057
_publ_section_title
;
Structure prediction by ZEFSAII (Michael W. Deem and Ramdas Pophale) SiO2 
 PCOD9159057
Probable space group: P 21/M
;
_chemical_formula_sum "Si O2"
_cell_formula_units_Z 18
_cell_length_a 19.911629
_cell_length_b 10.188470
_cell_length_c 9.119336
_cell_angle_alpha 90.000000
_cell_angle_beta 33.690256
_cell_angle_gamma 90.000000
_cell_volume 1026.217562
_symmetry_space_group_name_H-M "P 21/M"
_symmetry_group_IT_number 11
_symmetry_cell_setting 'monoclinic'
loop_
_space_group_symop_operation_xyz
x,y,z
-x,1/2+y,-z
-x,-y,-z
x,1/2-y,z
loop_
_atom_site_type_symbol
_atom_site_label
_atom_site_fract_x
_atom_site_fract_y
_atom_site_fract_z
Si Si1 0.187189 0.961240 0.806817
Si Si2 0.182440 0.750000 0.576614
Si Si3 0.039543 0.750000 0.256905
Si Si4 0.099477 0.250000 0.981045
Si Si5 0.799849 0.750000 0.874006
Si Si6 0.246575 0.750000 0.124952
Si Si7 0.356325 0.504287 0.772941
O O1 0.216337 0.876469 0.611311
O O2 0.297478 0.967133 0.720822
O O3 0.081759 0.878026 0.085606
O O4 0.152731 0.110551 0.832432
O O5 0.231550 0.750000 0.324699
O O6 0.038497 0.750000 0.815816
O O7 0.122641 0.750000 0.253252
O O8 0.900077 0.750000 0.562396
O O9 0.123775 0.250000 0.112242
O O10 0.712246 0.875795 0.041142
O O11 0.318842 0.623007 0.944122
O O12 0.500000 0.500000 0.500000
#
# Coordination Sequence:
#
# PCOD9159057 Si02
#       7
#     4   2   2   2   2   2   4
#     4   9  21  35  56  80 114 147 179 225 276 333
#     4  11  20  35  51  83 116 149 176 215 286 335
#     4   9  18  35  53  85 112 137 178 232 287 324
#     4  10  19  32  53  81 111 150 177 218 273 337
#     4  10  20  32  59  84 108 136 187 242 271 322
#     4  10  21  34  60  83 111 146 180 227 277 332
#     4  10  21  39  59  81 106 147 192 230 270 318
#
# _framework density 17.540139
#
# number of rings (size 3 to 8) (size 9 to 14) (size 15 to 20)
#    0.000    2.222    1.111    2.000    3.111    2.667 
#    0.000    1.111    0.000    0.000    0.000    0.000 
#    0.000    0.000    0.000    0.000    0.000    0.000 
#
# Total GULP energy -100377.772402 kJ/mol
# GULP energy per Si atom -5576.542911 kJ/mol
# Density = 1.750022 g / cm^3
# Si number density = 17.540139 Si / 1000 Ang^3
#
#
#
# Elastic Constant Matrix: (Units=GPa)
#
#
# Indices 1 2 3 4 5 6 
#
# 1 82.5660 66.7856 70.1791 0.0000 0.9092 0.0000
# 2 66.7856 170.9070 65.8192 0.0000 12.9053 0.0000
# 3 70.1791 65.8192 112.5473 0.0000 -3.6297 0.0000
# 4 0.0000 0.0000 0.0000 12.7397 0.0000 17.5802
# 5 0.9092 12.9053 -3.6297 0.0000 30.8246 0.0000
# 6 0.0000 0.0000 0.0000 17.5802 0.0000 18.8643
#
#
#
# Elastic Compliance Matrix: (Units=1/GPa)
#
#
# Indices 1 2 3 4 5 6 
#
# 1 0.029587 -0.005723 -0.015110 0.000000 -0.000256 0.000000
# 2 -0.005723 0.009103 -0.001880 0.000000 -0.003864 0.000000
# 3 -0.015110 -0.001880 0.019520 0.000000 0.003531 0.000000
# 4 0.000000 0.000000 0.000000 -0.274436 0.000000 0.255755
# 5 -0.000256 -0.003864 0.003531 0.000000 0.034483 0.000000
# 6 0.000000 0.000000 0.000000 0.255755 0.000000 -0.185336
#
#
# Mechanical properties :
#
#
# Convention : Reuss Voigt Hill
#
# Bulk Modulus (GPa) = 78.22040 85.73201 81.97620
# Shear Modulus (GPa) = -15.75344 23.36815 3.80735
#
# Velocity S-wave (km/s) = -3.00014 3.65398 1.47491
# Velocity P-wave (km/s) = 5.71758 8.17226 7.05254
#
# Compressibility (1/GPa) = 0.01278439
#
# Stress axis : x y z
#
# Youngs Moduli (GPa) = 33.79842 109.85138 51.22866
#
# Poissons Ratio (x) = 0.62871 0.77408
# Poissons Ratio (y) = 0.19344 0.09629
# Poissons Ratio (z) = 0.51071 0.20647
#
# Static dielectric constant tensor:
#      x y z
#    x 1.591280 0.000000 0.006490 
#    y 0.000000 1.589530 0.000000 
#    z 0.006490 0.000000 1.575500 
# 
# From -- ./inp_files/11555.got.cif
#   From: 2010.05.17/outbox.cif.g08.bks.cpg/sg11_6_cif.got.tgz:11555.got - 2010.06.03 12:22:45.
