data_PCOD9159743
_publ_section_title
;
Structure prediction by ZEFSAII (Michael W. Deem and Ramdas Pophale) SiO2 
 PCOD9159743
Probable space group: P 21/M
;
_chemical_formula_sum "Si O2"
_cell_formula_units_Z 28
_cell_length_a 8.887788
_cell_length_b 27.352950
_cell_length_c 10.183826
_cell_angle_alpha 90.000000
_cell_angle_beta 147.057746
_cell_angle_gamma 90.000000
_cell_volume 1346.303080
_symmetry_space_group_name_H-M "P 21/M"
_symmetry_group_IT_number 11
_symmetry_cell_setting 'monoclinic'
loop_
_space_group_symop_operation_xyz
x,y,z
-x,1/2+y,-z
-x,-y,-z
x,1/2-y,z
loop_
_atom_site_type_symbol
_atom_site_label
_atom_site_fract_x
_atom_site_fract_y
_atom_site_fract_z
Si Si1 0.605220 0.692319 0.731939
Si Si2 0.575182 0.984243 0.200493
Si Si3 0.872563 0.866840 0.701969
Si Si4 0.607626 0.387856 0.807203
Si Si5 0.182837 0.479468 0.255266
Si Si6 0.066261 0.954032 0.401563
Si Si7 0.923750 0.140394 0.765940
O O1 0.609790 0.750000 0.754959
O O2 0.763448 0.675958 0.714818
O O3 0.294232 0.673663 0.474533
O O4 0.791665 0.665943 0.980191
O O5 0.418311 0.944240 0.170739
O O6 0.865693 0.956825 0.378867
O O7 0.628732 0.034190 0.318966
O O8 0.500000 0.000000 0.000000
O O9 0.696541 0.867152 0.441022
O O10 0.807970 0.920399 0.723012
O O11 0.202399 0.864356 0.941569
O O12 0.767073 0.377803 0.785544
O O13 0.500000 0.500000 0.500000
O O14 0.032712 0.501430 0.274231
O O15 0.000000 0.500000 0.000000
O O16 0.027671 0.906114 0.289656
#
# Coordination Sequence:
#
# PCOD9159743 Si02
#       7
#     4   4   4   4   4   4   4
#     4  10  20  37  60  91 120 141 185 256 315 354
#     4  11  25  38  53  80 127 172 199 240 281 338
#     4  10  19  34  52  81 110 146 187 225 286 344
#     4  10  20  38  55  79 113 152 193 231 276 336
#     4  12  22  33  55  80 114 152 188 234 272 342
#     4  11  25  37  54  87 123 160 204 239 288 354
#     4  10  22  38  62  90 114 153 198 240 300 360
#
# _framework density 20.797694
#
# number of rings (size 3 to 8) (size 9 to 14) (size 15 to 20)
#    0.000    1.429    1.429    5.571    6.000    0.000 
#    0.000    0.000    0.000    0.000    0.000   24.000 
#    0.000    0.000    0.000    0.000    0.000    0.000 
#
# Total GULP energy -156119.404347 kJ/mol
# GULP energy per Si atom -5575.693012 kJ/mol
# Density = 2.075036 g / cm^3
# Si number density = 20.797694 Si / 1000 Ang^3
#
#
#
# Elastic Constant Matrix: (Units=GPa)
#
#
# Indices 1 2 3 4 5 6 
#
# 1 49.5904 10.4559 7.5237 0.0000 -2.1966 0.0000
# 2 10.4559 87.7062 30.3735 0.0000 -10.0598 0.0000
# 3 7.5237 30.3735 186.5150 0.0000 3.3131 0.0000
# 4 0.0000 0.0000 0.0000 28.7043 0.0000 0.5220
# 5 -2.1966 -10.0598 3.3131 0.0000 25.4903 0.0000
# 6 0.0000 0.0000 0.0000 0.5220 0.0000 11.9337
#
#
#
# Elastic Compliance Matrix: (Units=1/GPa)
#
#
# Indices 1 2 3 4 5 6 
#
# 1 0.020746 -0.002187 -0.000498 0.000000 0.000989 0.000000
# 2 -0.002187 0.012995 -0.002121 0.000000 0.005216 0.000000
# 3 -0.000498 -0.002121 0.005756 0.000000 -0.001628 0.000000
# 4 0.000000 0.000000 0.000000 0.034866 0.000000 -0.001525
# 5 0.000989 0.005216 -0.001628 0.000000 0.041586 0.000000
# 6 0.000000 0.000000 0.000000 -0.001525 0.000000 0.083863
#
#
# Mechanical properties :
#
#
# Convention : Reuss Voigt Hill
#
# Bulk Modulus (GPa) = 33.46210 46.72421 40.09315
# Shear Modulus (GPa) = 22.79099 31.58956 27.19028
#
# Velocity S-wave (km/s) = 3.31394 3.90153 3.61968
# Velocity P-wave (km/s) = 5.54682 6.54299 6.06539
#
# Compressibility (1/GPa) = 0.02988455
#
# Stress axis : x y z
#
# Youngs Moduli (GPa) = 48.20262 76.95220 173.73616
#
# Poissons Ratio (x) = 0.16831 0.08656
# Poissons Ratio (y) = 0.10543 0.36843
# Poissons Ratio (z) = 0.02402 0.16319
#
# Static dielectric constant tensor:
#      x y z
#    x 1.825480 0.000000 0.126640 
#    y 0.000000 1.706770 0.000000 
#    z 0.126640 0.000000 1.982020 
# 
# From -- ./inp_files/15284.got.cif
#   From: 2010.05.17/outbox.cif.g08.bks.cpg/sg11_8_cif.got.tgz:15284.got - 2010.06.03 12:22:45.
