data_PCOD9159999
_publ_section_title
;
Structure prediction by ZEFSAII (Michael W. Deem and Ramdas Pophale) SiO2 
 PCOD9159999
Probable space group: P 21/M
;
_chemical_formula_sum "Si O2"
_cell_formula_units_Z 32
_cell_length_a 19.499343
_cell_length_b 14.507500
_cell_length_c 14.747169
_cell_angle_alpha 90.000000
_cell_angle_beta 23.204390
_cell_angle_gamma 90.000000
_cell_volume 1643.732078
_symmetry_space_group_name_H-M "P 21/M"
_symmetry_group_IT_number 11
_symmetry_cell_setting 'monoclinic'
loop_
_space_group_symop_operation_xyz
x,y,z
-x,1/2+y,-z
-x,-y,-z
x,1/2-y,z
loop_
_atom_site_type_symbol
_atom_site_label
_atom_site_fract_x
_atom_site_fract_y
_atom_site_fract_z
Si Si1 0.171341 0.858054 0.504041
Si Si2 0.870295 0.357424 0.836643
Si Si3 0.225997 0.357429 0.494563
Si Si4 0.590514 0.005842 0.241862
Si Si5 0.835765 0.063678 0.682830
Si Si6 0.166219 0.141208 0.969377
Si Si7 0.730670 0.642420 0.351548
Si Si8 0.495786 0.985034 0.152085
O O1 0.192477 0.750000 0.494254
O O2 0.135464 0.878566 0.442454
O O3 0.350769 0.909840 0.307130
O O4 0.006214 0.888763 0.765909
O O5 0.852891 0.250000 0.878976
O O6 0.822538 0.375278 0.789943
O O7 0.066924 0.385264 0.623439
O O8 0.741858 0.418267 0.052072
O O9 0.262236 0.250000 0.435292
O O10 0.184028 0.369526 0.652832
O O11 0.394183 0.418112 0.272648
O O12 0.418598 0.064287 0.476262
O O13 0.561168 0.970059 0.175129
O O14 0.668102 0.921349 0.204746
O O15 0.664541 0.999084 0.884894
O O16 0.000000 0.000000 0.500000
O O17 0.196408 0.250000 0.953350
O O18 0.145538 0.133475 0.885924
O O19 0.663548 0.750000 0.431863
#
# Coordination Sequence:
#
# PCOD9159999 Si02
#       8
#     4   4   4   4   4   4   4   4
#     4  11  23  39  57  80 113 154 191 224 267 326
#     4  10  20  35  57  85 112 139 176 228 281 332
#     4   9  18  34  58  85 112 139 176 228 284 330
#     4  10  19  34  57  82 111 145 185 231 281 326
#     4  11  22  38  59  82 110 144 181 227 280 333
#     4  10  21  37  56  78 112 153 191 227 269 327
#     4   9  18  34  56  84 114 147 184 228 281 332
#     4  10  21  37  57  80 108 141 181 231 277 324
#
# _framework density 19.467891999999999
#
# number of rings (size 3 to 8) (size 9 to 14) (size 15 to 20)
#    0.000    2.000    0.000    4.500    0.000    4.000 
#    0.000    9.375    0.000    3.000    0.000    0.000 
#    0.000    0.000    0.000    0.000    0.000    0.000 
#
# Total GULP energy -178557.750764 kJ/mol
# GULP energy per Si atom -5579.929711 kJ/mol
# Density = 1.942358 g / cm^3
# Si number density = 19.467892 Si / 1000 Ang^3
#
#
#
# Elastic Constant Matrix: (Units=GPa)
#
#
# Indices 1 2 3 4 5 6 
#
# 1 61.1570 18.8794 30.7192 0.0000 -7.2423 0.0000
# 2 18.8794 59.1519 20.1987 0.0000 -1.8660 0.0000
# 3 30.7192 20.1987 74.4274 0.0000 7.7048 0.0000
# 4 0.0000 0.0000 0.0000 19.9183 0.0000 -5.0160
# 5 -7.2423 -1.8660 7.7048 0.0000 28.5392 0.0000
# 6 0.0000 0.0000 0.0000 -5.0160 0.0000 26.3859
#
#
#
# Elastic Compliance Matrix: (Units=1/GPa)
#
#
# Indices 1 2 3 4 5 6 
#
# 1 0.023246 -0.003964 -0.009364 0.000000 0.008168 0.000000
# 2 -0.003964 0.019506 -0.003792 0.000000 0.001293 0.000000
# 3 -0.009364 -0.003792 0.019136 0.000000 -0.007791 0.000000
# 4 0.000000 0.000000 0.000000 0.052729 0.000000 0.010024
# 5 0.008168 0.001293 -0.007791 0.000000 0.039300 0.000000
# 6 0.000000 0.000000 0.000000 0.010024 0.000000 0.039805
#
#
# Mechanical properties :
#
#
# Convention : Reuss Voigt Hill
#
# Bulk Modulus (GPa) = 36.16772 37.14785 36.65779
# Shear Modulus (GPa) = 21.08110 23.29794 22.18952
#
# Velocity S-wave (km/s) = 3.29426 3.46314 3.37976
# Velocity P-wave (km/s) = 5.75222 5.92572 5.83961
#
# Compressibility (1/GPa) = 0.02764896
#
# Stress axis : x y z
#
# Youngs Moduli (GPa) = 43.01799 51.26541 52.25635
#
# Poissons Ratio (x) = 0.20322 0.48935
# Poissons Ratio (y) = 0.17053 0.19813
# Poissons Ratio (z) = 0.40284 0.19437
#
# Static dielectric constant tensor:
#      x y z
#    x 1.692790 0.000000 0.016280 
#    y 0.000000 1.689740 0.000000 
#    z 0.016280 0.000000 1.686830 
# 
# From -- ./inp_files/54990.got.cif
#   From: 2010.05.17/outbox.cif.g08.bks.cpg/sg11_28_cif.got.tgz:54990.got - 2010.06.03 12:22:45.
