data_PCOD9159456
_publ_section_title
;
Structure prediction by ZEFSAII (Michael W. Deem and Ramdas Pophale) SiO2 
 PCOD9159456
Probable space group: P 21/M
;
_chemical_formula_sum "Si O2"
_cell_formula_units_Z 32
_cell_length_a 10.040669
_cell_length_b 12.169774
_cell_length_c 12.444645
_cell_angle_alpha 90.000000
_cell_angle_beta 116.672474
_cell_angle_gamma 90.000000
_cell_volume 1358.828319
_symmetry_space_group_name_H-M "P 21/M"
_symmetry_group_IT_number 11
_symmetry_cell_setting 'monoclinic'
loop_
_space_group_symop_operation_xyz
x,y,z
-x,1/2+y,-z
-x,-y,-z
x,1/2-y,z
loop_
_atom_site_type_symbol
_atom_site_label
_atom_site_fract_x
_atom_site_fract_y
_atom_site_fract_z
Si Si1 0.404738 0.880473 0.474261
Si Si2 0.504685 0.868815 0.187583
Si Si3 0.036862 0.630389 0.623228
Si Si4 0.170160 0.023573 0.272462
Si Si5 0.592042 0.878410 0.990044
Si Si6 0.926844 0.874792 0.127281
Si Si7 0.548728 0.586033 0.734672
Si Si8 0.153444 0.096749 0.658801
O O1 0.437927 0.750000 0.449563
O O2 0.252250 0.925397 0.369308
O O3 0.422973 0.872694 0.609173
O O4 0.500000 0.000000 0.500000
O O5 0.433106 0.750000 0.167283
O O6 0.678503 0.862972 0.281062
O O7 0.441648 0.953883 0.248776
O O8 0.501860 0.914715 0.064340
O O9 0.098829 0.750000 0.666092
O O10 0.924160 0.593933 0.676437
O O11 0.943129 0.629546 0.478503
O O12 0.157553 0.535107 0.660602
O O13 0.057788 0.960842 0.151511
O O14 0.289072 0.104991 0.259050
O O15 0.617311 0.750000 0.030489
O O16 0.524822 0.876614 0.847341
O O17 0.761977 0.920767 0.040043
O O18 0.947650 0.750000 0.093190
O O19 0.919133 0.869151 0.255050
#
# Coordination Sequence:
#
# PCOD9159456 Si02
#       8
#     4   4   4   4   4   4   4   4
#     4  10  22  38  56  82 117 158 199 238 285 345
#     4  10  20  36  58  82 110 149 197 246 298 354
#     4  10  19  33  54  81 114 148 187 238 297 355
#     4  10  22  35  54  83 116 153 191 235 289 350
#     4   9  19  36  58  80 104 143 194 245 297 351
#     4   9  17  33  57  80 104 137 183 238 288 340
#     4  11  22  36  56  83 118 154 192 239 293 353
#     4   9  18  33  54  80 103 140 189 235 286 338
#
# _framework density 23.549700999999999
#
# number of rings (size 3 to 8) (size 9 to 14) (size 15 to 20)
#    0.000    2.250    0.000    3.750    0.000    5.500 
#    0.000    5.625    0.000    8.250    0.000    0.000 
#    0.000    0.000    0.000    0.000    0.000    0.000 
#
# Total GULP energy -178302.524226 kJ/mol
# GULP energy per Si atom -5571.953882 kJ/mol
# Density = 2.349610 g / cm^3
# Si number density = 23.549701 Si / 1000 Ang^3
#
#
#
# Elastic Constant Matrix: (Units=GPa)
#
#
# Indices 1 2 3 4 5 6 
#
# 1 40.7105 0.4949 2.8336 0.0000 0.2422 0.0000
# 2 0.4949 147.1894 7.5789 0.0000 -4.2189 0.0000
# 3 2.8336 7.5789 90.7231 0.0000 -0.1427 0.0000
# 4 0.0000 0.0000 0.0000 0.5523 0.0000 -6.8692
# 5 0.2422 -4.2189 -0.1427 0.0000 20.3360 0.0000
# 6 0.0000 0.0000 0.0000 -6.8692 0.0000 12.3416
#
#
#
# Elastic Compliance Matrix: (Units=1/GPa)
#
#
# Indices 1 2 3 4 5 6 
#
# 1 0.024619 -0.000052 -0.000765 0.000000 -0.000309 0.000000
# 2 -0.000052 0.006864 -0.000570 0.000000 0.001421 0.000000
# 3 -0.000765 -0.000570 0.011094 0.000000 -0.000031 0.000000
# 4 0.000000 0.000000 0.000000 -0.305711 0.000000 -0.170157
# 5 -0.000309 0.001421 -0.000031 0.000000 0.049472 0.000000
# 6 0.000000 0.000000 0.000000 -0.170157 0.000000 -0.013682
#
#
# Mechanical properties :
#
#
# Convention : Reuss Voigt Hill
#
# Bulk Modulus (GPa) = 25.12321 33.38196 29.25259
# Shear Modulus (GPa) = -23.66286 24.49369 0.41541
#
# Velocity S-wave (km/s) = -3.17331 3.22853 0.42045
# Velocity P-wave (km/s) = 1.65383 5.30130 3.56150
#
# Compressibility (1/GPa) = 0.03980384
#
# Stress axis : x y z
#
# Youngs Moduli (GPa) = 40.61833 145.68362 90.13894
#
# Poissons Ratio (x) = 0.00761 0.06896
# Poissons Ratio (y) = 0.00212 0.05134
# Poissons Ratio (z) = 0.03108 0.08298
#
# Static dielectric constant tensor:
#      x y z
#    x 1.882230 0.000000 -0.000770 
#    y 0.000000 2.035320 0.000000 
#    z -0.000770 0.000000 1.917340 
# 
# From -- ./inp_files/35075.got.cif
#   From: 2010.05.17/outbox.cif.g08.bks.cpg/sg11_18_cif.got.tgz:35075.got - 2010.06.03 12:22:45.
