data_PCOD9159770
_publ_section_title
;
Structure prediction by ZEFSAII (Michael W. Deem and Ramdas Pophale) SiO2 
 PCOD9159770
Probable space group: P 21/M
;
_chemical_formula_sum "Si O2"
_cell_formula_units_Z 28
_cell_length_a 14.703667
_cell_length_b 16.266531
_cell_length_c 8.093131
_cell_angle_alpha 90.000000
_cell_angle_beta 36.946160
_cell_angle_gamma 90.000000
_cell_volume 1163.477802
_symmetry_space_group_name_H-M "P 21/M"
_symmetry_group_IT_number 11
_symmetry_cell_setting 'monoclinic'
loop_
_space_group_symop_operation_xyz
x,y,z
-x,1/2+y,-z
-x,-y,-z
x,1/2-y,z
loop_
_atom_site_type_symbol
_atom_site_label
_atom_site_fract_x
_atom_site_fract_y
_atom_site_fract_z
Si Si1 0.942370 0.661868 0.836330
Si Si2 0.114624 0.512351 0.183748
Si Si3 0.250000 0.887996 0.250000
Si Si4 0.932484 0.161061 0.974025
Si Si5 0.385376 0.987649 0.316252
Si Si6 0.557630 0.838132 0.663670
Si Si7 0.432484 0.838939 0.474025
O O1 0.864269 0.750000 0.921337
O O2 0.093185 0.659942 0.500533
O O3 0.852689 0.577982 0.931927
O O4 0.997260 0.659097 0.945998
O O5 0.249308 0.557414 0.084541
O O6 0.041606 0.577200 0.163356
O O7 0.000000 0.500000 0.500000
O O8 0.250692 0.942586 0.415459
O O9 0.406815 0.840058 0.999467
O O10 0.977272 0.250000 0.831629
O O11 0.750000 0.163122 0.250000
O O12 0.352689 0.077982 0.431927
O O13 0.458394 0.922800 0.336644
O O14 0.500000 0.000000 0.000000
O O15 0.635731 0.750000 0.578663
O O16 0.502740 0.840903 0.554002
O O17 0.477272 0.750000 0.331629
#
# Coordination Sequence:
#
# PCOD9159770 Si02
#       7
#     4   4   4   4   4   4   4
#     4  10  20  34  56  82 109 143 184 226 271 321
#     4  10  21  34  53  83 114 144 178 226 276 322
#     4  10  19  34  53  82 112 146 181 224 273 318
#     4  10  19  34  58  85 108 140 183 231 274 316
#     4  10  21  34  53  83 114 144 178 226 276 322
#     4  10  20  34  56  82 109 143 184 226 271 321
#     4  10  19  34  58  85 108 140 183 231 274 316
#
# _framework density 24.065778000000002
#
# number of rings (size 3 to 8) (size 9 to 14) (size 15 to 20)
#    0.000    2.000    2.857    1.286    0.000    4.571 
#    0.000    0.714    0.000    2.571    0.000    0.000 
#    0.000    0.000    0.000    0.000    0.000    0.000 
#
# Total GULP energy -156280.268162 kJ/mol
# GULP energy per Si atom -5581.438149 kJ/mol
# Density = 2.401100 g / cm^3
# Si number density = 24.065778 Si / 1000 Ang^3
#
#
#
# Elastic Constant Matrix: (Units=GPa)
#
#
# Indices 1 2 3 4 5 6 
#
# 1 64.3245 55.4706 -5.3174 0.0000 24.0528 0.0000
# 2 55.4706 256.1806 30.6195 0.0000 33.0071 0.0000
# 3 -5.3174 30.6195 64.0696 0.0000 5.3231 0.0000
# 4 0.0000 0.0000 0.0000 -49.9680 0.0000 120.3826
# 5 24.0528 33.0071 5.3231 0.0000 29.0544 0.0000
# 6 0.0000 0.0000 0.0000 120.3826 0.0000 -161.3165
#
#
#
# Elastic Compliance Matrix: (Units=1/GPa)
#
#
# Indices 1 2 3 4 5 6 
#
# 1 0.026290 -0.004015 0.005615 0.000000 -0.018232 0.000000
# 2 -0.004015 0.005395 -0.002720 0.000000 -0.002307 0.000000
# 3 0.005615 -0.002720 0.017774 0.000000 -0.004815 0.000000
# 4 0.000000 0.000000 0.000000 0.025083 0.000000 0.018718
# 5 -0.018232 -0.002307 -0.004815 0.000000 0.053015 0.000000
# 6 0.000000 0.000000 0.000000 0.018718 0.000000 0.007770
#
#
# Mechanical properties :
#
#
# Convention : Reuss Voigt Hill
#
# Bulk Modulus (GPa) = 21.17714 60.68003 40.92859
# Shear Modulus (GPa) = 32.61464 -16.19256 8.21104
#
# Velocity S-wave (km/s) = 3.68534 -2.59674 1.84914
# Velocity P-wave (km/s) = 5.18919 4.03463 4.64790
#
# Compressibility (1/GPa) = 0.04722072
#
# Stress axis : x y z
#
# Youngs Moduli (GPa) = 38.03734 185.35178 56.26199
#
# Poissons Ratio (x) = 0.74411 -0.31593
# Poissons Ratio (y) = 0.15271 0.15303
# Poissons Ratio (z) = -0.21359 0.50414
#
# Static dielectric constant tensor:
#      x y z
#    x 1.972790 0.000000 -0.041150 
#    y 0.000000 2.073480 0.000000 
#    z -0.041150 0.000000 1.921630 
# 
# From -- ./inp_files/24939.got.cif
#   From: 2010.05.17/outbox.cif.g08.bks.cpg/sg11_13_cif.got.tgz:24939.got - 2010.06.03 12:22:45.
