data_PCOD9159652
_publ_section_title
;
Structure prediction by ZEFSAII (Michael W. Deem and Ramdas Pophale) SiO2 
 PCOD9159652
Probable space group: P 21/M
;
_chemical_formula_sum "Si O2"
_cell_formula_units_Z 28
_cell_length_a 13.391818
_cell_length_b 10.418516
_cell_length_c 9.769496
_cell_angle_alpha 90.000000
_cell_angle_beta 71.110027
_cell_angle_gamma 90.000000
_cell_volume 1289.656041
_symmetry_space_group_name_H-M "P 21/M"
_symmetry_group_IT_number 11
_symmetry_cell_setting 'monoclinic'
loop_
_space_group_symop_operation_xyz
x,y,z
-x,1/2+y,-z
-x,-y,-z
x,1/2-y,z
loop_
_atom_site_type_symbol
_atom_site_label
_atom_site_fract_x
_atom_site_fract_y
_atom_site_fract_z
Si Si1 0.667311 0.492914 0.462125
Si Si2 0.370319 0.102585 0.951646
Si Si3 0.810818 0.600481 0.771045
Si Si4 0.148976 0.887811 0.468412
Si Si5 0.974056 0.104712 0.196107
Si Si6 0.182217 0.109428 0.812585
Si Si7 0.519678 0.100050 0.278613
O O1 0.737630 0.389328 0.507855
O O2 0.751506 0.589297 0.356948
O O3 0.590745 0.562746 0.602279
O O4 0.601826 0.430012 0.366615
O O5 0.412107 0.250000 0.937730
O O6 0.274325 0.103217 0.884193
O O7 0.449900 0.995480 0.859271
O O8 0.306316 0.073550 0.118979
O O9 0.813825 0.750000 0.728186
O O10 0.844296 0.504156 0.638466
O O11 0.900637 0.586595 0.848710
O O12 0.129267 0.750000 0.409068
O O13 0.065770 0.903391 0.628055
O O14 0.950771 0.250000 0.160032
O O15 0.905330 0.000890 0.146965
O O16 0.132725 0.250000 0.838617
O O17 0.523927 0.250000 0.239300
#
# Coordination Sequence:
#
# PCOD9159652 Si02
#       7
#     4   4   4   4   4   4   4
#     4   9  19  33  53  80 109 132 158 205 264 306
#     4   9  20  36  51  72 105 140 171 208 256 302
#     4  10  21  37  53  70 101 143 176 206 251 304
#     4  10  20  34  53  78 104 131 168 213 254 296
#     4   9  19  34  52  76 104 132 166 212 262 302
#     4   9  17  31  52  77 104 132 166 207 251 304
#     4  10  19  33  57  83 104 131 169 209 252 306
#
# _framework density 21.711213999999998
#
# number of rings (size 3 to 8) (size 9 to 14) (size 15 to 20)
#    0.000    2.571    0.000    1.286    0.000   12.000 
#    0.000    0.714    0.000    0.000    0.000    0.000 
#    0.000    0.000    0.000    0.000    0.000    0.000 
#
# Total GULP energy -156329.720717 kJ/mol
# GULP energy per Si atom -5583.204311 kJ/mol
# Density = 2.166180 g / cm^3
# Si number density = 21.711214 Si / 1000 Ang^3
#
#
#
# Elastic Constant Matrix: (Units=GPa)
#
#
# Indices 1 2 3 4 5 6 
#
# 1 44.3869 20.3538 17.5208 0.0000 -14.4636 0.0000
# 2 20.3538 122.4494 67.0610 0.0000 -12.0088 0.0000
# 3 17.5208 67.0610 80.6053 0.0000 -20.3130 0.0000
# 4 0.0000 0.0000 0.0000 -18.5564 0.0000 -15.1760
# 5 -14.4636 -12.0088 -20.3130 0.0000 33.8031 0.0000
# 6 0.0000 0.0000 0.0000 -15.1760 0.0000 9.9197
#
#
#
# Elastic Compliance Matrix: (Units=1/GPa)
#
#
# Indices 1 2 3 4 5 6 
#
# 1 0.027620 -0.003143 -0.000815 0.000000 0.010211 0.000000
# 2 -0.003143 0.015550 -0.013200 0.000000 -0.003753 0.000000
# 3 -0.000815 -0.013200 0.026274 0.000000 0.010751 0.000000
# 4 0.000000 0.000000 0.000000 -0.023938 0.000000 -0.036623
# 5 0.010211 -0.003753 0.010751 0.000000 0.039080 0.000000
# 6 0.000000 0.000000 0.000000 -0.036623 0.000000 0.044781
#
#
# Mechanical properties :
#
#
# Convention : Reuss Voigt Hill
#
# Bulk Modulus (GPa) = 28.46733 50.81251 39.63992
# Shear Modulus (GPa) = 28.50781 14.53369 21.52075
#
# Velocity S-wave (km/s) = 3.62753 2.59010 3.15179
# Velocity P-wave (km/s) = 5.53945 5.69205 5.61627
#
# Compressibility (1/GPa) = 0.03512799
#
# Stress axis : x y z
#
# Youngs Moduli (GPa) = 36.20616 64.30886 38.06018
#
# Poissons Ratio (x) = 0.20213 0.03103
# Poissons Ratio (y) = 0.11380 0.50238
# Poissons Ratio (z) = 0.02952 0.84885
#
# Static dielectric constant tensor:
#      x y z
#    x 1.800890 0.000000 0.021250 
#    y 0.000000 1.757280 0.000000 
#    z 0.021250 0.000000 1.824310 
# 
# From -- ./inp_files/37881.got.cif
#   From: 2010.05.17/outbox.cif.g08.bks.cpg/sg11_19_cif.got.tgz:37881.got - 2010.06.03 12:22:45.
