data_PCOD9159304
_publ_section_title
;
Structure prediction by ZEFSAII (Michael W. Deem and Ramdas Pophale) SiO2 
 PCOD9159304
Probable space group: P 21/M
;
_chemical_formula_sum "Si O2"
_cell_formula_units_Z 28
_cell_length_a 17.467585
_cell_length_b 8.084891
_cell_length_c 15.653113
_cell_angle_alpha 90.000000
_cell_angle_beta 45.618579
_cell_angle_gamma 90.000000
_cell_volume 1579.905985
_symmetry_space_group_name_H-M "P 21/M"
_symmetry_group_IT_number 11
_symmetry_cell_setting 'monoclinic'
loop_
_space_group_symop_operation_xyz
x,y,z
-x,1/2+y,-z
-x,-y,-z
x,1/2-y,z
loop_
_atom_site_type_symbol
_atom_site_label
_atom_site_fract_x
_atom_site_fract_y
_atom_site_fract_z
Si Si1 0.868558 0.547811 0.736193
Si Si2 0.152547 0.050881 0.941436
Si Si3 0.294014 0.452138 0.985307
Si Si4 0.084450 0.949317 0.816087
Si Si5 0.247405 0.446736 0.344481
Si Si6 0.896584 0.448862 0.390036
Si Si7 0.515661 0.447840 0.889577
O O1 0.869554 0.750000 0.734330
O O2 0.822296 0.488906 0.681764
O O3 0.988870 0.491419 0.662571
O O4 0.787784 0.499579 0.875203
O O5 0.151327 0.250000 0.945841
O O6 0.245045 0.992568 0.933259
O O7 0.157235 0.000432 0.839119
O O8 0.036879 0.992923 0.067861
O O9 0.295367 0.250000 0.983710
O O10 0.413056 0.508977 0.915914
O O11 0.081578 0.750000 0.816663
O O12 0.117114 0.008780 0.696630
O O13 0.239162 0.250000 0.349087
O O14 0.197025 0.506859 0.471988
O O15 0.370548 0.492770 0.233775
O O16 0.903457 0.250000 0.380812
O O17 0.514895 0.250000 0.887430
O O18 0.500000 0.500000 0.000000
#
# Coordination Sequence:
#
# PCOD9159304 Si02
#       7
#     4   4   4   4   4   4   4
#     4   9  16  30  51  74 102 136 169 203 247 302
#     4   9  16  29  51  75  99 131 166 201 248 303
#     4   9  16  30  53  76 100 133 168 204 249 300
#     4   9  17  29  48  74 104 132 160 202 252 302
#     4  11  22  35  51  73 105 139 174 214 253 294
#     4  10  19  33  53  74 102 140 175 204 248 308
#     4  11  21  35  55  76 101 134 175 214 251 297
#
# _framework density 17.722572
#
# number of rings (size 3 to 8) (size 9 to 14) (size 15 to 20)
#    0.000    2.286    2.857    1.286    0.000    0.571 
#    0.000    2.143    0.000    0.857    0.000    0.000 
#    0.000    0.000    0.000    0.000    0.000    0.000 
#
# Total GULP energy -156203.327760 kJ/mol
# GULP energy per Si atom -5578.690277 kJ/mol
# Density = 1.768223 g / cm^3
# Si number density = 17.722572 Si / 1000 Ang^3
#
#
#
# Elastic Constant Matrix: (Units=GPa)
#
#
# Indices 1 2 3 4 5 6 
#
# 1 163.3360 7.4826 89.4618 0.0000 26.6709 0.0000
# 2 7.4826 9.0153 4.4461 0.0000 6.8296 0.0000
# 3 89.4618 4.4461 142.7775 0.0000 16.3867 0.0000
# 4 0.0000 0.0000 0.0000 21.6657 0.0000 3.1365
# 5 26.6709 6.8296 16.3867 0.0000 20.4762 0.0000
# 6 0.0000 0.0000 0.0000 3.1365 0.0000 20.0293
#
#
#
# Elastic Compliance Matrix: (Units=1/GPa)
#
#
# Indices 1 2 3 4 5 6 
#
# 1 0.010788 0.001407 -0.005656 0.000000 -0.009994 0.000000
# 2 0.001407 0.148785 0.000431 0.000000 -0.051802 0.000000
# 3 -0.005656 0.000431 0.010687 0.000000 -0.001329 0.000000
# 4 0.000000 0.000000 0.000000 0.047227 0.000000 -0.007395
# 5 -0.009994 -0.051802 -0.001329 0.000000 0.080196 0.000000
# 6 0.000000 0.000000 0.000000 -0.007395 0.000000 0.051085
#
#
# Mechanical properties :
#
#
# Convention : Reuss Voigt Hill
#
# Bulk Modulus (GPa) = 6.14921 57.54553 31.84737
# Shear Modulus (GPa) = 12.17692 26.68346 19.43019
#
# Velocity S-wave (km/s) = 2.62408 3.88444 3.31471
# Velocity P-wave (km/s) = 3.55785 7.25667 5.71478
#
# Compressibility (1/GPa) = 0.16262263
#
# Stress axis : x y z
#
# Youngs Moduli (GPa) = 92.69688 6.72110 93.57064
#
# Poissons Ratio (x) = -0.00945 0.52926
# Poissons Ratio (y) = -0.13040 -0.04031
# Poissons Ratio (z) = 0.52432 -0.00290
#
# Static dielectric constant tensor:
#      x y z
#    x 1.620450 0.000000 0.012900 
#    y 0.000000 1.637580 0.000000 
#    z 0.012900 0.000000 1.565700 
# 
# From -- ./inp_files/37498.got.cif
#   From: 2010.05.17/outbox.cif.g08.bks.cpg/sg11_19_cif.got.tgz:37498.got - 2010.06.03 12:22:45.
