data_PCOD9159832
_publ_section_title
;
Structure prediction by ZEFSAII (Michael W. Deem and Ramdas Pophale) SiO2 
 PCOD9159832
Probable space group: P 21/M
;
_chemical_formula_sum "Si O2"
_cell_formula_units_Z 28
_cell_length_a 10.305454
_cell_length_b 9.464012
_cell_length_c 14.517195
_cell_angle_alpha 90.000000
_cell_angle_beta 110.571044
_cell_angle_gamma 90.000000
_cell_volume 1325.595523
_symmetry_space_group_name_H-M "P 21/M"
_symmetry_group_IT_number 11
_symmetry_cell_setting 'monoclinic'
loop_
_space_group_symop_operation_xyz
x,y,z
-x,1/2+y,-z
-x,-y,-z
x,1/2-y,z
loop_
_atom_site_type_symbol
_atom_site_label
_atom_site_fract_x
_atom_site_fract_y
_atom_site_fract_z
Si Si1 0.640409 0.915668 0.540744
Si Si2 0.520204 0.917191 0.873355
Si Si3 0.813181 0.095307 0.449335
Si Si4 0.068764 0.098210 0.654498
Si Si5 0.273981 0.084179 0.230184
Si Si6 0.276751 0.581566 0.939442
Si Si7 0.995092 0.413739 0.848565
O O1 0.617985 0.750000 0.527830
O O2 0.708944 0.943790 0.657173
O O3 0.500000 0.000000 0.500000
O O4 0.729825 0.974162 0.479562
O O5 0.543270 0.750000 0.901139
O O6 0.579323 0.938779 0.785296
O O7 0.362163 0.945784 0.864971
O O8 0.619083 0.015888 0.959484
O O9 0.745172 0.250000 0.430686
O O10 0.949368 0.108036 0.547297
O O11 0.848672 0.039222 0.357117
O O12 0.145730 0.250000 0.671849
O O13 0.004651 0.084944 0.739300
O O14 0.238132 0.250000 0.209403
O O15 0.148816 0.988872 0.160856
O O16 0.258861 0.750000 0.945215
O O17 0.131123 0.501147 0.910931
O O18 0.000289 0.250000 0.880312
#
# Coordination Sequence:
#
# PCOD9159832 Si02
#       7
#     4   4   4   4   4   4   4
#     4  11  23  38  57  82 115 153 196 242 294 352
#     4   9  20  41  64  86 116 153 196 243 293 351
#     4  10  19  34  55  78 107 145 190 236 285 336
#     4   9  19  34  53  79 110 145 187 233 283 337
#     4  10  22  40  62  87 117 154 197 245 297 351
#     4  10  21  38  62  91 120 153 194 240 295 354
#     4  11  22  37  59  89 124 157 196 243 294 349
#
# _framework density 21.122582000000001
#
# number of rings (size 3 to 8) (size 9 to 14) (size 15 to 20)
#    0.000    2.000    1.429    1.714    0.000    5.143 
#    0.000    1.429    0.000    0.000    0.000    0.000 
#    0.000    0.000    0.000    0.000    0.000    0.000 
#
# Total GULP energy -156220.875690 kJ/mol
# GULP energy per Si atom -5579.316989 kJ/mol
# Density = 2.107451 g / cm^3
# Si number density = 21.122582 Si / 1000 Ang^3
#
#
#
# Elastic Constant Matrix: (Units=GPa)
#
#
# Indices 1 2 3 4 5 6 
#
# 1 59.9543 36.3349 -0.4041 0.0000 2.6627 0.0000
# 2 36.3349 89.9303 20.8203 0.0000 16.8411 0.0000
# 3 -0.4041 20.8203 19.0337 0.0000 1.7263 0.0000
# 4 0.0000 0.0000 0.0000 21.9392 0.0000 0.0841
# 5 2.6627 16.8411 1.7263 0.0000 26.3019 0.0000
# 6 0.0000 0.0000 0.0000 0.0841 0.0000 35.3637
#
#
#
# Elastic Compliance Matrix: (Units=1/GPa)
#
#
# Indices 1 2 3 4 5 6 
#
# 1 0.025984 -0.015622 0.017073 0.000000 0.006252 0.000000
# 2 -0.015622 0.026456 -0.028045 0.000000 -0.013517 0.000000
# 3 0.017073 -0.028045 0.082598 0.000000 0.010807 0.000000
# 4 0.000000 0.000000 0.000000 0.045581 0.000000 -0.000108
# 5 0.006252 -0.013517 0.010807 0.000000 0.045333 0.000000
# 6 0.000000 0.000000 0.000000 -0.000108 0.000000 0.028278
#
#
# Mechanical properties :
#
#
# Convention : Reuss Voigt Hill
#
# Bulk Modulus (GPa) = 12.21739 31.38006 21.79872
# Shear Modulus (GPa) = 14.93874 24.19878 19.56876
#
# Velocity S-wave (km/s) = 2.66228 3.38840 3.04705
# Velocity P-wave (km/s) = 3.90473 5.49515 4.76674
#
# Compressibility (1/GPa) = 0.08185056
#
# Stress axis : x y z
#
# Youngs Moduli (GPa) = 38.48459 37.79900 12.10688
#
# Poissons Ratio (x) = 0.59050 -0.20670
# Poissons Ratio (y) = 0.60121 0.33953
# Poissons Ratio (z) = -0.65705 1.06006
#
# Static dielectric constant tensor:
#      x y z
#    x 1.996420 0.000000 -0.054790 
#    y 0.000000 1.700930 0.000000 
#    z -0.054790 0.000000 1.757210 
# 
# From -- ./inp_files/49022.got.cif
#   From: 2010.05.17/outbox.cif.g08.bks.cpg/sg11_25_cif.got.tgz:49022.got - 2010.06.03 12:22:45.
