data_PCOD9159519
_publ_section_title
;
Structure prediction by ZEFSAII (Michael W. Deem and Ramdas Pophale) SiO2 
 PCOD9159519
Probable space group: P 21/M
;
_chemical_formula_sum "Si O2"
_cell_formula_units_Z 32
_cell_length_a 25.867847
_cell_length_b 8.823848
_cell_length_c 21.028760
_cell_angle_alpha 90.000000
_cell_angle_beta 22.605962
_cell_angle_gamma 90.000000
_cell_volume 1845.039269
_symmetry_space_group_name_H-M "P 21/M"
_symmetry_group_IT_number 11
_symmetry_cell_setting 'monoclinic'
loop_
_space_group_symop_operation_xyz
x,y,z
-x,1/2+y,-z
-x,-y,-z
x,1/2-y,z
loop_
_atom_site_type_symbol
_atom_site_label
_atom_site_fract_x
_atom_site_fract_y
_atom_site_fract_z
Si Si1 0.855747 0.431510 0.094156
Si Si2 0.160093 0.069343 0.747892
Si Si3 0.560425 0.933138 0.113957
Si Si4 0.851868 0.931984 0.739772
Si Si5 0.133179 0.068151 0.425466
Si Si6 0.581627 0.932239 0.847845
Si Si7 0.430971 0.568558 0.395589
Si Si8 0.577306 0.068604 0.351549
O O1 0.852421 0.250000 0.110388
O O2 0.829202 0.515392 0.190949
O O3 0.735360 0.466116 0.182556
O O4 0.007394 0.469277 0.900545
O O5 0.176906 0.250000 0.725727
O O6 0.278561 0.990190 0.574783
O O7 0.554964 0.750000 0.113831
O O8 0.497381 0.974924 0.253162
O O9 0.479458 0.005375 0.147742
O O10 0.716664 0.978894 0.929304
O O11 0.860213 0.750000 0.732065
O O12 0.840531 0.977520 0.678103
O O13 0.991017 0.999297 0.606893
O O14 0.122847 0.250000 0.438101
O O15 0.262257 0.023793 0.319941
O O16 0.572633 0.750000 0.860204
O O17 0.500000 0.000000 0.000000
O O18 0.432064 0.750000 0.399851
O O19 0.514745 0.499472 0.358919
O O20 0.560445 0.250000 0.370581
O O21 0.500000 0.000000 0.500000
#
# Coordination Sequence:
#
# PCOD9159519 Si02
#       8
#     4   4   4   4   4   4   4   4
#     4   9  19  34  54  81 110 140 179 228 278 324
#     4  10  19  33  55  81 110 144 181 224 275 328
#     4  10  22  40  57  78 111 149 187 228 273 325
#     4   9  17  33  54  77 108 142 180 223 270 321
#     4   9  18  32  52  81 111 137 175 225 273 321
#     4  11  21  35  57  84 113 143 182 229 274 324
#     4  11  23  38  56  79 113 151 185 226 275 327
#     4  11  21  35  57  84 112 141 183 230 274 325
#
# _framework density 17.343805
#
# number of rings (size 3 to 8) (size 9 to 14) (size 15 to 20)
#    0.000    2.000    2.500    1.500    0.000    3.500 
#    0.000    1.250    0.000    6.000    0.000    0.000 
#    0.000    0.000    0.000    0.000    0.000    0.000 
#
# Total GULP energy -178584.569488 kJ/mol
# GULP energy per Si atom -5580.767796 kJ/mol
# Density = 1.730433 g / cm^3
# Si number density = 17.343805 Si / 1000 Ang^3
#
#
#
# Elastic Constant Matrix: (Units=GPa)
#
#
# Indices 1 2 3 4 5 6 
#
# 1 116.7640 42.6699 93.8504 0.0000 -6.8941 0.0000
# 2 42.6699 34.4888 53.1298 0.0000 -1.9326 0.0000
# 3 93.8504 53.1298 182.7800 0.0000 -13.7222 0.0000
# 4 0.0000 0.0000 0.0000 28.1929 0.0000 -3.3721
# 5 -6.8941 -1.9326 -13.7222 0.0000 29.3850 0.0000
# 6 0.0000 0.0000 0.0000 -3.3721 0.0000 26.2051
#
#
#
# Elastic Compliance Matrix: (Units=1/GPa)
#
#
# Indices 1 2 3 4 5 6 
#
# 1 0.017839 -0.014518 -0.004867 0.000000 0.000957 0.000000
# 2 -0.014518 0.064736 -0.011709 0.000000 -0.004617 0.000000
# 3 -0.004867 -0.011709 0.011638 0.000000 0.003523 0.000000
# 4 0.000000 0.000000 0.000000 0.036024 0.000000 0.004636
# 5 0.000957 -0.004617 0.003523 0.000000 0.035597 0.000000
# 6 0.000000 0.000000 0.000000 0.004636 0.000000 0.038757
#
#
# Mechanical properties :
#
#
# Convention : Reuss Voigt Hill
#
# Bulk Modulus (GPa) = 31.22714 79.25922 55.24318
# Shear Modulus (GPa) = 18.02086 26.38213 22.20149
#
# Velocity S-wave (km/s) = 3.22691 3.90439 3.58170
# Velocity P-wave (km/s) = 5.65047 8.13165 7.00184
#
# Compressibility (1/GPa) = 0.03202343
#
# Stress axis : x y z
#
# Youngs Moduli (GPa) = 56.05843 15.44724 85.92220
#
# Poissons Ratio (x) = 0.22426 0.41822
# Poissons Ratio (y) = 0.81386 1.00610
# Poissons Ratio (z) = 0.27286 0.18088
#
# Static dielectric constant tensor:
#      x y z
#    x 1.561110 0.000000 -0.023000 
#    y 0.000000 1.583640 0.000000 
#    z -0.023000 0.000000 1.595470 
# 
# From -- ./inp_files/67016.got.cif
#   From: 2010.05.17/outbox.cif.g08.bks.cpg/sg11_34_cif.got.tgz:67016.got - 2010.06.03 12:22:45.
