data_PCOD9159939
_publ_section_title
;
Structure prediction by ZEFSAII (Michael W. Deem and Ramdas Pophale) SiO2 
 PCOD9159939
Probable space group: P 21/M
;
_chemical_formula_sum "Si O2"
_cell_formula_units_Z 32
_cell_length_a 32.106981
_cell_length_b 8.633275
_cell_length_c 14.625480
_cell_angle_alpha 90.000000
_cell_angle_beta 27.012359
_cell_angle_gamma 90.000000
_cell_volume 1841.262663
_symmetry_space_group_name_H-M "P 21/M"
_symmetry_group_IT_number 11
_symmetry_cell_setting 'monoclinic'
loop_
_space_group_symop_operation_xyz
x,y,z
-x,1/2+y,-z
-x,-y,-z
x,1/2-y,z
loop_
_atom_site_type_symbol
_atom_site_label
_atom_site_fract_x
_atom_site_fract_y
_atom_site_fract_z
Si Si1 0.160440 0.436287 0.868112
Si Si2 0.693950 0.562566 0.275009
Si Si3 0.450150 0.436641 0.285003
Si Si4 0.305501 0.934443 0.437170
Si Si5 0.400207 0.063133 0.723304
Si Si6 0.772763 0.935644 0.593950
Si Si7 0.642850 0.064145 0.992514
Si Si8 0.979841 0.564486 0.140438
O O1 0.157269 0.250000 0.870766
O O2 0.060153 0.503448 0.048645
O O3 0.211816 0.486544 0.860788
O O4 0.226568 0.493361 0.656741
O O5 0.695061 0.750000 0.271274
O O6 0.612422 0.519338 0.504691
O O7 0.669161 0.511598 0.221798
O O8 0.445126 0.250000 0.285092
O O9 0.401878 0.512530 0.292205
O O10 0.553645 0.480632 0.106320
O O11 0.298656 0.750000 0.452452
O O12 0.286915 0.995758 0.372365
O O13 0.403323 0.250000 0.719141
O O14 0.500000 0.000000 0.500000
O O15 0.371820 0.000027 0.877305
O O16 0.767991 0.750000 0.600567
O O17 0.878283 0.982667 0.370753
O O18 0.731440 0.997669 0.768908
O O19 0.645747 0.250000 0.990011
O O20 0.983103 0.750000 0.130235
O O21 0.000000 0.500000 0.000000
#
# Coordination Sequence:
#
# PCOD9159939 Si02
#       8
#     4   4   4   4   4   4   4   4
#     4  10  19  34  56  82 113 146 181 227 279 329
#     4   8  16  32  54  80 111 145 178 221 277 326
#     4   9  18  35  54  75 110 150 186 225 273 327
#     4  11  21  33  53  81 111 146 189 229 270 327
#     4  11  20  35  58  85 114 148 189 231 277 331
#     4  11  24  40  56  78 111 151 187 228 282 336
#     4  11  23  39  57  81 112 149 190 235 282 333
#     4  11  22  36  58  84 111 144 185 232 281 332
#
# _framework density 17.379377999999999
#
# number of rings (size 3 to 8) (size 9 to 14) (size 15 to 20)
#    0.000    1.750    2.500    3.750    0.000    3.000 
#    0.000    1.875    0.000    0.750    0.000    0.000 
#    0.000    0.000    0.000    0.000    0.000    0.000 
#
# Total GULP energy -178685.837300 kJ/mol
# GULP energy per Si atom -5583.932416 kJ/mol
# Density = 1.733982 g / cm^3
# Si number density = 17.379378 Si / 1000 Ang^3
#
#
#
# Elastic Constant Matrix: (Units=GPa)
#
#
# Indices 1 2 3 4 5 6 
#
# 1 130.0917 33.7207 72.2038 0.0000 -2.6361 0.0000
# 2 33.7207 55.7681 37.5920 0.0000 -2.1657 0.0000
# 3 72.2038 37.5920 117.9457 0.0000 1.2279 0.0000
# 4 0.0000 0.0000 0.0000 24.1345 0.0000 -1.8164
# 5 -2.6361 -2.1657 1.2279 0.0000 23.4223 0.0000
# 6 0.0000 0.0000 0.0000 -1.8164 0.0000 28.3403
#
#
#
# Elastic Compliance Matrix: (Units=1/GPa)
#
#
# Indices 1 2 3 4 5 6 
#
# 1 0.012056 -0.002865 -0.006483 0.000000 0.001432 0.000000
# 2 -0.002865 0.023665 -0.005812 0.000000 0.002170 0.000000
# 3 -0.006483 -0.005812 0.014320 0.000000 -0.002018 0.000000
# 4 0.000000 0.000000 0.000000 0.041635 0.000000 0.002668
# 5 0.001432 0.002170 -0.002018 0.000000 0.043162 0.000000
# 6 0.000000 0.000000 0.000000 0.002668 0.000000 0.035456
#
#
# Mechanical properties :
#
#
# Convention : Reuss Voigt Hill
#
# Bulk Modulus (GPa) = 50.69879 65.64873 58.17376
# Shear Modulus (GPa) = 24.13268 25.86536 24.99902
#
# Velocity S-wave (km/s) = 3.73041 3.86201 3.79678
# Velocity P-wave (km/s) = 6.91301 7.59886 7.26404
#
# Compressibility (1/GPa) = 0.01972434
#
# Stress axis : x y z
#
# Youngs Moduli (GPa) = 82.94347 42.25602 69.83126
#
# Poissons Ratio (x) = 0.12105 0.45268
# Poissons Ratio (y) = 0.23761 0.40583
# Poissons Ratio (z) = 0.53768 0.24557
#
# Static dielectric constant tensor:
#      x y z
#    x 1.605270 0.000000 -0.008110 
#    y 0.000000 1.585370 0.000000 
#    z -0.008110 0.000000 1.577670 
# 
# From -- ./inp_files/45121.got.cif
#   From: 2010.05.17/outbox.cif.g08.bks.cpg/sg11_23_cif.got.tgz:45121.got - 2010.06.03 12:22:45.
