data_PCOD9159312
_publ_section_title
;
Structure prediction by ZEFSAII (Michael W. Deem and Ramdas Pophale) SiO2 
 PCOD9159312
Probable space group: P 21/M
;
_chemical_formula_sum "Si O2"
_cell_formula_units_Z 32
_cell_length_a 14.124393
_cell_length_b 12.661494
_cell_length_c 17.806258
_cell_angle_alpha 90.000000
_cell_angle_beta 34.733188
_cell_angle_gamma 90.000000
_cell_volume 1814.329016
_symmetry_space_group_name_H-M "P 21/M"
_symmetry_group_IT_number 11
_symmetry_cell_setting 'monoclinic'
loop_
_space_group_symop_operation_xyz
x,y,z
-x,1/2+y,-z
-x,-y,-z
x,1/2-y,z
loop_
_atom_site_type_symbol
_atom_site_label
_atom_site_fract_x
_atom_site_fract_y
_atom_site_fract_z
Si Si1 0.338363 0.624880 0.998798
Si Si2 0.496917 0.474174 0.414645
Si Si3 0.888559 0.022824 0.975831
Si Si4 0.841654 0.370552 0.161734
Si Si5 0.409472 0.373823 0.776299
Si Si6 0.355217 0.500882 0.270979
Si Si7 0.171697 0.874453 0.264708
Si Si8 0.212467 0.124413 0.505034
O O1 0.354847 0.750000 0.974471
O O2 0.187973 0.579670 0.046152
O O3 0.503941 0.564756 0.865079
O O4 0.293765 0.608288 0.114744
O O5 0.500000 0.500000 0.500000
O O6 0.646011 0.393234 0.297197
O O7 0.536756 0.577161 0.338396
O O8 0.324043 0.426877 0.497497
O O9 0.755667 0.934996 0.089851
O O10 0.896134 0.104850 0.040268
O O11 0.059349 0.959054 0.855333
O O12 0.880155 0.250000 0.156679
O O13 0.384361 0.250000 0.789542
O O14 0.549637 0.407448 0.744904
O O15 0.226257 0.552410 0.297784
O O16 0.274354 0.425693 0.386308
O O17 0.179983 0.750000 0.280083
O O18 0.983695 0.896165 0.360981
O O19 0.238824 0.250000 0.487539
#
# Coordination Sequence:
#
# PCOD9159312 Si02
#       8
#     4   4   4   4   4   4   4   4
#     4  10  20  34  55  82 112 142 177 220 271 321
#     4  10  22  35  53  78 106 144 183 227 274 320
#     4   9  19  32  52  79 105 139 177 225 268 320
#     4  10  19  33  53  75 104 141 183 225 272 321
#     4   9  18  33  52  76 105 138 178 219 270 327
#     4  10  19  35  57  81 107 143 181 227 266 322
#     4  10  21  35  55  83 111 143 178 223 278 324
#     4  10  21  37  57  80 107 144 187 226 270 326
#
# _framework density 17.637374000000001
#
# number of rings (size 3 to 8) (size 9 to 14) (size 15 to 20)
#    0.000    2.250    0.000    3.375    1.750    1.000 
#    0.000    0.625    0.000    3.000    0.000    0.000 
#    0.000    0.000    0.000    0.000    0.000    0.000 
#
# Total GULP energy -178570.911959 kJ/mol
# GULP energy per Si atom -5580.340999 kJ/mol
# Density = 1.759723 g / cm^3
# Si number density = 17.637374 Si / 1000 Ang^3
#
#
#
# Elastic Constant Matrix: (Units=GPa)
#
#
# Indices 1 2 3 4 5 6 
#
# 1 108.4989 45.5765 33.6911 0.0000 3.4796 0.0000
# 2 45.5765 75.1735 26.0426 0.0000 5.8205 0.0000
# 3 33.6911 26.0426 60.5003 0.0000 0.4601 0.0000
# 4 0.0000 0.0000 0.0000 13.9307 0.0000 -4.9122
# 5 3.4796 5.8205 0.4601 0.0000 22.5562 0.0000
# 6 0.0000 0.0000 0.0000 -4.9122 0.0000 13.6623
#
#
#
# Elastic Compliance Matrix: (Units=1/GPa)
#
#
# Indices 1 2 3 4 5 6 
#
# 1 0.013399 -0.006483 -0.004669 0.000000 -0.000299 0.000000
# 2 -0.006483 0.019121 -0.004591 0.000000 -0.003840 0.000000
# 3 -0.004669 -0.004591 0.021094 0.000000 0.001475 0.000000
# 4 0.000000 0.000000 0.000000 0.082206 0.000000 0.029557
# 5 -0.000299 -0.003840 0.001475 0.000000 0.045341 0.000000
# 6 0.000000 0.000000 0.000000 0.029557 0.000000 0.083821
#
#
# Mechanical properties :
#
#
# Convention : Reuss Voigt Hill
#
# Bulk Modulus (GPa) = 45.19177 50.53256 47.86216
# Shear Modulus (GPa) = 16.45577 19.28733 17.87155
#
# Velocity S-wave (km/s) = 3.05783 3.31047 3.18666
# Velocity P-wave (km/s) = 6.17620 6.58220 6.38243
#
# Compressibility (1/GPa) = 0.02212792
#
# Stress axis : x y z
#
# Youngs Moduli (GPa) = 74.63008 52.29800 47.40714
#
# Poissons Ratio (x) = 0.33906 0.22133
# Poissons Ratio (y) = 0.48385 0.21766
# Poissons Ratio (z) = 0.34843 0.24011
#
# Static dielectric constant tensor:
#      x y z
#    x 1.600530 0.000000 -0.015600 
#    y 0.000000 1.569910 0.000000 
#    z -0.015600 0.000000 1.595510 
# 
# From -- ./inp_files/60412.got.cif
#   From: 2010.05.17/outbox.cif.g08.bks.cpg/sg11_31_cif.got.tgz:60412.got - 2010.06.03 12:22:45.
