data_PCOD9159854
_publ_section_title
;
Structure prediction by ZEFSAII (Michael W. Deem and Ramdas Pophale) SiO2 
 PCOD9159854
Probable space group: P 21/M
;
_chemical_formula_sum "Si O2"
_cell_formula_units_Z 24
_cell_length_a 7.954015
_cell_length_b 20.043347
_cell_length_c 12.125752
_cell_angle_alpha 90.000000
_cell_angle_beta 35.644885
_cell_angle_gamma 90.000000
_cell_volume 1126.561470
_symmetry_space_group_name_H-M "P 21/M"
_symmetry_group_IT_number 11
_symmetry_cell_setting 'monoclinic'
loop_
_space_group_symop_operation_xyz
x,y,z
-x,1/2+y,-z
-x,-y,-z
x,1/2-y,z
loop_
_atom_site_type_symbol
_atom_site_label
_atom_site_fract_x
_atom_site_fract_y
_atom_site_fract_z
Si Si1 0.211936 0.824114 0.074524
Si Si2 0.123460 0.177340 0.301363
Si Si3 0.280386 0.967286 0.957185
Si Si4 0.270304 0.323976 0.482718
Si Si5 0.527070 0.965547 0.603547
Si Si6 0.922020 0.964669 0.718794
O O1 0.159505 0.750000 0.052045
O O2 0.006449 0.829815 0.289868
O O3 0.552383 0.824662 0.922274
O O4 0.166742 0.890948 0.027149
O O5 0.993957 0.250000 0.346410
O O6 0.175088 0.172440 0.405714
O O7 0.964152 0.110965 0.348595
O O8 0.315887 0.990024 0.812484
O O9 0.611295 0.965459 0.826195
O O10 0.122938 0.012679 0.131043
O O11 0.396405 0.250000 0.432625
O O12 0.477880 0.385682 0.396658
O O13 0.500000 0.000000 0.500000
O O14 0.856903 0.985383 0.456764
#
# Coordination Sequence:
#
# PCOD9159854 Si02
#       6
#     4   4   4   4   4   4
#     4   9  16  29  52  81 105 131 179 231 268 311
#     4   9  18  32  56  83 107 139 182 231 280 324
#     4  10  20  34  57  82 108 144 179 231 281 316
#     4  10  19  34  55  80 109 141 184 229 268 324
#     4  12  24  36  53  84 116 152 185 222 272 332
#     4  10  20  35  56  81 113 138 183 232 275 321
#
# _framework density 21.303764000000001
#
# number of rings (size 3 to 8) (size 9 to 14) (size 15 to 20)
#    0.000    2.000    5.000    0.500    0.000    0.667 
#    0.000    0.833    0.000    1.000    0.000    0.000 
#    0.000    0.000    0.000    0.000    0.000    0.000 
#
# Total GULP energy -133876.948325 kJ/mol
# GULP energy per Si atom -5578.206180 kJ/mol
# Density = 2.125528 g / cm^3
# Si number density = 21.303764 Si / 1000 Ang^3
#
#
#
# Elastic Constant Matrix: (Units=GPa)
#
#
# Indices 1 2 3 4 5 6 
#
# 1 47.8782 19.2172 16.7763 0.0000 20.6462 0.0000
# 2 19.2172 155.5790 17.5664 0.0000 27.4144 0.0000
# 3 16.7763 17.5664 118.8377 0.0000 28.9704 0.0000
# 4 0.0000 0.0000 0.0000 24.3769 0.0000 6.6098
# 5 20.6462 27.4144 28.9704 0.0000 27.3946 0.0000
# 6 0.0000 0.0000 0.0000 6.6098 0.0000 14.3574
#
#
#
# Elastic Compliance Matrix: (Units=1/GPa)
#
#
# Indices 1 2 3 4 5 6 
#
# 1 0.031257 0.000518 0.001859 0.000000 -0.026042 0.000000
# 2 0.000518 0.007903 0.001053 0.000000 -0.009414 0.000000
# 3 0.001859 0.001053 0.011581 0.000000 -0.014703 0.000000
# 4 0.000000 0.000000 0.000000 0.046874 0.000000 -0.021579
# 5 -0.026042 -0.009414 -0.014703 0.000000 0.081099 0.000000
# 6 0.000000 0.000000 0.000000 -0.021579 0.000000 0.079585
#
#
# Mechanical properties :
#
#
# Convention : Reuss Voigt Hill
#
# Bulk Modulus (GPa) = 17.36035 47.71275 32.53655
# Shear Modulus (GPa) = 18.47491 31.14145 24.80818
#
# Velocity S-wave (km/s) = 2.94804 3.82747 3.41618
# Velocity P-wave (km/s) = 4.44461 6.47902 5.55573
#
# Compressibility (1/GPa) = 0.05760253
#
# Stress axis : x y z
#
# Youngs Moduli (GPa) = 31.99318 126.52741 86.34941
#
# Poissons Ratio (x) = -0.06554 -0.16056
# Poissons Ratio (y) = -0.01657 -0.09097
# Poissons Ratio (z) = -0.05949 -0.13329
#
# Static dielectric constant tensor:
#      x y z
#    x 1.820250 0.000000 -0.022590 
#    y 0.000000 1.835130 0.000000 
#    z -0.022590 0.000000 1.760600 
# 
# From -- ./inp_files/32593.got.cif
#   From: 2010.05.17/outbox.cif.g08.bks.cpg/sg11_17_cif.got.tgz:32593.got - 2010.06.03 12:22:45.
