data_PCOD9159207
_publ_section_title
;
Structure prediction by ZEFSAII (Michael W. Deem and Ramdas Pophale) SiO2 
 PCOD9159207
Probable space group: P 21/M
;
_chemical_formula_sum "Si O2"
_cell_formula_units_Z 32
_cell_length_a 19.351450
_cell_length_b 7.542882
_cell_length_c 19.928710
_cell_angle_alpha 90.000000
_cell_angle_beta 22.834212
_cell_angle_gamma 90.000000
_cell_volume 1128.848284
_symmetry_space_group_name_H-M "P 21/M"
_symmetry_group_IT_number 11
_symmetry_cell_setting 'monoclinic'
loop_
_space_group_symop_operation_xyz
x,y,z
-x,1/2+y,-z
-x,-y,-z
x,1/2-y,z
loop_
_atom_site_type_symbol
_atom_site_label
_atom_site_fract_x
_atom_site_fract_y
_atom_site_fract_z
Si Si1 0.269067 0.541678 0.151993
Si Si2 0.030852 0.962160 0.678292
Si Si3 0.342570 0.538366 0.484845
Si Si4 0.242600 0.958940 0.955587
Si Si5 0.361684 0.037504 0.684505
Si Si6 0.815044 0.551035 0.632736
Si Si7 0.473187 0.467881 0.200297
Si Si8 0.067343 0.463866 0.853596
O O1 0.290002 0.750000 0.143704
O O2 0.301962 0.453553 0.194152
O O3 0.069821 0.512296 0.299958
O O4 0.395110 0.482593 0.978987
O O5 0.038655 0.750000 0.674086
O O6 0.226836 0.033091 0.525100
O O7 0.895105 0.024208 0.858194
O O8 0.358742 0.750000 0.464678
O O9 0.531296 0.468190 0.345698
O O10 0.203707 0.504645 0.670493
O O11 0.262729 0.750000 0.927156
O O12 0.124070 0.036303 0.000578
O O13 0.426900 0.033614 0.821965
O O14 0.348882 0.250000 0.701088
O O15 0.173749 0.965893 0.823681
O O16 0.500000 0.000000 0.500000
O O17 0.833763 0.750000 0.593302
O O18 0.711842 0.458894 0.664137
O O19 0.000000 0.500000 0.500000
O O20 0.474902 0.250000 0.201783
O O21 0.056092 0.250000 0.867921
#
# Coordination Sequence:
#
# PCOD9159207 Si02
#       8
#     4   4   4   4   4   4   4   4
#     4  10  19  33  51  70  89 113 145 183 220 258
#     4   9  15  23  36  56  79 106 138 175 213 250
#     4   8  13  19  27  41  67  99 132 166 202 241
#     4   8  13  23  37  55  77 103 136 176 214 249
#     4   8  12  17  24  38  61  94 131 165 198 237
#     4  11  22  36  51  69  92 118 144 175 215 262
#     4   8  16  30  49  69  90 115 146 181 218 256
#     4   8  12  17  28  44  65  94 131 169 204 239
#
# _framework density 28.347477000000001
#
# number of rings (size 3 to 8) (size 9 to 14) (size 15 to 20)
#    0.000    3.250    0.000    2.250    0.000    0.500 
#    0.000    5.625    0.000    0.000    0.000    0.000 
#    0.000    0.000    0.000    1.125    0.000    9.250 
#
# Total GULP energy -178975.443181 kJ/mol
# GULP energy per Si atom -5592.982599 kJ/mol
# Density = 2.828296 g / cm^3
# Si number density = 28.347477 Si / 1000 Ang^3
#
#
#
# Elastic Constant Matrix: (Units=GPa)
#
#
# Indices 1 2 3 4 5 6 
#
# 1 263.7512 9.3998 64.3850 0.0000 -68.5275 0.0000
# 2 9.3998 126.7206 23.7576 0.0000 7.1819 0.0000
# 3 64.3850 23.7576 187.5969 0.0000 -74.8998 0.0000
# 4 0.0000 0.0000 0.0000 29.1004 0.0000 13.2216
# 5 -68.5275 7.1819 -74.8998 0.0000 73.0993 0.0000
# 6 0.0000 0.0000 0.0000 13.2216 0.0000 31.6255
#
#
#
# Elastic Compliance Matrix: (Units=1/GPa)
#
#
# Indices 1 2 3 4 5 6 
#
# 1 0.005089 -0.000771 0.000484 0.000000 0.005342 0.000000
# 2 -0.000771 0.008643 -0.002467 0.000000 -0.004100 0.000000
# 3 0.000484 -0.002467 0.009739 0.000000 0.010675 0.000000
# 4 0.000000 0.000000 0.000000 0.042422 0.000000 -0.017735
# 5 0.005342 -0.004100 0.010675 0.000000 0.030029 0.000000
# 6 0.000000 0.000000 0.000000 -0.017735 0.000000 0.039035
#
#
# Mechanical properties :
#
#
# Convention : Reuss Voigt Hill
#
# Bulk Modulus (GPa) = 55.66791 85.90594 70.78692
# Shear Modulus (GPa) = 34.14100 58.80011 46.47056
#
# Velocity S-wave (km/s) = 3.47418 4.55935 4.05324
# Velocity P-wave (km/s) = 5.98110 7.62150 6.85058
#
# Compressibility (1/GPa) = 0.01796367
#
# Stress axis : x y z
#
# Youngs Moduli (GPa) = 196.51073 115.69549 102.68096
#
# Poissons Ratio (x) = 0.08920 -0.04970
# Poissons Ratio (y) = 0.15151 0.25329
# Poissons Ratio (z) = -0.09513 0.28539
#
# Static dielectric constant tensor:
#      x y z
#    x 2.334370 0.000000 0.007430 
#    y 0.000000 1.916430 0.000000 
#    z 0.007430 0.000000 2.457610 
# 
# From -- ./inp_files/73697.got.cif
#   From: 2010.05.17/outbox.cif.g08.bks.cpg/sg11_37_cif.got.tgz:73697.got - 2010.06.03 12:22:45.
