data_PCOD9159328
_publ_section_title
;
Structure prediction by ZEFSAII (Michael W. Deem and Ramdas Pophale) SiO2 
 PCOD9159328
Probable space group: P 21/M
;
_chemical_formula_sum "Si O2"
_cell_formula_units_Z 32
_cell_length_a 20.536269
_cell_length_b 7.605795
_cell_length_c 12.626860
_cell_angle_alpha 90.000000
_cell_angle_beta 130.656212
_cell_angle_gamma 90.000000
_cell_volume 1496.211390
_symmetry_space_group_name_H-M "P 21/M"
_symmetry_group_IT_number 11
_symmetry_cell_setting 'monoclinic'
loop_
_space_group_symop_operation_xyz
x,y,z
-x,1/2+y,-z
-x,-y,-z
x,1/2-y,z
loop_
_atom_site_type_symbol
_atom_site_label
_atom_site_fract_x
_atom_site_fract_y
_atom_site_fract_z
Si Si1 0.039937 0.963678 0.327975
Si Si2 0.157965 0.955470 0.853219
Si Si3 0.429971 0.041447 0.336215
Si Si4 0.909670 0.460885 0.847977
Si Si5 0.764391 0.040694 0.850683
Si Si6 0.370147 0.539343 0.823064
Si Si7 0.532962 0.961584 0.863006
Si Si8 0.181485 0.965764 0.642490
O O1 0.035550 0.750000 0.323723
O O2 0.083099 0.023902 0.264400
O O3 0.099780 0.021460 0.487949
O O4 0.943097 0.030533 0.231063
O O5 0.182000 0.750000 0.871577
O O6 0.175030 0.030608 0.755786
O O7 0.209602 0.033144 0.006647
O O8 0.427421 0.250000 0.323000
O O9 0.449663 0.971258 0.237694
O O10 0.500000 0.000000 0.500000
O O11 0.335824 0.983839 0.273913
O O12 0.901168 0.250000 0.833182
O O13 0.829774 0.529884 0.831556
O O14 0.000000 0.500000 0.000000
O O15 0.780631 0.250000 0.872340
O O16 0.370499 0.750000 0.813043
O O17 0.444688 0.471248 0.824075
O O18 0.274088 0.478466 0.696693
O O19 0.395309 0.501424 0.971968
O O20 0.526903 0.750000 0.850226
O O21 0.179988 0.750000 0.640507
#
# Coordination Sequence:
#
# PCOD9159328 Si02
#       8
#     4   4   4   4   4   4   4   4
#     4  10  20  33  51  76 105 140 179 222 270 320
#     4  10  19  33  53  76 106 141 177 218 265 321
#     4  11  24  40  58  83 115 149 186 233 283 335
#     4  10  20  35  56  79 106 141 184 231 275 322
#     4  10  21  37  58  82 106 143 189 230 278 334
#     4   9  17  33  58  81 104 141 180 220 270 332
#     4   9  19  35  56  82 109 138 177 226 277 326
#     4   9  18  31  49  76 106 137 176 214 261 323
#
# _framework density 21.387352
#
# number of rings (size 3 to 8) (size 9 to 14) (size 15 to 20)
#    0.000    2.250    1.250    1.500    0.000    4.000 
#    0.000    5.000    0.000    0.000    0.000    0.000 
#    0.000    0.000    0.000    0.000    0.000    0.000 
#
# Total GULP energy -178685.751902 kJ/mol
# GULP energy per Si atom -5583.929747 kJ/mol
# Density = 2.133867 g / cm^3
# Si number density = 21.387352 Si / 1000 Ang^3
#
#
#
# Elastic Constant Matrix: (Units=GPa)
#
#
# Indices 1 2 3 4 5 6 
#
# 1 104.3842 -12.9686 40.3614 0.0000 0.6972 0.0000
# 2 -12.9686 39.8053 -21.6902 0.0000 -8.0414 0.0000
# 3 40.3614 -21.6902 50.7877 0.0000 26.2926 0.0000
# 4 0.0000 0.0000 0.0000 14.8414 0.0000 5.2112
# 5 0.6972 -8.0414 26.2926 0.0000 27.9226 0.0000
# 6 0.0000 0.0000 0.0000 5.2112 0.0000 16.1845
#
#
#
# Elastic Compliance Matrix: (Units=1/GPa)
#
#
# Indices 1 2 3 4 5 6 
#
# 1 0.024256 -0.007129 -0.040866 0.000000 0.035822 0.000000
# 2 -0.007129 0.035616 0.030192 0.000000 -0.017994 0.000000
# 3 -0.040866 0.030192 0.117128 0.000000 -0.100575 0.000000
# 4 0.000000 0.000000 0.000000 0.075968 0.000000 -0.024461
# 5 0.035822 -0.017994 -0.100575 0.000000 0.124441 0.000000
# 6 0.000000 0.000000 0.000000 -0.024461 0.000000 0.069663
#
#
# Mechanical properties :
#
#
# Convention : Reuss Voigt Hill
#
# Bulk Modulus (GPa) = 7.07245 22.93137 15.00191
# Shear Modulus (GPa) = 9.43733 24.40800 16.92266
#
# Velocity S-wave (km/s) = 2.10289 3.38188 2.81596
# Velocity P-wave (km/s) = 3.03484 5.09850 4.19553
#
# Compressibility (1/GPa) = 0.14139368
#
# Stress axis : x y z
#
# Youngs Moduli (GPa) = 41.22617 28.07712 8.53768
#
# Poissons Ratio (x) = 0.20016 0.34890
# Poissons Ratio (y) = 0.29389 -0.25777
# Poissons Ratio (z) = 1.68475 -0.84769
#
# Static dielectric constant tensor:
#      x y z
#    x 1.774360 0.000000 -0.026950 
#    y 0.000000 1.783950 0.000000 
#    z -0.026950 0.000000 1.686840 
# 
# From -- ./inp_files/38245.got.cif
#   From: 2010.05.17/outbox.cif.g08.bks.cpg/sg11_20_cif.got.tgz:38245.got - 2010.06.03 12:22:45.
