data_PCOD9159461
_publ_section_title
;
Structure prediction by ZEFSAII (Michael W. Deem and Ramdas Pophale) SiO2 
 PCOD9159461
Probable space group: P 21/M
;
_chemical_formula_sum "Si O2"
_cell_formula_units_Z 28
_cell_length_a 14.329348
_cell_length_b 18.224542
_cell_length_c 8.388367
_cell_angle_alpha 90.000000
_cell_angle_beta 138.353827
_cell_angle_gamma 90.000000
_cell_volume 1455.707668
_symmetry_space_group_name_H-M "P 21/M"
_symmetry_group_IT_number 11
_symmetry_cell_setting 'monoclinic'
loop_
_space_group_symop_operation_xyz
x,y,z
-x,1/2+y,-z
-x,-y,-z
x,1/2-y,z
loop_
_atom_site_type_symbol
_atom_site_label
_atom_site_fract_x
_atom_site_fract_y
_atom_site_fract_z
Si Si1 0.794751 0.033226 0.900610
Si Si2 0.355983 0.666391 0.148347
Si Si3 0.483734 0.830585 0.957730
Si Si4 0.630646 0.909338 0.558326
Si Si5 0.671263 0.041334 0.409237
Si Si6 0.067774 0.475836 0.421867
Si Si7 0.206791 0.166561 0.502578
O O1 0.752287 0.100897 0.958184
O O2 0.764155 0.061568 0.682845
O O3 0.694282 0.960781 0.777649
O O4 0.951664 0.008945 0.138316
O O5 0.314951 0.750000 0.138625
O O6 0.497720 0.640872 0.423580
O O7 0.402143 0.667134 0.022542
O O8 0.458714 0.750000 0.853385
O O9 0.428463 0.895696 0.778984
O O10 0.647240 0.835686 0.212832
O O11 0.750568 0.863358 0.619274
O O12 0.587770 0.970152 0.368759
O O13 0.784437 0.015490 0.423553
O O14 0.101463 0.389692 0.449435
O O15 0.000000 0.500000 0.500000
O O16 0.157788 0.250000 0.432089
#
# Coordination Sequence:
#
# PCOD9159461 Si02
#       7
#     4   4   4   4   4   4   4
#     4  10  21  35  55  80 116 142 184 220 275 328
#     4  10  19  33  54  82 110 145 180 220 277 333
#     4   9  18  35  57  82 112 138 182 233 275 324
#     4   8  18  33  56  79 107 137 181 231 269 326
#     4   9  20  34  56  80 107 143 182 229 274 320
#     4  11  22  37  57  80 111 149 188 224 268 329
#     4   9  19  36  59  82 105 144 185 226 274 325
#
# _framework density 19.234632000000001
#
# number of rings (size 3 to 8) (size 9 to 14) (size 15 to 20)
#    0.857    1.714    0.000    3.000    0.000    7.429 
#    0.000    0.714    0.000    0.857    0.000    0.000 
#    0.000    0.000    0.000    0.000    0.000    0.000 
#
# Total GULP energy -155950.773711 kJ/mol
# GULP energy per Si atom -5569.670490 kJ/mol
# Density = 1.919085 g / cm^3
# Si number density = 19.234632 Si / 1000 Ang^3
#
#
#
# Elastic Constant Matrix: (Units=GPa)
#
#
# Indices 1 2 3 4 5 6 
#
# 1 40.9907 0.2215 -3.9734 0.0000 4.3280 0.0000
# 2 0.2215 73.6560 15.4613 0.0000 -0.1260 0.0000
# 3 -3.9734 15.4613 35.8063 0.0000 -3.6541 0.0000
# 4 0.0000 0.0000 0.0000 14.4932 0.0000 3.4900
# 5 4.3280 -0.1260 -3.6541 0.0000 14.2680 0.0000
# 6 0.0000 0.0000 0.0000 3.4900 0.0000 23.7222
#
#
#
# Elastic Compliance Matrix: (Units=1/GPa)
#
#
# Indices 1 2 3 4 5 6 
#
# 1 0.025376 -0.000580 0.002341 0.000000 -0.007103 0.000000
# 2 -0.000580 0.014977 -0.006674 0.000000 -0.001401 0.000000
# 3 0.002341 -0.006674 0.031823 0.000000 0.007381 0.000000
# 4 0.000000 0.000000 0.000000 0.071532 0.000000 -0.010524
# 5 -0.007103 -0.001401 0.007381 0.000000 0.074120 0.000000
# 6 0.000000 0.000000 0.000000 -0.010524 0.000000 0.043703
#
#
# Mechanical properties :
#
#
# Convention : Reuss Voigt Hill
#
# Bulk Modulus (GPa) = 16.03846 19.31909 17.67877
# Shear Modulus (GPa) = 17.11507 19.74622 18.43065
#
# Velocity S-wave (km/s) = 2.98620 3.20753 3.09884
# Velocity P-wave (km/s) = 4.49958 4.87682 4.69200
#
# Compressibility (1/GPa) = 0.06235013
#
# Stress axis : x y z
#
# Youngs Moduli (GPa) = 39.40755 66.76888 31.42361
#
# Poissons Ratio (x) = 0.03872 -0.07358
# Poissons Ratio (y) = 0.02286 0.20974
# Poissons Ratio (z) = -0.09227 0.44565
#
# Static dielectric constant tensor:
#      x y z
#    x 1.700040 0.000000 -0.006720 
#    y 0.000000 1.692410 0.000000 
#    z -0.006720 0.000000 1.675800 
# 
# From -- ./inp_files/22775.got.cif
#   From: 2010.05.17/outbox.cif.g08.bks.cpg/sg11_12_cif.got.tgz:22775.got - 2010.06.03 12:22:45.
