data_PCOD9159590
_publ_section_title
;
Structure prediction by ZEFSAII (Michael W. Deem and Ramdas Pophale) SiO2 
 PCOD9159590
Probable space group: P 21/M
;
_chemical_formula_sum "Si O2"
_cell_formula_units_Z 32
_cell_length_a 28.481721
_cell_length_b 9.277324
_cell_length_c 11.456230
_cell_angle_alpha 90.000000
_cell_angle_beta 35.165149
_cell_angle_gamma 90.000000
_cell_volume 1743.429039
_symmetry_space_group_name_H-M "P 21/M"
_symmetry_group_IT_number 11
_symmetry_cell_setting 'monoclinic'
loop_
_space_group_symop_operation_xyz
x,y,z
-x,1/2+y,-z
-x,-y,-z
x,1/2-y,z
loop_
_atom_site_type_symbol
_atom_site_label
_atom_site_fract_x
_atom_site_fract_y
_atom_site_fract_z
Si Si1 0.323659 0.922409 0.130549
Si Si2 0.585921 0.078041 0.812550
Si Si3 0.578126 0.420021 0.293537
Si Si4 0.266747 0.576679 0.635356
Si Si5 0.881412 0.580678 0.169302
Si Si6 0.824223 0.922745 0.695865
Si Si7 0.970544 0.580631 0.235838
Si Si8 0.751639 0.421969 0.059339
O O1 0.307157 0.750000 0.153709
O O2 0.357291 0.952418 0.190338
O O3 0.244080 0.008284 0.250828
O O4 0.394770 0.958407 0.892908
O O5 0.571835 0.250000 0.837861
O O6 0.641209 0.036759 0.588723
O O7 0.500000 0.000000 0.000000
O O8 0.500000 0.500000 0.500000
O O9 0.562307 0.250000 0.329200
O O10 0.658874 0.448383 0.205856
O O11 0.260965 0.750000 0.635526
O O12 0.202127 0.502477 0.682018
O O13 0.243868 0.538142 0.814321
O O14 0.870857 0.750000 0.170638
O O15 0.915959 0.560954 0.229931
O O16 0.949677 0.514624 0.944642
O O17 0.814299 0.750000 0.718696
O O18 0.912880 0.954863 0.461894
O O19 0.808382 0.991426 0.854738
O O20 0.993429 0.750000 0.194704
O O21 0.766818 0.250000 0.016486
#
# Coordination Sequence:
#
# PCOD9159590 Si02
#       8
#     4   4   4   4   4   4   4   4
#     4   9  19  35  51  73 106 138 172 215 267 321
#     4  10  22  37  55  79 106 141 180 220 268 322
#     4   9  18  31  49  71  97 130 171 218 263 307
#     4  10  21  38  57  76 108 149 181 215 271 328
#     4  10  20  34  56  86 112 141 179 219 264 316
#     4  10  19  33  56  83 106 136 179 224 267 311
#     4   9  19  35  55  82 116 142 171 219 270 320
#     4   9  20  37  53  73 105 144 181 219 267 324
#
# _framework density 18.354633
#
# number of rings (size 3 to 8) (size 9 to 14) (size 15 to 20)
#    0.000    2.500    0.000    2.250    1.750    5.000 
#    0.000    0.625    0.000    0.000    0.000    0.000 
#    0.000    0.000    0.000    0.000    0.000    0.000 
#
# Total GULP energy -178552.459179 kJ/mol
# GULP energy per Si atom -5579.764349 kJ/mol
# Density = 1.831286 g / cm^3
# Si number density = 18.354633 Si / 1000 Ang^3
#
#
#
# Elastic Constant Matrix: (Units=GPa)
#
#
# Indices 1 2 3 4 5 6 
#
# 1 31.7941 20.1702 18.5759 0.0000 6.1585 0.0000
# 2 20.1702 30.6174 44.2562 0.0000 -0.4243 0.0000
# 3 18.5759 44.2562 117.8755 0.0000 -3.9448 0.0000
# 4 0.0000 0.0000 0.0000 33.3794 0.0000 -2.7483
# 5 6.1585 -0.4243 -3.9448 0.0000 14.9131 0.0000
# 6 0.0000 0.0000 0.0000 -2.7483 0.0000 23.8467
#
#
#
# Elastic Compliance Matrix: (Units=1/GPa)
#
#
# Indices 1 2 3 4 5 6 
#
# 1 0.070650 -0.064488 0.012148 0.000000 -0.027797 0.000000
# 2 -0.064488 0.130671 -0.038221 0.000000 0.020239 0.000000
# 3 0.012148 -0.038221 0.020900 0.000000 -0.000576 0.000000
# 4 0.000000 0.000000 0.000000 0.030246 0.000000 0.003486
# 5 -0.027797 0.020239 -0.000576 0.000000 0.078958 0.000000
# 6 0.000000 0.000000 0.000000 0.003486 0.000000 0.042336
#
#
# Mechanical properties :
#
#
# Convention : Reuss Voigt Hill
#
# Bulk Modulus (GPa) = 24.33052 38.47685 31.40369
# Shear Modulus (GPa) = 8.79380 20.91348 14.85364
#
# Velocity S-wave (km/s) = 2.19122 3.37918 2.84783
# Velocity P-wave (km/s) = 4.43695 6.01944 5.28773
#
# Compressibility (1/GPa) = 0.04110064
#
# Stress axis : x y z
#
# Youngs Moduli (GPa) = 14.15422 7.65278 47.84742
#
# Poissons Ratio (x) = 0.49351 -0.58125
# Poissons Ratio (y) = 0.91277 1.82876
# Poissons Ratio (z) = -0.17194 0.29249
#
# Static dielectric constant tensor:
#      x y z
#    x 1.631010 0.000000 0.030870 
#    y 0.000000 1.596520 0.000000 
#    z 0.030870 0.000000 1.632310 
# 
# From -- ./inp_files/45168.got.cif
#   From: 2010.05.17/outbox.cif.g08.bks.cpg/sg11_23_cif.got.tgz:45168.got - 2010.06.03 12:22:45.
