data_PCOD9159135
_publ_section_title
;
Structure prediction by ZEFSAII (Michael W. Deem and Ramdas Pophale) SiO2 
 PCOD9159135
Probable space group: P 21/M
;
_chemical_formula_sum "Si O2"
_cell_formula_units_Z 24
_cell_length_a 17.047890
_cell_length_b 8.741105
_cell_length_c 23.815167
_cell_angle_alpha 90.000000
_cell_angle_beta 22.893265
_cell_angle_gamma 90.000000
_cell_volume 1380.567647
_symmetry_space_group_name_H-M "P 21/M"
_symmetry_group_IT_number 11
_symmetry_cell_setting 'monoclinic'
loop_
_space_group_symop_operation_xyz
x,y,z
-x,1/2+y,-z
-x,-y,-z
x,1/2-y,z
loop_
_atom_site_type_symbol
_atom_site_label
_atom_site_fract_x
_atom_site_fract_y
_atom_site_fract_z
Si Si1 0.286803 0.934367 0.160134
Si Si2 0.722423 0.066496 0.346227
Si Si3 0.358770 0.065153 0.910869
Si Si4 0.015876 0.066139 0.051646
Si Si5 0.794184 0.065778 0.659120
Si Si6 0.936733 0.066826 0.802108
O O1 0.301695 0.750000 0.150414
O O2 0.237354 0.984511 0.255678
O O3 0.118872 0.976880 0.224787
O O4 0.500000 0.000000 0.000000
O O5 0.715248 0.250000 0.351229
O O6 0.500000 0.000000 0.500000
O O7 0.865166 0.009282 0.302512
O O8 0.837388 0.018648 0.212612
O O9 0.345451 0.250000 0.926242
O O10 0.225789 0.023507 0.944239
O O11 0.593043 0.021681 0.757198
O O12 0.247006 0.989482 0.037461
O O13 0.009508 0.250000 0.052325
O O14 0.000000 0.000000 0.000000
O O15 0.805140 0.250000 0.651275
O O16 0.000000 0.000000 0.500000
O O17 0.954535 0.250000 0.793967
#
# Coordination Sequence:
#
# PCOD9159135 Si02
#       6
#     4   4   4   4   4   4
#     4  10  20  34  56  82 108 139 179 224 265 316
#     4  10  21  38  58  81 111 144 177 221 272 320
#     4   9  18  35  56  76 106 143 181 221 267 319
#     4   9  19  35  56  80 105 137 178 220 264 318
#     4  10  21  37  54  76 110 145 178 222 270 316
#     4  10  19  32  55  85 110 137 179 222 266 322
#
# _framework density 17.384153999999999
#
# number of rings (size 3 to 8) (size 9 to 14) (size 15 to 20)
#    0.000    2.333    1.667    2.000    0.000    5.333 
#    3.000    0.000    0.000    0.000    0.000    0.000 
#    0.000    0.000    0.000    0.000    0.000    0.000 
#
# Total GULP energy -133857.831789 kJ/mol
# GULP energy per Si atom -5577.409658 kJ/mol
# Density = 1.734459 g / cm^3
# Si number density = 17.384154 Si / 1000 Ang^3
#
#
#
# Elastic Constant Matrix: (Units=GPa)
#
#
# Indices 1 2 3 4 5 6 
#
# 1 163.1808 37.4482 98.0129 0.0000 -3.6167 0.0000
# 2 37.4482 21.7823 34.0751 0.0000 -5.6073 0.0000
# 3 98.0129 34.0751 158.1795 0.0000 -20.1266 0.0000
# 4 0.0000 0.0000 0.0000 33.4902 0.0000 -1.3541
# 5 -3.6167 -5.6073 -20.1266 0.0000 27.9892 0.0000
# 6 0.0000 0.0000 0.0000 -1.3541 0.0000 27.0090
#
#
#
# Elastic Compliance Matrix: (Units=1/GPa)
#
#
# Indices 1 2 3 4 5 6 
#
# 1 0.012533 -0.014624 -0.005264 0.000000 -0.005095 0.000000
# 2 -0.014624 0.086613 -0.008398 0.000000 0.009423 0.000000
# 3 -0.005264 -0.008398 0.012209 0.000000 0.006417 0.000000
# 4 0.000000 0.000000 0.000000 0.029920 0.000000 0.001500
# 5 -0.005095 0.009423 0.006417 0.000000 0.041572 0.000000
# 6 0.000000 0.000000 0.000000 0.001500 0.000000 0.037100
#
#
# Mechanical properties :
#
#
# Convention : Reuss Voigt Hill
#
# Bulk Modulus (GPa) = 18.25343 75.80168 47.02755
# Shear Modulus (GPa) = 16.96182 29.27143 23.11662
#
# Velocity S-wave (km/s) = 3.12702 4.10786 3.65053
# Velocity P-wave (km/s) = 4.85391 8.13621 6.69920
#
# Compressibility (1/GPa) = 0.05478422
#
# Stress axis : x y z
#
# Youngs Moduli (GPa) = 79.78989 11.54557 81.90602
#
# Poissons Ratio (x) = 0.16884 0.43114
# Poissons Ratio (y) = 1.16683 0.68784
# Poissons Ratio (z) = 0.42000 0.09696
#
# Static dielectric constant tensor:
#      x y z
#    x 1.602830 0.000000 -0.009980 
#    y 0.000000 1.585090 0.000000 
#    z -0.009980 0.000000 1.563660 
# 
# From -- ./inp_files/46564.got.cif
#   From: 2010.05.17/outbox.cif.g08.bks.cpg/sg11_24_cif.got.tgz:46564.got - 2010.06.03 12:22:45.
