data_PCOD9159569
_publ_section_title
;
Structure prediction by ZEFSAII (Michael W. Deem and Ramdas Pophale) SiO2 
 PCOD9159569
Probable space group: P 21/M
;
_chemical_formula_sum "Si O2"
_cell_formula_units_Z 20
_cell_length_a 9.581450
_cell_length_b 19.504730
_cell_length_c 5.186704
_cell_angle_alpha 90.000000
_cell_angle_beta 80.783678
_cell_angle_gamma 90.000000
_cell_volume 956.796759
_symmetry_space_group_name_H-M "P 21/M"
_symmetry_group_IT_number 11
_symmetry_cell_setting 'monoclinic'
loop_
_space_group_symop_operation_xyz
x,y,z
-x,1/2+y,-z
-x,-y,-z
x,1/2-y,z
loop_
_atom_site_type_symbol
_atom_site_label
_atom_site_fract_x
_atom_site_fract_y
_atom_site_fract_z
Si Si1 0.226071 0.673871 0.696279
Si Si2 0.221764 0.996016 0.172255
Si Si3 0.053516 0.864324 0.253006
Si Si4 0.759444 0.588641 0.328877
Si Si5 0.451964 0.926801 0.399363
O O1 0.288860 0.750000 0.673682
O O2 0.113929 0.666865 0.496804
O O3 0.344053 0.616507 0.604914
O O4 0.142566 0.662764 0.985468
O O5 0.227843 0.053381 0.393625
O O6 0.090082 0.945638 0.252172
O O7 0.360818 0.948435 0.176183
O O8 0.217868 0.031054 0.897481
O O9 0.886318 0.857633 0.268740
O O10 0.599165 0.613064 0.326083
O O11 0.500000 0.000000 0.500000
#
# Coordination Sequence:
#
# PCOD9159569 Si02
#       5
#     4   4   4   4   4
#     4  11  24  42  59  79 114 162 203 240 298 368
#     4  10  19  33  55  89 123 153 181 229 297 362
#     4  11  21  37  59  83 113 153 196 240 286 349
#     4  11  20  33  57  90 119 146 187 244 294 341
#     4   9  20  37  60  89 120 152 191 243 298 356
#
# _framework density 20.903079000000002
#
# number of rings (size 3 to 8) (size 9 to 14) (size 15 to 20)
#    0.000    1.600    0.000    7.200    0.000    4.800 
#    0.000    2.000    0.000    0.000    0.000    0.000 
#    0.000    0.000    0.000    0.000    0.000    0.000 
#
# Total GULP energy -111717.481469 kJ/mol
# GULP energy per Si atom -5585.874073 kJ/mol
# Density = 2.085550 g / cm^3
# Si number density = 20.903079 Si / 1000 Ang^3
#
#
#
# Elastic Constant Matrix: (Units=GPa)
#
#
# Indices 1 2 3 4 5 6 
#
# 1 135.9160 20.6374 10.9079 0.0000 -3.2156 0.0000
# 2 20.6374 61.4801 19.7684 0.0000 -1.9393 0.0000
# 3 10.9079 19.7684 76.5636 0.0000 17.0751 0.0000
# 4 0.0000 0.0000 0.0000 -115.4794 0.0000 -95.2734
# 5 -3.2156 -1.9393 17.0751 0.0000 21.2828 0.0000
# 6 0.0000 0.0000 0.0000 -95.2734 0.0000 -56.1863
#
#
#
# Elastic Compliance Matrix: (Units=1/GPa)
#
#
# Indices 1 2 3 4 5 6 
#
# 1 0.007816 -0.002280 -0.000904 0.000000 0.001698 0.000000
# 2 -0.002280 0.019159 -0.006010 0.000000 0.006223 0.000000
# 3 -0.000904 -0.006010 0.018140 0.000000 -0.015238 0.000000
# 4 0.000000 0.000000 0.000000 0.021705 0.000000 -0.036804
# 5 0.001698 0.006223 -0.015238 0.000000 0.060035 0.000000
# 6 0.000000 0.000000 0.000000 -0.036804 0.000000 0.044610
#
#
# Mechanical properties :
#
#
# Convention : Reuss Voigt Hill
#
# Bulk Modulus (GPa) = 37.41273 41.84301 39.62787
# Shear Modulus (GPa) = 25.15579 -15.23352 4.96113
#
# Velocity S-wave (km/s) = 3.47284 -2.70250 1.54226
# Velocity P-wave (km/s) = 5.83248 3.21295 4.70855
#
# Compressibility (1/GPa) = 0.02672887
#
# Stress axis : x y z
#
# Youngs Moduli (GPa) = 127.93728 52.19371 55.12734
#
# Poissons Ratio (x) = 0.11898 0.04982
# Poissons Ratio (y) = 0.29164 0.33132
# Poissons Ratio (z) = 0.11562 0.31368
#
# Static dielectric constant tensor:
#      x y z
#    x 1.811140 0.000000 -0.027270 
#    y 0.000000 1.755560 0.000000 
#    z -0.027270 0.000000 1.734420 
# 
# From -- ./inp_files/2360.got.cif
#   From: 2010.05.17/outbox.cif.g08.bks.cpg/sg11_2_cif.got.tgz:2360.got - 2010.06.03 12:22:45.
