data_PCOD9159224
_publ_section_title
;
Structure prediction by ZEFSAII (Michael W. Deem and Ramdas Pophale) SiO2 
 PCOD9159224
Probable space group: P 21/M
;
_chemical_formula_sum "Si O2"
_cell_formula_units_Z 28
_cell_length_a 28.839895
_cell_length_b 7.669341
_cell_length_c 7.513070
_cell_angle_alpha 90.000000
_cell_angle_beta 47.827648
_cell_angle_gamma 90.000000
_cell_volume 1231.580373
_symmetry_space_group_name_H-M "P 21/M"
_symmetry_group_IT_number 11
_symmetry_cell_setting 'monoclinic'
loop_
_space_group_symop_operation_xyz
x,y,z
-x,1/2+y,-z
-x,-y,-z
x,1/2-y,z
loop_
_atom_site_type_symbol
_atom_site_label
_atom_site_fract_x
_atom_site_fract_y
_atom_site_fract_z
Si Si1 0.064987 0.448616 0.746773
Si Si2 0.671859 0.463840 0.816135
Si Si3 0.928859 0.059949 0.656485
Si Si4 0.202822 0.539023 0.054071
Si Si5 0.338943 0.963290 0.746416
Si Si6 0.572124 0.040762 0.784979
Si Si7 0.807801 0.042372 0.493615
O O1 0.062355 0.250000 0.690084
O O2 0.074789 0.566167 0.548797
O O3 0.124192 0.467335 0.724647
O O4 0.000000 0.500000 0.000000
O O5 0.672945 0.250000 0.812467
O O6 0.659331 0.518010 0.052273
O O7 0.617515 0.523248 0.825349
O O8 0.742363 0.518511 0.579927
O O9 0.926382 0.250000 0.748532
O O10 0.861374 0.970403 0.870081
O O11 0.000000 0.000000 0.500000
O O12 0.200607 0.750000 0.037134
O O13 0.200261 0.505225 0.273629
O O14 0.272949 0.481919 0.826220
O O15 0.337652 0.750000 0.752290
O O16 0.397505 0.021193 0.478414
O O17 0.577352 0.250000 0.771128
O O18 0.500000 0.000000 0.000000
O O19 0.811774 0.250000 0.457899
#
# Coordination Sequence:
#
# PCOD9159224 Si02
#       7
#     4   4   4   4   4   4   4
#     4  11  21  34  51  73 103 140 178 219 269 324
#     4   8  15  30  52  76 100 132 174 215 257 314
#     4  10  19  33  51  74 105 138 175 221 271 322
#     4   7  12  25  47  69  91 123 164 208 250 299
#     4   8  14  28  50  73  98 130 172 215 254 303
#     4  10  20  33  51  76 105 136 171 212 260 315
#     4   8  14  29  51  71  93 125 165 213 261 307
#
# _framework density 22.735016000000002
#
# number of rings (size 3 to 8) (size 9 to 14) (size 15 to 20)
#    0.000    3.143    0.000    4.286    0.000    0.571 
#    2.571    0.714    0.000    8.571    0.000    0.000 
#    0.000    0.000    0.000    0.000    0.000    0.000 
#
# Total GULP energy -156013.383138 kJ/mol
# GULP energy per Si atom -5571.906541 kJ/mol
# Density = 2.268327 g / cm^3
# Si number density = 22.735016 Si / 1000 Ang^3
#
#
#
# Elastic Constant Matrix: (Units=GPa)
#
#
# Indices 1 2 3 4 5 6 
#
# 1 124.2979 5.6767 43.8354 0.0000 -34.2938 0.0000
# 2 5.6767 49.0446 -1.1818 0.0000 -4.0901 0.0000
# 3 43.8354 -1.1818 107.7714 0.0000 -37.6762 0.0000
# 4 0.0000 0.0000 0.0000 15.2413 0.0000 -10.8692
# 5 -34.2938 -4.0901 -37.6762 0.0000 45.5426 0.0000
# 6 0.0000 0.0000 0.0000 -10.8692 0.0000 12.7244
#
#
#
# Elastic Compliance Matrix: (Units=1/GPa)
#
#
# Indices 1 2 3 4 5 6 
#
# 1 0.010516 -0.000764 -0.002169 0.000000 0.006056 0.000000
# 2 -0.000764 0.020715 0.001389 0.000000 0.002434 0.000000
# 3 -0.002169 0.001389 0.013575 0.000000 0.009722 0.000000
# 4 0.000000 0.000000 0.000000 0.167875 0.000000 0.143398
# 5 0.006056 0.002434 0.009722 0.000000 0.034779 0.000000
# 6 0.000000 0.000000 0.000000 0.143398 0.000000 0.201080
#
#
# Mechanical properties :
#
#
# Convention : Reuss Voigt Hill
#
# Bulk Modulus (GPa) = 23.97101 41.97494 32.97297
# Shear Modulus (GPa) = 10.74040 30.22058 20.48049
#
# Velocity S-wave (km/s) = 2.17587 3.64985 3.00465
# Velocity P-wave (km/s) = 4.10842 6.02201 5.15479
#
# Compressibility (1/GPa) = 0.04171707
#
# Stress axis : x y z
#
# Youngs Moduli (GPa) = 95.09651 48.27532 73.66538
#
# Poissons Ratio (x) = 0.03690 0.15974
# Poissons Ratio (y) = 0.07269 -0.10231
# Poissons Ratio (z) = 0.20622 -0.06705
#
# Static dielectric constant tensor:
#      x y z
#    x 1.887880 0.000000 -0.028220 
#    y 0.000000 1.902320 0.000000 
#    z -0.028220 0.000000 1.874940 
# 
# From -- ./inp_files/29011.got.cif
#   From: 2010.05.17/outbox.cif.g08.bks.cpg/sg11_15_cif.got.tgz:29011.got - 2010.06.03 12:22:45.
