data_PCOD9159777
_publ_section_title
;
Structure prediction by ZEFSAII (Michael W. Deem and Ramdas Pophale) SiO2 
 PCOD9159777
Probable space group: P 21/M
;
_chemical_formula_sum "Si O2"
_cell_formula_units_Z 32
_cell_length_a 15.194942
_cell_length_b 22.278284
_cell_length_c 14.458861
_cell_angle_alpha 90.000000
_cell_angle_beta 160.656525
_cell_angle_gamma 90.000000
_cell_volume 1621.231757
_symmetry_space_group_name_H-M "P 21/M"
_symmetry_group_IT_number 11
_symmetry_cell_setting 'monoclinic'
loop_
_space_group_symop_operation_xyz
x,y,z
-x,1/2+y,-z
-x,-y,-z
x,1/2-y,z
loop_
_atom_site_type_symbol
_atom_site_label
_atom_site_fract_x
_atom_site_fract_y
_atom_site_fract_z
Si Si1 0.543396 0.545623 0.956840
Si Si2 0.542493 0.821468 0.496462
Si Si3 0.204887 0.379490 0.646476
Si Si4 0.250240 0.989975 0.374623
Si Si5 0.730399 0.321219 0.091689
Si Si6 0.240367 0.072569 0.183945
Si Si7 0.941171 0.177916 0.102611
Si Si8 0.061671 0.002440 0.389061
O O1 0.675659 0.603358 0.135415
O O2 0.759096 0.517175 0.101848
O O3 0.500000 0.500000 0.000000
O O4 0.260665 0.548775 0.626460
O O5 0.534012 0.750000 0.507909
O O6 0.652702 0.861052 0.689599
O O7 0.259298 0.843561 0.176452
O O8 0.755604 0.831192 0.625056
O O9 0.108978 0.440370 0.501318
O O10 0.949257 0.337116 0.386107
O O11 0.450766 0.351847 0.834286
O O12 0.545742 0.963750 0.664835
O O13 0.153597 0.015012 0.376414
O O14 0.233605 0.039356 0.277164
O O15 0.046173 0.936841 0.144672
O O16 0.691897 0.250000 0.048390
O O17 0.852626 0.343710 0.115288
O O18 0.903717 0.250000 0.067514
#
# Coordination Sequence:
#
# PCOD9159777 Si02
#       8
#     4   4   4   4   4   4   4   4
#     4  10  20  37  55  82 111 129 178 237 264 317
#     4  10  19  34  54  75 101 143 181 223 273 310
#     4  11  21  35  55  80 107 147 177 219 274 307
#     4  10  22  36  53  79 109 148 175 218 277 322
#     4  11  22  34  49  78 113 146 181 214 255 325
#     4  10  21  37  51  78 115 137 181 227 258 326
#     4   9  19  31  46  72 106 137 179 218 248 307
#     4  11  21  36  58  82 107 144 184 221 277 333
#
# _framework density 19.738078000000002
#
# number of rings (size 3 to 8) (size 9 to 14) (size 15 to 20)
#    0.000    1.750    0.000    6.375    3.500    2.000 
#    0.000    0.000    0.000    0.000    0.000   17.500 
#    0.000    0.000    0.000    0.000    0.000    0.000 
#
# Total GULP energy -178717.476360 kJ/mol
# GULP energy per Si atom -5584.921136 kJ/mol
# Density = 1.969315 g / cm^3
# Si number density = 19.738078 Si / 1000 Ang^3
#
#
#
# Elastic Constant Matrix: (Units=GPa)
#
#
# Indices 1 2 3 4 5 6 
#
# 1 49.2088 -2.3883 -2.5886 0.0000 14.7965 0.0000
# 2 -2.3883 32.7707 -8.5640 0.0000 -0.7867 0.0000
# 3 -2.5886 -8.5640 63.5633 0.0000 6.3055 0.0000
# 4 0.0000 0.0000 0.0000 22.1251 0.0000 3.7026
# 5 14.7965 -0.7867 6.3055 0.0000 22.3166 0.0000
# 6 0.0000 0.0000 0.0000 3.7026 0.0000 11.7018
#
#
#
# Elastic Compliance Matrix: (Units=1/GPa)
#
#
# Indices 1 2 3 4 5 6 
#
# 1 0.026033 0.002290 0.003162 0.000000 -0.018073 0.000000
# 2 0.002290 0.031830 0.004549 0.000000 -0.001681 0.000000
# 3 0.003162 0.004549 0.017147 0.000000 -0.006781 0.000000
# 4 0.000000 0.000000 0.000000 0.047725 0.000000 -0.015101
# 5 -0.018073 -0.001681 -0.006781 0.000000 0.058650 0.000000
# 6 0.000000 0.000000 0.000000 -0.015101 0.000000 0.090235
#
#
# Mechanical properties :
#
#
# Convention : Reuss Voigt Hill
#
# Bulk Modulus (GPa) = 10.52522 13.16233 11.84377
# Shear Modulus (GPa) = 17.64975 21.83428 19.74202
#
# Velocity S-wave (km/s) = 2.99356 3.32957 3.16602
# Velocity P-wave (km/s) = 4.15843 4.63296 4.40210
#
# Compressibility (1/GPa) = 0.09500992
#
# Stress axis : x y z
#
# Youngs Moduli (GPa) = 38.41208 31.41667 58.32068
#
# Poissons Ratio (x) = -0.07193 -0.18439
# Poissons Ratio (y) = -0.08795 -0.26528
# Poissons Ratio (z) = -0.12144 -0.14290
#
# Static dielectric constant tensor:
#      x y z
#    x 1.701560 0.000000 -0.022870 
#    y 0.000000 1.718910 0.000000 
#    z -0.022870 0.000000 1.712040 
# 
# From -- ./inp_files/52734.got.cif
#   From: 2010.05.17/outbox.cif.g08.bks.cpg/sg11_27_cif.got.tgz:52734.got - 2010.06.03 12:22:45.
