data_PCOD9159254
_publ_section_title
;
Structure prediction by ZEFSAII (Michael W. Deem and Ramdas Pophale) SiO2 
 PCOD9159254
Probable space group: P 21/M
;
_chemical_formula_sum "Si O2"
_cell_formula_units_Z 24
_cell_length_a 9.721770
_cell_length_b 19.555320
_cell_length_c 12.267590
_cell_angle_alpha 90.000000
_cell_angle_beta 142.359476
_cell_angle_gamma 90.000000
_cell_volume 1424.299323
_symmetry_space_group_name_H-M "P 21/M"
_symmetry_group_IT_number 11
_symmetry_cell_setting 'monoclinic'
loop_
_space_group_symop_operation_xyz
x,y,z
-x,1/2+y,-z
-x,-y,-z
x,1/2-y,z
loop_
_atom_site_type_symbol
_atom_site_label
_atom_site_fract_x
_atom_site_fract_y
_atom_site_fract_z
Si Si1 0.937422 0.534848 0.289134
Si Si2 0.358871 0.965182 0.709964
Si Si3 0.777623 0.327837 0.289403
Si Si4 0.198725 0.172187 0.709959
Si Si5 0.153538 0.971389 0.000539
Si Si6 0.275081 0.828444 0.000465
O O1 0.755549 0.500026 0.255898
O O2 0.867253 0.614527 0.244747
O O3 0.931400 0.499994 0.168893
O O4 0.177870 0.528044 0.499438
O O5 0.378024 0.885520 0.754815
O O6 0.592816 0.000080 0.829414
O O7 0.700949 0.250000 0.260850
O O8 0.792413 0.337213 0.169054
O O9 0.021178 0.336357 0.499583
O O10 0.179429 0.250000 0.738812
O O11 0.453639 0.162857 0.829492
O O12 0.165342 0.889076 0.000338
O O13 0.000000 0.000000 0.000000
O O14 0.223443 0.750000 0.000188
#
# Coordination Sequence:
#
# PCOD9159254 Si02
#       6
#     4   4   4   4   4   4
#     4  10  19  34  57  80 103 134 175 222 265 306
#     4  10  19  34  57  80 103 134 175 222 265 306
#     4   9  17  30  53  83 106 128 168 222 270 306
#     4   9  17  30  53  83 106 128 168 222 270 306
#     4  12  24  36  51  77 112 146 176 213 259 314
#     4  10  19  33  52  74 103 137 174 213 257 313
#
# _framework density 16.850390999999998
#
# number of rings (size 3 to 8) (size 9 to 14) (size 15 to 20)
#    0.000    2.000    3.333    1.500    0.000    0.667 
#    0.000    1.667    0.000    0.000    0.000    0.000 
#    0.000    0.000    0.000    0.000    0.000    0.000 
#
# Total GULP energy -133878.014396 kJ/mol
# GULP energy per Si atom -5578.250600 kJ/mol
# Density = 1.681204 g / cm^3
# Si number density = 16.850391 Si / 1000 Ang^3
#
#
#
# Elastic Constant Matrix: (Units=GPa)
#
#
# Indices 1 2 3 4 5 6 
#
# 1 88.0894 58.9151 45.4378 0.0000 1.3963 0.0000
# 2 58.9151 151.6930 43.9967 0.0000 0.8406 0.0000
# 3 45.4378 43.9967 65.8648 0.0000 0.5210 0.0000
# 4 0.0000 0.0000 0.0000 23.7348 0.0000 0.0061
# 5 1.3963 0.8406 0.5210 0.0000 2.1929 0.0000
# 6 0.0000 0.0000 0.0000 0.0061 0.0000 22.1352
#
#
#
# Elastic Compliance Matrix: (Units=1/GPa)
#
#
# Indices 1 2 3 4 5 6 
#
# 1 0.020127 -0.004666 -0.010701 0.000000 -0.008484 0.000000
# 2 -0.004666 0.009266 -0.002971 0.000000 0.000125 0.000000
# 3 -0.010701 -0.002971 0.024533 0.000000 0.002124 0.000000
# 4 0.000000 0.000000 0.000000 0.042132 0.000000 -0.000012
# 5 -0.008484 0.000125 0.002124 0.000000 0.460866 0.000000
# 6 0.000000 0.000000 0.000000 -0.000012 0.000000 0.045177
#
#
# Mechanical properties :
#
#
# Convention : Reuss Voigt Hill
#
# Bulk Modulus (GPa) = 57.97531 66.92738 62.45134
# Shear Modulus (GPa) = 7.75763 20.09909 13.92836
#
# Velocity S-wave (km/s) = 2.14798 3.45744 2.87817
# Velocity P-wave (km/s) = 6.37435 7.46614 6.94175
#
# Compressibility (1/GPa) = 0.01724872
#
# Stress axis : x y z
#
# Youngs Moduli (GPa) = 49.68415 107.92540 40.76214
#
# Poissons Ratio (x) = 0.50362 0.43619
# Poissons Ratio (y) = 0.23185 0.12111
# Poissons Ratio (z) = 0.53166 0.32066
#
# Static dielectric constant tensor:
#      x y z
#    x 1.499110 0.000000 -0.000920 
#    y 0.000000 1.626810 0.000000 
#    z -0.000920 0.000000 1.590900 
# 
# From -- ./inp_files/13821.got.cif
#   From: 2010.05.17/outbox.cif.g08.bks.cpg/sg11_7_cif.got.tgz:13821.got - 2010.06.03 12:22:45.
