data_PCOD9159779
_publ_section_title
;
Structure prediction by ZEFSAII (Michael W. Deem and Ramdas Pophale) SiO2 
 PCOD9159779
Probable space group: P 21/M
;
_chemical_formula_sum "Si O2"
_cell_formula_units_Z 24
_cell_length_a 25.545686
_cell_length_b 8.651727
_cell_length_c 19.395348
_cell_angle_alpha 90.000000
_cell_angle_beta 18.623503
_cell_angle_gamma 90.000000
_cell_volume 1368.933140
_symmetry_space_group_name_H-M "P 21/M"
_symmetry_group_IT_number 11
_symmetry_cell_setting 'monoclinic'
loop_
_space_group_symop_operation_xyz
x,y,z
-x,1/2+y,-z
-x,-y,-z
x,1/2-y,z
loop_
_atom_site_type_symbol
_atom_site_label
_atom_site_fract_x
_atom_site_fract_y
_atom_site_fract_z
Si Si1 0.644736 0.563309 0.272669
Si Si2 0.362865 0.437880 0.878496
Si Si3 0.993806 0.070842 0.177868
Si Si4 0.648930 0.436403 0.769643
Si Si5 0.994716 0.929125 0.668859
Si Si6 0.349250 0.067104 0.386784
O O1 0.500000 0.500000 0.500000
O O2 0.646156 0.750000 0.273053
O O3 0.620918 0.518607 0.222309
O O4 0.827410 0.512847 0.068299
O O5 0.363160 0.250000 0.881364
O O6 0.510373 0.503704 0.738646
O O7 0.183046 0.494468 0.128765
O O8 0.972731 0.250000 0.183453
O O9 0.003481 0.069937 0.249609
O O10 0.832395 0.977469 0.359726
O O11 0.650929 0.250000 0.768862
O O12 0.631885 0.489686 0.711903
O O13 0.828034 0.494994 0.572555
O O14 0.500000 0.500000 0.000000
O O15 0.994128 0.750000 0.647356
O O16 0.362083 0.250000 0.363544
#
# Coordination Sequence:
#
# PCOD9159779 Si02
#       6
#     4   4   4   4   4   4
#     4   9  18  32  53  77 101 129 165 205 250 297
#     4   9  17  33  53  72  96 131 166 200 245 295
#     4   8  15  31  51  70  94 130 167 200 241 295
#     4  10  19  34  54  76 101 130 163 202 245 294
#     4   7  13  28  51  71  90 122 165 201 235 285
#     4  11  21  32  49  76 102 128 164 206 246 290
#
# _framework density 17.531901000000001
#
# number of rings (size 3 to 8) (size 9 to 14) (size 15 to 20)
#    0.000    3.000    0.000    5.000    0.000    1.333 
#    0.000    9.167    0.000    0.000    0.000    0.000 
#    0.000    0.000    0.000    0.000    0.000    0.000 
#
# Total GULP energy -133628.152063 kJ/mol
# GULP energy per Si atom -5567.839669 kJ/mol
# Density = 1.749200 g / cm^3
# Si number density = 17.531901 Si / 1000 Ang^3
#
#
#
# Elastic Constant Matrix: (Units=GPa)
#
#
# Indices 1 2 3 4 5 6 
#
# 1 64.8305 24.4545 66.3815 0.0000 -28.3164 0.0000
# 2 24.4545 44.5622 39.8742 0.0000 -8.9834 0.0000
# 3 66.3815 39.8742 200.0633 0.0000 -24.1547 0.0000
# 4 0.0000 0.0000 0.0000 27.0341 0.0000 5.2935
# 5 -28.3164 -8.9834 -24.1547 0.0000 30.8053 0.0000
# 6 0.0000 0.0000 0.0000 5.2935 0.0000 13.4637
#
#
#
# Elastic Compliance Matrix: (Units=1/GPa)
#
#
# Indices 1 2 3 4 5 6 
#
# 1 0.038222 -0.008697 -0.007746 0.000000 0.026524 0.000000
# 2 -0.008697 0.029763 -0.003274 0.000000 -0.001881 0.000000
# 3 -0.007746 -0.003274 0.008004 0.000000 -0.001799 0.000000
# 4 0.000000 0.000000 0.000000 0.040075 0.000000 -0.015756
# 5 0.026524 -0.001881 -0.001799 0.000000 0.054883 0.000000
# 6 0.000000 0.000000 0.000000 -0.015756 0.000000 0.080468
#
#
# Mechanical properties :
#
#
# Convention : Reuss Voigt Hill
#
# Bulk Modulus (GPa) = 27.35580 63.43073 45.39326
# Shear Modulus (GPa) = 16.49978 26.17701 21.33840
#
# Velocity S-wave (km/s) = 3.07111 3.86827 3.49251
# Velocity P-wave (km/s) = 5.31159 7.49734 6.49704
#
# Compressibility (1/GPa) = 0.03655532
#
# Stress axis : x y z
#
# Youngs Moduli (GPa) = 26.16298 33.59887 124.93858
#
# Poissons Ratio (x) = 0.29220 0.96784
# Poissons Ratio (y) = 0.22753 0.40899
# Poissons Ratio (z) = 0.20267 0.10999
#
# Static dielectric constant tensor:
#      x y z
#    x 1.571500 0.000000 -0.019490 
#    y 0.000000 1.610790 0.000000 
#    z -0.019490 0.000000 1.639890 
# 
# From -- ./inp_files/23727.got.cif
#   From: 2010.05.17/outbox.cif.g08.bks.cpg/sg11_12_cif.got.tgz:23727.got - 2010.06.03 12:22:45.
