data_PCOD9159050
_publ_section_title
;
Structure prediction by ZEFSAII (Michael W. Deem and Ramdas Pophale) SiO2 
 PCOD9159050
Probable space group: P 21/M
;
_chemical_formula_sum "Si O2"
_cell_formula_units_Z 32
_cell_length_a 18.688833
_cell_length_b 10.060428
_cell_length_c 14.477763
_cell_angle_alpha 90.000000
_cell_angle_beta 37.471883
_cell_angle_gamma 90.000000
_cell_volume 1656.034357
_symmetry_space_group_name_H-M "P 21/M"
_symmetry_group_IT_number 11
_symmetry_cell_setting 'monoclinic'
loop_
_space_group_symop_operation_xyz
x,y,z
-x,1/2+y,-z
-x,-y,-z
x,1/2-y,z
loop_
_atom_site_type_symbol
_atom_site_label
_atom_site_fract_x
_atom_site_fract_y
_atom_site_fract_z
Si Si1 0.865386 0.593538 0.889121
Si Si2 0.799149 0.899208 0.159377
Si Si3 0.713156 0.404019 0.612222
Si Si4 0.729906 0.400443 0.376286
Si Si5 0.471086 0.401047 0.111607
Si Si6 0.347602 0.899255 0.917759
Si Si7 0.040747 0.595937 0.541230
Si Si8 0.542392 0.898625 0.328438
O O1 0.830420 0.750000 0.918821
O O2 0.970605 0.574223 0.709536
O O3 0.874839 0.568503 0.989800
O O4 0.764501 0.493046 0.961513
O O5 0.828502 0.750000 0.158389
O O6 0.660712 0.899173 0.268921
O O7 0.803938 0.000296 0.238224
O O8 0.669097 0.250000 0.667712
O O9 0.743449 0.419150 0.472560
O O10 0.623807 0.519694 0.730576
O O11 0.823997 0.418096 0.566879
O O12 0.764738 0.250000 0.318957
O O13 0.589297 0.412283 0.497304
O O14 0.434211 0.250000 0.124285
O O15 0.589382 0.389633 0.049435
O O16 0.500000 0.500000 0.000000
O O17 0.321691 0.750000 0.910221
O O18 0.436638 0.978038 0.760121
O O19 0.020329 0.750000 0.534613
O O20 0.000000 0.500000 0.500000
O O21 0.541962 0.750000 0.284081
#
# Coordination Sequence:
#
# PCOD9159050 Si02
#       8
#     4   4   4   4   4   4   4   4
#     4   9  20  39  59  81 114 153 191 234 289 343
#     4   9  18  31  51  79 112 152 194 232 275 335
#     4  10  22  41  62  85 117 153 193 241 291 348
#     4  10  19  32  53  80 113 153 191 231 284 340
#     4  11  24  38  56  84 118 153 189 233 290 350
#     4  10  20  33  53  83 113 145 186 235 281 331
#     4  10  23  43  66  88 111 146 193 243 293 345
#     4   9  17  31  50  75 112 156 191 222 275 339
#
# _framework density 19.323270999999998
#
# number of rings (size 3 to 8) (size 9 to 14) (size 15 to 20)
#    0.000    2.250    1.250    1.875    1.750    5.500 
#    0.000    0.625    0.000    0.000    0.000    0.000 
#    0.000    0.000    0.000    0.000    0.000    0.000 
#
# Total GULP energy -178295.168740 kJ/mol
# GULP energy per Si atom -5571.724023 kJ/mol
# Density = 1.927929 g / cm^3
# Si number density = 19.323271 Si / 1000 Ang^3
#
#
#
# Elastic Constant Matrix: (Units=GPa)
#
#
# Indices 1 2 3 4 5 6 
#
# 1 27.8665 31.6855 8.7787 0.0000 10.5584 0.0000
# 2 31.6855 117.9202 38.3309 0.0000 18.1647 0.0000
# 3 8.7787 38.3309 35.9266 0.0000 12.9858 0.0000
# 4 0.0000 0.0000 0.0000 19.6009 0.0000 13.1874
# 5 10.5584 18.1647 12.9858 0.0000 20.0584 0.0000
# 6 0.0000 0.0000 0.0000 13.1874 0.0000 26.5456
#
#
#
# Elastic Compliance Matrix: (Units=1/GPa)
#
#
# Indices 1 2 3 4 5 6 
#
# 1 0.059651 -0.015931 0.011170 0.000000 -0.024204 0.000000
# 2 -0.015931 0.017445 -0.015718 0.000000 0.002764 0.000000
# 3 0.011170 -0.015718 0.050726 0.000000 -0.024485 0.000000
# 4 0.000000 0.000000 0.000000 0.076630 0.000000 -0.038069
# 5 -0.024204 0.002764 -0.024485 0.000000 0.075943 0.000000
# 6 0.000000 0.000000 0.000000 -0.038069 0.000000 0.056583
#
#
# Mechanical properties :
#
#
# Convention : Reuss Voigt Hill
#
# Bulk Modulus (GPa) = 11.51246 37.70039 24.60643
# Shear Modulus (GPa) = 12.28829 20.10218 16.19523
#
# Velocity S-wave (km/s) = 2.52451 3.22888 2.89817
# Velocity P-wave (km/s) = 3.80372 5.78391 4.89499
#
# Compressibility (1/GPa) = 0.08686238
#
# Stress axis : x y z
#
# Youngs Moduli (GPa) = 16.76405 57.32444 19.71393
#
# Poissons Ratio (x) = 0.91323 -0.22020
# Poissons Ratio (y) = 0.26707 0.30987
# Poissons Ratio (z) = -0.18725 0.90105
#
# Static dielectric constant tensor:
#      x y z
#    x 1.687820 0.000000 -0.005220 
#    y 0.000000 1.822050 0.000000 
#    z -0.005220 0.000000 1.711360 
# 
# From -- ./inp_files/54277.got.cif
#   From: 2010.05.17/outbox.cif.g08.bks.cpg/sg11_28_cif.got.tgz:54277.got - 2010.06.03 12:22:45.
