data_PCOD9159843
_publ_section_title
;
Structure prediction by ZEFSAII (Michael W. Deem and Ramdas Pophale) SiO2 
 PCOD9159843
Probable space group: P 21/M
;
_chemical_formula_sum "Si O2"
_cell_formula_units_Z 24
_cell_length_a 8.113667
_cell_length_b 18.481243
_cell_length_c 7.230720
_cell_angle_alpha 90.000000
_cell_angle_beta 59.682612
_cell_angle_gamma 90.000000
_cell_volume 935.971584
_symmetry_space_group_name_H-M "P 21/M"
_symmetry_group_IT_number 11
_symmetry_cell_setting 'monoclinic'
loop_
_space_group_symop_operation_xyz
x,y,z
-x,1/2+y,-z
-x,-y,-z
x,1/2-y,z
loop_
_atom_site_type_symbol
_atom_site_label
_atom_site_fract_x
_atom_site_fract_y
_atom_site_fract_z
Si Si1 0.196999 0.957110 0.897899
Si Si2 0.576742 0.835473 0.991096
Si Si3 0.119133 0.331012 0.621934
Si Si4 0.387005 0.053842 0.377283
Si Si5 0.218407 0.585455 0.317482
Si Si6 0.994375 0.172718 0.108428
O O1 0.214024 0.941743 0.106360
O O2 0.159035 0.889314 0.783166
O O3 0.405557 0.982723 0.718226
O O4 0.000000 0.000000 0.000000
O O5 0.542031 0.750000 0.968741
O O6 0.406034 0.864011 0.218102
O O7 0.789082 0.841304 0.953825
O O8 0.582432 0.890319 0.814066
O O9 0.180196 0.250000 0.531417
O O10 0.286177 0.388268 0.566871
O O11 0.007601 0.323323 0.877327
O O12 0.974347 0.367209 0.556200
O O13 0.242865 0.988455 0.416075
O O14 0.932745 0.250000 0.218729
#
# Coordination Sequence:
#
# PCOD9159843 Si02
#       6
#     4   4   4   4   4   4
#     4  10  19  34  55  79 107 140 177 220 263 315
#     4  10  19  35  58  81 105 140 182 223 263 315
#     4  10  21  37  54  78 109 141 175 218 270 321
#     4  11  21  34  56  83 108 136 179 230 265 305
#     4  10  20  35  55  78 108 145 179 214 267 328
#     4   9  19  35  54  75 106 144 179 213 265 328
#
# _framework density 25.641802999999999
#
# number of rings (size 3 to 8) (size 9 to 14) (size 15 to 20)
#    0.000    2.000    0.000    5.500    0.000    4.667 
#    0.000   10.833    0.000    4.000    0.000    0.000 
#    0.000    0.000    0.000    0.000    0.000    0.000 
#
# Total GULP energy -134137.059998 kJ/mol
# GULP energy per Si atom -5589.044167 kJ/mol
# Density = 2.558344 g / cm^3
# Si number density = 25.641803 Si / 1000 Ang^3
#
#
#
# Elastic Constant Matrix: (Units=GPa)
#
#
# Indices 1 2 3 4 5 6 
#
# 1 87.5297 48.2992 6.2820 0.0000 -20.7099 0.0000
# 2 48.2992 165.4365 46.1088 0.0000 -18.6736 0.0000
# 3 6.2820 46.1088 64.2411 0.0000 -17.5909 0.0000
# 4 0.0000 0.0000 0.0000 37.4113 0.0000 -10.4001
# 5 -20.7099 -18.6736 -17.5909 0.0000 30.9135 0.0000
# 6 0.0000 0.0000 0.0000 -10.4001 0.0000 38.1660
#
#
#
# Elastic Compliance Matrix: (Units=1/GPa)
#
#
# Indices 1 2 3 4 5 6 
#
# 1 0.016327 -0.004912 0.004870 0.000000 0.010742 0.000000
# 2 -0.004912 0.009115 -0.006462 0.000000 -0.001462 0.000000
# 3 0.004870 -0.006462 0.023162 0.000000 0.012539 0.000000
# 4 0.000000 0.000000 0.000000 0.028921 0.000000 0.007881
# 5 0.010742 -0.001462 0.012539 0.000000 0.045797 0.000000
# 6 0.000000 0.000000 0.000000 0.007881 0.000000 0.028349
#
#
# Mechanical properties :
#
#
# Convention : Reuss Voigt Hill
#
# Bulk Modulus (GPa) = 28.09240 57.62082 42.85661
# Shear Modulus (GPa) = 28.32188 35.73266 32.02727
#
# Velocity S-wave (km/s) = 3.32704 3.73705 3.53799
# Velocity P-wave (km/s) = 5.07330 6.41412 5.78271
#
# Compressibility (1/GPa) = 0.03559681
#
# Stress axis : x y z
#
# Youngs Moduli (GPa) = 61.24805 109.71497 43.17488
#
# Poissons Ratio (x) = 0.53887 -0.21027
# Poissons Ratio (y) = 0.30082 0.27899
# Poissons Ratio (z) = -0.29829 0.70896
#
# Static dielectric constant tensor:
#      x y z
#    x 2.041290 0.000000 0.049060 
#    y 0.000000 2.098420 0.000000 
#    z 0.049060 0.000000 2.076150 
# 
# From -- ./inp_files/18548.got.cif
#   From: 2010.05.17/outbox.cif.g08.bks.cpg/sg11_10_cif.got.tgz:18548.got - 2010.06.03 12:22:45.
