data_PCOD9159730
_publ_section_title
;
Structure prediction by ZEFSAII (Michael W. Deem and Ramdas Pophale) SiO2 
 PCOD9159730
Probable space group: P 21/M
;
_chemical_formula_sum "Si O2"
_cell_formula_units_Z 32
_cell_length_a 14.910646
_cell_length_b 7.571189
_cell_length_c 29.016025
_cell_angle_alpha 90.000000
_cell_angle_beta 150.758257
_cell_angle_gamma 90.000000
_cell_volume 1600.143865
_symmetry_space_group_name_H-M "P 21/M"
_symmetry_group_IT_number 11
_symmetry_cell_setting 'monoclinic'
loop_
_space_group_symop_operation_xyz
x,y,z
-x,1/2+y,-z
-x,-y,-z
x,1/2-y,z
loop_
_atom_site_type_symbol
_atom_site_label
_atom_site_fract_x
_atom_site_fract_y
_atom_site_fract_z
Si Si1 0.307919 0.965997 0.299203
Si Si2 0.581154 0.960147 0.986146
Si Si3 0.262333 0.963111 0.084212
Si Si4 0.039473 0.040780 0.700549
Si Si5 0.612325 0.539868 0.503282
Si Si6 0.380195 0.049540 0.804613
Si Si7 0.130708 0.961472 0.125114
Si Si8 0.949103 0.534592 0.191669
O O1 0.311888 0.750000 0.299582
O O2 0.496347 0.026143 0.407178
O O3 0.242392 0.027366 0.219544
O O4 0.147297 0.017404 0.262578
O O5 0.573816 0.750000 0.974509
O O6 0.472642 0.051663 0.896725
O O7 0.791816 0.018774 0.085672
O O8 0.500000 0.000000 0.000000
O O9 0.273554 0.750000 0.090503
O O10 0.458429 0.031849 0.154270
O O11 0.209118 0.028376 0.111435
O O12 0.087988 0.004770 0.973545
O O13 0.078412 0.250000 0.719329
O O14 0.179366 0.968356 0.724650
O O15 0.084644 0.968583 0.771777
O O16 0.821876 0.022812 0.596911
O O17 0.500000 0.500000 0.500000
O O18 0.620094 0.750000 0.503831
O O19 0.353197 0.250000 0.775240
O O20 0.151176 0.750000 0.134152
O O21 0.944715 0.750000 0.191277
#
# Coordination Sequence:
#
# PCOD9159730 Si02
#       8
#     4   4   4   4   4   4   4   4
#     4   9  17  30  50  71  94 124 161 202 246 296
#     4  11  20  30  46  69  98 133 169 203 240 292
#     4   9  18  32  52  78 104 129 165 207 247 297
#     4  10  19  34  50  65  94 134 167 201 245 293
#     4  11  21  34  52  74  98 129 168 211 252 295
#     4  10  20  34  49  68 100 138 168 204 252 300
#     4   9  17  32  54  77 100 131 165 202 251 304
#     4   9  16  28  45  65  92 128 161 192 238 291
#
# _framework density 19.998203
#
# number of rings (size 3 to 8) (size 9 to 14) (size 15 to 20)
#    0.000    2.250    2.500    1.500    0.000    2.000 
#    0.000    1.250    0.000    0.750    0.000    0.000 
#    0.000    0.000    0.000    0.000    0.000    0.125 
#
# Total GULP energy -178508.667146 kJ/mol
# GULP energy per Si atom -5578.395848 kJ/mol
# Density = 1.995269 g / cm^3
# Si number density = 19.998203 Si / 1000 Ang^3
#
#
#
# Elastic Constant Matrix: (Units=GPa)
#
#
# Indices 1 2 3 4 5 6 
#
# 1 120.7799 -1.6979 56.7872 0.0000 19.4214 0.0000
# 2 -1.6979 53.5783 -0.0168 0.0000 -0.3045 0.0000
# 3 56.7872 -0.0168 122.2032 0.0000 17.1320 0.0000
# 4 0.0000 0.0000 0.0000 20.2741 0.0000 4.5912
# 5 19.4214 -0.3045 17.1320 0.0000 36.2327 0.0000
# 6 0.0000 0.0000 0.0000 4.5912 0.0000 8.2302
#
#
#
# Elastic Compliance Matrix: (Units=1/GPa)
#
#
# Indices 1 2 3 4 5 6 
#
# 1 0.011054 0.000328 -0.004612 0.000000 -0.003742 0.000000
# 2 0.000328 0.018675 -0.000157 0.000000 0.000056 0.000000
# 3 -0.004612 -0.000157 0.010688 0.000000 -0.002583 0.000000
# 4 0.000000 0.000000 0.000000 0.056456 0.000000 -0.031494
# 5 -0.003742 0.000056 -0.002583 0.000000 0.030827 0.000000
# 6 0.000000 0.000000 0.000000 -0.031494 0.000000 0.139072
#
#
# Mechanical properties :
#
#
# Convention : Reuss Voigt Hill
#
# Bulk Modulus (GPa) = 31.71242 45.18961 38.45101
# Shear Modulus (GPa) = 17.47225 29.04666 23.25946
#
# Velocity S-wave (km/s) = 2.95903 3.81525 3.41409
# Velocity P-wave (km/s) = 5.25039 6.48491 5.90003
#
# Compressibility (1/GPa) = 0.03153339
#
# Stress axis : x y z
#
# Youngs Moduli (GPa) = 90.46192 53.54774 93.55859
#
# Poissons Ratio (x) = -0.01754 0.43152
# Poissons Ratio (y) = -0.02964 0.01474
# Poissons Ratio (z) = 0.41724 0.00843
#
# Static dielectric constant tensor:
#      x y z
#    x 1.780570 0.000000 0.064470 
#    y 0.000000 1.763150 0.000000 
#    z 0.064470 0.000000 1.746620 
# 
# From -- ./inp_files/71620.got.cif
#   From: 2010.05.17/outbox.cif.g08.bks.cpg/sg11_36_cif.got.tgz:71620.got - 2010.06.03 12:22:45.
