data_PCOD9159119
_publ_section_title
;
Structure prediction by ZEFSAII (Michael W. Deem and Ramdas Pophale) SiO2 
 PCOD9159119
Probable space group: P 21/M
;
_chemical_formula_sum "Si O2"
_cell_formula_units_Z 28
_cell_length_a 18.076997
_cell_length_b 7.736751
_cell_length_c 13.263451
_cell_angle_alpha 90.000000
_cell_angle_beta 43.483339
_cell_angle_gamma 90.000000
_cell_volume 1276.499144
_symmetry_space_group_name_H-M "P 21/M"
_symmetry_group_IT_number 11
_symmetry_cell_setting 'monoclinic'
loop_
_space_group_symop_operation_xyz
x,y,z
-x,1/2+y,-z
-x,-y,-z
x,1/2-y,z
loop_
_atom_site_type_symbol
_atom_site_label
_atom_site_fract_x
_atom_site_fract_y
_atom_site_fract_z
Si Si1 0.324932 0.550850 0.345197
Si Si2 0.887508 0.541955 0.164209
Si Si3 0.459478 0.039698 0.789139
Si Si4 0.331792 0.458643 0.118797
Si Si5 0.743448 0.961685 0.127891
Si Si6 0.905372 0.550826 0.372122
Si Si7 0.865798 0.546723 0.806051
O O1 0.306414 0.750000 0.389966
O O2 0.417894 0.477763 0.326025
O O3 0.366282 0.539550 0.189686
O O4 0.210063 0.460881 0.462409
O O5 0.876162 0.750000 0.181199
O O6 0.792565 0.478121 0.184862
O O7 0.891295 0.472788 0.274064
O O8 0.000000 0.500000 0.000000
O O9 0.463765 0.250000 0.781622
O O10 0.376909 0.983587 0.783898
O O11 0.402653 0.995314 0.951470
O O12 0.335619 0.250000 0.127418
O O13 0.211238 0.518660 0.206579
O O14 0.744112 0.750000 0.128634
O O15 0.822185 0.018138 0.957961
O O16 0.935045 0.750000 0.330445
O O17 0.007382 0.474420 0.328593
O O18 0.842783 0.750000 0.831660
#
# Coordination Sequence:
#
# PCOD9159119 Si02
#       7
#     4   4   4   4   4   4   4
#     4  11  22  35  52  74 103 142 179 211 251 304
#     4  10  19  32  55  81 104 133 168 209 257 307
#     4   8  16  32  55  80 102 131 174 213 252 304
#     4   9  18  34  57  81 103 129 169 219 264 306
#     4   8  14  29  54  80 103 128 164 211 257 304
#     4  11  23  35  49  75 110 141 170 210 258 305
#     4   9  17  32  55  79 102 133 170 209 258 312
#
# _framework density 21.934992000000001
#
# number of rings (size 3 to 8) (size 9 to 14) (size 15 to 20)
#    0.000    2.571    1.429    3.000    0.000    1.714 
#    0.000    1.429    0.000    3.429    0.000    0.000 
#    0.000    0.000    0.000    0.000    0.000    0.000 
#
# Total GULP energy -156213.033225 kJ/mol
# GULP energy per Si atom -5579.036901 kJ/mol
# Density = 2.188507 g / cm^3
# Si number density = 21.934992 Si / 1000 Ang^3
#
#
#
# Elastic Constant Matrix: (Units=GPa)
#
#
# Indices 1 2 3 4 5 6 
#
# 1 125.0090 0.2361 10.7209 0.0000 -34.5642 0.0000
# 2 0.2361 29.1538 -2.2762 0.0000 -0.6780 0.0000
# 3 10.7209 -2.2762 19.1835 0.0000 -19.0008 0.0000
# 4 0.0000 0.0000 0.0000 6.3187 0.0000 4.1336
# 5 -34.5642 -0.6780 -19.0008 0.0000 37.5427 0.0000
# 6 0.0000 0.0000 0.0000 4.1336 0.0000 8.2576
#
#
#
# Elastic Compliance Matrix: (Units=1/GPa)
#
#
# Indices 1 2 3 4 5 6 
#
# 1 0.011336 0.000894 0.008269 0.000000 0.014638 0.000000
# 2 0.000894 0.035252 0.010285 0.000000 0.006665 0.000000
# 3 0.008269 0.010285 0.113196 0.000000 0.065089 0.000000
# 4 0.000000 0.000000 0.000000 0.235323 0.000000 -0.117800
# 5 0.014638 0.006665 0.065089 0.000000 0.073176 0.000000
# 6 0.000000 0.000000 0.000000 -0.117800 0.000000 0.180070
#
#
# Mechanical properties :
#
#
# Convention : Reuss Voigt Hill
#
# Bulk Modulus (GPa) = 5.03322 21.18978 13.11150
# Shear Modulus (GPa) = 7.39994 21.40150 14.40072
#
# Velocity S-wave (km/s) = 1.83872 3.12697 2.56504
# Velocity P-wave (km/s) = 2.60911 4.76639 3.84226
#
# Compressibility (1/GPa) = 0.19867992
#
# Stress axis : x y z
#
# Youngs Moduli (GPa) = 88.21589 28.36750 8.83424
#
# Poissons Ratio (x) = -0.02537 -0.07305
# Poissons Ratio (y) = -0.07889 -0.09086
# Poissons Ratio (z) = -0.72949 -0.29175
#
# Static dielectric constant tensor:
#      x y z
#    x 1.838090 0.000000 -0.009440 
#    y 0.000000 1.819560 0.000000 
#    z -0.009440 0.000000 1.797410 
# 
# From -- ./inp_files/53212.got.cif
#   From: 2010.05.17/outbox.cif.g08.bks.cpg/sg11_27_cif.got.tgz:53212.got - 2010.06.03 12:22:45.
