data_PCOD9159903
_publ_section_title
;
Structure prediction by ZEFSAII (Michael W. Deem and Ramdas Pophale) SiO2 
 PCOD9159903
Probable space group: P 21/M
;
_chemical_formula_sum "Si O2"
_cell_formula_units_Z 32
_cell_length_a 13.435211
_cell_length_b 22.154524
_cell_length_c 13.656751
_cell_angle_alpha 90.000000
_cell_angle_beta 157.070737
_cell_angle_gamma 90.000000
_cell_volume 1583.678392
_symmetry_space_group_name_H-M "P 21/M"
_symmetry_group_IT_number 11
_symmetry_cell_setting 'monoclinic'
loop_
_space_group_symop_operation_xyz
x,y,z
-x,1/2+y,-z
-x,-y,-z
x,1/2-y,z
loop_
_atom_site_type_symbol
_atom_site_label
_atom_site_fract_x
_atom_site_fract_y
_atom_site_fract_z
Si Si1 0.690581 0.563781 0.239787
Si Si2 0.608062 0.176009 0.644188
Si Si3 0.634940 0.137917 0.167344
Si Si4 0.296056 0.180391 0.023626
Si Si5 0.252448 0.873108 0.438594
Si Si6 0.931978 0.817635 0.556161
Si Si7 0.108364 0.545616 0.462276
Si Si8 0.034113 0.322467 0.187087
O O1 0.785945 0.627670 0.370783
O O2 0.734322 0.512081 0.358532
O O3 0.837314 0.542786 0.272854
O O4 0.414834 0.582710 0.952013
O O5 0.623869 0.250000 0.643383
O O6 0.696631 0.139911 0.628796
O O7 0.314102 0.160378 0.401480
O O8 0.796803 0.158808 0.904559
O O9 0.386814 0.164284 0.995622
O O10 0.785263 0.106370 0.390981
O O11 0.803479 0.185104 0.263103
O O12 0.350205 0.250000 0.091521
O O13 0.479500 0.144083 0.264935
O O14 0.996466 0.167868 0.762794
O O15 0.151479 0.938219 0.387857
O O16 0.812334 0.750000 0.447366
O O17 0.983247 0.837316 0.714068
O O18 0.028424 0.250000 0.178536
#
# Coordination Sequence:
#
# PCOD9159903 Si02
#       8
#     4   4   4   4   4   4   4   4
#     4  10  19  37  58  79 110 154 190 231 279 340
#     4  10  19  34  56  79 108 146 189 234 290 343
#     4  10  20  34  53  83 111 154 185 233 278 335
#     4  11  21  33  51  82 122 150 180 225 286 345
#     4  11  21  36  55  84 112 153 191 235 283 335
#     4  10  22  36  54  84 114 145 189 236 293 344
#     4   9  20  36  55  81 113 146 200 229 273 336
#     4   9  20  36  55  80 110 147 189 238 285 343
#
# _framework density 20.206123000000002
#
# number of rings (size 3 to 8) (size 9 to 14) (size 15 to 20)
#    0.000    2.000    1.250    2.625    1.750    2.000 
#    0.000    0.000    0.000    1.500    0.000    0.000 
#    0.000    0.000    0.000    0.000    0.000    0.000 
#
# Total GULP energy -178199.508846 kJ/mol
# GULP energy per Si atom -5568.734651 kJ/mol
# Density = 2.016013 g / cm^3
# Si number density = 20.206123 Si / 1000 Ang^3
#
#
#
# Elastic Constant Matrix: (Units=GPa)
#
#
# Indices 1 2 3 4 5 6 
#
# 1 60.0591 4.6324 7.4789 0.0000 -13.8538 0.0000
# 2 4.6324 38.9126 7.5627 0.0000 -8.4898 0.0000
# 3 7.4789 7.5627 64.6510 0.0000 -10.6671 0.0000
# 4 0.0000 0.0000 0.0000 18.7174 0.0000 -7.6638
# 5 -13.8538 -8.4898 -10.6671 0.0000 24.2194 0.0000
# 6 0.0000 0.0000 0.0000 -7.6638 0.0000 12.9193
#
#
#
# Elastic Compliance Matrix: (Units=1/GPa)
#
#
# Indices 1 2 3 4 5 6 
#
# 1 0.019194 0.000168 -0.000452 0.000000 0.010839 0.000000
# 2 0.000168 0.028018 -0.001791 0.000000 0.009129 0.000000
# 3 -0.000452 -0.001791 0.016804 0.000000 0.006515 0.000000
# 4 0.000000 0.000000 0.000000 0.070566 0.000000 0.041860
# 5 0.010839 0.009129 0.006515 0.000000 0.053559 0.000000
# 6 0.000000 0.000000 0.000000 0.041860 0.000000 0.102235
#
#
# Mechanical properties :
#
#
# Convention : Reuss Voigt Hill
#
# Bulk Modulus (GPa) = 16.70369 22.55231 19.62800
# Shear Modulus (GPa) = 15.89920 20.76780 18.33350
#
# Velocity S-wave (km/s) = 2.80813 3.20941 3.01545
# Velocity P-wave (km/s) = 4.33575 4.99190 4.67535
#
# Compressibility (1/GPa) = 0.05986703
#
# Stress axis : x y z
#
# Youngs Moduli (GPa) = 52.10021 35.69095 59.50833
#
# Poissons Ratio (x) = -0.00598 0.02687
# Poissons Ratio (y) = -0.00873 0.10656
# Poissons Ratio (z) = 0.02353 0.06391
#
# Static dielectric constant tensor:
#      x y z
#    x 1.769920 0.000000 -0.001820 
#    y 0.000000 1.753720 0.000000 
#    z -0.001820 0.000000 1.796830 
# 
# From -- ./inp_files/36586.got.cif
#   From: 2010.05.17/outbox.cif.g08.bks.cpg/sg11_19_cif.got.tgz:36586.got - 2010.06.03 12:22:45.
