data_PCOD9159429
_publ_section_title
;
Structure prediction by ZEFSAII (Michael W. Deem and Ramdas Pophale) SiO2 
 PCOD9159429
Probable space group: P 21/M
;
_chemical_formula_sum "Si O2"
_cell_formula_units_Z 20
_cell_length_a 9.184858
_cell_length_b 16.699671
_cell_length_c 6.955940
_cell_angle_alpha 90.000000
_cell_angle_beta 55.828777
_cell_angle_gamma 90.000000
_cell_volume 882.738702
_symmetry_space_group_name_H-M "P 21/M"
_symmetry_group_IT_number 11
_symmetry_cell_setting 'monoclinic'
loop_
_space_group_symop_operation_xyz
x,y,z
-x,1/2+y,-z
-x,-y,-z
x,1/2-y,z
loop_
_atom_site_type_symbol
_atom_site_label
_atom_site_fract_x
_atom_site_fract_y
_atom_site_fract_z
Si Si1 0.922289 0.436301 0.270052
Si Si2 0.391241 0.839748 0.586664
Si Si3 0.636818 0.555559 0.627328
Si Si4 0.234789 0.657785 0.299330
Si Si5 0.705342 0.996348 0.988106
O O1 0.785123 0.390826 0.233973
O O2 0.811019 0.512793 0.424198
O O3 0.928569 0.375937 0.450355
O O4 0.113362 0.462561 0.063855
O O5 0.359352 0.750000 0.673596
O O6 0.567527 0.870285 0.557128
O O7 0.383336 0.840558 0.359025
O O8 0.662109 0.560793 0.837518
O O9 0.462120 0.498762 0.748719
O O10 0.212791 0.750000 0.249254
O O11 0.272277 0.585748 0.123368
#
# Coordination Sequence:
#
# PCOD9159429 Si02
#       5
#     4   4   4   4   4
#     4   9  18  35  55  74 103 136 171 212 255 303
#     4   9  19  34  54  74 104 142 170 207 263 305
#     4  10  19  33  54  80 101 132 174 214 252 305
#     4   8  16  31  52  72 101 140 165 204 262 301
#     4  10  20  32  55  82 102 131 176 213 256 301
#
# _framework density 22.656763000000002
#
# number of rings (size 3 to 8) (size 9 to 14) (size 15 to 20)
#    1.200    1.600    0.000    3.000    0.000    1.600 
#    0.000    5.000    0.000   14.400    0.000    0.000 
#    0.000    0.000    0.000    0.000    0.000    0.000 
#
# Total GULP energy -111351.707989 kJ/mol
# GULP energy per Si atom -5567.585399 kJ/mol
# Density = 2.260520 g / cm^3
# Si number density = 22.656763 Si / 1000 Ang^3
#
#
#
# Elastic Constant Matrix: (Units=GPa)
#
#
# Indices 1 2 3 4 5 6 
#
# 1 88.2796 18.6467 6.8922 0.0000 4.0496 0.0000
# 2 18.6467 96.6991 -7.3250 0.0000 3.6336 0.0000
# 3 6.8922 -7.3250 62.9852 0.0000 4.3642 0.0000
# 4 0.0000 0.0000 0.0000 11.3264 0.0000 3.0027
# 5 4.0496 3.6336 4.3642 0.0000 40.4434 0.0000
# 6 0.0000 0.0000 0.0000 3.0027 0.0000 28.8538
#
#
#
# Elastic Compliance Matrix: (Units=1/GPa)
#
#
# Indices 1 2 3 4 5 6 
#
# 1 0.011991 -0.002398 -0.001534 0.000000 -0.000820 0.000000
# 2 -0.002398 0.010959 0.001600 0.000000 -0.000917 0.000000
# 3 -0.001534 0.001600 0.016352 0.000000 -0.001755 0.000000
# 4 0.000000 0.000000 0.000000 0.090794 0.000000 -0.009449
# 5 -0.000820 -0.000917 -0.001755 0.000000 0.025080 0.000000
# 6 0.000000 0.000000 0.000000 -0.009449 0.000000 0.035641
#
#
# Mechanical properties :
#
#
# Convention : Reuss Voigt Hill
#
# Bulk Modulus (GPa) = 28.86815 31.59909 30.23362
# Shear Modulus (GPa) = 24.15131 31.44138 27.79634
#
# Velocity S-wave (km/s) = 3.26845 3.72926 3.50644
# Velocity P-wave (km/s) = 5.19739 5.70266 5.45588
#
# Compressibility (1/GPa) = 0.03464025
#
# Stress axis : x y z
#
# Youngs Moduli (GPa) = 83.39249 91.24566 61.15327
#
# Poissons Ratio (x) = 0.21879 0.09382
# Poissons Ratio (y) = 0.19996 -0.09787
# Poissons Ratio (z) = 0.12794 -0.14604
#
# Static dielectric constant tensor:
#      x y z
#    x 1.923000 0.000000 0.067950 
#    y 0.000000 1.892580 0.000000 
#    z 0.067950 0.000000 1.884380 
# 
# From -- ./inp_files/13409.got.cif
#   From: 2010.05.17/outbox.cif.g08.bks.cpg/sg11_7_cif.got.tgz:13409.got - 2010.06.03 12:22:45.
