data_PCOD9159445
_publ_section_title
;
Structure prediction by ZEFSAII (Michael W. Deem and Ramdas Pophale) SiO2 
 PCOD9159445
Probable space group: P 21/M
;
_chemical_formula_sum "Si O2"
_cell_formula_units_Z 32
_cell_length_a 23.305663
_cell_length_b 8.821586
_cell_length_c 28.326900
_cell_angle_alpha 90.000000
_cell_angle_beta 162.146313
_cell_angle_gamma 90.000000
_cell_volume 1785.506302
_symmetry_space_group_name_H-M "P 21/M"
_symmetry_group_IT_number 11
_symmetry_cell_setting 'monoclinic'
loop_
_space_group_symop_operation_xyz
x,y,z
-x,1/2+y,-z
-x,-y,-z
x,1/2-y,z
loop_
_atom_site_type_symbol
_atom_site_label
_atom_site_fract_x
_atom_site_fract_y
_atom_site_fract_z
Si Si1 0.657179 0.932304 0.656958
Si Si2 0.390667 0.565714 0.776937
Si Si3 0.658184 0.074370 0.415203
Si Si4 0.073849 0.565724 0.453562
Si Si5 0.927650 0.068339 0.046904
Si Si6 0.609110 0.431061 0.722553
Si Si7 0.657907 0.932539 0.157358
Si Si8 0.323955 0.075523 0.075585
O O1 0.650921 0.750000 0.650890
O O2 0.863106 0.982847 0.800711
O O3 0.500000 0.000000 0.500000
O O4 0.624940 0.989686 0.684731
O O5 0.391874 0.750000 0.780862
O O6 0.214730 0.520815 0.606059
O O7 0.371650 0.493845 0.813064
O O8 0.579954 0.519383 0.897299
O O9 0.685362 0.250000 0.450674
O O10 0.839268 0.016016 0.528583
O O11 0.495165 0.073160 0.247481
O O12 0.577263 0.979743 0.395125
O O13 0.079914 0.750000 0.456886
O O14 0.863432 0.519401 0.299838
O O15 0.926040 0.250000 0.046109
O O16 0.784031 0.020679 0.892866
O O17 0.843618 0.011750 0.030569
O O18 0.614532 0.250000 0.721309
O O19 0.650827 0.750000 0.151512
O O20 0.500000 0.000000 0.000000
O O21 0.268356 0.250000 0.025398
#
# Coordination Sequence:
#
# PCOD9159445 Si02
#       8
#     4   4   4   4   4   4   4   4
#     4  11  23  38  53  73 102 138 174 210 250 296
#     4   9  17  33  55  79 103 129 164 209 254 302
#     4   8  14  29  52  77 102 130 164 206 250 297
#     4   8  16  32  55  78 101 130 168 209 252 300
#     4   9  19  34  54  79 106 132 165 208 252 296
#     4  10  19  33  54  81 107 132 163 205 253 303
#     4  11  22  35  50  72 102 138 174 210 251 298
#     4   8  15  28  51  79 104 129 162 203 251 302
#
# _framework density 17.922087999999999
#
# number of rings (size 3 to 8) (size 9 to 14) (size 15 to 20)
#    0.000    2.750    0.000    3.375    0.000    2.000 
#    0.000    5.000    0.000    1.500    0.000    0.000 
#    0.000    0.000    0.000    0.000    0.000    0.000 
#
# Total GULP energy -178400.793791 kJ/mol
# GULP energy per Si atom -5575.024806 kJ/mol
# Density = 1.788130 g / cm^3
# Si number density = 17.922088 Si / 1000 Ang^3
#
#
#
# Elastic Constant Matrix: (Units=GPa)
#
#
# Indices 1 2 3 4 5 6 
#
# 1 141.7131 41.1192 111.2564 0.0000 46.0078 0.0000
# 2 41.1192 35.3433 36.2095 0.0000 8.1911 0.0000
# 3 111.2564 36.2095 101.6066 0.0000 14.2822 0.0000
# 4 0.0000 0.0000 0.0000 21.9753 0.0000 2.0435
# 5 46.0078 8.1911 14.2822 0.0000 17.8318 0.0000
# 6 0.0000 0.0000 0.0000 2.0435 0.0000 35.1145
#
#
#
# Elastic Compliance Matrix: (Units=1/GPa)
#
#
# Indices 1 2 3 4 5 6 
#
# 1 -0.025437 -0.005221 0.022708 0.000000 0.049841 0.000000
# 2 -0.005221 0.044734 -0.010401 0.000000 0.001253 0.000000
# 3 0.022708 -0.010401 -0.004228 0.000000 -0.050424 0.000000
# 4 0.000000 0.000000 0.000000 0.045753 0.000000 -0.002663
# 5 0.049841 0.001253 -0.050424 0.000000 -0.032704 0.000000
# 6 0.000000 0.000000 0.000000 -0.002663 0.000000 0.028633
#
#
# Mechanical properties :
#
#
# Convention : Reuss Voigt Hill
#
# Bulk Modulus (GPa) = 34.19990 72.87035 53.53513
# Shear Modulus (GPa) = 95.55582 20.98952 58.27267
#
# Velocity S-wave (km/s) = 7.30979 3.42593 5.70833
# Velocity P-wave (km/s) = 9.50621 7.50980 8.56636
#
# Compressibility (1/GPa) = 0.02923985
#
# Stress axis : x y z
#
# Youngs Moduli (GPa) = -39.31269 22.35458 -236.50252
#
# Poissons Ratio (x) = 0.11672 5.37046
# Poissons Ratio (y) = -0.20527 -2.45977
# Poissons Ratio (z) = 0.89271 0.23250
#
# Static dielectric constant tensor:
#      x y z
#    x 1.607260 0.000000 0.021560 
#    y 0.000000 1.609330 0.000000 
#    z 0.021560 0.000000 1.609920 
# 
# From -- ./inp_files/72156.got.cif
#   From: 2010.05.17/outbox.cif.g08.bks.cpg/sg11_37_cif.got.tgz:72156.got - 2010.06.03 12:22:45.
