data_PCOD9159444
_publ_section_title
;
Structure prediction by ZEFSAII (Michael W. Deem and Ramdas Pophale) SiO2 
 PCOD9159444
Probable space group: P 21/M
;
_chemical_formula_sum "Si O2"
_cell_formula_units_Z 32
_cell_length_a 14.330598
_cell_length_b 8.992070
_cell_length_c 12.568058
_cell_angle_alpha 90.000000
_cell_angle_beta 101.722962
_cell_angle_gamma 90.000000
_cell_volume 1585.760553
_symmetry_space_group_name_H-M "P 21/M"
_symmetry_group_IT_number 11
_symmetry_cell_setting 'monoclinic'
loop_
_space_group_symop_operation_xyz
x,y,z
-x,1/2+y,-z
-x,-y,-z
x,1/2-y,z
loop_
_atom_site_type_symbol
_atom_site_label
_atom_site_fract_x
_atom_site_fract_y
_atom_site_fract_z
Si Si1 0.277546 0.422944 0.330625
Si Si2 0.649469 0.428817 0.220238
Si Si3 0.124311 0.078634 0.099928
Si Si4 0.982666 0.923427 0.215646
Si Si5 0.134745 0.921946 0.443086
Si Si6 0.711330 0.930757 0.011839
Si Si7 0.829569 0.572094 0.340125
Si Si8 0.433629 0.430198 0.211131
O O1 0.284503 0.250000 0.366406
O O2 0.202831 0.424828 0.214068
O O3 0.232480 0.522628 0.411449
O O4 0.376812 0.477522 0.303609
O O5 0.652783 0.250000 0.220153
O O6 0.680265 0.493719 0.113264
O O7 0.727092 0.495552 0.318068
O O8 0.542140 0.478050 0.223233
O O9 0.099498 0.250000 0.075917
O O10 0.185609 0.023864 0.012994
O O11 0.032523 0.996755 0.125828
O O12 0.969366 0.750000 0.189046
O O13 0.885933 0.980527 0.247395
O O14 0.056966 0.935962 0.331545
O O15 0.138949 0.750000 0.476252
O O16 0.116098 0.023118 0.540964
O O17 0.713578 0.750000 0.023597
O O18 0.631009 0.970318 0.905518
O O19 0.822538 0.750000 0.333806
O O20 0.432721 0.250000 0.214168
#
# Coordination Sequence:
#
# PCOD9159444 Si02
#       8
#     4   4   4   4   4   4   4   4
#     4   8  14  29  52  77 103 132 162 199 248 303
#     4  11  22  35  51  75 104 136 173 215 253 289
#     4   8  15  28  51  79 104 129 162 202 248 300
#     4   9  19  34  54  78 103 129 164 209 255 299
#     4  10  19  33  54  81 105 126 160 211 257 298
#     4   9  17  33  55  79 105 135 167 203 250 307
#     4  11  23  38  52  70 100 140 175 205 248 305
#     4   8  16  32  55  79 104 133 169 208 249 297
#
# _framework density 20.179592
#
# number of rings (size 3 to 8) (size 9 to 14) (size 15 to 20)
#    0.000    2.750    0.000    3.375    0.000    2.000 
#    0.000    5.000    0.000    0.000    0.000    0.000 
#    0.000    0.000    0.000    0.000    0.000    0.000 
#
# Total GULP energy -178566.577658 kJ/mol
# GULP energy per Si atom -5580.205552 kJ/mol
# Density = 2.013366 g / cm^3
# Si number density = 20.179592 Si / 1000 Ang^3
#
#
#
# Elastic Constant Matrix: (Units=GPa)
#
#
# Indices 1 2 3 4 5 6 
#
# 1 125.6728 29.6594 30.3432 0.0000 -21.0251 0.0000
# 2 29.6594 34.2504 13.5331 0.0000 -4.9382 0.0000
# 3 30.3432 13.5331 62.1965 0.0000 -13.3674 0.0000
# 4 0.0000 0.0000 0.0000 27.1105 0.0000 -7.9423
# 5 -21.0251 -4.9382 -13.3674 0.0000 27.1169 0.0000
# 6 0.0000 0.0000 0.0000 -7.9423 0.0000 23.3065
#
#
#
# Elastic Compliance Matrix: (Units=1/GPa)
#
#
# Indices 1 2 3 4 5 6 
#
# 1 0.011512 -0.008076 -0.002524 0.000000 0.006211 0.000000
# 2 -0.008076 0.037783 -0.004640 0.000000 -0.001668 0.000000
# 3 -0.002524 -0.004640 0.019816 0.000000 0.006967 0.000000
# 4 0.000000 0.000000 0.000000 0.040977 0.000000 0.013964
# 5 0.006211 -0.001668 0.006967 0.000000 0.044823 0.000000
# 6 0.000000 0.000000 0.000000 0.013964 0.000000 0.047665
#
#
# Mechanical properties :
#
#
# Convention : Reuss Voigt Hill
#
# Bulk Modulus (GPa) = 25.88554 41.02122 33.45338
# Shear Modulus (GPa) = 20.33083 25.41238 22.87160
#
# Velocity S-wave (km/s) = 3.17755 3.55253 3.37026
# Velocity P-wave (km/s) = 5.13009 6.09914 5.63548
#
# Compressibility (1/GPa) = 0.03863161
#
# Stress axis : x y z
#
# Youngs Moduli (GPa) = 86.86929 26.46708 50.46361
#
# Poissons Ratio (x) = 0.21374 0.12737
# Poissons Ratio (y) = 0.70154 0.23413
# Poissons Ratio (z) = 0.21926 0.12280
#
# Static dielectric constant tensor:
#      x y z
#    x 1.744910 0.000000 0.015070 
#    y 0.000000 1.654680 0.000000 
#    z 0.015070 0.000000 1.744080 
# 
# From -- ./inp_files/38266.got.cif
#   From: 2010.05.17/outbox.cif.g08.bks.cpg/sg11_20_cif.got.tgz:38266.got - 2010.06.03 12:22:45.
