data_PCOD9159176
_publ_section_title
;
Structure prediction by ZEFSAII (Michael W. Deem and Ramdas Pophale) SiO2 
 PCOD9159176
Probable space group: P 21/M
;
_chemical_formula_sum "Si O2"
_cell_formula_units_Z 32
_cell_length_a 20.245441
_cell_length_b 8.993814
_cell_length_c 26.050143
_cell_angle_alpha 90.000000
_cell_angle_beta 159.044875
_cell_angle_gamma 90.000000
_cell_volume 1696.380477
_symmetry_space_group_name_H-M "P 21/M"
_symmetry_group_IT_number 11
_symmetry_cell_setting 'monoclinic'
loop_
_space_group_symop_operation_xyz
x,y,z
-x,1/2+y,-z
-x,-y,-z
x,1/2-y,z
loop_
_atom_site_type_symbol
_atom_site_label
_atom_site_fract_x
_atom_site_fract_y
_atom_site_fract_z
Si Si1 0.296777 0.574272 0.204678
Si Si2 0.185839 0.074163 0.656049
Si Si3 0.509042 0.927598 0.825305
Si Si4 0.373575 0.573180 0.611499
Si Si5 0.941209 0.927707 0.150831
Si Si6 0.700333 0.573566 0.144688
Si Si7 0.014183 0.073326 0.307873
Si Si8 0.977572 0.073447 0.906251
O O1 0.330378 0.750000 0.223147
O O2 0.478699 0.483617 0.322774
O O3 0.209294 0.547379 0.197384
O O4 0.137967 0.520415 0.050007
O O5 0.177022 0.250000 0.640354
O O6 0.207403 0.050343 0.732593
O O7 0.365369 0.008328 0.758116
O O8 0.000000 0.000000 0.500000
O O9 0.491192 0.750000 0.819840
O O10 0.454712 0.959576 0.726889
O O11 0.722908 0.966545 0.989761
O O12 0.346549 0.750000 0.587958
O O13 0.182265 0.490214 0.463264
O O14 0.954871 0.750000 0.170157
O O15 0.026905 0.958978 0.157188
O O16 0.034144 0.016412 0.264222
O O17 0.686559 0.750000 0.125217
O O18 0.827005 0.497347 0.194104
O O19 0.500000 0.500000 0.000000
O O20 0.007813 0.250000 0.305753
O O21 0.024106 0.250000 0.945536
#
# Coordination Sequence:
#
# PCOD9159176 Si02
#       8
#     4   4   4   4   4   4   4   4
#     4  10  19  32  57  91 123 154 193 245 294 344
#     4  11  24  39  58  85 116 147 188 237 290 346
#     4  10  21  37  61  87 113 147 193 239 286 344
#     4  11  22  40  61  85 119 161 202 241 293 358
#     4  10  20  39  62  86 116 156 197 239 289 349
#     4  11  24  43  64  88 116 155 199 242 292 354
#     4  12  26  41  59  88 121 155 197 247 299 355
#     4   9  18  35  58  87 121 157 198 239 289 349
#
# _framework density 18.863692
#
# number of rings (size 3 to 8) (size 9 to 14) (size 15 to 20)
#    0.000    1.500    1.250    4.125    0.000    9.500 
#    0.000    0.625    0.000    0.000    0.000    0.000 
#    0.000    0.000    0.000    0.000    0.000    0.000 
#
# Total GULP energy -178899.115129 kJ/mol
# GULP energy per Si atom -5590.597348 kJ/mol
# Density = 1.882076 g / cm^3
# Si number density = 18.863692 Si / 1000 Ang^3
#
#
#
# Elastic Constant Matrix: (Units=GPa)
#
#
# Indices 1 2 3 4 5 6 
#
# 1 79.2455 39.0685 -6.6885 0.0000 6.4127 0.0000
# 2 39.0685 63.1158 19.2138 0.0000 -10.0628 0.0000
# 3 -6.6885 19.2138 32.0183 0.0000 -7.3790 0.0000
# 4 0.0000 0.0000 0.0000 33.2117 0.0000 4.4387
# 5 6.4127 -10.0628 -7.3790 0.0000 23.9347 0.0000
# 6 0.0000 0.0000 0.0000 4.4387 0.0000 27.5369
#
#
#
# Elastic Compliance Matrix: (Units=1/GPa)
#
#
# Indices 1 2 3 4 5 6 
#
# 1 0.026578 -0.023483 0.016930 0.000000 -0.011774 0.000000
# 2 -0.023483 0.040685 -0.025758 0.000000 0.015456 0.000000
# 3 0.016930 -0.025758 0.050255 0.000000 0.000128 0.000000
# 4 0.000000 0.000000 0.000000 0.030773 0.000000 -0.004960
# 5 -0.011774 0.015456 0.000128 0.000000 0.051473 0.000000
# 6 0.000000 0.000000 0.000000 -0.004960 0.000000 0.037114
#
#
# Mechanical properties :
#
#
# Convention : Reuss Voigt Hill
#
# Bulk Modulus (GPa) = 18.90462 30.84080 24.87271
# Shear Modulus (GPa) = 15.66749 25.12238 20.39494
#
# Velocity S-wave (km/s) = 2.88508 3.65332 3.29169
# Velocity P-wave (km/s) = 4.59801 5.84641 5.25938
#
# Compressibility (1/GPa) = 0.05289711
#
# Stress axis : x y z
#
# Youngs Moduli (GPa) = 37.62519 24.57898 19.89835
#
# Poissons Ratio (x) = 0.57718 -0.33688
# Poissons Ratio (y) = 0.88355 0.51254
# Poissons Ratio (z) = -0.63700 0.63311
#
# Static dielectric constant tensor:
#      x y z
#    x 1.663380 0.000000 0.002350 
#    y 0.000000 1.624570 0.000000 
#    z 0.002350 0.000000 1.633230 
# 
# From -- ./inp_files/72133.got.cif
#   From: 2010.05.17/outbox.cif.g08.bks.cpg/sg11_37_cif.got.tgz:72133.got - 2010.06.03 12:22:45.
