data_PCOD9159248
_publ_section_title
;
Structure prediction by ZEFSAII (Michael W. Deem and Ramdas Pophale) SiO2 
 PCOD9159248
Probable space group: P 21/M
;
_chemical_formula_sum "Si O2"
_cell_formula_units_Z 32
_cell_length_a 16.055081
_cell_length_b 21.504126
_cell_length_c 15.969423
_cell_angle_alpha 90.000000
_cell_angle_beta 18.556923
_cell_angle_gamma 90.000000
_cell_volume 1754.637339
_symmetry_space_group_name_H-M "P 21/M"
_symmetry_group_IT_number 11
_symmetry_cell_setting 'monoclinic'
loop_
_space_group_symop_operation_xyz
x,y,z
-x,1/2+y,-z
-x,-y,-z
x,1/2-y,z
loop_
_atom_site_type_symbol
_atom_site_label
_atom_site_fract_x
_atom_site_fract_y
_atom_site_fract_z
Si Si1 0.016199 0.182038 0.932387
Si Si2 0.434401 0.820694 0.509525
Si Si3 0.822849 0.982225 0.790616
Si Si4 0.088640 0.867598 0.135034
Si Si5 0.554332 0.035039 0.538539
Si Si6 0.107113 0.007958 0.097006
Si Si7 0.698239 0.562752 0.735328
Si Si8 0.361559 0.320875 0.322404
O O1 0.949156 0.250000 0.960620
O O2 0.323643 0.179965 0.655905
O O3 0.923491 0.133329 0.953599
O O4 0.847798 0.175871 0.176844
O O5 0.448848 0.750000 0.455854
O O6 0.473741 0.889343 0.433172
O O7 0.756043 0.934625 0.779158
O O8 0.848723 0.953600 0.859104
O O9 0.087848 0.016927 0.509736
O O10 0.582576 0.031146 0.013790
O O11 0.838577 0.833245 0.410949
O O12 0.079822 0.939833 0.163532
O O13 0.348783 0.836231 0.921253
O O14 0.500000 0.000000 0.500000
O O15 0.847047 0.021954 0.292209
O O16 0.350060 0.010342 0.802264
O O17 0.708570 0.629317 0.681692
O O18 0.343167 0.250000 0.312127
#
# Coordination Sequence:
#
# PCOD9159248 Si02
#       8
#     4   4   4   4   4   4   4   4
#     4  10  19  33  52  73 103 147 191 229 274 349
#     4  10  21  38  56  75 105 148 196 240 298 353
#     4  10  20  36  61  81 108 145 187 245 274 328
#     4  12  22  35  51  82 118 152 185 230 279 346
#     4  12  24  38  57  86 116 151 193 252 300 343
#     4  12  22  37  59  83 116 147 196 242 293 339
#     4  10  19  37  56  83 112 142 191 227 283 329
#     4  12  22  34  53  81 120 156 184 221 278 358
#
# _framework density 18.237386000000001
#
# number of rings (size 3 to 8) (size 9 to 14) (size 15 to 20)
#    0.000    1.000    2.500    6.000    0.000    1.000 
#    0.000    0.000    0.000    1.500    0.000    0.000 
#    0.000    0.000    0.000    0.000    0.000    0.000 
#
# Total GULP energy -178404.512836 kJ/mol
# GULP energy per Si atom -5575.141026 kJ/mol
# Density = 1.819588 g / cm^3
# Si number density = 18.237386 Si / 1000 Ang^3
#
#
#
# Elastic Constant Matrix: (Units=GPa)
#
#
# Indices 1 2 3 4 5 6 
#
# 1 60.6348 -9.9143 -22.5889 0.0000 5.6658 0.0000
# 2 -9.9143 66.6954 -32.8201 0.0000 -2.4487 0.0000
# 3 -22.5889 -32.8201 -28.3508 0.0000 -7.5129 0.0000
# 4 0.0000 0.0000 0.0000 35.8435 0.0000 6.3228
# 5 5.6658 -2.4487 -7.5129 0.0000 22.3244 0.0000
# 6 0.0000 0.0000 0.0000 6.3228 0.0000 27.5642
#
#
#
# Elastic Compliance Matrix: (Units=1/GPa)
#
#
# Indices 1 2 3 4 5 6 
#
# 1 0.014016 -0.001800 -0.007426 0.000000 -0.006254 0.000000
# 2 -0.001800 0.009932 -0.009616 0.000000 -0.001690 0.000000
# 3 -0.007426 -0.009616 -0.016934 0.000000 -0.004869 0.000000
# 4 0.000000 0.000000 0.000000 0.029076 0.000000 -0.006670
# 5 -0.006254 -0.001690 -0.004869 0.000000 0.044557 0.000000
# 6 0.000000 0.000000 0.000000 -0.006670 0.000000 0.037809
#
#
# Mechanical properties :
#
#
# Convention : Reuss Voigt Hill
#
# Bulk Modulus (GPa) = -32.60534 -3.51857 -18.06196
# Shear Modulus (GPa) = 34.26630 28.09994 31.18312
#
# Velocity S-wave (km/s) = 4.33934 3.92955 4.13951
# Velocity P-wave (km/s) = 2.68129 4.31914 3.59474
#
# Compressibility (1/GPa) = -0.03066982
#
# Stress axis : x y z
#
# Youngs Moduli (GPa) = 71.34843 100.68340 -59.05290
#
# Poissons Ratio (x) = 0.18126 -0.43852
# Poissons Ratio (y) = 0.12845 -0.56783
# Poissons Ratio (z) = 0.52982 0.96814
#
# Static dielectric constant tensor:
#      x y z
#    x 1.634840 0.000000 0.014980 
#    y 0.000000 1.706130 0.000000 
#    z 0.014980 0.000000 1.628510 
# 
# From -- ./inp_files/46212.got.cif
#   From: 2010.05.17/outbox.cif.g08.bks.cpg/sg11_24_cif.got.tgz:46212.got - 2010.06.03 12:22:45.
