data_PCOD9159870
_publ_section_title
;
Structure prediction by ZEFSAII (Michael W. Deem and Ramdas Pophale) SiO2 
 PCOD9159870
Probable space group: P 21/M
;
_chemical_formula_sum "Si O2"
_cell_formula_units_Z 32
_cell_length_a 5.465607
_cell_length_b 22.903816
_cell_length_c 13.091801
_cell_angle_alpha 90.000000
_cell_angle_beta 76.042192
_cell_angle_gamma 90.000000
_cell_volume 1590.484252
_symmetry_space_group_name_H-M "P 21/M"
_symmetry_group_IT_number 11
_symmetry_cell_setting 'monoclinic'
loop_
_space_group_symop_operation_xyz
x,y,z
-x,1/2+y,-z
-x,-y,-z
x,1/2-y,z
loop_
_atom_site_type_symbol
_atom_site_label
_atom_site_fract_x
_atom_site_fract_y
_atom_site_fract_z
Si Si1 0.940189 0.683027 0.873722
Si Si2 0.739143 0.400200 0.045310
Si Si3 0.456579 0.930115 0.487647
Si Si4 0.546395 0.413875 0.750913
Si Si5 0.742136 0.927132 0.800688
Si Si6 0.914570 0.938957 0.561954
Si Si7 0.469033 0.183170 0.912396
Si Si8 0.002198 0.465593 0.845055
O O1 0.975755 0.750000 0.839972
O O2 0.181447 0.644221 0.873784
O O3 0.789029 0.641953 0.810655
O O4 0.793103 0.682855 0.997965
O O5 0.512429 0.439044 0.111518
O O6 0.640314 0.355755 0.968556
O O7 0.933805 0.439555 0.962384
O O8 0.415742 0.914866 0.373731
O O9 0.720765 0.906185 0.505844
O O10 0.188106 0.912680 0.564501
O O11 0.500000 0.000000 0.500000
O O12 0.475156 0.350796 0.805305
O O13 0.794609 0.437729 0.786037
O O14 0.290131 0.450564 0.793287
O O15 0.755554 0.945389 0.681795
O O16 0.953335 0.965854 0.835635
O O17 0.000000 0.000000 0.500000
O O18 0.551498 0.250000 0.895450
#
# Coordination Sequence:
#
# PCOD9159870 Si02
#       8
#     4   4   4   4   4   4   4   4
#     4  10  21  39  60  84 119 160 208 244 289 360
#     4  10  21  36  56  90 124 164 194 244 296 369
#     4  10  19  34  55  81 115 155 197 243 293 355
#     4  11  21  37  60  90 123 161 199 246 307 361
#     4  11  24  36  60  87 123 159 200 250 308 362
#     4  10  21  37  57  83 114 152 197 245 293 353
#     4   9  19  37  58  86 119 159 205 246 291 357
#     4  11  22  36  57  91 130 158 190 240 308 374
#
# _framework density 20.119658999999999
#
# number of rings (size 3 to 8) (size 9 to 14) (size 15 to 20)
#    0.000    1.750    1.250    4.500    3.500    1.000 
#    0.000    0.000    0.000    1.500    0.000    0.000 
#    0.000    0.000    0.000    0.000    0.000    0.000 
#
# Total GULP energy -178358.652562 kJ/mol
# GULP energy per Si atom -5573.707893 kJ/mol
# Density = 2.007387 g / cm^3
# Si number density = 20.119659 Si / 1000 Ang^3
#
#
#
# Elastic Constant Matrix: (Units=GPa)
#
#
# Indices 1 2 3 4 5 6 
#
# 1 83.9757 -2.5903 -9.2967 0.0000 4.7005 0.0000
# 2 -2.5903 89.2008 21.0315 0.0000 -1.9779 0.0000
# 3 -9.2967 21.0315 65.0299 0.0000 13.5272 0.0000
# 4 0.0000 0.0000 0.0000 16.4999 0.0000 -3.7389
# 5 4.7005 -1.9779 13.5272 0.0000 28.1857 0.0000
# 6 0.0000 0.0000 0.0000 -3.7389 0.0000 13.0169
#
#
#
# Elastic Compliance Matrix: (Units=1/GPa)
#
#
# Indices 1 2 3 4 5 6 
#
# 1 0.012367 -0.000318 0.002560 0.000000 -0.003313 0.000000
# 2 -0.000318 0.012383 -0.004713 0.000000 0.003184 0.000000
# 3 0.002560 -0.004713 0.019358 0.000000 -0.010048 0.000000
# 4 0.000000 0.000000 0.000000 0.064826 0.000000 0.018620
# 5 -0.003313 0.003184 -0.010048 0.000000 0.041077 0.000000
# 6 0.000000 0.000000 0.000000 0.018620 0.000000 0.082172
#
#
# Mechanical properties :
#
#
# Convention : Reuss Voigt Hill
#
# Bulk Modulus (GPa) = 25.53146 28.49949 27.01547
# Shear Modulus (GPa) = 19.98564 26.81128 23.39846
#
# Velocity S-wave (km/s) = 3.15515 3.65443 3.41393
# Velocity P-wave (km/s) = 5.09810 5.65705 5.38483
#
# Compressibility (1/GPa) = 0.03916737
#
# Stress axis : x y z
#
# Youngs Moduli (GPa) = 80.85852 80.75497 51.65881
#
# Poissons Ratio (x) = 0.02568 -0.13225
# Poissons Ratio (y) = 0.02571 0.24345
# Poissons Ratio (z) = -0.20701 0.38056
#
# Static dielectric constant tensor:
#      x y z
#    x 1.877790 0.000000 0.027430 
#    y 0.000000 1.719450 0.000000 
#    z 0.027430 0.000000 1.720930 
# 
# From -- ./inp_files/30239.got.cif
#   From: 2010.05.17/outbox.cif.g08.bks.cpg/sg11_16_cif.got.tgz:30239.got - 2010.06.03 12:22:45.
