data_PCOD9159678
_publ_section_title
;
Structure prediction by ZEFSAII (Michael W. Deem and Ramdas Pophale) SiO2 
 PCOD9159678
Probable space group: P 21/M
;
_chemical_formula_sum "Si O2"
_cell_formula_units_Z 32
_cell_length_a 23.248177
_cell_length_b 8.736004
_cell_length_c 15.648097
_cell_angle_alpha 90.000000
_cell_angle_beta 32.271394
_cell_angle_gamma 90.000000
_cell_volume 1696.866986
_symmetry_space_group_name_H-M "P 21/M"
_symmetry_group_IT_number 11
_symmetry_cell_setting 'monoclinic'
loop_
_space_group_symop_operation_xyz
x,y,z
-x,1/2+y,-z
-x,-y,-z
x,1/2-y,z
loop_
_atom_site_type_symbol
_atom_site_label
_atom_site_fract_x
_atom_site_fract_y
_atom_site_fract_z
Si Si1 0.668301 0.930055 0.901063
Si Si2 0.495230 0.567435 0.776978
Si Si3 0.571692 0.563915 0.489021
Si Si4 0.026611 0.072620 0.856931
Si Si5 0.084188 0.068570 0.458505
Si Si6 0.125383 0.921738 0.579125
Si Si7 0.823355 0.933958 0.174701
Si Si8 0.621601 0.073580 0.779365
O O1 0.648470 0.750000 0.936287
O O2 0.794905 0.953963 0.728678
O O3 0.613763 0.987302 0.880511
O O4 0.622050 0.017071 0.041666
O O5 0.506211 0.750000 0.765611
O O6 0.527155 0.518981 0.640059
O O7 0.566928 0.496967 0.763707
O O8 0.500000 0.500000 0.500000
O O9 0.568331 0.750000 0.488962
O O10 0.698780 0.515365 0.324053
O O11 0.006257 0.250000 0.900800
O O12 0.110570 0.012604 0.823680
O O13 0.091043 0.046248 0.690201
O O14 0.911057 0.989487 0.995704
O O15 0.070506 0.250000 0.491381
O O16 0.071246 0.969480 0.559546
O O17 0.000000 0.000000 0.500000
O O18 0.096432 0.750000 0.644049
O O19 0.252069 0.926793 0.402167
O O20 0.819453 0.750000 0.181481
O O21 0.588151 0.250000 0.833521
#
# Coordination Sequence:
#
# PCOD9159678 Si02
#       8
#     4   4   4   4   4   4   4   4
#     4  10  21  37  57  84 116 149 186 228 277 334
#     4  11  22  37  58  84 113 148 188 233 284 335
#     4  10  23  42  61  81 110 152 197 243 290 339
#     4  10  19  33  57  88 116 144 184 231 287 347
#     4  10  21  38  58  79 108 147 188 228 274 324
#     4  10  20  34  54  82 114 147 184 225 276 333
#     4   9  19  37  58  81 113 148 183 234 293 343
#     4  10  20  34  56  86 119 152 185 227 279 334
#
# _framework density 18.858284999999999
#
# number of rings (size 3 to 8) (size 9 to 14) (size 15 to 20)
#    0.000    2.000    0.000    3.375    0.000    6.000 
#    2.250    0.000    0.000    0.000    0.000    0.000 
#    0.000    0.000    0.000    0.000    0.000    0.000 
#
# Total GULP energy -178363.527341 kJ/mol
# GULP energy per Si atom -5573.860229 kJ/mol
# Density = 1.881536 g / cm^3
# Si number density = 18.858285 Si / 1000 Ang^3
#
#
#
# Elastic Constant Matrix: (Units=GPa)
#
#
# Indices 1 2 3 4 5 6 
#
# 1 92.8200 25.5992 32.6966 0.0000 -7.7395 0.0000
# 2 25.5992 49.1622 21.3875 0.0000 -1.2410 0.0000
# 3 32.6966 21.3875 64.2597 0.0000 0.0918 0.0000
# 4 0.0000 0.0000 0.0000 29.8988 0.0000 2.7667
# 5 -7.7395 -1.2410 0.0918 0.0000 26.8810 0.0000
# 6 0.0000 0.0000 0.0000 2.7667 0.0000 29.1653
#
#
#
# Elastic Compliance Matrix: (Units=1/GPa)
#
#
# Indices 1 2 3 4 5 6 
#
# 1 0.014488 -0.004951 -0.005729 0.000000 0.003962 0.000000
# 2 -0.004951 0.025511 -0.005971 0.000000 -0.000227 0.000000
# 3 -0.005729 -0.005971 0.020467 0.000000 -0.001995 0.000000
# 4 0.000000 0.000000 0.000000 0.033742 0.000000 -0.003201
# 5 0.003962 -0.000227 -0.001995 0.000000 0.038338 0.000000
# 6 0.000000 0.000000 0.000000 -0.003201 0.000000 0.034591
#
#
# Mechanical properties :
#
#
# Convention : Reuss Voigt Hill
#
# Bulk Modulus (GPa) = 36.81571 40.62315 38.71943
# Shear Modulus (GPa) = 23.86690 25.62624 24.74657
#
# Velocity S-wave (km/s) = 3.56138 3.69030 3.62641
# Velocity P-wave (km/s) = 6.03953 6.30443 6.17340
#
# Compressibility (1/GPa) = 0.02716232
#
# Stress axis : x y z
#
# Youngs Moduli (GPa) = 69.02417 39.19882 48.85853
#
# Poissons Ratio (x) = 0.19409 0.27993
# Poissons Ratio (y) = 0.34176 0.29174
# Poissons Ratio (z) = 0.39546 0.23406
#
# Static dielectric constant tensor:
#      x y z
#    x 1.617730 0.000000 -0.008550 
#    y 0.000000 1.678020 0.000000 
#    z -0.008550 0.000000 1.698830 
# 
# From -- ./inp_files/55512.got.cif
#   From: 2010.05.17/outbox.cif.g08.bks.cpg/sg11_28_cif.got.tgz:55512.got - 2010.06.03 12:22:45.
