data_PCOD9159249
_publ_section_title
;
Structure prediction by ZEFSAII (Michael W. Deem and Ramdas Pophale) SiO2 
 PCOD9159249
Probable space group: P 21/M
;
_chemical_formula_sum "Si O2"
_cell_formula_units_Z 28
_cell_length_a 21.446494
_cell_length_b 8.828904
_cell_length_c 19.019151
_cell_angle_alpha 90.000000
_cell_angle_beta 153.635259
_cell_angle_gamma 90.000000
_cell_volume 1599.260615
_symmetry_space_group_name_H-M "P 21/M"
_symmetry_group_IT_number 11
_symmetry_cell_setting 'monoclinic'
loop_
_space_group_symop_operation_xyz
x,y,z
-x,1/2+y,-z
-x,-y,-z
x,1/2-y,z
loop_
_atom_site_type_symbol
_atom_site_label
_atom_site_fract_x
_atom_site_fract_y
_atom_site_fract_z
Si Si1 0.666528 0.576774 0.243704
Si Si2 0.832999 0.932011 0.683172
Si Si3 0.675285 0.075300 0.109408
Si Si4 0.157471 0.567579 0.162310
Si Si5 0.655073 0.070118 0.377280
Si Si6 0.656591 0.065527 0.936115
Si Si7 0.160475 0.566701 0.011336
O O1 0.707079 0.750000 0.297289
O O2 0.719843 0.519124 0.222260
O O3 0.706511 0.477356 0.351326
O O4 0.495706 0.571417 0.066461
O O5 0.826358 0.750000 0.678629
O O6 0.748278 0.995515 0.531945
O O7 0.997070 0.978577 0.841819
O O8 0.778191 0.998362 0.702035
O O9 0.716573 0.250000 0.161097
O O10 0.719509 0.023352 0.076212
O O11 0.152130 0.750000 0.162045
O O12 0.219057 0.525263 0.147892
O O13 0.000000 0.500000 0.000000
O O14 0.345980 0.750000 0.617108
O O15 0.497729 0.004501 0.225433
O O16 0.644383 0.250000 0.923836
O O17 0.750256 0.015193 0.965054
O O18 0.161105 0.750000 0.009747
#
# Coordination Sequence:
#
# PCOD9159249 Si02
#       7
#     4   4   4   4   4   4   4
#     4   9  16  27  44  65  91 124 159 194 233 277
#     4  10  19  33  52  73  96 126 162 199 240 284
#     4   8  14  24  42  67  93 120 152 191 234 278
#     4   9  16  29  49  73  97 124 160 199 236 278
#     4  11  21  32  47  71 100 127 158 198 240 283
#     4   9  17  32  51  72  98 127 157 193 239 286
#     4   8  16  31  53  75  95 122 158 197 236 282
#
# _framework density 17.508092000000001
#
# number of rings (size 3 to 8) (size 9 to 14) (size 15 to 20)
#    0.000    2.857    0.000    4.286    0.000    3.429 
#    0.000    5.000    0.000    0.857    0.000    0.000 
#    0.000    0.000    0.000    0.000    0.000    0.000 
#
# Total GULP energy -155928.108235 kJ/mol
# GULP energy per Si atom -5568.861008 kJ/mol
# Density = 1.746824 g / cm^3
# Si number density = 17.508092 Si / 1000 Ang^3
#
#
#
# Elastic Constant Matrix: (Units=GPa)
#
#
# Indices 1 2 3 4 5 6 
#
# 1 175.9304 37.1618 33.1663 0.0000 -28.4248 0.0000
# 2 37.1618 71.6453 35.2741 0.0000 -20.3857 0.0000
# 3 33.1663 35.2741 71.9109 0.0000 -36.2972 0.0000
# 4 0.0000 0.0000 0.0000 16.4890 0.0000 -7.7906
# 5 -28.4248 -20.3857 -36.2972 0.0000 30.1666 0.0000
# 6 0.0000 0.0000 0.0000 -7.7906 0.0000 23.2418
#
#
#
# Elastic Compliance Matrix: (Units=1/GPa)
#
#
# Indices 1 2 3 4 5 6 
#
# 1 0.007000 -0.002388 0.001165 0.000000 0.006385 0.000000
# 2 -0.002388 0.019409 -0.007474 0.000000 0.001873 0.000000
# 3 0.001165 -0.007474 0.038301 0.000000 0.042132 0.000000
# 4 0.000000 0.000000 0.000000 0.072058 0.000000 0.024154
# 5 0.006385 0.001873 0.042132 0.000000 0.091126 0.000000
# 6 0.000000 0.000000 0.000000 0.024154 0.000000 0.051122
#
#
# Mechanical properties :
#
#
# Convention : Reuss Voigt Hill
#
# Bulk Modulus (GPa) = 21.13373 58.96568 40.04971
# Shear Modulus (GPa) = 16.01631 28.23844 22.12737
#
# Velocity S-wave (km/s) = 3.02784 4.02042 3.55891
# Velocity P-wave (km/s) = 4.93161 7.43666 6.30970
#
# Compressibility (1/GPa) = 0.04731772
#
# Stress axis : x y z
#
# Youngs Moduli (GPa) = 142.84981 51.52255 26.10901
#
# Poissons Ratio (x) = 0.12304 -0.03043
# Poissons Ratio (y) = 0.34115 0.19513
# Poissons Ratio (z) = -0.16648 0.38506
#
# Static dielectric constant tensor:
#      x y z
#    x 1.637560 0.000000 -0.017990 
#    y 0.000000 1.587320 0.000000 
#    z -0.017990 0.000000 1.587270 
# 
# From -- ./inp_files/24273.got.cif
#   From: 2010.05.17/outbox.cif.g08.bks.cpg/sg11_13_cif.got.tgz:24273.got - 2010.06.03 12:22:45.
