data_PCOD9159576
_publ_section_title
;
Structure prediction by ZEFSAII (Michael W. Deem and Ramdas Pophale) SiO2 
 PCOD9159576
Probable space group: P 21/M
;
_chemical_formula_sum "Si O2"
_cell_formula_units_Z 24
_cell_length_a 8.314051
_cell_length_b 17.728146
_cell_length_c 10.513780
_cell_angle_alpha 90.000000
_cell_angle_beta 141.507641
_cell_angle_gamma 90.000000
_cell_volume 964.520880
_symmetry_space_group_name_H-M "P 21/M"
_symmetry_group_IT_number 11
_symmetry_cell_setting 'monoclinic'
loop_
_space_group_symop_operation_xyz
x,y,z
-x,1/2+y,-z
-x,-y,-z
x,1/2-y,z
loop_
_atom_site_type_symbol
_atom_site_label
_atom_site_fract_x
_atom_site_fract_y
_atom_site_fract_z
Si Si1 0.301365 0.833597 0.555269
Si Si2 0.977294 0.551553 0.110583
Si Si3 0.088468 0.438204 0.365928
Si Si4 0.739996 0.840720 0.301839
Si Si5 0.132497 0.160489 0.154799
Si Si6 0.444807 0.902698 0.891148
O O1 0.286474 0.750000 0.492262
O O2 0.003417 0.857701 0.383703
O O3 0.564573 0.866320 0.658714
O O4 0.383796 0.836082 0.754727
O O5 0.156400 0.514583 0.330890
O O6 0.685765 0.551409 0.983919
O O7 0.005643 0.633110 0.061741
O O8 0.000000 0.500000 0.000000
O O9 0.262298 0.393640 0.574613
O O10 0.028047 0.379004 0.215894
O O11 0.815630 0.451328 0.267953
O O12 0.736120 0.750000 0.326769
O O13 0.519346 0.866816 0.070423
O O14 0.121659 0.250000 0.155402
#
# Coordination Sequence:
#
# PCOD9159576 Si02
#       6
#     4   4   4   4   4   4
#     4   8  16  32  52  74 105 143 182 227 273 320
#     4   9  19  36  57  80 109 147 188 227 272 327
#     4  10  20  35  55  81 114 147 180 227 282 333
#     4  10  20  33  53  83 114 146 186 228 274 330
#     4   9  17  33  57  79 104 144 188 231 279 326
#     4  10  19  33  56  80 108 143 182 226 276 329
#
# _framework density 24.882821
#
# number of rings (size 3 to 8) (size 9 to 14) (size 15 to 20)
#    0.000    2.667    0.000    1.500    0.000    3.333 
#    0.000    5.000    0.000   19.000    0.000    0.000 
#    0.000    0.000    0.000    0.000    0.000    0.000 
#
# Total GULP energy -133771.600575 kJ/mol
# GULP energy per Si atom -5573.816691 kJ/mol
# Density = 2.482619 g / cm^3
# Si number density = 24.882821 Si / 1000 Ang^3
#
#
#
# Elastic Constant Matrix: (Units=GPa)
#
#
# Indices 1 2 3 4 5 6 
#
# 1 64.1944 4.4655 35.6747 0.0000 -0.1361 0.0000
# 2 4.4655 92.5935 24.6210 0.0000 -3.0917 0.0000
# 3 35.6747 24.6210 79.7793 0.0000 6.3314 0.0000
# 4 0.0000 0.0000 0.0000 31.8013 0.0000 -10.9143
# 5 -0.1361 -3.0917 6.3314 0.0000 25.4196 0.0000
# 6 0.0000 0.0000 0.0000 -10.9143 0.0000 25.9783
#
#
#
# Elastic Compliance Matrix: (Units=1/GPa)
#
#
# Indices 1 2 3 4 5 6 
#
# 1 0.021150 0.001800 -0.010242 0.000000 0.002883 0.000000
# 2 0.001800 0.012062 -0.004738 0.000000 0.002657 0.000000
# 3 -0.010242 -0.004738 0.019002 0.000000 -0.005364 0.000000
# 4 0.000000 0.000000 0.000000 0.036743 0.000000 0.015437
# 5 0.002883 0.002657 -0.005364 0.000000 0.041014 0.000000
# 6 0.000000 0.000000 0.000000 0.015437 0.000000 0.044979
#
#
# Mechanical properties :
#
#
# Convention : Reuss Voigt Hill
#
# Bulk Modulus (GPa) = 38.67908 40.67664 39.67786
# Shear Modulus (GPa) = 23.81749 28.09356 25.95553
#
# Velocity S-wave (km/s) = 3.09720 3.36376 3.23323
# Velocity P-wave (km/s) = 5.32620 5.60975 5.46981
#
# Compressibility (1/GPa) = 0.02585377
#
# Stress axis : x y z
#
# Youngs Moduli (GPa) = 47.28053 82.90729 52.62508
#
# Poissons Ratio (x) = -0.14920 0.53898
# Poissons Ratio (y) = -0.08509 0.24934
# Poissons Ratio (z) = 0.48424 0.39281
#
# Static dielectric constant tensor:
#      x y z
#    x 1.979850 0.000000 0.011540 
#    y 0.000000 2.048340 0.000000 
#    z 0.011540 0.000000 2.003670 
# 
# From -- ./inp_files/14397.got.cif
#   From: 2010.05.17/outbox.cif.g08.bks.cpg/sg11_8_cif.got.tgz:14397.got - 2010.06.03 12:22:45.
