data_PCOD9159334
_publ_section_title
;
Structure prediction by ZEFSAII (Michael W. Deem and Ramdas Pophale) SiO2 
 PCOD9159334
Probable space group: P 21/M
;
_chemical_formula_sum "Si O2"
_cell_formula_units_Z 32
_cell_length_a 23.348092
_cell_length_b 13.978732
_cell_length_c 17.385149
_cell_angle_alpha 90.000000
_cell_angle_beta 161.904531
_cell_angle_gamma 90.000000
_cell_volume 1762.385076
_symmetry_space_group_name_H-M "P 21/M"
_symmetry_group_IT_number 11
_symmetry_cell_setting 'monoclinic'
loop_
_space_group_symop_operation_xyz
x,y,z
-x,1/2+y,-z
-x,-y,-z
x,1/2-y,z
loop_
_atom_site_type_symbol
_atom_site_label
_atom_site_fract_x
_atom_site_fract_y
_atom_site_fract_z
Si Si1 0.189911 0.977668 0.200483
Si Si2 0.605464 0.941950 0.069288
Si Si3 0.948743 0.958262 0.604270
Si Si4 0.855899 0.359179 0.009895
Si Si5 0.654803 0.481552 0.966427
Si Si6 0.466681 0.359106 0.602895
Si Si7 0.764780 0.358886 0.450486
Si Si8 0.621536 0.138512 0.430605
O O1 0.290657 0.895391 0.378181
O O2 0.320728 0.070495 0.376281
O O3 0.152235 0.936185 0.068396
O O4 0.000000 0.000000 0.000000
O O5 0.796539 0.913489 0.352972
O O6 0.643916 0.008748 0.044278
O O7 0.453170 0.864692 0.849626
O O8 0.500000 0.000000 0.000000
O O9 0.996234 0.891772 0.737598
O O10 0.873302 0.059940 0.541454
O O11 0.138302 0.971418 0.799620
O O12 0.891167 0.250000 0.028727
O O13 0.655931 0.360761 0.795778
O O14 0.526348 0.400757 0.762670
O O15 0.564033 0.578978 0.819093
O O16 0.400634 0.250000 0.523842
O O17 0.831183 0.250000 0.523760
O O18 0.758722 0.383228 0.533871
O O19 0.585773 0.250000 0.383611
#
# Coordination Sequence:
#
# PCOD9159334 Si02
#       8
#     4   4   4   4   4   4   4   4
#     4  11  21  34  54  80 108 137 177 221 266 316
#     4   9  18  33  52  74 104 140 172 209 260 315
#     4  10  19  33  53  77 104 135 177 222 264 309
#     4  10  21  37  55  77 107 143 181 222 268 318
#     4   9  18  33  54  78 103 134 173 219 264 312
#     4   9  20  38  57  78 107 141 177 219 269 322
#     4   9  18  33  51  73 103 136 171 212 261 315
#     4   9  18  33  51  71 100 136 169 208 261 317
#
# _framework density 18.157212000000001
#
# number of rings (size 3 to 8) (size 9 to 14) (size 15 to 20)
#    0.000    2.500    0.000    1.875    0.000    3.000 
#    0.000    3.125    0.000    4.500    0.000    0.000 
#    0.000    0.000    0.000    0.000    0.000    0.000 
#
# Total GULP energy -178321.416605 kJ/mol
# GULP energy per Si atom -5572.544269 kJ/mol
# Density = 1.811589 g / cm^3
# Si number density = 18.157212 Si / 1000 Ang^3
#
#
#
# Elastic Constant Matrix: (Units=GPa)
#
#
# Indices 1 2 3 4 5 6 
#
# 1 74.8840 29.3923 35.7998 0.0000 -21.4284 0.0000
# 2 29.3923 95.0658 30.4384 0.0000 -4.3916 0.0000
# 3 35.7998 30.4384 79.0889 0.0000 -12.8033 0.0000
# 4 0.0000 0.0000 0.0000 12.2650 0.0000 5.3583
# 5 -21.4284 -4.3916 -12.8033 0.0000 30.1347 0.0000
# 6 0.0000 0.0000 0.0000 5.3583 0.0000 18.4143
#
#
#
# Elastic Compliance Matrix: (Units=1/GPa)
#
#
# Indices 1 2 3 4 5 6 
#
# 1 0.021307 -0.004068 -0.006145 0.000000 0.011948 0.000000
# 2 -0.004068 0.012776 -0.003482 0.000000 -0.002510 0.000000
# 3 -0.006145 -0.003482 0.017156 0.000000 0.002412 0.000000
# 4 0.000000 0.000000 0.000000 0.093407 0.000000 -0.027180
# 5 0.011948 -0.002510 0.002412 0.000000 0.042339 0.000000
# 6 0.000000 0.000000 0.000000 -0.027180 0.000000 0.062215
#
#
# Mechanical properties :
#
#
# Convention : Reuss Voigt Hill
#
# Bulk Modulus (GPa) = 41.93038 48.92220 45.42629
# Shear Modulus (GPa) = 17.57222 22.39001 19.98111
#
# Velocity S-wave (km/s) = 3.11429 3.51539 3.32090
# Velocity P-wave (km/s) = 6.00624 6.59389 6.30691
#
# Compressibility (1/GPa) = 0.02384905
#
# Stress axis : x y z
#
# Youngs Moduli (GPa) = 46.93188 78.27361 58.28858
#
# Poissons Ratio (x) = 0.31844 0.35818
# Poissons Ratio (y) = 0.19094 0.20295
# Poissons Ratio (z) = 0.28839 0.27253
#
# Static dielectric constant tensor:
#      x y z
#    x 1.624730 0.000000 -0.013810 
#    y 0.000000 1.606570 0.000000 
#    z -0.013810 0.000000 1.654310 
# 
# From -- ./inp_files/55024.got.cif
#   From: 2010.05.17/outbox.cif.g08.bks.cpg/sg11_28_cif.got.tgz:55024.got - 2010.06.03 12:22:45.
