data_PCOD9159437
_publ_section_title
;
Structure prediction by ZEFSAII (Michael W. Deem and Ramdas Pophale) SiO2 
 PCOD9159437
Probable space group: P 21/M
;
_chemical_formula_sum "Si O2"
_cell_formula_units_Z 32
_cell_length_a 12.618269
_cell_length_b 8.580898
_cell_length_c 20.718458
_cell_angle_alpha 90.000000
_cell_angle_beta 53.697918
_cell_angle_gamma 90.000000
_cell_volume 1807.901455
_symmetry_space_group_name_H-M "P 21/M"
_symmetry_group_IT_number 11
_symmetry_cell_setting 'monoclinic'
loop_
_space_group_symop_operation_xyz
x,y,z
-x,1/2+y,-z
-x,-y,-z
x,1/2-y,z
loop_
_atom_site_type_symbol
_atom_site_label
_atom_site_fract_x
_atom_site_fract_y
_atom_site_fract_z
Si Si1 0.115488 0.936872 0.619482
Si Si2 0.647120 0.061199 0.207002
Si Si3 0.349120 0.061378 0.287125
Si Si4 0.813604 0.061113 0.266574
Si Si5 0.886369 0.937749 0.873586
Si Si6 0.828643 0.434794 0.758911
Si Si7 0.858670 0.563638 0.528721
Si Si8 0.857909 0.937162 0.029523
O O1 0.119339 0.750000 0.614703
O O2 0.190708 0.990162 0.657375
O O3 0.167212 0.006232 0.534351
O O4 0.963598 0.987152 0.684264
O O5 0.650031 0.250000 0.205889
O O6 0.498124 0.011847 0.247312
O O7 0.703979 0.007233 0.255811
O O8 0.746275 0.002402 0.116515
O O9 0.346017 0.250000 0.284313
O O10 0.252394 0.013636 0.380354
O O11 0.289511 0.993125 0.243087
O O12 0.808862 0.250000 0.269342
O O13 0.958708 0.019399 0.187734
O O14 0.878614 0.750000 0.869582
O O15 0.815956 0.014556 0.837949
O O16 0.836506 0.981890 0.962319
O O17 0.842400 0.250000 0.749162
O O18 0.864494 0.750000 0.527092
O O19 0.000000 0.500000 0.500000
O O20 0.860479 0.750000 0.031891
O O21 0.000000 0.000000 0.000000
#
# Coordination Sequence:
#
# PCOD9159437 Si02
#       8
#     4   4   4   4   4   4   4   4
#     4  10  19  33  54  80 111 143 179 226 278 329
#     4  10  20  38  59  81 110 149 189 226 275 334
#     4  10  22  38  57  78 111 151 185 225 280 339
#     4   8  15  31  54  78 106 142 179 215 268 327
#     4   9  18  34  55  79 111 144 178 222 275 327
#     4  11  21  33  54  82 111 141 183 232 275 326
#     4  11  21  34  54  82 109 143 188 233 278 324
#     4  11  21  35  57  86 115 146 184 231 275 325
#
# _framework density 17.70008
#
# number of rings (size 3 to 8) (size 9 to 14) (size 15 to 20)
#    0.000    2.000    2.500    3.000    0.000    2.000 
#    0.000    1.875    0.000    0.000    0.000    0.000 
#    0.000    0.000    0.000    0.000    0.000    0.000 
#
# Total GULP energy -178592.667855 kJ/mol
# GULP energy per Si atom -5581.020870 kJ/mol
# Density = 1.765979 g / cm^3
# Si number density = 17.700080 Si / 1000 Ang^3
#
#
#
# Elastic Constant Matrix: (Units=GPa)
#
#
# Indices 1 2 3 4 5 6 
#
# 1 172.2252 32.4779 90.5923 0.0000 16.2113 0.0000
# 2 32.4779 31.1294 27.1179 0.0000 2.2563 0.0000
# 3 90.5923 27.1179 115.1362 0.0000 11.0001 0.0000
# 4 0.0000 0.0000 0.0000 27.6602 0.0000 6.9485
# 5 16.2113 2.2563 11.0001 0.0000 31.5197 0.0000
# 6 0.0000 0.0000 0.0000 6.9485 0.0000 17.7554
#
#
#
# Elastic Compliance Matrix: (Units=1/GPa)
#
#
# Indices 1 2 3 4 5 6 
#
# 1 0.010641 -0.004828 -0.006978 0.000000 -0.002692 0.000000
# 2 -0.004828 0.042613 -0.006397 0.000000 0.001665 0.000000
# 3 -0.006978 -0.006397 0.015824 0.000000 -0.001475 0.000000
# 4 0.000000 0.000000 0.000000 0.040095 0.000000 -0.015691
# 5 -0.002692 0.001665 -0.001475 0.000000 0.033506 0.000000
# 6 0.000000 0.000000 0.000000 -0.015691 0.000000 0.062461
#
#
# Mechanical properties :
#
#
# Convention : Reuss Voigt Hill
#
# Bulk Modulus (GPa) = 30.60793 68.76299 49.68546
# Shear Modulus (GPa) = 19.80702 26.60726 23.20714
#
# Velocity S-wave (km/s) = 3.34883 3.88135 3.62488
# Velocity P-wave (km/s) = 5.68181 7.68244 6.75658
#
# Compressibility (1/GPa) = 0.03267127
#
# Stress axis : x y z
#
# Youngs Moduli (GPa) = 93.97862 23.46718 63.19657
#
# Poissons Ratio (x) = 0.11329 0.44100
# Poissons Ratio (y) = 0.45369 0.40427
# Poissons Ratio (z) = 0.65580 0.15012
#
# Static dielectric constant tensor:
#      x y z
#    x 1.604170 0.000000 0.023160 
#    y 0.000000 1.601370 0.000000 
#    z 0.023160 0.000000 1.589680 
# 
# From -- ./inp_files/64388.got.cif
#   From: 2010.05.17/outbox.cif.g08.bks.cpg/sg11_33_cif.got.tgz:64388.got - 2010.06.03 12:22:45.
