data_PCOD9159449
_publ_section_title
;
Structure prediction by ZEFSAII (Michael W. Deem and Ramdas Pophale) SiO2 
 PCOD9159449
Probable space group: P 21/M
;
_chemical_formula_sum "Si O2"
_cell_formula_units_Z 28
_cell_length_a 14.143671
_cell_length_b 8.865344
_cell_length_c 14.591423
_cell_angle_alpha 90.000000
_cell_angle_beta 53.624899
_cell_angle_gamma 90.000000
_cell_volume 1473.102774
_symmetry_space_group_name_H-M "P 21/M"
_symmetry_group_IT_number 11
_symmetry_cell_setting 'monoclinic'
loop_
_space_group_symop_operation_xyz
x,y,z
-x,1/2+y,-z
-x,-y,-z
x,1/2-y,z
loop_
_atom_site_type_symbol
_atom_site_label
_atom_site_fract_x
_atom_site_fract_y
_atom_site_fract_z
Si Si1 0.005339 0.577236 0.594395
Si Si2 0.410670 0.579391 0.983095
Si Si3 0.133678 0.069325 0.695044
Si Si4 0.620750 0.068138 0.389519
Si Si5 0.784193 0.589529 0.835218
Si Si6 0.709000 0.068225 0.134646
Si Si7 0.939431 0.919470 0.928012
O O1 0.049430 0.750000 0.566256
O O2 0.869528 0.582979 0.701772
O O3 0.000000 0.500000 0.500000
O O4 0.074975 0.488174 0.633892
O O5 0.446250 0.750000 0.947887
O O6 0.372618 0.515976 0.904777
O O7 0.500000 0.500000 0.000000
O O8 0.291180 0.558490 0.108700
O O9 0.136489 0.250000 0.695916
O O10 0.263991 0.000503 0.627979
O O11 0.053584 0.008790 0.826224
O O12 0.618590 0.250000 0.400176
O O13 0.645692 0.033370 0.267181
O O14 0.500000 0.000000 0.500000
O O15 0.716278 0.750000 0.872998
O O16 0.867910 0.596644 0.874707
O O17 0.720803 0.250000 0.120347
O O18 0.840454 0.999324 0.047846
O O19 0.969398 0.750000 0.944074
#
# Coordination Sequence:
#
# PCOD9159449 Si02
#       7
#     4   4   4   4   4   4   4
#     4  10  20  36  58  86 118 153 194 243 296 355
#     4  10  19  33  54  81 111 146 187 235 289 349
#     4  11  22  38  61  88 119 158 199 246 304 361
#     4  11  24  44  64  84 116 159 207 258 302 357
#     4   8  16  31  50  75 109 145 177 224 281 333
#     4   9  20  38  60  85 115 153 195 243 302 361
#     4   9  17  32  58  89 118 145 182 236 293 352
#
# _framework density 19.007501000000001
#
# number of rings (size 3 to 8) (size 9 to 14) (size 15 to 20)
#    0.000    2.286    0.000    3.857    0.000    6.286 
#    2.571    0.000    0.000    0.000    0.000    0.000 
#    0.000    0.000    0.000    0.000    0.000    0.000 
#
# Total GULP energy -155893.474368 kJ/mol
# GULP energy per Si atom -5567.624085 kJ/mol
# Density = 1.896424 g / cm^3
# Si number density = 19.007501 Si / 1000 Ang^3
#
#
#
# Elastic Constant Matrix: (Units=GPa)
#
#
# Indices 1 2 3 4 5 6 
#
# 1 107.8833 48.2155 60.4870 0.0000 3.8741 0.0000
# 2 48.2155 102.9354 58.7199 0.0000 -0.8337 0.0000
# 3 60.4870 58.7199 142.9083 0.0000 1.8048 0.0000
# 4 0.0000 0.0000 0.0000 28.6127 0.0000 -4.9974
# 5 3.8741 -0.8337 1.8048 0.0000 35.0265 0.0000
# 6 0.0000 0.0000 0.0000 -4.9974 0.0000 29.5171
#
#
#
# Elastic Compliance Matrix: (Units=1/GPa)
#
#
# Indices 1 2 3 4 5 6 
#
# 1 0.013335 -0.003980 -0.003991 0.000000 -0.001364 0.000000
# 2 -0.003980 0.013889 -0.004034 0.000000 0.000979 0.000000
# 3 -0.003991 -0.004034 0.010347 0.000000 -0.000188 0.000000
# 4 0.000000 0.000000 0.000000 0.036015 0.000000 0.006097
# 5 -0.001364 0.000979 -0.000188 0.000000 0.028734 0.000000
# 6 0.000000 0.000000 0.000000 0.006097 0.000000 0.034911
#
#
# Mechanical properties :
#
#
# Convention : Reuss Voigt Hill
#
# Bulk Modulus (GPa) = 73.75547 76.50798 75.13172
# Shear Modulus (GPa) = 30.16383 31.05157 30.60770
#
# Velocity S-wave (km/s) = 3.98797 4.04623 4.01720
# Velocity P-wave (km/s) = 7.75195 7.88468 7.81860
#
# Compressibility (1/GPa) = 0.01355832
#
# Stress axis : x y z
#
# Youngs Moduli (GPa) = 74.99036 72.00160 96.64672
#
# Poissons Ratio (x) = 0.28659 0.38576
# Poissons Ratio (y) = 0.29849 0.38991
# Poissons Ratio (z) = 0.29932 0.29048
#
# Static dielectric constant tensor:
#      x y z
#    x 1.691250 0.000000 -0.006690 
#    y 0.000000 1.746140 0.000000 
#    z -0.006690 0.000000 1.666740 
# 
# From -- ./inp_files/49159.got.cif
#   From: 2010.05.17/outbox.cif.g08.bks.cpg/sg11_25_cif.got.tgz:49159.got - 2010.06.03 12:22:45.
