data_PCOD9159564
_publ_section_title
;
Structure prediction by ZEFSAII (Michael W. Deem and Ramdas Pophale) SiO2 
 PCOD9159564
Probable space group: P 21/M
;
_chemical_formula_sum "Si O2"
_cell_formula_units_Z 24
_cell_length_a 21.826716
_cell_length_b 7.713722
_cell_length_c 11.015374
_cell_angle_alpha 90.000000
_cell_angle_beta 146.536104
_cell_angle_gamma 90.000000
_cell_volume 1022.650844
_symmetry_space_group_name_H-M "P 21/M"
_symmetry_group_IT_number 11
_symmetry_cell_setting 'monoclinic'
loop_
_space_group_symop_operation_xyz
x,y,z
-x,1/2+y,-z
-x,-y,-z
x,1/2-y,z
loop_
_atom_site_type_symbol
_atom_site_label
_atom_site_fract_x
_atom_site_fract_y
_atom_site_fract_z
Si Si1 0.536076 0.447724 0.886460
Si Si2 0.652237 0.549726 0.835426
Si Si3 0.665255 0.535283 0.588709
Si Si4 0.753422 0.039104 0.365369
Si Si5 0.125920 0.446689 0.189429
Si Si6 0.872206 0.456140 0.310971
O O1 0.517645 0.250000 0.894460
O O2 0.599061 0.448527 0.859776
O O3 0.418104 0.526724 0.654829
O O4 0.627568 0.523634 0.128955
O O5 0.617904 0.750000 0.789934
O O6 0.626266 0.483531 0.658067
O O7 0.785352 0.540297 0.074257
O O8 0.662412 0.750000 0.582743
O O9 0.789165 0.469776 0.765977
O O10 0.751736 0.250000 0.370809
O O11 0.829089 0.992517 0.373874
O O12 0.809019 0.963851 0.576362
O O13 0.118114 0.250000 0.136480
O O14 0.000000 0.500000 0.000000
O O15 0.858671 0.250000 0.278829
O O16 0.000000 0.500000 0.500000
#
# Coordination Sequence:
#
# PCOD9159564 Si02
#       6
#     4   4   4   4   4   4
#     4   9  18  37  61  85 115 150 186 231 289 344
#     4  10  19  33  55  86 119 149 184 231 285 344
#     4   9  20  37  58  83 115 154 189 231 289 340
#     4   9  20  38  58  81 113 147 183 235 288 336
#     4  11  24  41  59  81 112 152 196 239 283 338
#     4  10  21  36  56  82 113 150 191 236 287 340
#
# _framework density 23.468422
#
# number of rings (size 3 to 8) (size 9 to 14) (size 15 to 20)
#    0.000    2.333    0.000    3.000    2.333    4.000 
#    0.000    5.000    0.000    0.000    0.000    0.000 
#    0.000    0.000    0.000    0.000    0.000    0.000 
#
# Total GULP energy -134071.594696 kJ/mol
# GULP energy per Si atom -5586.316446 kJ/mol
# Density = 2.341501 g / cm^3
# Si number density = 23.468422 Si / 1000 Ang^3
#
#
#
# Elastic Constant Matrix: (Units=GPa)
#
#
# Indices 1 2 3 4 5 6 
#
# 1 69.6658 0.7985 26.4956 0.0000 8.9855 0.0000
# 2 0.7985 49.8612 -7.9840 0.0000 8.1422 0.0000
# 3 26.4956 -7.9840 106.0874 0.0000 24.3325 0.0000
# 4 0.0000 0.0000 0.0000 22.9208 0.0000 0.3050
# 5 8.9855 8.1422 24.3325 0.0000 42.4798 0.0000
# 6 0.0000 0.0000 0.0000 0.3050 0.0000 16.0315
#
#
#
# Elastic Compliance Matrix: (Units=1/GPa)
#
#
# Indices 1 2 3 4 5 6 
#
# 1 0.015941 -0.000687 -0.003787 0.000000 -0.001071 0.000000
# 2 -0.000687 0.021505 0.003111 0.000000 -0.005758 0.000000
# 3 -0.003787 0.003111 0.012156 0.000000 -0.006758 0.000000
# 4 0.000000 0.000000 0.000000 0.043640 0.000000 -0.000830
# 5 -0.001071 -0.005758 -0.006758 0.000000 0.028742 0.000000
# 6 0.000000 0.000000 0.000000 -0.000830 0.000000 0.062393
#
#
# Mechanical properties :
#
#
# Convention : Reuss Voigt Hill
#
# Bulk Modulus (GPa) = 21.33320 29.35939 25.34630
# Shear Modulus (GPa) = 24.66351 30.04002 27.35177
#
# Velocity S-wave (km/s) = 3.24531 3.58162 3.41760
# Velocity P-wave (km/s) = 4.81172 5.44438 5.13780
#
# Compressibility (1/GPa) = 0.04687529
#
# Stress axis : x y z
#
# Youngs Moduli (GPa) = 62.73271 46.50051 82.26193
#
# Poissons Ratio (x) = 0.03194 0.31155
# Poissons Ratio (y) = 0.04309 -0.25590
# Poissons Ratio (z) = 0.23759 -0.14465
#
# Static dielectric constant tensor:
#      x y z
#    x 1.915290 0.000000 0.033040 
#    y 0.000000 1.897340 0.000000 
#    z 0.033040 0.000000 1.913090 
# 
# From -- ./inp_files/43895.got.cif
#   From: 2010.05.17/outbox.cif.g08.bks.cpg/sg11_22_cif.got.tgz:43895.got - 2010.06.03 12:22:45.
