data_PCOD9159575
_publ_section_title
;
Structure prediction by ZEFSAII (Michael W. Deem and Ramdas Pophale) SiO2 
 PCOD9159575
Probable space group: P 21/M
;
_chemical_formula_sum "Si O2"
_cell_formula_units_Z 32
_cell_length_a 23.887935
_cell_length_b 13.305789
_cell_length_c 7.905815
_cell_angle_alpha 90.000000
_cell_angle_beta 36.813450
_cell_angle_gamma 90.000000
_cell_volume 1505.726400
_symmetry_space_group_name_H-M "P 21/M"
_symmetry_group_IT_number 11
_symmetry_cell_setting 'monoclinic'
loop_
_space_group_symop_operation_xyz
x,y,z
-x,1/2+y,-z
-x,-y,-z
x,1/2-y,z
loop_
_atom_site_type_symbol
_atom_site_label
_atom_site_fract_x
_atom_site_fract_y
_atom_site_fract_z
Si Si1 0.246062 0.866613 0.683945
Si Si2 0.729726 0.491810 0.030009
Si Si3 0.491560 0.135996 0.756075
Si Si4 0.310612 0.058275 0.327293
Si Si5 0.931648 0.140451 0.109819
Si Si6 0.423302 0.434879 0.372807
Si Si7 0.129966 0.439600 0.561629
Si Si8 0.400113 0.861044 0.864215
O O1 0.279404 0.750000 0.606071
O O2 0.250909 0.917391 0.858091
O O3 0.295682 0.943199 0.430268
O O4 0.139658 0.865924 0.874754
O O5 0.648132 0.563360 0.297926
O O6 0.688045 0.428902 0.973205
O O7 0.818259 0.550433 0.743168
O O8 0.494491 0.250000 0.811603
O O9 0.539777 0.135374 0.456070
O O10 0.547977 0.052388 0.725216
O O11 0.387289 0.092182 0.004114
O O12 0.362679 0.106099 0.365036
O O13 0.209793 0.092020 0.504602
O O14 0.918330 0.250000 0.221502
O O15 0.904957 0.050664 0.299784
O O16 0.038044 0.127129 0.793131
O O17 0.521230 0.386394 0.187522
O O18 0.364549 0.750000 0.982815
#
# Coordination Sequence:
#
# PCOD9159575 Si02
#       8
#     4   4   4   4   4   4   4   4
#     4   9  19  36  57  82 110 136 170 219 273 322
#     4  10  19  33  56  80 106 139 178 220 263 315
#     4  10  20  34  52  74 104 146 188 223 262 308
#     4  10  20  34  54  80 108 143 181 221 260 309
#     4   9  20  38  57  78 106 137 168 213 273 329
#     4  10  20  35  51  75 111 144 180 222 264 307
#     4  10  20  36  57  81 107 136 176 219 265 320
#     4  10  20  34  52  75 108 146 182 223 267 306
#
# _framework density 21.252199999999998
#
# number of rings (size 3 to 8) (size 9 to 14) (size 15 to 20)
#    0.000    2.250    0.000    3.750    0.000    5.500 
#    0.000    3.750    0.000    1.500    0.000    0.000 
#    0.000    0.000    0.000    0.000    0.000    0.000 
#
# Total GULP energy -178445.195635 kJ/mol
# GULP energy per Si atom -5576.412364 kJ/mol
# Density = 2.120383 g / cm^3
# Si number density = 21.252200 Si / 1000 Ang^3
#
#
#
# Elastic Constant Matrix: (Units=GPa)
#
#
# Indices 1 2 3 4 5 6 
#
# 1 82.1773 12.4583 18.2350 0.0000 -4.5604 0.0000
# 2 12.4583 32.1246 -4.4260 0.0000 -0.7550 0.0000
# 3 18.2350 -4.4260 89.3100 0.0000 -18.1432 0.0000
# 4 0.0000 0.0000 0.0000 17.4688 0.0000 -0.9117
# 5 -4.5604 -0.7550 -18.1432 0.0000 40.3764 0.0000
# 6 0.0000 0.0000 0.0000 -0.9117 0.0000 19.1276
#
#
#
# Elastic Compliance Matrix: (Units=1/GPa)
#
#
# Indices 1 2 3 4 5 6 
#
# 1 0.013725 -0.005745 -0.003075 0.000000 0.000061 0.000000
# 2 -0.005745 0.033821 0.003132 0.000000 0.001391 0.000000
# 3 -0.003075 0.003132 0.013119 0.000000 0.005606 0.000000
# 4 0.000000 0.000000 0.000000 0.057388 0.000000 0.002735
# 5 0.000061 0.001391 0.005606 0.000000 0.027319 0.000000
# 6 0.000000 0.000000 0.000000 0.002735 0.000000 0.052411
#
#
# Mechanical properties :
#
#
# Convention : Reuss Voigt Hill
#
# Bulk Modulus (GPa) = 20.28851 28.46072 24.37461
# Shear Modulus (GPa) = 22.16420 27.21751 24.69086
#
# Velocity S-wave (km/s) = 3.23292 3.58256 3.41222
# Velocity P-wave (km/s) = 4.84799 5.52575 5.19793
#
# Compressibility (1/GPa) = 0.04928898
#
# Stress axis : x y z
#
# Youngs Moduli (GPa) = 72.85734 29.56749 76.22622
#
# Poissons Ratio (x) = 0.16987 0.23437
# Poissons Ratio (y) = 0.41857 -0.23871
# Poissons Ratio (z) = 0.22401 -0.09260
#
# Static dielectric constant tensor:
#      x y z
#    x 1.801780 0.000000 0.039670 
#    y 0.000000 1.828890 0.000000 
#    z 0.039670 0.000000 1.806370 
# 
# From -- ./inp_files/28860.got.cif
#   From: 2010.05.17/outbox.cif.g08.bks.cpg/sg11_15_cif.got.tgz:28860.got - 2010.06.03 12:22:45.
