data_PCOD9159311
_publ_section_title
;
Structure prediction by ZEFSAII (Michael W. Deem and Ramdas Pophale) SiO2 
 PCOD9159311
Probable space group: P 21/M
;
_chemical_formula_sum "Si O2"
_cell_formula_units_Z 32
_cell_length_a 14.730631
_cell_length_b 10.652178
_cell_length_c 17.025828
_cell_angle_alpha 90.000000
_cell_angle_beta 41.652471
_cell_angle_gamma 90.000000
_cell_volume 1775.560097
_symmetry_space_group_name_H-M "P 21/M"
_symmetry_group_IT_number 11
_symmetry_cell_setting 'monoclinic'
loop_
_space_group_symop_operation_xyz
x,y,z
-x,1/2+y,-z
-x,-y,-z
x,1/2-y,z
loop_
_atom_site_type_symbol
_atom_site_label
_atom_site_fract_x
_atom_site_fract_y
_atom_site_fract_z
Si Si1 0.232101 0.893914 0.842064
Si Si2 0.466860 0.103468 0.291330
Si Si3 0.428994 0.454661 0.924066
Si Si4 0.957901 0.102707 0.591803
Si Si5 0.685247 0.110529 0.857888
Si Si6 0.163524 0.388128 0.003902
Si Si7 0.799020 0.603185 0.439092
Si Si8 0.122052 0.894158 0.736674
O O1 0.200237 0.750000 0.887963
O O2 0.394909 0.910759 0.747349
O O3 0.186833 0.906736 0.781589
O O4 0.164666 0.999054 0.940800
O O5 0.447105 0.250000 0.287446
O O6 0.334602 0.062666 0.425180
O O7 0.494237 0.036599 0.191363
O O8 0.549527 0.385404 0.892203
O O9 0.350952 0.531742 0.042117
O O10 0.308660 0.387290 0.954220
O O11 0.948742 0.250000 0.569889
O O12 0.072053 0.100517 0.585838
O O13 0.812551 0.065289 0.723770
O O14 0.000000 0.000000 0.500000
O O15 0.722884 0.250000 0.860000
O O16 0.140989 0.250000 0.981610
O O17 0.040565 0.407090 0.144553
O O18 0.780948 0.750000 0.425178
O O19 0.824291 0.503307 0.354100
O O20 0.149014 0.750000 0.691817
#
# Coordination Sequence:
#
# PCOD9159311 Si02
#       8
#     4   4   4   4   4   4   4   4
#     4   9  19  35  55  78 104 136 172 210 256 310
#     4   9  18  34  54  75 101 134 173 214 257 306
#     4  10  19  33  53  75 103 135 170 212 262 309
#     4  10  21  37  55  78 107 138 175 214 254 304
#     4  10  20  33  51  76 104 135 173 215 257 305
#     4  10  20  34  53  78 107 135 169 214 259 305
#     4  10  21  36  54  77 104 136 175 215 254 303
#     4  10  21  36  53  77 108 138 171 212 257 306
#
# _framework density 18.022483000000001
#
# number of rings (size 3 to 8) (size 9 to 14) (size 15 to 20)
#    0.000    2.250    0.000    2.625    0.000    2.500 
#    0.000    6.250    0.000    0.000    0.000    0.000 
#    0.000    0.000    0.000    0.000    0.000    0.000 
#
# Total GULP energy -178365.610603 kJ/mol
# GULP energy per Si atom -5573.925331 kJ/mol
# Density = 1.798146 g / cm^3
# Si number density = 18.022483 Si / 1000 Ang^3
#
#
#
# Elastic Constant Matrix: (Units=GPa)
#
#
# Indices 1 2 3 4 5 6 
#
# 1 47.6530 32.4945 27.5977 0.0000 3.2869 0.0000
# 2 32.4945 116.8801 94.6172 0.0000 13.2616 0.0000
# 3 27.5977 94.6172 141.2250 0.0000 -3.1206 0.0000
# 4 0.0000 0.0000 0.0000 32.4721 0.0000 40.8326
# 5 3.2869 13.2616 -3.1206 0.0000 21.4418 0.0000
# 6 0.0000 0.0000 0.0000 40.8326 0.0000 166.0977
#
#
#
# Elastic Compliance Matrix: (Units=1/GPa)
#
#
# Indices 1 2 3 4 5 6 
#
# 1 0.025912 -0.006838 -0.000478 0.000000 0.000188 0.000000
# 2 -0.006838 0.025355 -0.016026 0.000000 -0.016966 0.000000
# 3 -0.000478 -0.016026 0.018191 0.000000 0.012633 0.000000
# 4 0.000000 0.000000 0.000000 0.044575 0.000000 -0.010958
# 5 0.000188 -0.016966 0.012633 0.000000 0.058941 0.000000
# 6 0.000000 0.000000 0.000000 -0.010958 0.000000 0.008714
#
#
# Mechanical properties :
#
#
# Convention : Reuss Voigt Hill
#
# Bulk Modulus (GPa) = 43.91133 68.35300 56.13216
# Shear Modulus (GPa) = 21.18964 54.07224 37.63094
#
# Velocity S-wave (km/s) = 3.43262 5.48341 4.57442
# Velocity P-wave (km/s) = 6.33468 8.83738 7.68854
#
# Compressibility (1/GPa) = 0.02277317
#
# Stress axis : x y z
#
# Youngs Moduli (GPa) = 38.59227 39.43921 54.97363
#
# Poissons Ratio (x) = 0.26970 0.02628
# Poissons Ratio (y) = 0.26390 0.88101
# Poissons Ratio (z) = 0.01845 0.63206
#
# Static dielectric constant tensor:
#      x y z
#    x 1.614450 0.000000 -0.020750 
#    y 0.000000 1.630020 0.000000 
#    z -0.020750 0.000000 1.600450 
# 
# From -- ./inp_files/52289.got.cif
#   From: 2010.05.17/outbox.cif.g08.bks.cpg/sg11_27_cif.got.tgz:52289.got - 2010.06.03 12:22:45.
