data_PCOD9159677
_publ_section_title
;
Structure prediction by ZEFSAII (Michael W. Deem and Ramdas Pophale) SiO2 
 PCOD9159677
Probable space group: P 21/M
;
_chemical_formula_sum "Si O2"
_cell_formula_units_Z 28
_cell_length_a 18.198668
_cell_length_b 19.394840
_cell_length_c 8.861714
_cell_angle_alpha 90.000000
_cell_angle_beta 25.599553
_cell_angle_gamma 90.000000
_cell_volume 1351.469982
_symmetry_space_group_name_H-M "P 21/M"
_symmetry_group_IT_number 11
_symmetry_cell_setting 'monoclinic'
loop_
_space_group_symop_operation_xyz
x,y,z
-x,1/2+y,-z
-x,-y,-z
x,1/2-y,z
loop_
_atom_site_type_symbol
_atom_site_label
_atom_site_fract_x
_atom_site_fract_y
_atom_site_fract_z
Si Si1 0.938901 0.328852 0.372508
Si Si2 0.701833 0.674447 0.458244
Si Si3 0.409207 0.929437 0.467203
Si Si4 0.729974 0.916325 0.693778
Si Si5 0.919074 0.923827 0.645691
Si Si6 0.163505 0.951717 0.659873
Si Si7 0.447405 0.082511 0.501516
O O1 0.869212 0.250000 0.508959
O O2 0.860778 0.384131 0.398403
O O3 0.961460 0.368952 0.489834
O O4 0.131366 0.321214 0.954250
O O5 0.645139 0.750000 0.608565
O O6 0.755827 0.630672 0.501778
O O7 0.563189 0.636199 0.613619
O O8 0.242865 0.932532 0.674353
O O9 0.415172 0.899594 0.624782
O O10 0.471596 0.007659 0.384327
O O11 0.553476 0.895435 0.098027
O O12 0.872143 0.909094 0.559252
O O13 0.721460 0.994494 0.647441
O O14 0.737241 0.923015 0.071969
O O15 0.000000 0.000000 0.500000
O O16 0.000000 0.000000 0.000000
#
# Coordination Sequence:
#
# PCOD9159677 Si02
#       7
#     4   4   4   4   4   4   4
#     4  10  21  37  56  83 120 155 185 238 301 347
#     4  10  20  36  58  84 116 149 193 239 293 351
#     4  10  21  35  58  84 118 142 192 248 276 341
#     4  11  21  34  59  91 110 147 197 243 288 326
#     4  10  19  33  57  88 114 146 195 240 276 349
#     4  12  20  35  61  88 114 151 198 237 283 345
#     4   9  19  36  55  84 111 151 187 231 301 329
#
# _framework density 20.718181000000001
#
# number of rings (size 3 to 8) (size 9 to 14) (size 15 to 20)
#    0.000    1.714    4.286    1.286    0.000    0.571 
#    0.000    3.571    0.000    0.000    0.000    1.000 
#    0.000    0.000    0.000    0.000    0.000    0.000 
#
# Total GULP energy -156212.776589 kJ/mol
# GULP energy per Si atom -5579.027735 kJ/mol
# Density = 2.067103 g / cm^3
# Si number density = 20.718181 Si / 1000 Ang^3
#
#
#
# Elastic Constant Matrix: (Units=GPa)
#
#
# Indices 1 2 3 4 5 6 
#
# 1 206.5608 78.9780 18.8198 0.0000 -7.0662 0.0000
# 2 78.9780 140.0365 2.3050 0.0000 6.0171 0.0000
# 3 18.8198 2.3050 34.7997 0.0000 6.6944 0.0000
# 4 0.0000 0.0000 0.0000 12.3185 0.0000 -5.5350
# 5 -7.0662 6.0171 6.6944 0.0000 23.0245 0.0000
# 6 0.0000 0.0000 0.0000 -5.5350 0.0000 18.7133
#
#
#
# Elastic Compliance Matrix: (Units=1/GPa)
#
#
# Indices 1 2 3 4 5 6 
#
# 1 0.006927 -0.004026 -0.004333 0.000000 0.004438 0.000000
# 2 -0.004026 0.009563 0.002396 0.000000 -0.004431 0.000000
# 3 -0.004333 0.002396 0.033151 0.000000 -0.011595 0.000000
# 4 0.000000 0.000000 0.000000 0.093621 0.000000 0.027691
# 5 0.004438 -0.004431 -0.011595 0.000000 0.049323 0.000000
# 6 0.000000 0.000000 0.000000 0.027691 0.000000 0.061628
#
#
# Mechanical properties :
#
#
# Convention : Reuss Voigt Hill
#
# Bulk Modulus (GPa) = 26.51474 64.62250 45.56862
# Shear Modulus (GPa) = 17.93973 29.56420 23.75197
#
# Velocity S-wave (km/s) = 2.94580 3.78162 3.38957
# Velocity P-wave (km/s) = 4.93922 7.09412 6.11238
#
# Compressibility (1/GPa) = 0.03771487
#
# Stress axis : x y z
#
# Youngs Moduli (GPa) = 144.35790 104.57344 30.16488
#
# Poissons Ratio (x) = 0.42103 0.13071
# Poissons Ratio (y) = 0.58121 -0.07229
# Poissons Ratio (z) = 0.62555 -0.25061
#
# Static dielectric constant tensor:
#      x y z
#    x 1.762200 0.000000 -0.024510 
#    y 0.000000 1.732940 0.000000 
#    z -0.024510 0.000000 1.838250 
# 
# From -- ./inp_files/25257.got.cif
#   From: 2010.05.17/outbox.cif.g08.bks.cpg/sg11_13_cif.got.tgz:25257.got - 2010.06.03 12:22:45.
