data_PCOD9159150
_publ_section_title
;
Structure prediction by ZEFSAII (Michael W. Deem and Ramdas Pophale) SiO2 
 PCOD9159150
Probable space group: P 21/M
;
_chemical_formula_sum "Si O2"
_cell_formula_units_Z 32
_cell_length_a 9.609964
_cell_length_b 21.992448
_cell_length_c 19.327052
_cell_angle_alpha 90.000000
_cell_angle_beta 26.356536
_cell_angle_gamma 90.000000
_cell_volume 1813.428606
_symmetry_space_group_name_H-M "P 21/M"
_symmetry_group_IT_number 11
_symmetry_cell_setting 'monoclinic'
loop_
_space_group_symop_operation_xyz
x,y,z
-x,1/2+y,-z
-x,-y,-z
x,1/2-y,z
loop_
_atom_site_type_symbol
_atom_site_label
_atom_site_fract_x
_atom_site_fract_y
_atom_site_fract_z
Si Si1 0.844828 0.576828 0.281565
Si Si2 0.457713 0.002944 0.357609
Si Si3 0.542433 0.180098 0.624698
Si Si4 0.269142 0.179885 0.261354
Si Si5 0.717403 0.100301 0.143739
Si Si6 0.440092 0.395516 0.800310
Si Si7 0.523490 0.066007 0.083492
Si Si8 0.095650 0.957132 0.308037
O O1 0.662947 0.519195 0.330894
O O2 0.665980 0.635094 0.329455
O O3 0.869353 0.573686 0.352878
O O4 0.195260 0.573382 0.094777
O O5 0.509875 0.951860 0.275611
O O6 0.571589 0.065461 0.273180
O O7 0.106073 0.009536 0.542443
O O8 0.456456 0.250000 0.651214
O O9 0.496976 0.161602 0.724935
O O10 0.910151 0.172044 0.444142
O O11 0.321766 0.250000 0.218942
O O12 0.511014 0.158893 0.214072
O O13 0.339276 0.129877 0.171181
O O14 0.674716 0.059247 0.093154
O O15 0.086786 0.108819 0.985470
O O16 0.678915 0.408758 0.755624
O O17 0.296691 0.008692 0.178678
#
# Coordination Sequence:
#
# PCOD9159150 Si02
#       8
#     4   4   4   4   4   4   4   4
#     4  11  23  36  52  82 115 147 181 218 271 331
#     4  11  19  34  53  77 111 146 179 223 262 318
#     4  10  20  37  60  80 104 141 184 227 267 324
#     4   9  18  33  56  84 104 130 181 232 271 313
#     4  10  19  32  56  81 107 142 179 233 270 309
#     4  11  19  34  55  81 110 138 185 222 271 316
#     4  10  19  34  53  78 113 143 178 223 268 322
#     4  12  23  33  53  83 115 149 177 223 275 327
#
# _framework density 17.646132000000001
#
# number of rings (size 3 to 8) (size 9 to 14) (size 15 to 20)
#    0.750    0.750    3.750    4.500    0.000    2.000 
#    0.000    0.625    0.000    0.750    0.000    2.625 
#    0.000    0.000    0.000    0.000    0.000    0.000 
#
# Total GULP energy -178352.091733 kJ/mol
# GULP energy per Si atom -5573.502867 kJ/mol
# Density = 1.760597 g / cm^3
# Si number density = 17.646132 Si / 1000 Ang^3
#
#
#
# Elastic Constant Matrix: (Units=GPa)
#
#
# Indices 1 2 3 4 5 6 
#
# 1 76.4976 30.2982 4.9021 0.0000 -0.5061 0.0000
# 2 30.2982 77.8665 31.3631 0.0000 -8.3762 0.0000
# 3 4.9021 31.3631 85.4560 0.0000 -10.3461 0.0000
# 4 0.0000 0.0000 0.0000 -20.8033 0.0000 6.2934
# 5 -0.5061 -8.3762 -10.3461 0.0000 7.9222 0.0000
# 6 0.0000 0.0000 0.0000 6.2934 0.0000 14.4232
#
#
#
# Elastic Compliance Matrix: (Units=1/GPa)
#
#
# Indices 1 2 3 4 5 6 
#
# 1 0.015795 -0.007136 0.001095 0.000000 -0.005106 0.000000
# 2 -0.007136 0.019044 -0.004986 0.000000 0.013168 0.000000
# 3 0.001095 -0.004986 0.015250 0.000000 0.014715 0.000000
# 4 0.000000 0.000000 0.000000 -0.042464 0.000000 0.018529
# 5 -0.005106 0.013168 0.014715 0.000000 0.159041 0.000000
# 6 0.000000 0.000000 0.000000 0.018529 0.000000 0.061248
#
#
# Mechanical properties :
#
#
# Convention : Reuss Voigt Hill
#
# Bulk Modulus (GPa) = 35.66961 41.43855 38.55408
# Shear Modulus (GPa) = 19.28173 11.85888 15.57031
#
# Velocity S-wave (km/s) = 3.30917 2.59518 2.97368
# Velocity P-wave (km/s) = 5.90411 5.70211 5.80399
#
# Compressibility (1/GPa) = 0.02803507
#
# Stress axis : x y z
#
# Youngs Moduli (GPa) = 63.31235 52.51062 65.57200
#
# Poissons Ratio (x) = 0.37472 -0.07178
# Poissons Ratio (y) = 0.45180 0.32692
# Poissons Ratio (z) = -0.06931 0.26180
#
# Static dielectric constant tensor:
#      x y z
#    x 1.611460 0.000000 -0.006040 
#    y 0.000000 1.604690 0.000000 
#    z -0.006040 0.000000 1.616560 
# 
# From -- ./inp_files/58439.got.cif
#   From: 2010.05.17/outbox.cif.g08.bks.cpg/sg11_30_cif.got.tgz:58439.got - 2010.06.03 12:22:45.
