data_PCOD9159546
_publ_section_title
;
Structure prediction by ZEFSAII (Michael W. Deem and Ramdas Pophale) SiO2 
 PCOD9159546
Probable space group: P 21/M
;
_chemical_formula_sum "Si O2"
_cell_formula_units_Z 32
_cell_length_a 14.005546
_cell_length_b 13.136428
_cell_length_c 8.683996
_cell_angle_alpha 90.000000
_cell_angle_beta 114.283937
_cell_angle_gamma 90.000000
_cell_volume 1456.339029
_symmetry_space_group_name_H-M "P 21/M"
_symmetry_group_IT_number 11
_symmetry_cell_setting 'monoclinic'
loop_
_space_group_symop_operation_xyz
x,y,z
-x,1/2+y,-z
-x,-y,-z
x,1/2-y,z
loop_
_atom_site_type_symbol
_atom_site_label
_atom_site_fract_x
_atom_site_fract_y
_atom_site_fract_z
Si Si1 0.230555 0.993641 0.803881
Si Si2 0.296060 0.367322 0.266270
Si Si3 0.383118 0.052833 0.641236
Si Si4 0.110623 0.492418 0.263450
Si Si5 0.937172 0.634229 0.178614
Si Si6 0.973572 0.366208 0.412293
Si Si7 0.619110 0.060895 0.841580
Si Si8 0.692543 0.134336 0.568192
O O1 0.295405 0.049614 0.714085
O O2 0.137466 0.922103 0.680593
O O3 0.172251 0.077725 0.869206
O O4 0.311485 0.929458 0.960504
O O5 0.296892 0.250000 0.221355
O O6 0.346418 0.380284 0.471329
O O7 0.178999 0.414559 0.207089
O O8 0.361315 0.444565 0.203189
O O9 0.387580 0.937091 0.577413
O O10 0.496636 0.081557 0.778963
O O11 0.198407 0.573965 0.374841
O O12 0.018797 0.565128 0.138983
O O13 0.056624 0.426127 0.361413
O O14 0.930212 0.750000 0.121100
O O15 0.986108 0.634613 0.385474
O O16 0.965271 0.250000 0.354441
O O17 0.661838 0.127196 0.727411
O O18 0.698457 0.250000 0.520106
#
# Coordination Sequence:
#
# PCOD9159546 Si02
#       8
#     4   4   4   4   4   4   4   4
#     4  11  22  37  57  86 119 148 185 234 287 339
#     4  10  20  37  61  86 113 149 193 234 275 333
#     4  10  21  38  60  84 110 150 197 237 278 328
#     4   9  17  32  55  82 107 137 180 228 275 323
#     4  10  19  33  55  83 115 149 185 228 279 337
#     4  10  19  33  55  83 115 149 185 228 279 337
#     4  10  23  39  56  82 118 153 186 233 289 336
#     4  10  20  37  61  86 113 149 193 234 275 333
#
# _framework density 21.972905999999998
#
# number of rings (size 3 to 8) (size 9 to 14) (size 15 to 20)
#    0.000    2.250    0.000    7.125    0.000    6.000 
#    0.000   10.000    0.000   16.500    0.000    0.000 
#    0.000    0.000    0.000    0.000    0.000    0.000 
#
# Total GULP energy -178841.457836 kJ/mol
# GULP energy per Si atom -5588.795557 kJ/mol
# Density = 2.192290 g / cm^3
# Si number density = 21.972906 Si / 1000 Ang^3
#
#
#
# Elastic Constant Matrix: (Units=GPa)
#
#
# Indices 1 2 3 4 5 6 
#
# 1 102.6146 13.8554 28.1922 0.0000 25.5724 0.0000
# 2 13.8554 129.9746 -5.6877 0.0000 2.3828 0.0000
# 3 28.1922 -5.6877 77.4961 0.0000 20.2646 0.0000
# 4 0.0000 0.0000 0.0000 11.2071 0.0000 -5.2858
# 5 25.5724 2.3828 20.2646 0.0000 25.9263 0.0000
# 6 0.0000 0.0000 0.0000 -5.2858 0.0000 5.6080
#
#
#
# Elastic Compliance Matrix: (Units=1/GPa)
#
#
# Indices 1 2 3 4 5 6 
#
# 1 0.013318 -0.001293 -0.001931 0.000000 -0.011509 0.000000
# 2 -0.001293 0.007888 0.001138 0.000000 -0.000339 0.000000
# 3 -0.001931 0.001138 0.016615 0.000000 -0.011187 0.000000
# 4 0.000000 0.000000 0.000000 0.160643 0.000000 0.151414
# 5 -0.011509 -0.000339 -0.011187 0.000000 0.058698 0.000000
# 6 0.000000 0.000000 0.000000 0.151414 0.000000 0.321032
#
#
# Mechanical properties :
#
#
# Convention : Reuss Voigt Hill
#
# Bulk Modulus (GPa) = 29.71818 42.53388 36.12603
# Shear Modulus (GPa) = 8.42343 26.79664 17.61004
#
# Velocity S-wave (km/s) = 1.96007 3.49597 2.83405
# Velocity P-wave (km/s) = 4.32166 5.97454 5.21402
#
# Compressibility (1/GPa) = 0.03364943
#
# Stress axis : x y z
#
# Youngs Moduli (GPa) = 75.08478 126.78002 60.18641
#
# Poissons Ratio (x) = 0.16396 0.11619
# Poissons Ratio (y) = 0.09710 -0.06849
# Poissons Ratio (z) = 0.14495 -0.14427
#
# Static dielectric constant tensor:
#      x y z
#    x 1.794240 0.000000 -0.001620 
#    y 0.000000 1.792780 0.000000 
#    z -0.001620 0.000000 1.873680 
# 
# From -- ./inp_files/22252.got.cif
#   From: 2010.05.17/outbox.cif.g08.bks.cpg/sg11_12_cif.got.tgz:22252.got - 2010.06.03 12:22:45.
