data_PCOD9159479
_publ_section_title
;
Structure prediction by ZEFSAII (Michael W. Deem and Ramdas Pophale) SiO2 
 PCOD9159479
Probable space group: P 21/M
;
_chemical_formula_sum "Si O2"
_cell_formula_units_Z 28
_cell_length_a 13.712517
_cell_length_b 8.707687
_cell_length_c 14.585013
_cell_angle_alpha 90.000000
_cell_angle_beta 57.884387
_cell_angle_gamma 90.000000
_cell_volume 1475.021905
_symmetry_space_group_name_H-M "P 21/M"
_symmetry_group_IT_number 11
_symmetry_cell_setting 'monoclinic'
loop_
_space_group_symop_operation_xyz
x,y,z
-x,1/2+y,-z
-x,-y,-z
x,1/2-y,z
loop_
_atom_site_type_symbol
_atom_site_label
_atom_site_fract_x
_atom_site_fract_y
_atom_site_fract_z
Si Si1 0.442538 0.569753 0.883069
Si Si2 0.994210 0.066741 0.105345
Si Si3 0.303683 0.934465 0.455065
Si Si4 0.221615 0.067040 0.676675
Si Si5 0.443222 0.568797 0.665555
Si Si6 0.211752 0.563522 0.104596
Si Si7 0.308015 0.934111 0.244870
O O1 0.461140 0.750000 0.892876
O O2 0.418124 0.553841 0.786785
O O3 0.561480 0.483813 0.843083
O O4 0.331488 0.519200 0.995256
O O5 0.989683 0.250000 0.103135
O O6 0.881922 0.003850 0.213289
O O7 0.105544 0.011452 0.105998
O O8 0.000000 0.000000 0.000000
O O9 0.297931 0.750000 0.462624
O O10 0.280026 0.986814 0.362161
O O11 0.222010 0.007781 0.571984
O O12 0.433951 0.989009 0.411442
O O13 0.216021 0.250000 0.682040
O O14 0.341035 0.008820 0.661008
O O15 0.450914 0.750000 0.639493
O O16 0.201535 0.750000 0.104110
O O17 0.224676 0.516639 0.204448
O O18 0.306006 0.750000 0.247658
#
# Coordination Sequence:
#
# PCOD9159479 Si02
#       7
#     4   4   4   4   4   4   4
#     4   9  18  31  53  83 117 151 185 227 280 337
#     4  12  26  44  64  87 113 146 185 230 279 335
#     4  10  20  36  56  83 117 153 192 237 285 339
#     4  12  24  39  59  83 111 149 192 238 287 339
#     4  10  19  33  54  84 118 153 190 234 287 345
#     4  10  20  37  58  84 116 152 191 235 282 331
#     4   9  19  34  56  84 117 152 189 233 282 332
#
# _framework density 18.982768
#
# number of rings (size 3 to 8) (size 9 to 14) (size 15 to 20)
#    0.000    1.714    0.000    5.143    0.000    3.429 
#    0.000    0.714    0.000    0.000    0.000    0.000 
#    0.000    0.000    0.000    0.000    0.000    0.000 
#
# Total GULP energy -156486.848888 kJ/mol
# GULP energy per Si atom -5588.816032 kJ/mol
# Density = 1.893956 g / cm^3
# Si number density = 18.982768 Si / 1000 Ang^3
#
#
#
# Elastic Constant Matrix: (Units=GPa)
#
#
# Indices 1 2 3 4 5 6 
#
# 1 119.9903 47.4604 72.8076 0.0000 28.1170 0.0000
# 2 47.4604 90.9481 53.2748 0.0000 12.5321 0.0000
# 3 72.8076 53.2748 150.0004 0.0000 9.7981 0.0000
# 4 0.0000 0.0000 0.0000 29.0478 0.0000 -4.7347
# 5 28.1170 12.5321 9.7981 0.0000 11.1353 0.0000
# 6 0.0000 0.0000 0.0000 -4.7347 0.0000 29.6564
#
#
#
# Elastic Compliance Matrix: (Units=1/GPa)
#
#
# Indices 1 2 3 4 5 6 
#
# 1 0.030657 -0.000694 -0.010216 0.000000 -0.067640 0.000000
# 2 -0.000694 0.015587 -0.004422 0.000000 -0.011900 0.000000
# 3 -0.010216 -0.004422 0.011868 0.000000 0.020329 0.000000
# 4 0.000000 0.000000 0.000000 0.035346 0.000000 0.005643
# 5 -0.067640 -0.011900 0.020329 0.000000 0.256102 0.000000
# 6 0.000000 0.000000 0.000000 0.005643 0.000000 0.034621
#
#
# Mechanical properties :
#
#
# Convention : Reuss Voigt Hill
#
# Bulk Modulus (GPa) = 36.43079 78.66939 57.55009
# Shear Modulus (GPa) = 11.79264 26.46096 19.12680
#
# Velocity S-wave (km/s) = 2.49515 3.73761 3.17770
# Velocity P-wave (km/s) = 5.24730 7.75621 6.62167
#
# Compressibility (1/GPa) = 0.02744931
#
# Stress axis : x y z
#
# Youngs Moduli (GPa) = 32.61907 64.15470 84.26120
#
# Poissons Ratio (x) = 0.04449 0.86079
# Poissons Ratio (y) = 0.02262 0.37261
# Poissons Ratio (z) = 0.33323 0.28370
#
# Static dielectric constant tensor:
#      x y z
#    x 1.641460 0.000000 0.034210 
#    y 0.000000 1.636760 0.000000 
#    z 0.034210 0.000000 1.670100 
# 
# From -- ./inp_files/37840.got.cif
#   From: 2010.05.17/outbox.cif.g08.bks.cpg/sg11_19_cif.got.tgz:37840.got - 2010.06.03 12:22:45.
