data_PCOD9159160
_publ_section_title
;
Structure prediction by ZEFSAII (Michael W. Deem and Ramdas Pophale) SiO2 
 PCOD9159160
Probable space group: P 21/M
;
_chemical_formula_sum "Si O2"
_cell_formula_units_Z 32
_cell_length_a 11.650392
_cell_length_b 8.691796
_cell_length_c 29.321816
_cell_angle_alpha 90.000000
_cell_angle_beta 34.901275
_cell_angle_gamma 90.000000
_cell_volume 1698.875488
_symmetry_space_group_name_H-M "P 21/M"
_symmetry_group_IT_number 11
_symmetry_cell_setting 'monoclinic'
loop_
_space_group_symop_operation_xyz
x,y,z
-x,1/2+y,-z
-x,-y,-z
x,1/2-y,z
loop_
_atom_site_type_symbol
_atom_site_label
_atom_site_fract_x
_atom_site_fract_y
_atom_site_fract_z
Si Si1 0.309563 0.065853 0.675218
Si Si2 0.841230 0.935542 0.612806
Si Si3 0.881041 0.566589 0.165787
Si Si4 0.631961 0.562489 0.772706
Si Si5 0.813304 0.433533 0.088725
Si Si6 0.712155 0.066747 0.916416
Si Si7 0.263211 0.065835 0.456245
Si Si8 0.920272 0.565849 0.759572
O O1 0.309616 0.250000 0.674377
O O2 0.242427 0.018315 0.748697
O O3 0.528681 0.001116 0.593766
O O4 0.138946 0.005193 0.696741
O O5 0.853211 0.750000 0.609380
O O6 0.698368 0.985648 0.700448
O O7 0.760320 0.982123 0.589417
O O8 0.064453 0.002179 0.545209
O O9 0.851994 0.750000 0.168965
O O10 0.114313 0.540499 0.102553
O O11 0.826104 0.480535 0.137590
O O12 0.629817 0.750000 0.773976
O O13 0.405570 0.512070 0.857438
O O14 0.799670 0.513330 0.754191
O O15 0.820197 0.250000 0.082587
O O16 0.000000 0.500000 0.000000
O O17 0.701069 0.250000 0.912630
O O18 0.789056 0.985704 0.845638
O O19 0.500000 0.000000 0.000000
O O20 0.265726 0.250000 0.457568
O O21 0.937765 0.750000 0.752853
#
# Coordination Sequence:
#
# PCOD9159160 Si02
#       8
#     4   4   4   4   4   4   4   4
#     4  10  20  36  57  82 112 146 183 230 279 326
#     4   9  18  35  57  83 113 148 185 225 278 332
#     4   9  20  37  54  76 107 139 178 227 274 323
#     4   9  20  38  58  78 109 149 184 224 277 334
#     4  11  23  38  56  81 111 145 184 226 276 333
#     4  10  21  36  55  79 107 139 182 232 281 329
#     4  10  19  32  56  88 117 144 183 230 275 331
#     4  10  20  36  57  80 106 144 187 229 280 334
#
# _framework density 18.835989000000001
#
# number of rings (size 3 to 8) (size 9 to 14) (size 15 to 20)
#    0.000    2.250    0.000    3.375    1.750    4.500 
#    0.000    5.000    0.000    0.000    0.000    0.000 
#    0.000    0.000    0.000    0.000    0.000    0.000 
#
# Total GULP energy -178646.003302 kJ/mol
# GULP energy per Si atom -5582.687603 kJ/mol
# Density = 1.879312 g / cm^3
# Si number density = 18.835989 Si / 1000 Ang^3
#
#
#
# Elastic Constant Matrix: (Units=GPa)
#
#
# Indices 1 2 3 4 5 6 
#
# 1 67.4481 14.1378 38.7449 0.0000 -10.2024 0.0000
# 2 14.1378 28.3410 17.7112 0.0000 -5.8313 0.0000
# 3 38.7449 17.7112 105.5173 0.0000 -30.3298 0.0000
# 4 0.0000 0.0000 0.0000 28.9044 0.0000 -2.9875
# 5 -10.2024 -5.8313 -30.3298 0.0000 25.7365 0.0000
# 6 0.0000 0.0000 0.0000 -2.9875 0.0000 24.2613
#
#
#
# Elastic Compliance Matrix: (Units=1/GPa)
#
#
# Indices 1 2 3 4 5 6 
#
# 1 0.019668 -0.005958 -0.006607 0.000000 -0.001339 0.000000
# 2 -0.005958 0.041274 -0.004130 0.000000 0.002123 0.000000
# 3 -0.006607 -0.004130 0.017504 0.000000 0.017073 0.000000
# 4 0.000000 0.000000 0.000000 0.035043 0.000000 0.004315
# 5 -0.001339 0.002123 0.017073 0.000000 0.058925 0.000000
# 6 0.000000 0.000000 0.000000 0.004315 0.000000 0.041749
#
#
# Mechanical properties :
#
#
# Convention : Reuss Voigt Hill
#
# Bulk Modulus (GPa) = 22.19440 38.05492 30.12466
# Shear Modulus (GPa) = 19.04246 24.49461 21.76854
#
# Velocity S-wave (km/s) = 3.18301 3.61004 3.40323
# Velocity P-wave (km/s) = 5.03163 6.13381 5.60986
#
# Compressibility (1/GPa) = 0.04505640
#
# Stress axis : x y z
#
# Youngs Moduli (GPa) = 50.84508 24.22808 57.13105
#
# Poissons Ratio (x) = 0.14435 0.37744
# Poissons Ratio (y) = 0.30293 0.23596
# Poissons Ratio (z) = 0.33591 0.10006
#
# Static dielectric constant tensor:
#      x y z
#    x 1.653150 0.000000 -0.008190 
#    y 0.000000 1.636760 0.000000 
#    z -0.008190 0.000000 1.633870 
# 
# From -- ./inp_files/73107.got.cif
#   From: 2010.05.17/outbox.cif.g08.bks.cpg/sg11_37_cif.got.tgz:73107.got - 2010.06.03 12:22:45.
