data_PCOD9159327
_publ_section_title
;
Structure prediction by ZEFSAII (Michael W. Deem and Ramdas Pophale) SiO2 
 PCOD9159327
Probable space group: P 21/M
;
_chemical_formula_sum "Si O2"
_cell_formula_units_Z 28
_cell_length_a 10.013531
_cell_length_b 13.606316
_cell_length_c 13.600143
_cell_angle_alpha 90.000000
_cell_angle_beta 56.116658
_cell_angle_gamma 90.000000
_cell_volume 1538.298495
_symmetry_space_group_name_H-M "P 21/M"
_symmetry_group_IT_number 11
_symmetry_cell_setting 'monoclinic'
loop_
_space_group_symop_operation_xyz
x,y,z
-x,1/2+y,-z
-x,-y,-z
x,1/2-y,z
loop_
_atom_site_type_symbol
_atom_site_label
_atom_site_fract_x
_atom_site_fract_y
_atom_site_fract_z
Si Si1 0.837453 0.862008 0.396295
Si Si2 0.110933 0.518996 0.360417
Si Si3 0.774064 0.633307 0.839514
Si Si4 0.828658 0.527129 0.021044
Si Si5 0.602757 0.516764 0.634442
Si Si6 0.339448 0.363284 0.731131
Si Si7 0.439950 0.865914 0.872344
O O1 0.818512 0.750000 0.438304
O O2 0.715494 0.930162 0.508708
O O3 0.791511 0.867407 0.301374
O O4 0.018618 0.898512 0.337973
O O5 0.131117 0.421912 0.286453
O O6 0.285020 0.540997 0.333286
O O7 0.000000 0.500000 0.500000
O O8 0.799482 0.750000 0.827466
O O9 0.832885 0.586357 0.917199
O O10 0.584059 0.615868 0.892300
O O11 0.733446 0.594457 0.138629
O O12 0.718505 0.431018 0.046433
O O13 0.000000 0.500000 0.000000
O O14 0.480886 0.437388 0.641924
O O15 0.510875 0.598028 0.737898
O O16 0.391433 0.250000 0.720113
O O17 0.406875 0.750000 0.884840
#
# Coordination Sequence:
#
# PCOD9159327 Si02
#       7
#     4   4   4   4   4   4   4
#     4  10  19  33  53  76 106 140 173 213 265 318
#     4   9  19  34  54  81 106 131 170 218 265 314
#     4  10  20  37  58  78 106 145 183 220 266 321
#     4  11  22  36  55  78 110 143 180 226 269 318
#     4   9  18  34  55  77 104 136 175 219 264 318
#     4  10  21  35  51  74 105 141 177 216 263 314
#     4   9  19  35  56  80 104 136 180 224 267 317
#
# _framework density 18.201927999999999
#
# number of rings (size 3 to 8) (size 9 to 14) (size 15 to 20)
#    0.000    2.286    0.000    2.571    0.000    5.143 
#    0.000    2.857    0.000    6.000    0.000    0.000 
#    0.000    0.000    0.000    0.000    0.000    0.000 
#
# Total GULP energy -156083.471882 kJ/mol
# GULP energy per Si atom -5574.409710 kJ/mol
# Density = 1.816050 g / cm^3
# Si number density = 18.201928 Si / 1000 Ang^3
#
#
#
# Elastic Constant Matrix: (Units=GPa)
#
#
# Indices 1 2 3 4 5 6 
#
# 1 101.3237 67.0202 27.7333 0.0000 9.0562 0.0000
# 2 67.0202 111.7135 31.9578 0.0000 5.1245 0.0000
# 3 27.7333 31.9578 58.4882 0.0000 6.5126 0.0000
# 4 0.0000 0.0000 0.0000 21.3389 0.0000 -1.1360
# 5 9.0562 5.1245 6.5126 0.0000 21.8554 0.0000
# 6 0.0000 0.0000 0.0000 -1.1360 0.0000 30.1680
#
#
#
# Elastic Compliance Matrix: (Units=1/GPa)
#
#
# Indices 1 2 3 4 5 6 
#
# 1 0.017125 -0.009355 -0.002547 0.000000 -0.004143 0.000000
# 2 -0.009355 0.015733 -0.004325 0.000000 0.001476 0.000000
# 3 -0.002547 -0.004325 0.021140 0.000000 -0.004230 0.000000
# 4 0.000000 0.000000 0.000000 0.046957 0.000000 0.001768
# 5 -0.004143 0.001476 -0.004230 0.000000 0.048387 0.000000
# 6 0.000000 0.000000 0.000000 0.001768 0.000000 0.033214
#
#
# Mechanical properties :
#
#
# Convention : Reuss Voigt Hill
#
# Bulk Modulus (GPa) = 46.41875 58.32756 52.37316
# Shear Modulus (GPa) = 22.50321 24.32672 23.41496
#
# Velocity S-wave (km/s) = 3.51993 3.65977 3.59053
# Velocity P-wave (km/s) = 6.48671 7.06915 6.78418
#
# Compressibility (1/GPa) = 0.02154302
#
# Stress axis : x y z
#
# Youngs Moduli (GPa) = 58.39565 63.55945 47.30476
#
# Poissons Ratio (x) = 0.59459 0.12049
# Poissons Ratio (y) = 0.54628 0.20460
# Poissons Ratio (z) = 0.14874 0.27491
#
# Static dielectric constant tensor:
#      x y z
#    x 1.642590 0.000000 0.001280 
#    y 0.000000 1.599530 0.000000 
#    z 0.001280 0.000000 1.617440 
# 
# From -- ./inp_files/31786.got.cif
#   From: 2010.05.17/outbox.cif.g08.bks.cpg/sg11_16_cif.got.tgz:31786.got - 2010.06.03 12:22:45.
