data_PCOD9159619
_publ_section_title
;
Structure prediction by ZEFSAII (Michael W. Deem and Ramdas Pophale) SiO2 
 PCOD9159619
Probable space group: P 21/M
;
_chemical_formula_sum "Si O2"
_cell_formula_units_Z 24
_cell_length_a 24.302609
_cell_length_b 7.681603
_cell_length_c 12.712656
_cell_angle_alpha 90.000000
_cell_angle_beta 26.231927
_cell_angle_gamma 90.000000
_cell_volume 1048.984296
_symmetry_space_group_name_H-M "P 21/M"
_symmetry_group_IT_number 11
_symmetry_cell_setting 'monoclinic'
loop_
_space_group_symop_operation_xyz
x,y,z
-x,1/2+y,-z
-x,-y,-z
x,1/2-y,z
loop_
_atom_site_type_symbol
_atom_site_label
_atom_site_fract_x
_atom_site_fract_y
_atom_site_fract_z
Si Si1 0.244786 0.963828 0.677137
Si Si2 0.654354 0.543321 0.948535
Si Si3 0.304644 0.550878 0.353518
Si Si4 0.931750 0.957900 0.509873
Si Si5 0.980489 0.961210 0.197452
Si Si6 0.542997 0.040909 0.543652
O O1 0.241460 0.750000 0.678646
O O2 0.318471 0.025027 0.446753
O O3 0.320783 0.016667 0.650479
O O4 0.101187 0.020858 0.926477
O O5 0.657224 0.750000 0.961295
O O6 0.635992 0.522680 0.854632
O O7 0.791284 0.470995 0.741714
O O8 0.553524 0.473118 0.202877
O O9 0.344816 0.750000 0.288827
O O10 0.154202 0.538038 0.597851
O O11 0.921271 0.750000 0.522719
O O12 0.003012 0.008238 0.281266
O O13 0.000000 0.000000 0.500000
O O14 0.969697 0.750000 0.207059
O O15 0.545211 0.250000 0.546628
O O16 0.500000 0.000000 0.500000
#
# Coordination Sequence:
#
# PCOD9159619 Si02
#       6
#     4   4   4   4   4   4
#     4   9  19  35  56  81 111 145 179 219 274 324
#     4   9  20  38  55  75 109 145 177 220 274 322
#     4  10  19  33  56  85 110 138 181 227 266 318
#     4   9  18  30  48  73 101 137 176 214 260 312
#     4   9  18  34  53  77 111 146 174 214 276 331
#     4  10  22  40  59  79 108 146 183 224 269 319
#
# _framework density 22.879276000000001
#
# number of rings (size 3 to 8) (size 9 to 14) (size 15 to 20)
#    0.000    2.667    0.000    2.000    2.333    4.000 
#    0.000    3.333    0.000    0.000    0.000    0.000 
#    0.000    0.000    0.000    0.000    0.000    0.000 
#
# Total GULP energy -133927.606943 kJ/mol
# GULP energy per Si atom -5580.316956 kJ/mol
# Density = 2.282720 g / cm^3
# Si number density = 22.879276 Si / 1000 Ang^3
#
#
#
# Elastic Constant Matrix: (Units=GPa)
#
#
# Indices 1 2 3 4 5 6 
#
# 1 116.5357 -8.5424 21.9757 0.0000 18.4914 0.0000
# 2 -8.5424 32.3076 3.2486 0.0000 -2.2553 0.0000
# 3 21.9757 3.2486 105.9667 0.0000 15.1364 0.0000
# 4 0.0000 0.0000 0.0000 14.5074 0.0000 5.3407
# 5 18.4914 -2.2553 15.1364 0.0000 27.1011 0.0000
# 6 0.0000 0.0000 0.0000 5.3407 0.0000 21.7077
#
#
#
# Elastic Compliance Matrix: (Units=1/GPa)
#
#
# Indices 1 2 3 4 5 6 
#
# 1 0.009926 0.002346 -0.001294 0.000000 -0.005855 0.000000
# 2 0.002346 0.031891 -0.001755 0.000000 0.002033 0.000000
# 3 -0.001294 -0.001755 0.010491 0.000000 -0.005122 0.000000
# 4 0.000000 0.000000 0.000000 0.075795 0.000000 -0.018648
# 5 -0.005855 0.002033 -0.005122 0.000000 0.043924 0.000000
# 6 0.000000 0.000000 0.000000 -0.018648 0.000000 0.050655
#
#
# Mechanical properties :
#
#
# Convention : Reuss Voigt Hill
#
# Bulk Modulus (GPa) = 19.64544 32.01929 25.83236
# Shear Modulus (GPa) = 20.74221 28.53845 24.64033
#
# Velocity S-wave (km/s) = 3.01424 3.53561 3.28528
# Velocity P-wave (km/s) = 4.55185 5.54010 5.07011
#
# Compressibility (1/GPa) = 0.05090240
#
# Stress axis : x y z
#
# Youngs Moduli (GPa) = 100.74492 31.35670 95.32190
#
# Poissons Ratio (x) = -0.07356 0.12336
# Poissons Ratio (y) = -0.23635 0.16725
# Poissons Ratio (z) = 0.13038 0.05502
#
# Static dielectric constant tensor:
#      x y z
#    x 1.870050 0.000000 -0.004450 
#    y 0.000000 1.842830 0.000000 
#    z -0.004450 0.000000 1.871220 
# 
# From -- ./inp_files/33926.got.cif
#   From: 2010.05.17/outbox.cif.g08.bks.cpg/sg11_17_cif.got.tgz:33926.got - 2010.06.03 12:22:45.
