data_PCOD9159613
_publ_section_title
;
Structure prediction by ZEFSAII (Michael W. Deem and Ramdas Pophale) SiO2 
 PCOD9159613
Probable space group: P 21/M
;
_chemical_formula_sum "Si O2"
_cell_formula_units_Z 28
_cell_length_a 14.506235
_cell_length_b 9.156877
_cell_length_c 18.738040
_cell_angle_alpha 90.000000
_cell_angle_beta 35.132049
_cell_angle_gamma 90.000000
_cell_volume 1432.331383
_symmetry_space_group_name_H-M "P 21/M"
_symmetry_group_IT_number 11
_symmetry_cell_setting 'monoclinic'
loop_
_space_group_symop_operation_xyz
x,y,z
-x,1/2+y,-z
-x,-y,-z
x,1/2-y,z
loop_
_atom_site_type_symbol
_atom_site_label
_atom_site_fract_x
_atom_site_fract_y
_atom_site_fract_z
Si Si1 0.235239 0.918955 0.416867
Si Si2 0.458516 0.918171 0.732725
Si Si3 0.982893 0.075952 0.664015
Si Si4 0.661335 0.417300 0.027219
Si Si5 0.355924 0.920250 0.176884
Si Si6 0.996064 0.923849 0.798460
Si Si7 0.867790 0.074338 0.134136
O O1 0.204694 0.750000 0.452437
O O2 0.285156 0.929796 0.302425
O O3 0.386040 0.981011 0.365684
O O4 0.081748 0.013054 0.535178
O O5 0.501247 0.750000 0.687999
O O6 0.393729 0.917829 0.855203
O O7 0.310565 0.967535 0.777598
O O8 0.993954 0.250000 0.657887
O O9 0.794500 0.037274 0.776716
O O10 0.052425 0.004890 0.691553
O O11 0.700208 0.250000 0.982588
O O12 0.511922 0.478978 0.076958
O O13 0.815746 0.518899 0.924879
O O14 0.398080 0.750000 0.137803
O O15 0.998142 0.750000 0.787129
O O16 0.094533 0.960252 0.807555
O O17 0.880251 0.250000 0.117077
O O18 0.000000 0.000000 0.000000
#
# Coordination Sequence:
#
# PCOD9159613 Si02
#       7
#     4   4   4   4   4   4   4
#     4  10  20  36  59  85 111 140 182 231 276 326
#     4   9  18  34  56  84 113 141 179 225 273 326
#     4  11  23  39  57  78 110 151 188 227 275 329
#     4  10  19  33  56  84 113 145 182 227 277 328
#     4   9  20  37  58  83 110 143 185 230 277 327
#     4  11  23  37  55  81 115 150 184 227 276 328
#     4  10  20  35  58  85 113 144 181 226 275 327
#
# _framework density 19.548551
#
# number of rings (size 3 to 8) (size 9 to 14) (size 15 to 20)
#    0.000    2.000    1.429    2.143    0.000    4.000 
#    0.000    0.714    0.000    0.000    0.000    0.000 
#    0.000    0.000    0.000    0.000    0.000    0.000 
#
# Total GULP energy -156448.289929 kJ/mol
# GULP energy per Si atom -5587.438926 kJ/mol
# Density = 1.950406 g / cm^3
# Si number density = 19.548551 Si / 1000 Ang^3
#
#
#
# Elastic Constant Matrix: (Units=GPa)
#
#
# Indices 1 2 3 4 5 6 
#
# 1 120.8131 37.4734 10.2758 0.0000 -18.3048 0.0000
# 2 37.4734 56.7793 15.0008 0.0000 -5.7348 0.0000
# 3 10.2758 15.0008 34.0115 0.0000 -8.8169 0.0000
# 4 0.0000 0.0000 0.0000 34.7487 0.0000 -2.2408
# 5 -18.3048 -5.7348 -8.8169 0.0000 24.3228 0.0000
# 6 0.0000 0.0000 0.0000 -2.2408 0.0000 23.9406
#
#
#
# Elastic Compliance Matrix: (Units=1/GPa)
#
#
# Indices 1 2 3 4 5 6 
#
# 1 0.011547 -0.007304 0.001699 0.000000 0.007584 0.000000
# 2 -0.007304 0.024616 -0.009460 0.000000 -0.003122 0.000000
# 3 0.001699 -0.009460 0.036217 0.000000 0.012177 0.000000
# 4 0.000000 0.000000 0.000000 0.028953 0.000000 0.002710
# 5 0.007584 -0.003122 0.012177 0.000000 0.050499 0.000000
# 6 0.000000 0.000000 0.000000 0.002710 0.000000 0.042024
#
#
# Mechanical properties :
#
#
# Convention : Reuss Voigt Hill
#
# Bulk Modulus (GPa) = 23.66790 37.45598 30.56194
# Shear Modulus (GPa) = 21.00219 26.52600 23.76410
#
# Velocity S-wave (km/s) = 3.28130 3.68765 3.49039
# Velocity P-wave (km/s) = 5.14679 6.11014 5.64903
#
# Compressibility (1/GPa) = 0.04225132
#
# Stress axis : x y z
#
# Youngs Moduli (GPa) = 86.60026 40.62339 27.61100
#
# Poissons Ratio (x) = 0.29671 -0.04690
# Poissons Ratio (y) = 0.63251 0.26119
# Poissons Ratio (z) = -0.14710 0.38429
#
# Static dielectric constant tensor:
#      x y z
#    x 1.701220 0.000000 0.025720 
#    y 0.000000 1.652410 0.000000 
#    z 0.025720 0.000000 1.684460 
# 
# From -- ./inp_files/54595.got.cif
#   From: 2010.05.17/outbox.cif.g08.bks.cpg/sg11_28_cif.got.tgz:54595.got - 2010.06.03 12:22:45.
