data_PCOD9159218
_publ_section_title
;
Structure prediction by ZEFSAII (Michael W. Deem and Ramdas Pophale) SiO2 
 PCOD9159218
Probable space group: P 21/M
;
_chemical_formula_sum "Si O2"
_cell_formula_units_Z 32
_cell_length_a 12.615363
_cell_length_b 13.049110
_cell_length_c 11.302092
_cell_angle_alpha 90.000000
_cell_angle_beta 68.990906
_cell_angle_gamma 90.000000
_cell_volume 1736.859758
_symmetry_space_group_name_H-M "P 21/M"
_symmetry_group_IT_number 11
_symmetry_cell_setting 'monoclinic'
loop_
_space_group_symop_operation_xyz
x,y,z
-x,1/2+y,-z
-x,-y,-z
x,1/2-y,z
loop_
_atom_site_type_symbol
_atom_site_label
_atom_site_fract_x
_atom_site_fract_y
_atom_site_fract_z
Si Si1 0.738301 0.014543 0.158656
Si Si2 0.860587 0.866952 0.935001
Si Si3 0.107692 0.869740 0.720470
Si Si4 0.571363 0.133599 0.647916
Si Si5 0.731867 0.634616 0.741678
Si Si6 0.495373 0.966588 0.865234
Si Si7 0.641411 0.870696 0.399150
Si Si8 0.780872 0.490435 0.520392
O O1 0.798018 0.095983 0.221024
O O2 0.631895 0.059779 0.127247
O O3 0.691658 0.924213 0.262385
O O4 0.826530 0.956476 0.038182
O O5 0.852644 0.750000 0.987871
O O6 0.774685 0.872587 0.858806
O O7 0.985848 0.880170 0.831406
O O8 0.121207 0.750000 0.681507
O O9 0.121424 0.947894 0.604219
O O10 0.552821 0.250000 0.688784
O O11 0.494085 0.115056 0.562359
O O12 0.530402 0.062498 0.770034
O O13 0.701128 0.107505 0.573374
O O14 0.755219 0.750000 0.689381
O O15 0.596592 0.613154 0.797180
O O16 0.798233 0.550797 0.635672
O O17 0.500000 0.000000 0.000000
O O18 0.664988 0.750000 0.395389
O O19 0.699676 0.929953 0.482542
#
# Coordination Sequence:
#
# PCOD9159218 Si02
#       8
#     4   4   4   4   4   4   4   4
#     4  10  19  34  57  79 108 138 171 218 270 320
#     4  10  20  36  57  79 106 141 182 222 263 317
#     4  10  22  37  55  78 104 142 186 226 267 309
#     4   9  18  30  47  70 100 137 172 207 255 316
#     4  10  21  35  55  82 109 142 177 216 266 321
#     4  10  19  33  52  80 110 135 169 212 265 327
#     4   9  17  29  48  76 102 132 171 213 261 312
#     4  10  19  33  51  73 105 139 176 223 263 309
#
# _framework density 18.424056
#
# number of rings (size 3 to 8) (size 9 to 14) (size 15 to 20)
#    0.000    2.250    1.250    1.875    0.000    3.000 
#    0.000    0.000    0.000    0.750    0.000    0.000 
#    0.000    0.000    0.000    0.000    0.000    0.000 
#
# Total GULP energy -178331.930748 kJ/mol
# GULP energy per Si atom -5572.872836 kJ/mol
# Density = 1.838212 g / cm^3
# Si number density = 18.424056 Si / 1000 Ang^3
#
#
#
# Elastic Constant Matrix: (Units=GPa)
#
#
# Indices 1 2 3 4 5 6 
#
# 1 24.9776 5.2471 -7.7671 0.0000 -12.8718 0.0000
# 2 5.2471 51.7145 -5.0715 0.0000 -2.7065 0.0000
# 3 -7.7671 -5.0715 38.3644 0.0000 -4.8871 0.0000
# 4 0.0000 0.0000 0.0000 16.0186 0.0000 3.0039
# 5 -12.8718 -2.7065 -4.8871 0.0000 20.9759 0.0000
# 6 0.0000 0.0000 0.0000 3.0039 0.0000 15.1389
#
#
#
# Elastic Compliance Matrix: (Units=1/GPa)
#
#
# Indices 1 2 3 4 5 6 
#
# 1 0.071989 -0.002762 0.020397 0.000000 0.048572 0.000000
# 2 -0.002762 0.019911 0.002251 0.000000 0.001399 0.000000
# 3 0.020397 0.002251 0.033107 0.000000 0.020520 0.000000
# 4 0.000000 0.000000 0.000000 0.064840 0.000000 -0.012866
# 5 0.048572 0.001399 0.020520 0.000000 0.082441 0.000000
# 6 0.000000 0.000000 0.000000 -0.012866 0.000000 0.068608
#
#
# Mechanical properties :
#
#
# Convention : Reuss Voigt Hill
#
# Bulk Modulus (GPa) = 6.06872 11.09707 8.58290
# Shear Modulus (GPa) = 14.04294 18.60322 16.32308
#
# Velocity S-wave (km/s) = 2.76380 3.18106 2.97975
# Velocity P-wave (km/s) = 3.67231 4.41910 4.06290
#
# Compressibility (1/GPa) = 0.16477932
#
# Stress axis : x y z
#
# Youngs Moduli (GPa) = 13.89094 50.22316 30.20525
#
# Poissons Ratio (x) = 0.13872 -0.61609
# Poissons Ratio (y) = 0.03837 -0.06799
# Poissons Ratio (z) = -0.28333 -0.11306
#
# Static dielectric constant tensor:
#      x y z
#    x 1.670290 0.000000 -0.004110 
#    y 0.000000 1.617570 0.000000 
#    z -0.004110 0.000000 1.663470 
# 
# From -- ./inp_files/35041.got.cif
#   From: 2010.05.17/outbox.cif.g08.bks.cpg/sg11_18_cif.got.tgz:35041.got - 2010.06.03 12:22:45.
