data_PCOD9159459
_publ_section_title
;
Structure prediction by ZEFSAII (Michael W. Deem and Ramdas Pophale) SiO2 
 PCOD9159459
Probable space group: P 21/M
;
_chemical_formula_sum "Si O2"
_cell_formula_units_Z 32
_cell_length_a 10.359111
_cell_length_b 18.363466
_cell_length_c 20.967182
_cell_angle_alpha 90.000000
_cell_angle_beta 154.096535
_cell_angle_gamma 90.000000
_cell_volume 1742.431443
_symmetry_space_group_name_H-M "P 21/M"
_symmetry_group_IT_number 11
_symmetry_cell_setting 'monoclinic'
loop_
_space_group_symop_operation_xyz
x,y,z
-x,1/2+y,-z
-x,-y,-z
x,1/2-y,z
loop_
_atom_site_type_symbol
_atom_site_label
_atom_site_fract_x
_atom_site_fract_y
_atom_site_fract_z
Si Si1 0.084826 0.837361 0.081467
Si Si2 0.223155 0.938348 0.622478
Si Si3 0.850254 0.550711 0.081960
Si Si4 0.762574 0.059625 0.618919
Si Si5 0.109276 0.056629 0.103301
Si Si6 0.706871 0.836235 0.554809
Si Si7 0.802717 0.046812 0.239060
Si Si8 0.285785 0.164361 0.592772
O O1 0.057654 0.750000 0.077122
O O2 0.427902 0.861082 0.241265
O O3 0.917647 0.882570 0.062693
O O4 0.971540 0.865678 0.962932
O O5 0.539600 0.945402 0.730777
O O6 0.278445 0.941942 0.723005
O O7 0.026946 0.866913 0.525057
O O8 0.000000 0.000000 0.500000
O O9 0.051455 0.561165 0.233075
O O10 0.949232 0.474492 0.093890
O O11 0.499294 0.546451 0.934410
O O12 0.578816 0.134600 0.533828
O O13 0.500000 0.000000 0.500000
O O14 0.004769 0.027414 0.678076
O O15 0.000000 0.000000 0.000000
O O16 0.755377 0.750000 0.584297
O O17 0.656828 0.851920 0.456692
O O18 0.990262 0.887253 0.693981
O O19 0.276826 0.250000 0.594674
#
# Coordination Sequence:
#
# PCOD9159459 Si02
#       8
#     4   4   4   4   4   4   4   4
#     4  10  19  33  54  82 110 140 179 225 273 320
#     4  11  20  31  53  79 112 142 182 221 267 318
#     4  11  20  36  54  80 114 144 182 221 278 322
#     4  10  21  35  57  80 108 141 185 228 270 319
#     4  10  20  33  51  78 110 145 175 217 270 325
#     4   9  18  34  54  79 108 136 174 228 275 311
#     4  10  21  34  52  84 106 144 179 225 271 323
#     4   9  18  31  50  77 107 136 172 223 272 311
#
# _framework density 18.365141000000001
#
# number of rings (size 3 to 8) (size 9 to 14) (size 15 to 20)
#    0.000    2.000    3.750    1.875    3.500    1.000 
#    0.000    0.000    0.000    4.500    0.000    0.000 
#    0.000    0.000    0.000    0.000    0.000    0.000 
#
# Total GULP energy -178248.846239 kJ/mol
# GULP energy per Si atom -5570.276445 kJ/mol
# Density = 1.832334 g / cm^3
# Si number density = 18.365141 Si / 1000 Ang^3
#
#
#
# Elastic Constant Matrix: (Units=GPa)
#
#
# Indices 1 2 3 4 5 6 
#
# 1 13.1622 15.3843 20.7557 0.0000 10.0719 0.0000
# 2 15.3843 66.9987 35.5303 0.0000 11.0075 0.0000
# 3 20.7557 35.5303 142.5855 0.0000 24.8826 0.0000
# 4 0.0000 0.0000 0.0000 25.3505 0.0000 2.6085
# 5 10.0719 11.0075 24.8826 0.0000 24.4492 0.0000
# 6 0.0000 0.0000 0.0000 2.6085 0.0000 23.9284
#
#
#
# Elastic Compliance Matrix: (Units=1/GPa)
#
#
# Indices 1 2 3 4 5 6 
#
# 1 0.148083 -0.022527 -0.008593 0.000000 -0.042116 0.000000
# 2 -0.022527 0.020972 -0.002333 0.000000 0.002212 0.000000
# 3 -0.008593 -0.002333 0.009782 0.000000 -0.005365 0.000000
# 4 0.000000 0.000000 0.000000 0.039895 0.000000 -0.004349
# 5 -0.042116 0.002212 -0.005365 0.000000 0.062715 0.000000
# 6 0.000000 0.000000 0.000000 -0.004349 0.000000 0.042265
#
#
# Mechanical properties :
#
#
# Convention : Reuss Voigt Hill
#
# Bulk Modulus (GPa) = 8.93400 40.67634 24.80517
# Shear Modulus (GPa) = 11.68422 24.81735 18.25078
#
# Velocity S-wave (km/s) = 2.52507 3.68003 3.15584
# Velocity P-wave (km/s) = 3.65739 6.34457 5.17833
#
# Compressibility (1/GPa) = 0.11193190
#
# Stress axis : x y z
#
# Youngs Moduli (GPa) = 6.75296 47.68272 102.23137
#
# Poissons Ratio (x) = 1.07413 0.87848
# Poissons Ratio (y) = 0.15212 0.23849
# Poissons Ratio (z) = 0.05803 0.11123
#
# Static dielectric constant tensor:
#      x y z
#    x 1.690940 0.000000 0.001550 
#    y 0.000000 1.438380 0.000000 
#    z 0.001550 0.000000 1.655920 
# 
# From -- ./inp_files/18635.got.cif
#   From: 2010.05.17/outbox.cif.g08.bks.cpg/sg11_10_cif.got.tgz:18635.got - 2010.06.03 12:22:45.
