data_PCOD9159183
_publ_section_title
;
Structure prediction by ZEFSAII (Michael W. Deem and Ramdas Pophale) SiO2 
 PCOD9159183
Probable space group: P 21/M
;
_chemical_formula_sum "Si O2"
_cell_formula_units_Z 26
_cell_length_a 10.501533
_cell_length_b 14.656942
_cell_length_c 8.574958
_cell_angle_alpha 90.000000
_cell_angle_beta 54.804406
_cell_angle_gamma 90.000000
_cell_volume 1078.575877
_symmetry_space_group_name_H-M "P 21/M"
_symmetry_group_IT_number 11
_symmetry_cell_setting 'monoclinic'
loop_
_space_group_symop_operation_xyz
x,y,z
-x,1/2+y,-z
-x,-y,-z
x,1/2-y,z
loop_
_atom_site_type_symbol
_atom_site_label
_atom_site_fract_x
_atom_site_fract_y
_atom_site_fract_z
Si Si1 0.547952 0.146565 0.053718
Si Si2 0.139008 0.930878 0.284739
Si Si3 0.023633 0.750000 0.961571
Si Si4 0.861524 0.846625 0.359076
Si Si5 0.936862 0.574504 0.921210
Si Si6 0.356815 0.004480 0.398622
Si Si7 0.583507 0.644769 0.207731
O O1 0.533534 0.250000 0.122441
O O2 0.463724 0.071517 0.218077
O O3 0.729201 0.121765 0.908446
O O4 0.475871 0.142748 0.930346
O O5 0.984677 0.870262 0.406811
O O6 0.084923 0.017823 0.223323
O O7 0.228548 0.959304 0.376201
O O8 0.968197 0.826775 0.133127
O O9 0.044467 0.664684 0.826592
O O10 0.780990 0.750000 0.449677
O O11 0.740218 0.927727 0.424224
O O12 0.761075 0.612204 0.076170
O O13 0.000000 0.500000 0.000000
O O14 0.468262 0.923894 0.379443
O O15 0.579279 0.750000 0.265047
#
# Coordination Sequence:
#
# PCOD9159183 Si02
#       7
#     4   4   2   4   4   4   4
#     4  10  19  32  59  94 121 148 198 252 299 343
#     4  11  20  37  61  91 117 155 205 250 294 346
#     4  10  24  38  58  82 118 164 196 230 304 356
#     4  10  22  40  58  85 126 159 191 239 307 365
#     4  12  20  37  64  83 115 158 207 240 282 351
#     4  11  20  37  61  92 121 155 193 251 308 356
#     4  10  20  36  60  89 118 156 200 249 295 342
#
# _framework density 24.10586
#
# number of rings (size 3 to 8) (size 9 to 14) (size 15 to 20)
#    0.462    0.923    5.385    2.308    0.000    0.615 
#    1.385    0.769    1.692    0.000    0.000    0.000 
#    0.000    0.000    0.000    0.000    0.000    0.000 
#
# Total GULP energy -144820.984349 kJ/mol
# GULP energy per Si atom -5570.037860 kJ/mol
# Density = 2.405099 g / cm^3
# Si number density = 24.105860 Si / 1000 Ang^3
#
#
#
# Elastic Constant Matrix: (Units=GPa)
#
#
# Indices 1 2 3 4 5 6 
#
# 1 101.8897 39.2209 14.6703 0.0000 -17.2230 0.0000
# 2 39.2209 194.5927 17.6240 0.0000 -9.6656 0.0000
# 3 14.6703 17.6240 43.9600 0.0000 -14.2521 0.0000
# 4 0.0000 0.0000 0.0000 32.3508 0.0000 7.9602
# 5 -17.2230 -9.6656 -14.2521 0.0000 20.7382 0.0000
# 6 0.0000 0.0000 0.0000 7.9602 0.0000 0.4429
#
#
#
# Elastic Compliance Matrix: (Units=1/GPa)
#
#
# Indices 1 2 3 4 5 6 
#
# 1 0.012131 -0.001969 -0.000373 0.000000 0.008900 0.000000
# 2 -0.001969 0.005680 -0.001662 0.000000 -0.000130 0.000000
# 3 -0.000373 -0.001662 0.029835 0.000000 0.019419 0.000000
# 4 0.000000 0.000000 0.000000 -0.009031 0.000000 0.162326
# 5 0.008900 -0.000130 0.019419 0.000000 0.068896 0.000000
# 6 0.000000 0.000000 0.000000 0.162326 0.000000 -0.659702
#
#
# Mechanical properties :
#
#
# Convention : Reuss Voigt Hill
#
# Bulk Modulus (GPa) = 25.22968 53.71920 39.47444
# Shear Modulus (GPa) = -9.41674 28.63484 9.60905
#
# Velocity S-wave (km/s) = -1.97861 3.45030 1.99871
# Velocity P-wave (km/s) = 2.29545 6.18109 4.66235
#
# Compressibility (1/GPa) = 0.03963586
#
# Stress axis : x y z
#
# Youngs Moduli (GPa) = 82.43535 176.05966 33.51805
#
# Poissons Ratio (x) = 0.34668 0.01251
# Poissons Ratio (y) = 0.16232 0.05572
# Poissons Ratio (z) = 0.03077 0.29267
#
# Static dielectric constant tensor:
#      x y z
#    x 1.969220 0.000000 0.050480 
#    y 0.000000 1.970490 0.000000 
#    z 0.050480 0.000000 2.014810 
# 
# From -- ./inp_files/35420.got.cif
#   From: 2010.05.17/outbox.cif.g08.bks.cpg/sg11_18_cif.got.tgz:35420.got - 2010.06.03 12:22:45.
