data_PCOD9159934
_publ_section_title
;
Structure prediction by ZEFSAII (Michael W. Deem and Ramdas Pophale) SiO2 
 PCOD9159934
Probable space group: P 21/M
;
_chemical_formula_sum "Si O2"
_cell_formula_units_Z 28
_cell_length_a 7.943803
_cell_length_b 9.462255
_cell_length_c 29.553463
_cell_angle_alpha 90.000000
_cell_angle_beta 39.747324
_cell_angle_gamma 90.000000
_cell_volume 1420.385478
_symmetry_space_group_name_H-M "P 21/M"
_symmetry_group_IT_number 11
_symmetry_cell_setting 'monoclinic'
loop_
_space_group_symop_operation_xyz
x,y,z
-x,1/2+y,-z
-x,-y,-z
x,1/2-y,z
loop_
_atom_site_type_symbol
_atom_site_label
_atom_site_fract_x
_atom_site_fract_y
_atom_site_fract_z
Si Si1 0.848855 0.918658 0.829118
Si Si2 0.531281 0.594033 0.037049
Si Si3 0.751653 0.918859 0.429315
Si Si4 0.119958 0.595357 0.936452
Si Si5 0.680544 0.081277 0.197376
Si Si6 0.674048 0.418730 0.659645
Si Si7 0.785232 0.581198 0.315209
O O1 0.814620 0.750000 0.830662
O O2 0.050203 0.941390 0.829783
O O3 0.995592 0.989750 0.756298
O O4 0.584275 0.003276 0.897172
O O5 0.402314 0.750000 0.063350
O O6 0.500000 0.500000 0.000000
O O7 0.840262 0.618006 0.970526
O O8 0.713211 0.750000 0.441407
O O9 0.783729 0.949092 0.368970
O O10 0.017552 0.956459 0.402134
O O11 0.500000 0.000000 0.500000
O O12 0.216164 0.750000 0.932180
O O13 0.299838 0.535983 0.859098
O O14 0.000000 0.500000 0.000000
O O15 0.632490 0.250000 0.207039
O O16 0.462566 0.998750 0.270506
O O17 0.657750 0.250000 0.670247
O O18 0.495456 0.449608 0.652063
O O19 0.835279 0.750000 0.298920
#
# Coordination Sequence:
#
# PCOD9159934 Si02
#       7
#     4   4   4   4   4   4   4
#     4  10  19  34  56  82 110 143 188 236 279 333
#     4  11  21  35  54  77 108 145 187 235 284 333
#     4  10  22  39  59  85 118 147 181 227 274 333
#     4  10  22  37  50  73 108 143 183 233 282 334
#     4   9  18  35  54  75 107 141 179 229 275 325
#     4   9  19  36  58  83 109 144 184 222 274 334
#     4   9  19  37  58  83 114 148 187 231 278 332
#
# _framework density 19.712959000000001
#
# number of rings (size 3 to 8) (size 9 to 14) (size 15 to 20)
#    0.000    2.286    1.429    0.857    0.000    5.143 
#    0.000    4.286    0.000    0.000    0.000    0.000 
#    0.000    0.000    0.000    0.000    0.000    0.000 
#
# Total GULP energy -155966.410101 kJ/mol
# GULP energy per Si atom -5570.228932 kJ/mol
# Density = 1.966809 g / cm^3
# Si number density = 19.712959 Si / 1000 Ang^3
#
#
#
# Elastic Constant Matrix: (Units=GPa)
#
#
# Indices 1 2 3 4 5 6 
#
# 1 42.7038 5.5420 13.1801 0.0000 -3.4043 0.0000
# 2 5.5420 42.6698 20.0555 0.0000 7.5545 0.0000
# 3 13.1801 20.0555 79.3529 0.0000 -5.2956 0.0000
# 4 0.0000 0.0000 0.0000 37.5295 0.0000 -1.4312
# 5 -3.4043 7.5545 -5.2956 0.0000 34.8695 0.0000
# 6 0.0000 0.0000 0.0000 -1.4312 0.0000 17.7966
#
#
#
# Elastic Compliance Matrix: (Units=1/GPa)
#
#
# Indices 1 2 3 4 5 6 
#
# 1 0.024939 -0.002021 -0.003475 0.000000 0.002345 0.000000
# 2 -0.002021 0.028485 -0.007363 0.000000 -0.007487 0.000000
# 3 -0.003475 -0.007363 0.015279 0.000000 0.003576 0.000000
# 4 0.000000 0.000000 0.000000 0.026728 0.000000 0.002149
# 5 0.002345 -0.007487 0.003576 0.000000 0.031072 0.000000
# 6 0.000000 0.000000 0.000000 0.002149 0.000000 0.056363
#
#
# Mechanical properties :
#
#
# Convention : Reuss Voigt Hill
#
# Bulk Modulus (GPa) = 23.26442 26.92018 25.09230
# Shear Modulus (GPa) = 22.43042 26.43571 24.43307
#
# Velocity S-wave (km/s) = 3.37687 3.66598 3.52439
# Velocity P-wave (km/s) = 5.19918 5.62183 5.41463
#
# Compressibility (1/GPa) = 0.04298409
#
# Stress axis : x y z
#
# Youngs Moduli (GPa) = 40.09816 35.10680 65.45060
#
# Poissons Ratio (x) = 0.07095 0.22744
# Poissons Ratio (y) = 0.08104 0.48192
# Poissons Ratio (z) = 0.13934 0.25849
#
# Static dielectric constant tensor:
#      x y z
#    x 1.839490 0.000000 0.004540 
#    y 0.000000 1.479180 0.000000 
#    z 0.004540 0.000000 1.656770 
# 
# From -- ./inp_files/28991.got.cif
#   From: 2010.05.17/outbox.cif.g08.bks.cpg/sg11_15_cif.got.tgz:28991.got - 2010.06.03 12:22:45.
