data_PCOD9159209
_publ_section_title
;
Structure prediction by ZEFSAII (Michael W. Deem and Ramdas Pophale) SiO2 
 PCOD9159209
Probable space group: P 21/M
;
_chemical_formula_sum "Si O2"
_cell_formula_units_Z 32
_cell_length_a 9.883231
_cell_length_b 11.351056
_cell_length_c 31.783488
_cell_angle_alpha 90.000000
_cell_angle_beta 149.044459
_cell_angle_gamma 90.000000
_cell_volume 1834.065156
_symmetry_space_group_name_H-M "P 21/M"
_symmetry_group_IT_number 11
_symmetry_cell_setting 'monoclinic'
loop_
_space_group_symop_operation_xyz
x,y,z
-x,1/2+y,-z
-x,-y,-z
x,1/2-y,z
loop_
_atom_site_type_symbol
_atom_site_label
_atom_site_fract_x
_atom_site_fract_y
_atom_site_fract_z
Si Si1 0.741499 0.609978 0.214275
Si Si2 0.672016 0.119809 0.435580
Si Si3 0.166656 0.112221 0.935449
Si Si4 0.811843 0.513648 0.393525
Si Si5 0.487212 0.887982 0.055305
Si Si6 0.457815 0.889740 0.224501
Si Si7 0.208548 0.122893 0.449758
Si Si8 0.281423 0.513204 0.386510
O O1 0.782219 0.750000 0.229475
O O2 0.601769 0.591658 0.132390
O O3 0.566508 0.571008 0.207790
O O4 0.026027 0.550302 0.293108
O O5 0.640628 0.250000 0.410048
O O6 0.957014 0.106133 0.533747
O O7 0.666393 0.023287 0.397251
O O8 0.444363 0.090981 0.408000
O O9 0.216482 0.250000 0.963738
O O10 0.286352 0.108542 0.920181
O O11 0.853976 0.093009 0.853845
O O12 0.299579 0.999934 0.994512
O O13 0.618405 0.551956 0.305223
O O14 0.983391 0.402852 0.423282
O O15 0.382835 0.750000 0.026118
O O16 0.505442 0.750000 0.240049
O O17 0.175850 0.250000 0.421517
O O18 0.493189 0.111232 0.547296
O O19 0.194688 0.024761 0.410040
#
# Coordination Sequence:
#
# PCOD9159209 Si02
#       8
#     4   4   4   4   4   4   4   4
#     4  10  20  35  56  82 110 139 179 227 267 316
#     4  10  21  35  51  73 106 145 184 227 272 317
#     4   9  19  37  61  85 111 143 179 222 274 331
#     4  10  20  35  53  75 104 141 183 224 270 319
#     4   9  19  37  61  85 112 142 177 224 274 330
#     4  10  20  35  57  82 108 140 179 225 269 319
#     4  10  19  33  51  71 104 144 183 221 264 318
#     4  10  20  33  51  77 103 141 183 223 266 313
#
# _framework density 17.447581
#
# number of rings (size 3 to 8) (size 9 to 14) (size 15 to 20)
#    0.000    2.250    1.250    1.500    1.750    0.500 
#    0.000    3.750    0.000    0.000    0.000    0.000 
#    0.000    0.000    0.000    0.000    0.000    0.000 
#
# Total GULP energy -178195.691982 kJ/mol
# GULP energy per Si atom -5568.615374 kJ/mol
# Density = 1.740787 g / cm^3
# Si number density = 17.447581 Si / 1000 Ang^3
#
#
#
# Elastic Constant Matrix: (Units=GPa)
#
#
# Indices 1 2 3 4 5 6 
#
# 1 59.3029 20.0207 36.1275 0.0000 -6.2130 0.0000
# 2 20.0207 71.5275 48.5921 0.0000 -3.3756 0.0000
# 3 36.1275 48.5921 94.2469 0.0000 -7.4163 0.0000
# 4 0.0000 0.0000 0.0000 2.1461 0.0000 -9.5877
# 5 -6.2130 -3.3756 -7.4163 0.0000 24.9749 0.0000
# 6 0.0000 0.0000 0.0000 -9.5877 0.0000 12.0222
#
#
#
# Elastic Compliance Matrix: (Units=1/GPa)
#
#
# Indices 1 2 3 4 5 6 
#
# 1 0.022250 -0.000697 -0.007927 0.000000 0.003087 0.000000
# 2 -0.000697 0.021543 -0.010879 0.000000 -0.000492 0.000000
# 3 -0.007927 -0.010879 0.019441 0.000000 0.002331 0.000000
# 4 0.000000 0.000000 0.000000 -0.181818 0.000000 -0.144999
# 5 0.003087 -0.000492 0.002331 0.000000 0.041434 0.000000
# 6 0.000000 0.000000 0.000000 -0.144999 0.000000 -0.032457
#
#
# Mechanical properties :
#
#
# Convention : Reuss Voigt Hill
#
# Bulk Modulus (GPa) = 41.27230 48.28419 44.77825
# Shear Modulus (GPa) = -79.96834 15.85112 -32.05861
#
# Velocity S-wave (km/s) = -6.77739 3.01740 -4.29117
# Velocity P-wave (km/s) = 6.12679 6.31455 1.08073
#
# Compressibility (1/GPa) = 0.02422932
#
# Stress axis : x y z
#
# Youngs Moduli (GPa) = 44.94296 46.41894 51.43701
#
# Poissons Ratio (x) = 0.03236 0.40773
# Poissons Ratio (y) = 0.03133 0.55956
# Poissons Ratio (z) = 0.35626 0.50498
#
# Static dielectric constant tensor:
#      x y z
#    x 1.584460 0.000000 -0.002170 
#    y 0.000000 1.623640 0.000000 
#    z -0.002170 0.000000 1.560160 
# 
# From -- ./inp_files/29284.got.cif
#   From: 2010.05.17/outbox.cif.g08.bks.cpg/sg11_15_cif.got.tgz:29284.got - 2010.06.03 12:22:45.
