data_PCOD9159015
_publ_section_title
;
Structure prediction by ZEFSAII (Michael W. Deem and Ramdas Pophale) SiO2 
 PCOD9159015
Probable space group: P 21/M
;
_chemical_formula_sum "Si O2"
_cell_formula_units_Z 24
_cell_length_a 12.149450
_cell_length_b 7.505511
_cell_length_c 25.249188
_cell_angle_alpha 90.000000
_cell_angle_beta 156.770329
_cell_angle_gamma 90.000000
_cell_volume 908.114995
_symmetry_space_group_name_H-M "P 21/M"
_symmetry_group_IT_number 11
_symmetry_cell_setting 'monoclinic'
loop_
_space_group_symop_operation_xyz
x,y,z
-x,1/2+y,-z
-x,-y,-z
x,1/2-y,z
loop_
_atom_site_type_symbol
_atom_site_label
_atom_site_fract_x
_atom_site_fract_y
_atom_site_fract_z
Si Si1 0.045836 0.454717 0.945263
Si Si2 0.919188 0.468371 0.268933
Si Si3 0.603191 0.036984 0.233740
Si Si4 0.581489 0.963558 0.338585
Si Si5 0.893785 0.453681 0.144893
Si Si6 0.457310 0.466410 0.561906
O O1 0.010212 0.250000 0.945114
O O2 0.737866 0.535766 0.807941
O O3 0.158172 0.454966 0.934199
O O4 0.286521 0.534650 0.088137
O O5 0.915128 0.250000 0.265400
O O6 0.761749 0.528885 0.251985
O O7 0.795813 0.529012 0.158209
O O8 0.239615 0.523515 0.421031
O O9 0.592944 0.250000 0.223164
O O10 0.722387 0.007065 0.345003
O O11 0.575067 0.750000 0.338175
O O12 0.670304 0.018346 0.436749
O O13 0.806658 0.250000 0.100723
O O14 0.231485 0.459785 0.301704
O O15 0.478575 0.250000 0.570046
#
# Coordination Sequence:
#
# PCOD9159015 Si02
#       6
#     4   4   4   4   4   4
#     4   9  19  35  53  73 100 133 166 203 250 297
#     4   9  19  34  51  74 104 134 163 201 249 295
#     4  10  20  34  52  73 100 136 170 199 242 300
#     4   9  18  32  50  73  99 129 166 208 249 286
#     4  10  19  32  53  78 100 126 167 212 245 285
#     4   9  18  35  55  73 100 134 163 200 252 299
#
# _framework density 26.428369
#
# number of rings (size 3 to 8) (size 9 to 14) (size 15 to 20)
#    0.000    2.667    0.000    2.500    0.000    4.667 
#    0.000    3.333    0.000    0.000    0.000    0.000 
#    0.000    0.000    0.000    0.000    0.000    0.000 
#
# Total GULP energy -134162.086683 kJ/mol
# GULP energy per Si atom -5590.086945 kJ/mol
# Density = 2.636822 g / cm^3
# Si number density = 26.428369 Si / 1000 Ang^3
#
#
#
# Elastic Constant Matrix: (Units=GPa)
#
#
# Indices 1 2 3 4 5 6 
#
# 1 148.7352 1.9977 15.7597 0.0000 -36.3463 0.0000
# 2 1.9977 83.1229 4.5833 0.0000 1.0852 0.0000
# 3 15.7597 4.5833 89.1982 0.0000 -28.5635 0.0000
# 4 0.0000 0.0000 0.0000 9.0544 0.0000 -5.2187
# 5 -36.3463 1.0852 -28.5635 0.0000 47.8039 0.0000
# 6 0.0000 0.0000 0.0000 -5.2187 0.0000 25.8215
#
#
#
# Elastic Compliance Matrix: (Units=1/GPa)
#
#
# Indices 1 2 3 4 5 6 
#
# 1 0.008300 -0.000327 0.000709 0.000000 0.006742 0.000000
# 2 -0.000327 0.012102 -0.000905 0.000000 -0.001064 0.000000
# 3 0.000709 -0.000905 0.013988 0.000000 0.008918 0.000000
# 4 0.000000 0.000000 0.000000 0.125006 0.000000 0.025265
# 5 0.006742 -0.001064 0.008918 0.000000 0.031398 0.000000
# 6 0.000000 0.000000 0.000000 0.025265 0.000000 0.043834
#
#
# Mechanical properties :
#
#
# Convention : Reuss Voigt Hill
#
# Bulk Modulus (GPa) = 29.98877 40.63750 35.31313
# Shear Modulus (GPa) = 20.26041 36.45032 28.35536
#
# Velocity S-wave (km/s) = 2.77179 3.71780 3.27909
# Velocity P-wave (km/s) = 4.64925 5.81715 5.26568
#
# Compressibility (1/GPa) = 0.03334582
#
# Stress axis : x y z
#
# Youngs Moduli (GPa) = 120.48007 82.63093 71.49053
#
# Poissons Ratio (x) = 0.02699 -0.05071
# Poissons Ratio (y) = 0.03935 0.06468
# Poissons Ratio (z) = -0.08545 0.07476
#
# Static dielectric constant tensor:
#      x y z
#    x 2.163250 0.000000 0.056640 
#    y 0.000000 1.969170 0.000000 
#    z 0.056640 0.000000 2.057350 
# 
# From -- ./inp_files/33728.got.cif
#   From: 2010.05.17/outbox.cif.g08.bks.cpg/sg11_17_cif.got.tgz:33728.got - 2010.06.03 12:22:45.
