data_PCOD9159890
_publ_section_title
;
Structure prediction by ZEFSAII (Michael W. Deem and Ramdas Pophale) SiO2 
 PCOD9159890
Probable space group: P 21/M
;
_chemical_formula_sum "Si O2"
_cell_formula_units_Z 28
_cell_length_a 20.874907
_cell_length_b 7.480128
_cell_length_c 23.670454
_cell_angle_alpha 90.000000
_cell_angle_beta 20.503016
_cell_angle_gamma 90.000000
_cell_volume 1294.573168
_symmetry_space_group_name_H-M "P 21/M"
_symmetry_group_IT_number 11
_symmetry_cell_setting 'monoclinic'
loop_
_space_group_symop_operation_xyz
x,y,z
-x,1/2+y,-z
-x,-y,-z
x,1/2-y,z
loop_
_atom_site_type_symbol
_atom_site_label
_atom_site_fract_x
_atom_site_fract_y
_atom_site_fract_z
Si Si1 0.007555 0.031417 0.623656
Si Si2 0.193645 0.530322 0.093488
Si Si3 0.827512 0.536780 0.178601
Si Si4 0.319424 0.537037 0.187051
Si Si5 0.388331 0.044661 0.258684
Si Si6 0.075024 0.047201 0.780190
Si Si7 0.457521 0.960792 0.467747
O O1 0.012503 0.250000 0.619536
O O2 0.214234 0.969970 0.437728
O O3 0.912509 0.976969 0.761376
O O4 0.862575 0.976184 0.695246
O O5 0.196397 0.750000 0.092792
O O6 0.069804 0.469716 0.143081
O O7 0.403982 0.468928 0.912578
O O8 0.796793 0.750000 0.212378
O O9 0.877608 0.459341 0.198769
O O10 0.654178 0.473647 0.285271
O O11 0.000000 0.500000 0.000000
O O12 0.308205 0.750000 0.202945
O O13 0.335306 0.457962 0.236298
O O14 0.500000 0.500000 0.000000
O O15 0.407182 0.250000 0.262185
O O16 0.013185 0.250000 0.842189
O O17 0.282261 0.051187 0.585535
O O18 0.432482 0.750000 0.480608
O O19 0.500000 0.000000 0.500000
#
# Coordination Sequence:
#
# PCOD9159890 Si02
#       7
#     4   4   4   4   4   4   4
#     4   9  18  32  53  80 103 134 178 218 265 316
#     4   9  17  33  53  76 108 138 172 218 259 311
#     4   9  18  31  48  74 103 129 164 209 253 298
#     4  11  20  33  54  79 107 139 179 223 268 316
#     4  10  19  34  56  78 105 138 174 221 268 310
#     4   9  18  33  52  75 101 132 170 209 252 306
#     4   9  17  31  51  73  97 126 163 204 247 297
#
# _framework density 21.628751000000001
#
# number of rings (size 3 to 8) (size 9 to 14) (size 15 to 20)
#    0.000    2.571    1.429    2.143    0.000    2.857 
#    2.571    1.429    0.000    0.000    0.000    0.000 
#    0.000    0.000    0.000    0.000    0.000    0.000 
#
# Total GULP energy -155880.201279 kJ/mol
# GULP energy per Si atom -5567.150046 kJ/mol
# Density = 2.157952 g / cm^3
# Si number density = 21.628751 Si / 1000 Ang^3
#
#
#
# Elastic Constant Matrix: (Units=GPa)
#
#
# Indices 1 2 3 4 5 6 
#
# 1 104.6735 2.6185 68.8290 0.0000 -38.2181 0.0000
# 2 2.6185 67.2286 1.2527 0.0000 -0.8165 0.0000
# 3 68.8290 1.2527 198.5949 0.0000 -27.1953 0.0000
# 4 0.0000 0.0000 0.0000 8.9149 0.0000 -1.0804
# 5 -38.2181 -0.8165 -27.1953 0.0000 29.1083 0.0000
# 6 0.0000 0.0000 0.0000 -1.0804 0.0000 10.7375
#
#
#
# Elastic Compliance Matrix: (Units=1/GPa)
#
#
# Indices 1 2 3 4 5 6 
#
# 1 0.020778 -0.000449 -0.003973 0.000000 0.023556 0.000000
# 2 -0.000449 0.014890 0.000044 0.000000 -0.000131 0.000000
# 3 -0.003973 0.000044 0.006534 0.000000 0.000890 0.000000
# 4 0.000000 0.000000 0.000000 0.113556 0.000000 0.011425
# 5 0.023556 -0.000131 0.000890 0.000000 0.066111 0.000000
# 6 0.000000 0.000000 0.000000 0.011425 0.000000 0.094281
#
#
# Mechanical properties :
#
#
# Convention : Reuss Voigt Hill
#
# Bulk Modulus (GPa) = 29.89947 57.32193 43.61070
# Shear Modulus (GPa) = 14.87858 29.60525 22.24192
#
# Velocity S-wave (km/s) = 2.62564 3.70373 3.21027
# Velocity P-wave (km/s) = 4.80062 6.69704 5.82651
#
# Compressibility (1/GPa) = 0.03344541
#
# Stress axis : x y z
#
# Youngs Moduli (GPa) = 48.12837 67.16046 153.05152
#
# Poissons Ratio (x) = 0.03017 0.60800
# Poissons Ratio (y) = 0.02162 -0.00670
# Poissons Ratio (z) = 0.19119 -0.00294
#
# Static dielectric constant tensor:
#      x y z
#    x 1.748080 0.000000 -0.003510 
#    y 0.000000 1.861900 0.000000 
#    z -0.003510 0.000000 1.916730 
# 
# From -- ./inp_files/66747.got.cif
#   From: 2010.05.17/outbox.cif.g08.bks.cpg/sg11_34_cif.got.tgz:66747.got - 2010.06.03 12:22:45.
