data_PCOD9159535
_publ_section_title
;
Structure prediction by ZEFSAII (Michael W. Deem and Ramdas Pophale) SiO2 
 PCOD9159535
Probable space group: P 21/M
;
_chemical_formula_sum "Si O2"
_cell_formula_units_Z 28
_cell_length_a 15.388855
_cell_length_b 8.739384
_cell_length_c 12.607428
_cell_angle_alpha 90.000000
_cell_angle_beta 74.282004
_cell_angle_gamma 90.000000
_cell_volume 1632.159170
_symmetry_space_group_name_H-M "P 21/M"
_symmetry_group_IT_number 11
_symmetry_cell_setting 'monoclinic'
loop_
_space_group_symop_operation_xyz
x,y,z
-x,1/2+y,-z
-x,-y,-z
x,1/2-y,z
loop_
_atom_site_type_symbol
_atom_site_label
_atom_site_fract_x
_atom_site_fract_y
_atom_site_fract_z
Si Si1 0.887180 0.567108 0.369177
Si Si2 0.398379 0.567188 0.641706
Si Si3 0.789787 0.432861 0.194715
Si Si4 0.082246 0.066834 0.272970
Si Si5 0.602268 0.931509 0.592053
Si Si6 0.091029 0.067108 0.021111
Si Si7 0.781784 0.431947 0.605607
O O1 0.882352 0.750000 0.375153
O O2 0.847402 0.506927 0.271051
O O3 0.828899 0.495664 0.483309
O O4 0.990151 0.511148 0.343413
O O5 0.396744 0.750000 0.618894
O O6 0.314944 0.533843 0.746062
O O7 0.385924 0.479317 0.535066
O O8 0.497964 0.531222 0.652588
O O9 0.803171 0.250000 0.193481
O O10 0.826464 0.498164 0.072694
O O11 0.073944 0.250000 0.287107
O O12 0.093622 0.030352 0.144803
O O13 0.165307 0.006171 0.314111
O O14 0.615848 0.750000 0.598109
O O15 0.677511 0.018771 0.633879
O O16 0.089888 0.250000 0.010141
O O17 0.000000 0.000000 0.000000
O O18 0.790147 0.250000 0.605354
#
# Coordination Sequence:
#
# PCOD9159535 Si02
#       7
#     4   4   4   4   4   4   4
#     4  12  23  36  56  83 114 150 188 226 275 334
#     4   9  19  34  54  82 114 147 183 226 278 330
#     4  11  21  35  57  84 117 149 183 229 278 330
#     4  11  24  41  58  79 110 150 191 232 276 330
#     4  10  19  33  55  82 112 147 185 227 275 333
#     4  11  23  38  59  82 110 146 189 235 279 327
#     4  12  24  38  56  81 115 151 186 230 282 336
#
# _framework density 17.155189
#
# number of rings (size 3 to 8) (size 9 to 14) (size 15 to 20)
#    0.000    1.143    2.857    4.714    0.000    2.857 
#    0.000    0.000    0.000    0.857    0.000    0.000 
#    0.000    0.000    0.000    0.000    0.000    0.000 
#
# Total GULP energy -156516.739183 kJ/mol
# GULP energy per Si atom -5589.883542 kJ/mol
# Density = 1.711614 g / cm^3
# Si number density = 17.155189 Si / 1000 Ang^3
#
#
#
# Elastic Constant Matrix: (Units=GPa)
#
#
# Indices 1 2 3 4 5 6 
#
# 1 102.0809 26.8099 27.1577 0.0000 -4.3806 0.0000
# 2 26.8099 62.3035 22.0295 0.0000 0.8172 0.0000
# 3 27.1577 22.0295 43.2405 0.0000 -3.7179 0.0000
# 4 0.0000 0.0000 0.0000 28.3839 0.0000 -0.5760
# 5 -4.3806 0.8172 -3.7179 0.0000 28.2422 0.0000
# 6 0.0000 0.0000 0.0000 -0.5760 0.0000 28.3237
#
#
#
# Elastic Compliance Matrix: (Units=1/GPa)
#
#
# Indices 1 2 3 4 5 6 
#
# 1 0.012276 -0.003182 -0.005985 0.000000 0.001208 0.000000
# 2 -0.003182 0.020503 -0.008638 0.000000 -0.002224 0.000000
# 3 -0.005985 -0.008638 0.031586 0.000000 0.003480 0.000000
# 4 0.000000 0.000000 0.000000 0.035246 0.000000 0.000717
# 5 0.001208 -0.002224 0.003480 0.000000 0.036118 0.000000
# 6 0.000000 0.000000 0.000000 0.000717 0.000000 0.035321
#
#
# Mechanical properties :
#
#
# Convention : Reuss Voigt Hill
#
# Bulk Modulus (GPa) = 34.77793 39.95767 37.36780
# Shear Modulus (GPa) = 23.12194 25.76515 24.44355
#
# Velocity S-wave (km/s) = 3.67524 3.87962 3.77881
# Velocity P-wave (km/s) = 6.19083 6.58871 6.39287
#
# Compressibility (1/GPa) = 0.02875387
#
# Stress axis : x y z
#
# Youngs Moduli (GPa) = 81.45976 48.77257 31.66008
#
# Poissons Ratio (x) = 0.15520 0.18949
# Poissons Ratio (y) = 0.25922 0.27349
# Poissons Ratio (z) = 0.48754 0.42131
#
# Static dielectric constant tensor:
#      x y z
#    x 1.584000 0.000000 -0.013990 
#    y 0.000000 1.572410 0.000000 
#    z -0.013990 0.000000 1.556740 
# 
# From -- ./inp_files/37456.got.cif
#   From: 2010.05.17/outbox.cif.g08.bks.cpg/sg11_19_cif.got.tgz:37456.got - 2010.06.03 12:22:45.
