data_PCOD9159266
_publ_section_title
;
Structure prediction by ZEFSAII (Michael W. Deem and Ramdas Pophale) SiO2 
 PCOD9159266
Probable space group: P 21/M
;
_chemical_formula_sum "Si O2"
_cell_formula_units_Z 32
_cell_length_a 32.185034
_cell_length_b 8.505479
_cell_length_c 12.402180
_cell_angle_alpha 90.000000
_cell_angle_beta 150.007613
_cell_angle_gamma 90.000000
_cell_volume 1697.152308
_symmetry_space_group_name_H-M "P 21/M"
_symmetry_group_IT_number 11
_symmetry_cell_setting 'monoclinic'
loop_
_space_group_symop_operation_xyz
x,y,z
-x,1/2+y,-z
-x,-y,-z
x,1/2-y,z
loop_
_atom_site_type_symbol
_atom_site_label
_atom_site_fract_x
_atom_site_fract_y
_atom_site_fract_z
Si Si1 0.593812 0.060153 0.703485
Si Si2 0.254815 0.939889 0.815207
Si Si3 0.283265 0.060099 0.650453
Si Si4 0.776437 0.561977 0.718616
Si Si5 0.472849 0.060337 0.055696
Si Si6 0.923823 0.061766 0.187769
Si Si7 0.631182 0.060106 0.547398
Si Si8 0.105604 0.560120 0.634585
O O1 0.591084 0.250000 0.699141
O O2 0.633172 0.012858 0.676743
O O3 0.500000 0.000000 0.500000
O O4 0.655768 0.006346 0.937219
O O5 0.255171 0.750000 0.815599
O O6 0.182840 0.992098 0.735750
O O7 0.240853 0.999337 0.663343
O O8 0.282414 0.250000 0.649530
O O9 0.243854 0.007172 0.448570
O O10 0.379534 0.006311 0.869779
O O11 0.776498 0.750000 0.717890
O O12 0.704034 0.505661 0.636700
O O13 0.863303 0.501412 0.960093
O O14 0.472028 0.250000 0.051833
O O15 0.542320 0.011030 0.297849
O O16 0.500000 0.000000 0.000000
O O17 0.923801 0.250000 0.185307
O O18 0.889725 0.010693 0.229427
O O19 0.017850 0.000677 0.392655
O O20 0.636521 0.250000 0.555405
O O21 0.104466 0.750000 0.631207
#
# Coordination Sequence:
#
# PCOD9159266 Si02
#       8
#     4   4   4   4   4   4   4   4
#     4  10  21  37  55  80 113 147 184 227 275 325
#     4  10  21  37  58  81 109 148 188 226 271 327
#     4  10  22  38  54  77 111 148 187 233 276 322
#     4  11  22  36  55  81 112 144 182 229 278 326
#     4  10  19  33  52  75 105 143 184 228 274 319
#     4  10  20  36  61  89 116 142 174 222 277 333
#     4  10  20  34  55  79 108 145 184 230 282 331
#     4   9  19  38  61  86 114 143 178 223 274 328
#
# _framework density 18.855112999999999
#
# number of rings (size 3 to 8) (size 9 to 14) (size 15 to 20)
#    0.000    2.000    1.250    2.250    0.000    6.500 
#    0.000    1.875    0.000    0.000    0.000    0.000 
#    0.000    0.000    0.000    0.000    0.000    0.000 
#
# Total GULP energy -178707.731922 kJ/mol
# GULP energy per Si atom -5584.616623 kJ/mol
# Density = 1.881220 g / cm^3
# Si number density = 18.855113 Si / 1000 Ang^3
#
#
#
# Elastic Constant Matrix: (Units=GPa)
#
#
# Indices 1 2 3 4 5 6 
#
# 1 111.7354 13.5295 54.6531 0.0000 -3.0035 0.0000
# 2 13.5295 5.0540 17.8380 0.0000 -0.4368 0.0000
# 3 54.6531 17.8380 122.3365 0.0000 -11.1233 0.0000
# 4 0.0000 0.0000 0.0000 28.5640 0.0000 2.5952
# 5 -3.0035 -0.4368 -11.1233 0.0000 30.0359 0.0000
# 6 0.0000 0.0000 0.0000 2.5952 0.0000 27.1317
#
#
#
# Elastic Compliance Matrix: (Units=1/GPa)
#
#
# Indices 1 2 3 4 5 6 
#
# 1 0.013387 -0.030510 -0.001501 0.000000 0.000339 0.000000
# 2 -0.030510 0.485402 -0.058761 0.000000 -0.017753 0.000000
# 3 -0.001501 -0.058761 0.017925 0.000000 0.005634 0.000000
# 4 0.000000 0.000000 0.000000 0.035316 0.000000 -0.003378
# 5 0.000339 -0.017753 0.005634 0.000000 0.035156 0.000000
# 6 0.000000 0.000000 0.000000 -0.003378 0.000000 0.037180
#
#
# Mechanical properties :
#
#
# Convention : Reuss Voigt Hill
#
# Bulk Modulus (GPa) = 2.98356 45.68521 24.33438
# Shear Modulus (GPa) = 5.44879 27.35334 16.40107
#
# Velocity S-wave (km/s) = 1.70179 3.81295 2.95252
# Velocity P-wave (km/s) = 2.33394 6.60810 4.95552
#
# Compressibility (1/GPa) = 0.33517016
#
# Stress axis : x y z
#
# Youngs Moduli (GPa) = 74.69681 2.06015 55.78809
#
# Poissons Ratio (x) = 0.06286 0.08375
# Poissons Ratio (y) = 2.27904 3.27815
# Poissons Ratio (z) = 0.11213 0.12106
#
# Static dielectric constant tensor:
#      x y z
#    x 1.639020 0.000000 -0.008400 
#    y 0.000000 1.647850 0.000000 
#    z -0.008400 0.000000 1.647540 
# 
# From -- ./inp_files/42954.got.cif
#   From: 2010.05.17/outbox.cif.g08.bks.cpg/sg11_22_cif.got.tgz:42954.got - 2010.06.03 12:22:45.
