data_PCOD9159016
_publ_section_title
;
Structure prediction by ZEFSAII (Michael W. Deem and Ramdas Pophale) SiO2 
 PCOD9159016
Probable space group: P 21/M
;
_chemical_formula_sum "Si O2"
_cell_formula_units_Z 32
_cell_length_a 21.266150
_cell_length_b 7.856009
_cell_length_c 14.783285
_cell_angle_alpha 90.000000
_cell_angle_beta 43.597052
_cell_angle_gamma 90.000000
_cell_volume 1703.130354
_symmetry_space_group_name_H-M "P 21/M"
_symmetry_group_IT_number 11
_symmetry_cell_setting 'monoclinic'
loop_
_space_group_symop_operation_xyz
x,y,z
-x,1/2+y,-z
-x,-y,-z
x,1/2-y,z
loop_
_atom_site_type_symbol
_atom_site_label
_atom_site_fract_x
_atom_site_fract_y
_atom_site_fract_z
Si Si1 0.522765 0.544543 0.579631
Si Si2 0.808907 0.043478 0.856101
Si Si3 0.103718 0.544310 0.417031
Si Si4 0.816059 0.452002 0.133298
Si Si5 0.151599 0.948786 0.566398
Si Si6 0.335192 0.541529 0.852988
Si Si7 0.962271 0.455496 0.845767
Si Si8 0.275714 0.051615 0.591925
O O1 0.500000 0.500000 0.500000
O O2 0.524235 0.750000 0.585950
O O3 0.437805 0.482865 0.728636
O O4 0.622809 0.477506 0.501430
O O5 0.805821 0.250000 0.856134
O O6 0.832301 0.982146 0.731548
O O7 0.892413 0.002156 0.836790
O O8 0.716510 0.986721 0.001947
O O9 0.108684 0.750000 0.414391
O O10 0.131197 0.479788 0.487649
O O11 0.000000 0.500000 0.500000
O O12 0.818874 0.250000 0.115778
O O13 0.730537 0.513966 0.161534
O O14 0.793676 0.482140 0.260386
O O15 0.910186 0.516018 0.990809
O O16 0.171874 0.750000 0.536105
O O17 0.233770 0.028415 0.536955
O O18 0.059703 0.969566 0.720790
O O19 0.336037 0.750000 0.851610
O O20 0.973120 0.250000 0.836923
O O21 0.282384 0.250000 0.605221
#
# Coordination Sequence:
#
# PCOD9159016 Si02
#       8
#     4   4   4   4   4   4   4   4
#     4  10  19  32  53  78 100 127 166 207 251 295
#     4   8  14  27  50  77 101 125 157 199 247 298
#     4  10  19  32  53  78 100 127 166 207 251 295
#     4   9  17  31  52  75 100 133 168 203 247 297
#     4  11  23  35  49  72 102 138 172 206 250 297
#     4   8  14  27  50  77 101 125 157 199 247 298
#     4   9  17  31  52  75 100 133 168 203 247 297
#     4  11  23  35  49  72 102 138 172 206 250 297
#
# _framework density 18.788931000000002
#
# number of rings (size 3 to 8) (size 9 to 14) (size 15 to 20)
#    0.000    2.500    2.500    2.250    0.000    2.000 
#    0.000    0.000    0.000    1.500    0.000    0.000 
#    0.000    0.000    0.000    0.000    0.000    0.250 
#
# Total GULP energy -178457.468666 kJ/mol
# GULP energy per Si atom -5576.795896 kJ/mol
# Density = 1.874617 g / cm^3
# Si number density = 18.788931 Si / 1000 Ang^3
#
#
#
# Elastic Constant Matrix: (Units=GPa)
#
#
# Indices 1 2 3 4 5 6 
#
# 1 93.1969 -9.7040 60.4473 0.0000 6.5054 0.0000
# 2 -9.7040 13.2952 -5.0164 0.0000 0.1634 0.0000
# 3 60.4473 -5.0164 132.5471 0.0000 5.4580 0.0000
# 4 0.0000 0.0000 0.0000 12.1346 0.0000 0.5751
# 5 6.5054 0.1634 5.4580 0.0000 21.3283 0.0000
# 6 0.0000 0.0000 0.0000 0.5751 0.0000 12.8453
#
#
#
# Elastic Compliance Matrix: (Units=1/GPa)
#
#
# Indices 1 2 3 4 5 6 
#
# 1 0.016505 0.009434 -0.007034 0.000000 -0.003307 0.000000
# 2 0.009434 0.081734 -0.001076 0.000000 -0.003228 0.000000
# 3 -0.007034 -0.001076 0.010736 0.000000 -0.000594 0.000000
# 4 0.000000 0.000000 0.000000 0.082584 0.000000 -0.003697
# 5 -0.003307 -0.003228 -0.000594 0.000000 0.048071 0.000000
# 6 0.000000 0.000000 0.000000 -0.003697 0.000000 0.078015
#
#
# Mechanical properties :
#
#
# Convention : Reuss Voigt Hill
#
# Bulk Modulus (GPa) = 8.95874 36.72144 22.84009
# Shear Modulus (GPa) = 14.19625 22.14914 18.17270
#
# Velocity S-wave (km/s) = 2.75174 3.43715 3.11336
# Velocity P-wave (km/s) = 3.85675 5.94463 5.01064
#
# Compressibility (1/GPa) = 0.11162288
#
# Stress axis : x y z
#
# Youngs Moduli (GPa) = 60.58699 12.23479 93.14463
#
# Poissons Ratio (x) = -0.11542 0.65517
# Poissons Ratio (y) = -0.57155 0.10021
# Poissons Ratio (z) = 0.42616 0.01316
#
# Static dielectric constant tensor:
#      x y z
#    x 1.641820 0.000000 0.002640 
#    y 0.000000 1.701840 0.000000 
#    z 0.002640 0.000000 1.688950 
# 
# From -- ./inp_files/54253.got.cif
#   From: 2010.05.17/outbox.cif.g08.bks.cpg/sg11_28_cif.got.tgz:54253.got - 2010.06.03 12:22:45.
