data_PCOD9159366
_publ_section_title
;
Structure prediction by ZEFSAII (Michael W. Deem and Ramdas Pophale) SiO2 
 PCOD9159366
Probable space group: P 21/M
;
_chemical_formula_sum "Si O2"
_cell_formula_units_Z 32
_cell_length_a 23.904272
_cell_length_b 8.586007
_cell_length_c 21.382261
_cell_angle_alpha 90.000000
_cell_angle_beta 155.943774
_cell_angle_gamma 90.000000
_cell_volume 1788.914783
_symmetry_space_group_name_H-M "P 21/M"
_symmetry_group_IT_number 11
_symmetry_cell_setting 'monoclinic'
loop_
_space_group_symop_operation_xyz
x,y,z
-x,1/2+y,-z
-x,-y,-z
x,1/2-y,z
loop_
_atom_site_type_symbol
_atom_site_label
_atom_site_fract_x
_atom_site_fract_y
_atom_site_fract_z
Si Si1 0.041661 0.936976 0.166242
Si Si2 0.479006 0.562458 0.631553
Si Si3 0.830521 0.936359 0.456713
Si Si4 0.278539 0.939598 0.316504
Si Si5 0.087818 0.562308 0.648109
Si Si6 0.741290 0.064722 0.844915
Si Si7 0.345626 0.936794 0.839528
Si Si8 0.750667 0.437265 0.509312
O O1 0.024345 0.750000 0.145810
O O2 0.134363 0.984676 0.201303
O O3 0.131217 0.972375 0.319204
O O4 0.895717 0.017148 0.017515
O O5 0.477242 0.750000 0.629293
O O6 0.396423 0.508936 0.484987
O O7 0.632342 0.503476 0.782021
O O8 0.391112 0.512349 0.602012
O O9 0.822750 0.750000 0.442956
O O10 0.990087 0.984302 0.606259
O O11 0.732977 0.008667 0.303574
O O12 0.781584 0.987541 0.474720
O O13 0.281408 0.750000 0.318755
O O14 0.291661 0.995375 0.259121
O O15 0.089967 0.750000 0.649136
O O16 0.244284 0.511752 0.793505
O O17 0.000000 0.500000 0.500000
O O18 0.728657 0.250000 0.831493
O O19 0.351958 0.750000 0.846262
O O20 0.500000 0.000000 0.000000
O O21 0.746516 0.250000 0.497738
#
# Coordination Sequence:
#
# PCOD9159366 Si02
#       8
#     4   4   4   4   4   4   4   4
#     4   9  18  34  52  68  93 130 167 204 249 299
#     4   9  18  34  52  68  94 132 168 202 246 301
#     4  10  19  33  55  79 102 131 166 204 250 298
#     4   8  16  31  50  71  94 124 164 207 250 302
#     4   8  16  30  49  74 102 131 161 195 235 280
#     4  11  20  29  46  75 103 123 155 206 259 305
#     4  10  19  33  53  79 111 140 168 203 243 287
#     4   9  19  36  55  72  92 127 174 211 240 288
#
# _framework density 17.88794
#
# number of rings (size 3 to 8) (size 9 to 14) (size 15 to 20)
#    0.000    2.750    0.000    3.375    0.000    2.000 
#    0.000    4.375    0.000    3.000    0.000    0.000 
#    0.000    0.000    0.000    0.000    0.000    0.000 
#
# Total GULP energy -178307.121489 kJ/mol
# GULP energy per Si atom -5572.097547 kJ/mol
# Density = 1.784723 g / cm^3
# Si number density = 17.887940 Si / 1000 Ang^3
#
#
#
# Elastic Constant Matrix: (Units=GPa)
#
#
# Indices 1 2 3 4 5 6 
#
# 1 119.3825 25.7554 50.9308 0.0000 31.5146 0.0000
# 2 25.7554 18.6678 19.6552 0.0000 8.2958 0.0000
# 3 50.9308 19.6552 91.5883 0.0000 43.6430 0.0000
# 4 0.0000 0.0000 0.0000 23.7115 0.0000 -0.2284
# 5 31.5146 8.2958 43.6430 0.0000 27.3920 0.0000
# 6 0.0000 0.0000 0.0000 -0.2284 0.0000 22.7077
#
#
#
# Elastic Compliance Matrix: (Units=1/GPa)
#
#
# Indices 1 2 3 4 5 6 
#
# 1 0.015345 -0.017199 0.004520 0.000000 -0.019648 0.000000
# 2 -0.017199 0.089325 -0.025515 0.000000 0.033387 0.000000
# 3 0.004520 -0.025515 0.052646 0.000000 -0.081353 0.000000
# 4 0.000000 0.000000 0.000000 0.042178 0.000000 0.000424
# 5 -0.019648 0.033387 -0.081353 0.000000 0.178619 0.000000
# 6 0.000000 0.000000 0.000000 0.000424 0.000000 0.044042
#
#
# Mechanical properties :
#
#
# Convention : Reuss Voigt Hill
#
# Bulk Modulus (GPa) = 12.35653 46.92460 29.64057
# Shear Modulus (GPa) = 9.51442 23.64872 16.58157
#
# Velocity S-wave (km/s) = 2.30878 3.63994 3.04792
# Velocity P-wave (km/s) = 3.74566 6.62986 5.38447
#
# Compressibility (1/GPa) = 0.08092885
#
# Stress axis : x y z
#
# Youngs Moduli (GPa) = 65.16694 11.19510 18.99471
#
# Poissons Ratio (x) = 0.19255 -0.08586
# Poissons Ratio (y) = 1.12083 0.48464
# Poissons Ratio (z) = -0.29457 0.28564
#
# Static dielectric constant tensor:
#      x y z
#    x 1.617570 0.000000 0.030900 
#    y 0.000000 1.612340 0.000000 
#    z 0.030900 0.000000 1.607410 
# 
# From -- ./inp_files/69999.got.cif
#   From: 2010.05.17/outbox.cif.g08.bks.cpg/sg11_35_cif.got.tgz:69999.got - 2010.06.03 12:22:45.
