data_PCOD9159935
_publ_section_title
;
Structure prediction by ZEFSAII (Michael W. Deem and Ramdas Pophale) SiO2 
 PCOD9159935
Probable space group: P 21/M
;
_chemical_formula_sum "Si O2"
_cell_formula_units_Z 32
_cell_length_a 31.527844
_cell_length_b 7.454511
_cell_length_c 12.147074
_cell_angle_alpha 90.000000
_cell_angle_beta 150.270485
_cell_angle_gamma 90.000000
_cell_volume 1415.743346
_symmetry_space_group_name_H-M "P 21/M"
_symmetry_group_IT_number 11
_symmetry_cell_setting 'monoclinic'
loop_
_space_group_symop_operation_xyz
x,y,z
-x,1/2+y,-z
-x,-y,-z
x,1/2-y,z
loop_
_atom_site_type_symbol
_atom_site_label
_atom_site_fract_x
_atom_site_fract_y
_atom_site_fract_z
Si Si1 0.729560 0.549044 0.950743
Si Si2 0.821387 0.970182 0.359339
Si Si3 0.424534 0.963447 0.245513
Si Si4 0.472346 0.045709 0.107398
Si Si5 0.661821 0.039941 0.560402
Si Si6 0.817457 0.040453 0.771177
Si Si7 0.287516 0.467688 0.678157
Si Si8 0.001347 0.465253 0.133592
O O1 0.754208 0.750000 0.973728
O O2 0.656021 0.550280 0.877168
O O3 0.687065 0.467264 0.746257
O O4 0.804594 0.467876 0.195916
O O5 0.820118 0.750000 0.354011
O O6 0.748627 0.025456 0.284289
O O7 0.912021 0.029007 0.613406
O O8 0.412496 0.750000 0.205383
O O9 0.500000 0.000000 0.500000
O O10 0.450245 0.046175 0.187371
O O11 0.477360 0.250000 0.076481
O O12 0.567729 0.963922 0.317979
O O13 0.383018 0.965731 0.861259
O O14 0.655560 0.250000 0.517774
O O15 0.742233 0.960480 0.676447
O O16 0.824752 0.250000 0.819015
O O17 0.781057 0.026624 0.565980
O O18 0.912952 0.964340 0.986511
O O19 0.290981 0.250000 0.686782
O O20 0.000984 0.250000 0.144780
O O21 0.000000 0.500000 0.000000
#
# Coordination Sequence:
#
# PCOD9159935 Si02
#       8
#     4   4   4   4   4   4   4   4
#     4  11  21  36  57  82 111 146 191 231 276 330
#     4   9  18  33  55  84 114 140 173 228 289 334
#     4  12  22  32  51  80 112 145 185 231 276 322
#     4  10  20  35  54  77 109 150 190 227 273 326
#     4  10  22  39  55  75 111 155 191 227 274 327
#     4  10  22  38  56  81 112 146 186 231 280 336
#     4  10  19  34  56  82 111 145 182 227 280 332
#     4  10  19  35  59  84 110 141 178 226 284 338
#
# _framework density 22.602965999999999
#
# number of rings (size 3 to 8) (size 9 to 14) (size 15 to 20)
#    0.000    1.750    3.750    1.500    0.000    1.500 
#    0.000    1.875    0.000    0.000    0.000    0.000 
#    0.000    0.000    0.000    0.000    0.000    0.000 
#
# Total GULP energy -178565.455483 kJ/mol
# GULP energy per Si atom -5580.170484 kJ/mol
# Density = 2.255152 g / cm^3
# Si number density = 22.602966 Si / 1000 Ang^3
#
#
#
# Elastic Constant Matrix: (Units=GPa)
#
#
# Indices 1 2 3 4 5 6 
#
# 1 62.4984 -4.8511 20.1990 0.0000 31.1228 0.0000
# 2 -4.8511 85.7941 1.7065 0.0000 9.0957 0.0000
# 3 20.1990 1.7065 156.9034 0.0000 35.6498 0.0000
# 4 0.0000 0.0000 0.0000 -10.4192 0.0000 -8.8421
# 5 31.1228 9.0957 35.6498 0.0000 37.3644 0.0000
# 6 0.0000 0.0000 0.0000 -8.8421 0.0000 7.3059
#
#
#
# Elastic Compliance Matrix: (Units=1/GPa)
#
#
# Indices 1 2 3 4 5 6 
#
# 1 0.029568 0.004609 0.002546 0.000000 -0.028180 0.000000
# 2 0.004609 0.012740 0.001079 0.000000 -0.007970 0.000000
# 3 0.002546 0.001079 0.008395 0.000000 -0.010394 0.000000
# 4 0.000000 0.000000 0.000000 -0.047347 0.000000 -0.057303
# 5 -0.028180 -0.007970 -0.010394 0.000000 0.062093 0.000000
# 6 0.000000 0.000000 0.000000 -0.057303 0.000000 0.067523
#
#
# Mechanical properties :
#
#
# Convention : Reuss Voigt Hill
#
# Bulk Modulus (GPa) = 14.88720 37.70052 26.29386
# Shear Modulus (GPa) = 35.99834 26.05967 31.02901
#
# Velocity S-wave (km/s) = 3.99512 3.39917 3.70913
# Velocity P-wave (km/s) = 5.28034 5.66758 5.47738
#
# Compressibility (1/GPa) = 0.06717179
#
# Stress axis : x y z
#
# Youngs Moduli (GPa) = 33.81979 78.49359 119.11358
#
# Poissons Ratio (x) = -0.36177 -0.30329
# Poissons Ratio (y) = -0.15587 -0.12851
# Poissons Ratio (z) = -0.08611 -0.08469
#
# Static dielectric constant tensor:
#      x y z
#    x 1.820220 0.000000 0.015690 
#    y 0.000000 1.903050 0.000000 
#    z 0.015690 0.000000 1.936790 
# 
# From -- ./inp_files/45253.got.cif
#   From: 2010.05.17/outbox.cif.g08.bks.cpg/sg11_23_cif.got.tgz:45253.got - 2010.06.03 12:22:45.
