data_PCOD9159340
_publ_section_title
;
Structure prediction by ZEFSAII (Michael W. Deem and Ramdas Pophale) SiO2 
 PCOD9159340
Probable space group: P 21/M
;
_chemical_formula_sum "Si O2"
_cell_formula_units_Z 28
_cell_length_a 9.418476
_cell_length_b 8.871998
_cell_length_c 30.268848
_cell_angle_alpha 90.000000
_cell_angle_beta 38.741671
_cell_angle_gamma 90.000000
_cell_volume 1582.852796
_symmetry_space_group_name_H-M "P 21/M"
_symmetry_group_IT_number 11
_symmetry_cell_setting 'monoclinic'
loop_
_space_group_symop_operation_xyz
x,y,z
-x,1/2+y,-z
-x,-y,-z
x,1/2-y,z
loop_
_atom_site_type_symbol
_atom_site_label
_atom_site_fract_x
_atom_site_fract_y
_atom_site_fract_z
Si Si1 0.935485 0.429379 0.783673
Si Si2 0.441592 0.929740 0.061049
Si Si3 0.652278 0.569826 0.371526
Si Si4 0.995777 0.430833 0.635635
Si Si5 0.248857 0.568395 0.936725
Si Si6 0.631795 0.571442 0.780874
Si Si7 0.841242 0.569268 0.500998
O O1 0.902943 0.250000 0.781953
O O2 0.817193 0.458206 0.859306
O O3 0.791354 0.523037 0.783188
O O4 0.196759 0.461106 0.708984
O O5 0.474908 0.750000 0.051845
O O6 0.603977 0.001544 0.058744
O O7 0.500000 0.000000 0.000000
O O8 0.612283 0.750000 0.383545
O O9 0.416110 0.485012 0.430217
O O10 0.812595 0.527320 0.374415
O O11 0.982332 0.250000 0.639798
O O12 0.753191 0.494387 0.709970
O O13 0.071861 0.479606 0.568635
O O14 0.243591 0.750000 0.941044
O O15 0.381746 0.527801 0.858924
O O16 0.000000 0.500000 0.000000
O O17 0.637147 0.750000 0.773626
O O18 0.851567 0.750000 0.500323
O O19 0.000000 0.500000 0.500000
#
# Coordination Sequence:
#
# PCOD9159340 Si02
#       7
#     4   4   4   4   4   4   4
#     4   8  16  31  51  74 102 134 167 205 254 304
#     4  10  19  33  53  77 106 140 175 213 256 305
#     4   9  17  33  56  79 100 126 165 210 250 297
#     4   9  19  35  55  77 101 131 168 206 250 303
#     4  10  20  34  52  77 106 137 173 214 260 309
#     4   9  17  29  50  78 103 127 165 214 255 292
#     4  11  23  37  52  74 104 137 168 202 249 302
#
# _framework density 17.689578999999998
#
# number of rings (size 3 to 8) (size 9 to 14) (size 15 to 20)
#    0.000    2.571    0.000    3.000    0.000    5.714 
#    0.000    1.429    0.000    1.714    0.000    0.000 
#    0.000    0.000    0.000    0.000    0.000    0.000 
#
# Total GULP energy -156016.740212 kJ/mol
# GULP energy per Si atom -5572.026436 kJ/mol
# Density = 1.764932 g / cm^3
# Si number density = 17.689579 Si / 1000 Ang^3
#
#
#
# Elastic Constant Matrix: (Units=GPa)
#
#
# Indices 1 2 3 4 5 6 
#
# 1 60.3724 28.9179 75.7800 0.0000 1.7499 0.0000
# 2 28.9179 43.8963 62.0266 0.0000 -1.0892 0.0000
# 3 75.7800 62.0266 208.5100 0.0000 0.1460 0.0000
# 4 0.0000 0.0000 0.0000 34.3656 0.0000 -0.6271
# 5 1.7499 -1.0892 0.1460 0.0000 23.9585 0.0000
# 6 0.0000 0.0000 0.0000 -0.6271 0.0000 25.2485
#
#
#
# Elastic Compliance Matrix: (Units=1/GPa)
#
#
# Indices 1 2 3 4 5 6 
#
# 1 0.032186 -0.008183 -0.009261 0.000000 -0.002666 0.000000
# 2 -0.008183 0.041464 -0.009362 0.000000 0.002540 0.000000
# 3 -0.009261 -0.009362 0.010947 0.000000 0.000184 0.000000
# 4 0.000000 0.000000 0.000000 0.029112 0.000000 0.000723
# 5 -0.002666 0.002540 0.000184 0.000000 0.042048 0.000000
# 6 0.000000 0.000000 0.000000 0.000723 0.000000 0.039624
#
#
# Mechanical properties :
#
#
# Convention : Reuss Voigt Hill
#
# Bulk Modulus (GPa) = 32.27546 71.80307 52.03927
# Shear Modulus (GPa) = 19.28112 26.45147 22.86629
#
# Velocity S-wave (km/s) = 3.30505 3.87112 3.59923
# Velocity P-wave (km/s) = 5.73145 7.78842 6.83773
#
# Compressibility (1/GPa) = 0.03098330
#
# Stress axis : x y z
#
# Youngs Moduli (GPa) = 31.06985 24.11741 91.35105
#
# Poissons Ratio (x) = 0.19735 0.84603
# Poissons Ratio (y) = 0.25424 0.85526
# Poissons Ratio (z) = 0.28775 0.22580
#
# Static dielectric constant tensor:
#      x y z
#    x 1.575030 0.000000 0.009910 
#    y 0.000000 1.607760 0.000000 
#    z 0.009910 0.000000 1.648570 
# 
# From -- ./inp_files/29013.got.cif
#   From: 2010.05.17/outbox.cif.g08.bks.cpg/sg11_15_cif.got.tgz:29013.got - 2010.06.03 12:22:45.
