data_PCOD9159650
_publ_section_title
;
Structure prediction by ZEFSAII (Michael W. Deem and Ramdas Pophale) SiO2 
 PCOD9159650
Probable space group: P 21/M
;
_chemical_formula_sum "Si O2"
_cell_formula_units_Z 32
_cell_length_a 14.229508
_cell_length_b 13.504007
_cell_length_c 12.170079
_cell_angle_alpha 90.000000
_cell_angle_beta 42.906986
_cell_angle_gamma 90.000000
_cell_volume 1592.105997
_symmetry_space_group_name_H-M "P 21/M"
_symmetry_group_IT_number 11
_symmetry_cell_setting 'monoclinic'
loop_
_space_group_symop_operation_xyz
x,y,z
-x,1/2+y,-z
-x,-y,-z
x,1/2-y,z
loop_
_atom_site_type_symbol
_atom_site_label
_atom_site_fract_x
_atom_site_fract_y
_atom_site_fract_z
Si Si1 0.660963 0.022816 0.377320
Si Si2 0.115764 0.365892 0.902242
Si Si3 0.129383 0.466411 0.124550
Si Si4 0.708928 0.571886 0.805802
Si Si5 0.584539 0.141051 0.890357
Si Si6 0.305677 0.638144 0.430636
Si Si7 0.097872 0.001696 0.521629
Si Si8 0.193200 0.637163 0.930112
O O1 0.679273 0.060397 0.485440
O O2 0.708757 0.110986 0.255634
O O3 0.500000 0.000000 0.500000
O O4 0.765412 0.933529 0.255063
O O5 0.151043 0.250000 0.865434
O O6 0.101558 0.399032 0.042062
O O7 0.965159 0.379624 0.975715
O O8 0.197902 0.407267 0.167047
O O9 0.993973 0.518237 0.292823
O O10 0.221583 0.556031 0.998948
O O11 0.670099 0.455021 0.852197
O O12 0.784823 0.576480 0.622808
O O13 0.567552 0.630730 0.930782
O O14 0.643636 0.250000 0.863903
O O15 0.577080 0.133132 0.763369
O O16 0.296103 0.750000 0.479993
O O17 0.169114 0.604158 0.482405
O O18 0.000000 0.000000 0.500000
O O19 0.207866 0.750000 0.953027
#
# Coordination Sequence:
#
# PCOD9159650 Si02
#       8
#     4   4   4   4   4   4   4   4
#     4  11  23  37  58  87 124 159 194 250 302 347
#     4  10  22  39  60  86 118 155 198 246 294 350
#     4  10  19  33  57  81 107 145 184 230 284 337
#     4   9  19  34  53  79 111 139 179 233 279 332
#     4   9  19  35  55  77 107 147 186 225 276 335
#     4  10  20  35  60  86 114 155 201 240 285 349
#     4   9  18  35  57  85 115 143 183 244 295 340
#     4  10  21  38  57  80 112 155 198 237 289 353
#
# _framework density 20.099164999999999
#
# number of rings (size 3 to 8) (size 9 to 14) (size 15 to 20)
#    0.000    2.250    0.000    3.375    3.500    3.500 
#    0.000    4.375    0.000    5.250    0.000    0.000 
#    0.000    0.000    0.000    0.000    0.000    0.000 
#
# Total GULP energy -178325.040904 kJ/mol
# GULP energy per Si atom -5572.657528 kJ/mol
# Density = 2.005342 g / cm^3
# Si number density = 20.099165 Si / 1000 Ang^3
#
#
#
# Elastic Constant Matrix: (Units=GPa)
#
#
# Indices 1 2 3 4 5 6 
#
# 1 58.1732 18.5026 21.9402 0.0000 3.6839 0.0000
# 2 18.5026 67.3723 8.8934 0.0000 10.0026 0.0000
# 3 21.9402 8.8934 108.4651 0.0000 0.8278 0.0000
# 4 0.0000 0.0000 0.0000 18.5891 0.0000 3.3873
# 5 3.6839 10.0026 0.8278 0.0000 25.4458 0.0000
# 6 0.0000 0.0000 0.0000 3.3873 0.0000 4.8454
#
#
#
# Elastic Compliance Matrix: (Units=1/GPa)
#
#
# Indices 1 2 3 4 5 6 
#
# 1 0.020200 -0.004934 -0.003675 0.000000 -0.000865 0.000000
# 2 -0.004934 0.017138 -0.000361 0.000000 -0.006011 0.000000
# 3 -0.003675 -0.000361 0.009990 0.000000 0.000349 0.000000
# 4 0.000000 0.000000 0.000000 0.061648 0.000000 -0.043097
# 5 -0.000865 -0.006011 0.000349 0.000000 0.041776 0.000000
# 6 0.000000 0.000000 0.000000 -0.043097 0.000000 0.236510
#
#
# Mechanical properties :
#
#
# Convention : Reuss Voigt Hill
#
# Bulk Modulus (GPa) = 34.02790 36.96477 35.49633
# Shear Modulus (GPa) = 12.04823 22.08769 17.06796
#
# Velocity S-wave (km/s) = 2.45100 3.31862 2.91724
# Velocity P-wave (km/s) = 4.99766 5.75460 5.38944
#
# Compressibility (1/GPa) = 0.02938765
#
# Stress axis : x y z
#
# Youngs Moduli (GPa) = 49.50454 58.34979 100.10142
#
# Poissons Ratio (x) = 0.28790 0.36786
# Poissons Ratio (y) = 0.24426 0.03616
# Poissons Ratio (z) = 0.18192 0.02108
#
# Static dielectric constant tensor:
#      x y z
#    x 1.738810 0.000000 -0.005170 
#    y 0.000000 1.702840 0.000000 
#    z -0.005170 0.000000 1.803610 
# 
# From -- ./inp_files/39648.got.cif
#   From: 2010.05.17/outbox.cif.g08.bks.cpg/sg11_20_cif.got.tgz:39648.got - 2010.06.03 12:22:45.
