data_PCOD9159278
_publ_section_title
;
Structure prediction by ZEFSAII (Michael W. Deem and Ramdas Pophale) SiO2 
 PCOD9159278
Probable space group: P 21/M
;
_chemical_formula_sum "Si O2"
_cell_formula_units_Z 24
_cell_length_a 9.418024
_cell_length_b 16.012910
_cell_length_c 9.182820
_cell_angle_alpha 90.000000
_cell_angle_beta 119.037439
_cell_angle_gamma 90.000000
_cell_volume 1210.787590
_symmetry_space_group_name_H-M "P 21/M"
_symmetry_group_IT_number 11
_symmetry_cell_setting 'monoclinic'
loop_
_space_group_symop_operation_xyz
x,y,z
-x,1/2+y,-z
-x,-y,-z
x,1/2-y,z
loop_
_atom_site_type_symbol
_atom_site_label
_atom_site_fract_x
_atom_site_fract_y
_atom_site_fract_z
Si Si1 0.518828 0.904229 0.458298
Si Si2 0.965594 0.152957 0.409017
Si Si3 0.825303 0.397683 0.620957
Si Si4 0.852050 0.653916 0.066297
Si Si5 0.146732 0.085781 0.246558
Si Si6 0.680588 0.651261 0.264544
O O1 0.349834 0.863237 0.420509
O O2 0.682094 0.872139 0.618556
O O3 0.553602 0.896195 0.303545
O O4 0.500000 0.000000 0.500000
O O5 0.920716 0.250000 0.393918
O O6 0.995224 0.125018 0.258536
O O7 0.144689 0.142039 0.569069
O O8 0.847452 0.102261 0.457075
O O9 0.843968 0.490689 0.694405
O O10 0.975678 0.347903 0.764086
O O11 0.818140 0.750000 0.007682
O O12 0.716578 0.625675 0.116424
O O13 0.864711 0.597460 0.930619
O O14 0.641110 0.750000 0.245575
#
# Coordination Sequence:
#
# PCOD9159278 Si02
#       6
#     4   4   4   4   4   4
#     4   9  19  34  52  76 102 131 169 208 251 301
#     4   9  17  31  51  75 101 134 172 210 249 300
#     4  10  19  33  52  77 104 135 169 208 256 304
#     4  10  20  35  53  75 101 134 174 213 251 302
#     4  10  19  34  54  77 103 135 172 211 253 300
#     4   8  16  31  51  70  97 137 171 198 247 311
#
# _framework density 19.821807
#
# number of rings (size 3 to 8) (size 9 to 14) (size 15 to 20)
#    0.000    2.667    0.000    3.000    0.000    3.333 
#    0.000    5.000    0.000    2.000    0.000    0.000 
#    0.000    0.000    0.000    0.000    0.000    0.000 
#
# Total GULP energy -133711.455244 kJ/mol
# GULP energy per Si atom -5571.310635 kJ/mol
# Density = 1.977669 g / cm^3
# Si number density = 19.821807 Si / 1000 Ang^3
#
#
#
# Elastic Constant Matrix: (Units=GPa)
#
#
# Indices 1 2 3 4 5 6 
#
# 1 152.2048 31.1858 50.7037 0.0000 -44.9112 0.0000
# 2 31.1858 45.9987 10.1466 0.0000 -24.7918 0.0000
# 3 50.7037 10.1466 61.5439 0.0000 -40.5087 0.0000
# 4 0.0000 0.0000 0.0000 26.1434 0.0000 -26.0648
# 5 -44.9112 -24.7918 -40.5087 0.0000 44.3349 0.0000
# 6 0.0000 0.0000 0.0000 -26.0648 0.0000 40.2378
#
#
#
# Elastic Compliance Matrix: (Units=1/GPa)
#
#
# Indices 1 2 3 4 5 6 
#
# 1 0.010183 -0.004349 -0.006230 0.000000 0.002191 0.000000
# 2 -0.004349 0.040677 0.022450 0.000000 0.038853 0.000000
# 3 -0.006230 0.022450 0.054664 0.000000 0.056189 0.000000
# 4 0.000000 0.000000 0.000000 0.107998 0.000000 0.069958
# 5 0.002191 0.038853 0.056189 0.000000 0.097842 0.000000
# 6 0.000000 0.000000 0.000000 0.069958 0.000000 0.070169
#
#
# Mechanical properties :
#
#
# Convention : Reuss Voigt Hill
#
# Bulk Modulus (GPa) = 7.73596 49.31328 28.52462
# Shear Modulus (GPa) = 12.47259 33.32397 22.89828
#
# Velocity S-wave (km/s) = 2.51118 4.10466 3.40252
# Velocity P-wave (km/s) = 3.50988 6.88452 5.46424
#
# Compressibility (1/GPa) = 0.12926639
#
# Stress axis : x y z
#
# Youngs Moduli (GPa) = 98.20164 24.58420 18.29344
#
# Poissons Ratio (x) = 0.10691 0.11397
# Poissons Ratio (y) = 0.42704 -0.41069
# Poissons Ratio (z) = 0.61182 -0.55191
#
# Static dielectric constant tensor:
#      x y z
#    x 1.745210 0.000000 -0.012920 
#    y 0.000000 1.660730 0.000000 
#    z -0.012920 0.000000 1.723220 
# 
# From -- ./inp_files/13134.got.cif
#   From: 2010.05.17/outbox.cif.g08.bks.cpg/sg11_7_cif.got.tgz:13134.got - 2010.06.03 12:22:45.
