data_PCOD9159794
_publ_section_title
;
Structure prediction by ZEFSAII (Michael W. Deem and Ramdas Pophale) SiO2 
 PCOD9159794
Probable space group: P 21/M
;
_chemical_formula_sum "Si O2"
_cell_formula_units_Z 32
_cell_length_a 19.437908
_cell_length_b 11.261482
_cell_length_c 15.994988
_cell_angle_alpha 90.000000
_cell_angle_beta 29.467779
_cell_angle_gamma 90.000000
_cell_volume 1722.407276
_symmetry_space_group_name_H-M "P 21/M"
_symmetry_group_IT_number 11
_symmetry_cell_setting 'monoclinic'
loop_
_space_group_symop_operation_xyz
x,y,z
-x,1/2+y,-z
-x,-y,-z
x,1/2-y,z
loop_
_atom_site_type_symbol
_atom_site_label
_atom_site_fract_x
_atom_site_fract_y
_atom_site_fract_z
Si Si1 0.756934 0.388104 0.537253
Si Si2 0.734697 0.889859 0.098305
Si Si3 0.975559 0.626275 0.129541
Si Si4 0.602434 0.388143 0.873848
Si Si5 0.583439 0.393395 0.558710
Si Si6 0.908924 0.112955 0.630792
Si Si7 0.785162 0.018138 0.213896
Si Si8 0.035173 0.964336 0.244673
O O1 0.794719 0.250000 0.486166
O O2 0.648843 0.395841 0.727915
O O3 0.682300 0.429412 0.531308
O O4 0.897434 0.458222 0.409222
O O5 0.744153 0.750000 0.074643
O O6 0.574972 0.930521 0.255709
O O7 0.770089 0.920370 0.157374
O O8 0.840372 0.954941 0.924150
O O9 0.905404 0.750000 0.182086
O O10 0.885453 0.523799 0.182906
O O11 0.992530 0.613999 0.210051
O O12 0.128101 0.618903 0.926025
O O13 0.550884 0.250000 0.942885
O O14 0.748372 0.400814 0.770464
O O15 0.500000 0.500000 0.000000
O O16 0.585597 0.250000 0.552021
O O17 0.643790 0.442938 0.408175
O O18 0.951857 0.250000 0.560398
O O19 0.919942 0.102364 0.719333
O O20 0.000000 0.000000 0.500000
#
# Coordination Sequence:
#
# PCOD9159794 Si02
#       8
#     4   4   4   4   4   4   4   4
#     4  10  20  37  60  85 117 154 194 241 295 359
#     4  10  22  35  55  84 114 151 197 249 296 355
#     4  10  20  33  52  80 110 144 190 236 284 340
#     4  10  23  43  65  93 126 162 202 249 301 366
#     4  10  20  35  55  82 114 151 196 242 298 358
#     4  11  24  42  66  94 126 160 202 252 305 368
#     4  10  19  34  54  77 109 152 190 240 295 344
#     4  11  21  38  59  85 117 150 193 240 297 350
#
# _framework density 18.57865
#
# number of rings (size 3 to 8) (size 9 to 14) (size 15 to 20)
#    0.000    1.750    2.500    1.875    1.750    1.000 
#    0.000    0.000    0.000    2.250    0.000    0.000 
#    0.000    0.000    0.000    0.000    0.000    0.000 
#
# Total GULP energy -178312.626380 kJ/mol
# GULP energy per Si atom -5572.269574 kJ/mol
# Density = 1.853636 g / cm^3
# Si number density = 18.578650 Si / 1000 Ang^3
#
#
#
# Elastic Constant Matrix: (Units=GPa)
#
#
# Indices 1 2 3 4 5 6 
#
# 1 82.6655 24.1813 15.1291 0.0000 10.3204 0.0000
# 2 24.1813 95.7750 47.1039 0.0000 -3.3913 0.0000
# 3 15.1291 47.1039 82.9307 0.0000 -4.0971 0.0000
# 4 0.0000 0.0000 0.0000 1066.2483 0.0000 597.5048
# 5 10.3204 -3.3913 -4.0971 0.0000 27.5490 0.0000
# 6 0.0000 0.0000 0.0000 597.5048 0.0000 368.1218
#
#
#
# Elastic Compliance Matrix: (Units=1/GPa)
#
#
# Indices 1 2 3 4 5 6 
#
# 1 0.013946 -0.003239 -0.000990 0.000000 -0.005770 0.000000
# 2 -0.003239 0.015249 -0.007977 0.000000 0.001904 0.000000
# 3 -0.000990 -0.007977 0.016863 0.000000 0.001897 0.000000
# 4 0.000000 0.000000 0.000000 0.010370 0.000000 -0.016832
# 5 -0.005770 0.001904 0.001897 0.000000 0.038977 0.000000
# 6 0.000000 0.000000 0.000000 -0.016832 0.000000 0.030037
#
#
# Mechanical properties :
#
#
# Convention : Reuss Voigt Hill
#
# Bulk Modulus (GPa) = 46.19267 48.24445 47.21856
# Shear Modulus (GPa) = 31.83311 304.04760 167.94035
#
# Velocity S-wave (km/s) = 4.14384 12.80662 9.51790
# Velocity P-wave (km/s) = 6.91466 15.64300 12.09372
#
# Compressibility (1/GPa) = 0.02164846
#
# Stress axis : x y z
#
# Youngs Moduli (GPa) = 71.70603 65.57691 59.30095
#
# Poissons Ratio (x) = 0.21238 0.05869
# Poissons Ratio (y) = 0.23223 0.47302
# Poissons Ratio (z) = 0.07097 0.52308
#
# Static dielectric constant tensor:
#      x y z
#    x 1.645890 0.000000 -0.006510 
#    y 0.000000 1.738130 0.000000 
#    z -0.006510 0.000000 1.633790 
# 
# From -- ./inp_files/53625.got.cif
#   From: 2010.05.17/outbox.cif.g08.bks.cpg/sg11_27_cif.got.tgz:53625.got - 2010.06.03 12:22:45.
