data_PCOD9159774
_publ_section_title
;
Structure prediction by ZEFSAII (Michael W. Deem and Ramdas Pophale) SiO2 
 PCOD9159774
Probable space group: P 21/M
;
_chemical_formula_sum "Si O2"
_cell_formula_units_Z 28
_cell_length_a 19.558598
_cell_length_b 8.656899
_cell_length_c 15.346983
_cell_angle_alpha 90.000000
_cell_angle_beta 37.492826
_cell_angle_gamma 90.000000
_cell_volume 1581.609755
_symmetry_space_group_name_H-M "P 21/M"
_symmetry_group_IT_number 11
_symmetry_cell_setting 'monoclinic'
loop_
_space_group_symop_operation_xyz
x,y,z
-x,1/2+y,-z
-x,-y,-z
x,1/2-y,z
loop_
_atom_site_type_symbol
_atom_site_label
_atom_site_fract_x
_atom_site_fract_y
_atom_site_fract_z
Si Si1 0.082537 0.567076 0.593621
Si Si2 0.472895 0.934258 0.433495
Si Si3 0.446539 0.431531 0.180066
Si Si4 0.242325 0.064552 0.280271
Si Si5 0.707917 0.065433 0.514339
Si Si6 0.161811 0.567885 0.178519
Si Si7 0.370223 0.433993 0.886911
O O1 0.063442 0.750000 0.603576
O O2 0.156880 0.509480 0.436625
O O3 0.161393 0.540993 0.598523
O O4 0.964413 0.482160 0.715255
O O5 0.481293 0.750000 0.430451
O O6 0.348748 0.970188 0.520826
O O7 0.559898 0.983621 0.269384
O O8 0.500000 0.000000 0.500000
O O9 0.472499 0.250000 0.146051
O O10 0.370643 0.484020 0.174736
O O11 0.359059 0.463585 0.347710
O O12 0.555448 0.521586 0.103335
O O13 0.238706 0.250000 0.292564
O O14 0.201517 0.014919 0.227033
O O15 0.685453 0.250000 0.554950
O O16 0.167677 0.750000 0.185742
O O17 0.250813 0.515048 0.016059
O O18 0.357061 0.250000 0.898414
#
# Coordination Sequence:
#
# PCOD9159774 Si02
#       7
#     4   4   4   4   4   4   4
#     4  10  19  34  54  73  99 136 176 215 251 290
#     4   9  18  33  56  84 107 127 155 195 245 301
#     4   9  17  30  50  74  99 129 167 211 253 293
#     4  10  20  34  51  73 101 134 175 217 254 294
#     4   8  16  31  51  75 102 133 166 200 244 296
#     4  12  24  35  49  71 100 135 175 216 256 297
#     4  10  21  37  53  72 102 136 168 202 250 308
#
# _framework density 17.703481
#
# number of rings (size 3 to 8) (size 9 to 14) (size 15 to 20)
#    0.000    2.286    0.000    4.286    0.000    5.714 
#    0.000    0.000    0.000    0.857    0.000    0.000 
#    0.000    0.000    0.000    0.000    0.000    0.000 
#
# Total GULP energy -156167.146438 kJ/mol
# GULP energy per Si atom -5577.398087 kJ/mol
# Density = 1.766319 g / cm^3
# Si number density = 17.703481 Si / 1000 Ang^3
#
#
#
# Elastic Constant Matrix: (Units=GPa)
#
#
# Indices 1 2 3 4 5 6 
#
# 1 106.6393 2.0081 37.6637 0.0000 7.5695 0.0000
# 2 2.0081 19.9088 0.2115 0.0000 1.1448 0.0000
# 3 37.6637 0.2115 62.4140 0.0000 -10.8357 0.0000
# 4 0.0000 0.0000 0.0000 24.8397 0.0000 -4.0210
# 5 7.5695 1.1448 -10.8357 0.0000 23.3576 0.0000
# 6 0.0000 0.0000 0.0000 -4.0210 0.0000 28.5187
#
#
#
# Elastic Compliance Matrix: (Units=1/GPa)
#
#
# Indices 1 2 3 4 5 6 
#
# 1 0.013408 -0.000746 -0.009611 0.000000 -0.008767 0.000000
# 2 -0.000746 0.050437 -0.000117 0.000000 -0.002285 0.000000
# 3 -0.009611 -0.000117 0.024323 0.000000 0.014404 0.000000
# 4 0.000000 0.000000 0.000000 0.041198 0.000000 0.005809
# 5 -0.008767 -0.002285 0.014404 0.000000 0.052448 0.000000
# 6 0.000000 0.000000 0.000000 0.005809 0.000000 0.035884
#
#
# Mechanical properties :
#
#
# Convention : Reuss Voigt Hill
#
# Bulk Modulus (GPa) = 14.87667 29.85876 22.36771
# Shear Modulus (GPa) = 19.15328 25.28179 22.21754
#
# Velocity S-wave (km/s) = 3.29278 3.78308 3.54641
# Velocity P-wave (km/s) = 4.78310 5.99874 5.42508
#
# Compressibility (1/GPa) = 0.06721936
#
# Stress axis : x y z
#
# Youngs Moduli (GPa) = 74.58169 19.82677 41.11408
#
# Poissons Ratio (x) = 0.01479 0.39513
# Poissons Ratio (y) = 0.05565 0.00482
# Poissons Ratio (z) = 0.71678 0.00233
#
# Static dielectric constant tensor:
#      x y z
#    x 1.626750 0.000000 -0.018410 
#    y 0.000000 1.736100 0.000000 
#    z -0.018410 0.000000 1.602740 
# 
# From -- ./inp_files/42580.got.cif
#   From: 2010.05.17/outbox.cif.g08.bks.cpg/sg11_22_cif.got.tgz:42580.got - 2010.06.03 12:22:45.
