data_PCOD9159916
_publ_section_title
;
Structure prediction by ZEFSAII (Michael W. Deem and Ramdas Pophale) SiO2 
 PCOD9159916
Probable space group: P 21/M
;
_chemical_formula_sum "Si O2"
_cell_formula_units_Z 30
_cell_length_a 21.698667
_cell_length_b 7.242973
_cell_length_c 8.102510
_cell_angle_alpha 90.000000
_cell_angle_beta 60.260515
_cell_angle_gamma 90.000000
_cell_volume 1105.692158
_symmetry_space_group_name_H-M "P 21/M"
_symmetry_group_IT_number 11
_symmetry_cell_setting 'monoclinic'
loop_
_space_group_symop_operation_xyz
x,y,z
-x,1/2+y,-z
-x,-y,-z
x,1/2-y,z
loop_
_atom_site_type_symbol
_atom_site_label
_atom_site_fract_x
_atom_site_fract_y
_atom_site_fract_z
Si Si1 0.562546 0.250000 0.172898
Si Si2 0.654154 0.046490 0.784541
Si Si3 0.919909 0.025362 0.470383
Si Si4 0.828137 0.039468 0.282956
Si Si5 0.782393 0.024225 0.815990
Si Si6 0.952516 0.532281 0.897375
Si Si7 0.702839 0.475269 0.247588
Si Si8 0.560840 0.473067 0.603178
O O1 0.509522 0.409992 0.315426
O O2 0.611443 0.092733 0.009440
O O3 0.670507 0.250000 0.688800
O O4 0.729660 0.965702 0.737604
O O5 0.598351 0.968670 0.728319
O O6 0.923867 0.250000 0.466241
O O7 0.875155 0.962048 0.367579
O O8 0.864460 0.967955 0.685554
O O9 0.000105 0.962011 0.320325
O O10 0.817097 0.250000 0.347293
O O11 0.752645 0.962450 0.331908
O O12 0.876715 0.043837 0.052611
O O13 0.782137 0.250000 0.814883
O O14 0.742522 0.960495 0.032039
O O15 0.944268 0.750000 0.889838
O O16 0.000000 0.500000 0.000000
O O17 0.703220 0.250000 0.238486
O O18 0.622080 0.520420 0.390041
O O19 0.549747 0.250000 0.619509
#
# Coordination Sequence:
#
# PCOD9159916 Si02
#       8
#     2   4   4   4   4   4   4   4
#     4  10  20  34  54  86 108 136 170 216 274 320
#     4   8  17  29  52  75 106 130 166 212 261 313
#     4   8  14  24  45  69  97 126 166 208 255 304
#     4   9  16  29  47  73  99 129 171 213 258 308
#     4   9  15  29  49  73  99 134 175 214 253 304
#     4   9  16  27  44  73 101 129 162 213 260 307
#     4   9  18  30  50  73 101 134 180 216 250 308
#     4  10  19  34  56  81 107 137 174 220 264 316
#
# _framework density 27.132327
#
# number of rings (size 3 to 8) (size 9 to 14) (size 15 to 20)
#    0.400    2.667    0.000    2.400    0.000    3.200 
#    1.200    1.333    0.000    0.800    8.667    0.000 
#    0.000    0.000    0.000    0.000    0.000    0.000 
#
# Total GULP energy -167161.689340 kJ/mol
# GULP energy per Si atom -5572.056311 kJ/mol
# Density = 2.707057 g / cm^3
# Si number density = 27.132327 Si / 1000 Ang^3
#
#
#
# Elastic Constant Matrix: (Units=GPa)
#
#
# Indices 1 2 3 4 5 6 
#
# 1 130.5642 12.3929 41.0519 0.0000 -27.4884 0.0000
# 2 12.3929 136.1633 14.1807 0.0000 -11.3768 0.0000
# 3 41.0519 14.1807 187.3291 0.0000 -46.6636 0.0000
# 4 0.0000 0.0000 0.0000 14.2841 0.0000 -1.7473
# 5 -27.4884 -11.3768 -46.6636 0.0000 55.8666 0.0000
# 6 0.0000 0.0000 0.0000 -1.7473 0.0000 -8.1999
#
#
#
# Elastic Compliance Matrix: (Units=1/GPa)
#
#
# Indices 1 2 3 4 5 6 
#
# 1 0.008730 -0.000406 -0.001052 0.000000 0.003334 0.000000
# 2 -0.000406 0.007498 -0.000187 0.000000 0.001171 0.000000
# 3 -0.001052 -0.000187 0.006875 0.000000 0.005187 0.000000
# 4 0.000000 0.000000 0.000000 0.068229 0.000000 -0.014539
# 5 0.003334 0.001171 0.005187 0.000000 0.024111 0.000000
# 6 0.000000 0.000000 0.000000 -0.014539 0.000000 -0.118855
#
#
# Mechanical properties :
#
#
# Convention : Reuss Voigt Hill
#
# Bulk Modulus (GPa) = 50.47125 65.47860 57.97493
# Shear Modulus (GPa) = 771.13077 38.15224 404.64151
#
# Velocity S-wave (km/s) = 16.87685 3.75394 12.22539
# Velocity P-wave (km/s) = 19.96029 6.55552 14.85577
#
# Compressibility (1/GPa) = 0.01981326
#
# Stress axis : x y z
#
# Youngs Moduli (GPa) = 114.54282 133.36157 145.45722
#
# Poissons Ratio (x) = 0.05421 0.15300
# Poissons Ratio (y) = 0.04656 0.02718
# Poissons Ratio (z) = 0.12048 0.02492
#
# Static dielectric constant tensor:
#      x y z
#    x 2.169800 0.000000 0.097300 
#    y 0.000000 2.090410 0.000000 
#    z 0.097300 0.000000 2.153600 
# 
# From -- ./inp_files/28045.got.cif
#   From: 2010.05.17/outbox.cif.g08.bks.cpg/sg11_15_cif.got.tgz:28045.got - 2010.06.03 12:22:45.
