data_PCOD9159836
_publ_section_title
;
Structure prediction by ZEFSAII (Michael W. Deem and Ramdas Pophale) SiO2 
 PCOD9159836
Probable space group: P 21/M
;
_chemical_formula_sum "Si O2"
_cell_formula_units_Z 28
_cell_length_a 17.966221
_cell_length_b 14.307880
_cell_length_c 8.096941
_cell_angle_alpha 90.000000
_cell_angle_beta 46.160179
_cell_angle_gamma 90.000000
_cell_volume 1501.261319
_symmetry_space_group_name_H-M "P 21/M"
_symmetry_group_IT_number 11
_symmetry_cell_setting 'monoclinic'
loop_
_space_group_symop_operation_xyz
x,y,z
-x,1/2+y,-z
-x,-y,-z
x,1/2-y,z
loop_
_atom_site_type_symbol
_atom_site_label
_atom_site_fract_x
_atom_site_fract_y
_atom_site_fract_z
Si Si1 0.242433 0.954608 0.973007
Si Si2 0.797339 0.858461 0.374823
Si Si3 0.419300 0.646268 0.851883
Si Si4 0.144710 0.980010 0.475707
Si Si5 0.383339 0.028905 0.493954
Si Si6 0.322319 0.859476 0.362161
Si Si7 0.063573 0.030733 0.062961
O O1 0.313109 0.866872 0.913072
O O2 0.324358 0.022796 0.758795
O O3 0.193151 0.986560 0.220702
O O4 0.145862 0.952829 0.996215
O O5 0.796211 0.750000 0.410774
O O6 0.684190 0.899899 0.512755
O O7 0.842304 0.920581 0.454241
O O8 0.867501 0.883173 0.106635
O O9 0.461049 0.750000 0.759798
O O10 0.502400 0.568788 0.674780
O O11 0.390184 0.635394 0.089883
O O12 0.212944 0.905835 0.476647
O O13 0.024696 0.951516 0.666490
O O14 0.370794 0.927186 0.426773
O O15 0.313177 0.750000 0.422201
O O16 0.000000 0.000000 0.000000
#
# Coordination Sequence:
#
# PCOD9159836 Si02
#       7
#     4   4   4   4   4   4   4
#     4  10  20  34  53  77 107 141 177 218 268 324
#     4   9  18  33  53  78 104 138 181 219 258 316
#     4  10  20  35  54  78 109 145 181 223 271 319
#     4   9  18  34  54  78 110 142 172 219 273 319
#     4  10  19  34  55  78 110 146 178 221 268 316
#     4   9  19  34  55  81 106 139 187 228 264 315
#     4   9  18  34  55  76 100 137 176 218 269 317
#
# _framework density 18.650983
#
# number of rings (size 3 to 8) (size 9 to 14) (size 15 to 20)
#    0.000    2.571    0.000    2.571    0.000    1.143 
#    0.000    6.429    0.000    4.286    0.000    0.000 
#    0.000    0.000    0.000    0.000    0.000    0.000 
#
# Total GULP energy -155895.147662 kJ/mol
# GULP energy per Si atom -5567.683845 kJ/mol
# Density = 1.860853 g / cm^3
# Si number density = 18.650983 Si / 1000 Ang^3
#
#
#
# Elastic Constant Matrix: (Units=GPa)
#
#
# Indices 1 2 3 4 5 6 
#
# 1 82.9016 36.6908 38.2884 0.0000 -11.2632 0.0000
# 2 36.6908 124.8951 40.9744 0.0000 -5.2240 0.0000
# 3 38.2884 40.9744 97.5414 0.0000 -5.5190 0.0000
# 4 0.0000 0.0000 0.0000 13.8509 0.0000 0.4217
# 5 -11.2632 -5.2240 -5.5190 0.0000 30.2449 0.0000
# 6 0.0000 0.0000 0.0000 0.4217 0.0000 11.4774
#
#
#
# Elastic Compliance Matrix: (Units=1/GPa)
#
#
# Indices 1 2 3 4 5 6 
#
# 1 0.016264 -0.002987 -0.004866 0.000000 0.004653 0.000000
# 2 -0.002987 0.009859 -0.002966 0.000000 0.000049 0.000000
# 3 -0.004866 -0.002966 0.013415 0.000000 0.000123 0.000000
# 4 0.000000 0.000000 0.000000 0.072278 0.000000 -0.002656
# 5 0.004653 0.000049 0.000123 0.000000 0.034827 0.000000
# 6 0.000000 0.000000 0.000000 -0.002656 0.000000 0.087225
#
#
# Mechanical properties :
#
#
# Convention : Reuss Voigt Hill
#
# Bulk Modulus (GPa) = 55.86671 59.69392 57.78031
# Shear Modulus (GPa) = 19.12225 23.74026 21.43125
#
# Velocity S-wave (km/s) = 3.20545 3.57160 3.39347
# Velocity P-wave (km/s) = 6.61201 7.00598 6.81184
#
# Compressibility (1/GPa) = 0.01789975
#
# Stress axis : x y z
#
# Youngs Moduli (GPa) = 61.48521 101.42559 74.54153
#
# Poissons Ratio (x) = 0.30294 0.36274
# Poissons Ratio (y) = 0.18365 0.22112
# Poissons Ratio (z) = 0.29920 0.30087
#
# Static dielectric constant tensor:
#      x y z
#    x 1.685900 0.000000 0.002370 
#    y 0.000000 1.612730 0.000000 
#    z 0.002370 0.000000 1.690420 
# 
# From -- ./inp_files/24908.got.cif
#   From: 2010.05.17/outbox.cif.g08.bks.cpg/sg11_13_cif.got.tgz:24908.got - 2010.06.03 12:22:45.
