data_PCOD9159261
_publ_section_title
;
Structure prediction by ZEFSAII (Michael W. Deem and Ramdas Pophale) SiO2 
 PCOD9159261
Probable space group: P 21/M
;
_chemical_formula_sum "Si O2"
_cell_formula_units_Z 24
_cell_length_a 9.509806
_cell_length_b 8.676207
_cell_length_c 19.050275
_cell_angle_alpha 90.000000
_cell_angle_beta 59.831296
_cell_angle_gamma 90.000000
_cell_volume 1358.916092
_symmetry_space_group_name_H-M "P 21/M"
_symmetry_group_IT_number 11
_symmetry_cell_setting 'monoclinic'
loop_
_space_group_symop_operation_xyz
x,y,z
-x,1/2+y,-z
-x,-y,-z
x,1/2-y,z
loop_
_atom_site_type_symbol
_atom_site_label
_atom_site_fract_x
_atom_site_fract_y
_atom_site_fract_z
Si Si1 0.145584 0.564542 0.009763
Si Si2 0.143413 0.435449 0.168671
Si Si3 0.844369 0.565402 0.331318
Si Si4 0.505860 0.064915 0.419253
Si Si5 0.501110 0.564632 0.920757
Si Si6 0.149016 0.064812 0.506383
O O1 0.136886 0.750000 0.014750
O O2 0.133874 0.498149 0.091518
O O3 0.325018 0.519534 0.934667
O O4 0.000000 0.500000 0.000000
O O5 0.133191 0.250000 0.170128
O O6 0.322795 0.481313 0.153459
O O7 0.996554 0.502824 0.250243
O O8 0.839715 0.750000 0.330195
O O9 0.671987 0.501435 0.346253
O O10 0.860490 0.517417 0.409252
O O11 0.515178 0.250000 0.418705
O O12 0.329104 0.020520 0.432933
O O13 0.500000 0.000000 0.500000
O O14 0.501896 0.750000 0.923551
O O15 0.500000 0.500000 0.000000
O O16 0.141451 0.250000 0.506769
O O17 0.000000 0.000000 0.500000
#
# Coordination Sequence:
#
# PCOD9159261 Si02
#       6
#     4   4   4   4   4   4
#     4  10  19  33  52  75 102 133 167 206 247 294
#     4  10  19  33  53  76  99 129 166 206 251 298
#     4  10  20  34  51  75 102 130 165 206 248 296
#     4   9  17  31  50  73  98 130 168 204 242 293
#     4   8  16  30  49  71  96 127 165 202 241 291
#     4   9  19  33  51  74 100 129 165 204 245 292
#
# _framework density 17.661135999999999
#
# number of rings (size 3 to 8) (size 9 to 14) (size 15 to 20)
#    0.000    2.667    0.000    3.000    0.000    5.333 
#    0.000    1.667    0.000    6.000    0.000    0.000 
#    0.000    0.000    0.000    0.000    0.000    0.000 
#
# Total GULP energy -133637.810115 kJ/mol
# GULP energy per Si atom -5568.242088 kJ/mol
# Density = 1.762094 g / cm^3
# Si number density = 17.661136 Si / 1000 Ang^3
#
#
#
# Elastic Constant Matrix: (Units=GPa)
#
#
# Indices 1 2 3 4 5 6 
#
# 1 158.8790 40.4175 68.5959 0.0000 -49.7604 0.0000
# 2 40.4175 47.0747 34.7270 0.0000 -17.5412 0.0000
# 3 68.5959 34.7270 112.8593 0.0000 -48.9513 0.0000
# 4 0.0000 0.0000 0.0000 26.2579 0.0000 -2.7186
# 5 -49.7604 -17.5412 -48.9513 0.0000 38.3496 0.0000
# 6 0.0000 0.0000 0.0000 -2.7186 0.0000 29.5091
#
#
#
# Elastic Compliance Matrix: (Units=1/GPa)
#
#
# Indices 1 2 3 4 5 6 
#
# 1 0.011584 -0.005277 0.000124 0.000000 0.012776 0.000000
# 2 -0.005277 0.030158 -0.006853 0.000000 -0.001801 0.000000
# 3 0.000124 -0.006853 0.021517 0.000000 0.024492 0.000000
# 4 0.000000 0.000000 0.000000 0.038451 0.000000 0.003542
# 5 0.012776 -0.001801 0.024492 0.000000 0.073092 0.000000
# 6 0.000000 0.000000 0.000000 0.003542 0.000000 0.034214
#
#
# Mechanical properties :
#
#
# Convention : Reuss Voigt Hill
#
# Bulk Modulus (GPa) = 25.47967 67.36597 46.42282
# Shear Modulus (GPa) = 20.31604 30.49483 25.40543
#
# Velocity S-wave (km/s) = 3.39532 4.15982 3.79686
# Velocity P-wave (km/s) = 5.46162 7.82934 6.75010
#
# Compressibility (1/GPa) = 0.03924698
#
# Stress axis : x y z
#
# Youngs Moduli (GPa) = 86.32366 33.15820 46.47540
#
# Poissons Ratio (x) = 0.17498 -0.00578
# Poissons Ratio (y) = 0.45554 0.31852
# Poissons Ratio (z) = -0.01073 0.22725
#
# Static dielectric constant tensor:
#      x y z
#    x 1.655360 0.000000 0.020900 
#    y 0.000000 1.597250 0.000000 
#    z 0.020900 0.000000 1.753500 
# 
# From -- ./inp_files/23728.got.cif
#   From: 2010.05.17/outbox.cif.g08.bks.cpg/sg11_12_cif.got.tgz:23728.got - 2010.06.03 12:22:45.
