data_PCOD9159825
_publ_section_title
;
Structure prediction by ZEFSAII (Michael W. Deem and Ramdas Pophale) SiO2 
 PCOD9159825
Probable space group: P 21/M
;
_chemical_formula_sum "Si O2"
_cell_formula_units_Z 32
_cell_length_a 12.577036
_cell_length_b 8.711518
_cell_length_c 21.799556
_cell_angle_alpha 90.000000
_cell_angle_beta 47.632726
_cell_angle_gamma 90.000000
_cell_volume 1764.698048
_symmetry_space_group_name_H-M "P 21/M"
_symmetry_group_IT_number 11
_symmetry_cell_setting 'monoclinic'
loop_
_space_group_symop_operation_xyz
x,y,z
-x,1/2+y,-z
-x,-y,-z
x,1/2-y,z
loop_
_atom_site_type_symbol
_atom_site_label
_atom_site_fract_x
_atom_site_fract_y
_atom_site_fract_z
Si Si1 0.500097 0.567358 0.805348
Si Si2 0.653186 0.574634 0.929232
Si Si3 0.362885 0.566571 0.733419
Si Si4 0.224623 0.423834 0.981820
Si Si5 0.617254 0.934030 0.408373
Si Si6 0.944820 0.563607 0.285811
Si Si7 0.223407 0.930195 0.236391
Si Si8 0.949799 0.933870 0.140993
O O1 0.495277 0.750000 0.815233
O O2 0.474718 0.530488 0.743864
O O3 0.652871 0.507337 0.770875
O O4 0.360895 0.498409 0.894621
O O5 0.644244 0.750000 0.908311
O O6 0.728829 0.581941 0.965087
O O7 0.726339 0.462277 0.852618
O O8 0.500000 0.500000 0.000000
O O9 0.352653 0.750000 0.730906
O O10 0.403822 0.493261 0.652653
O O11 0.206198 0.502635 0.813631
O O12 0.203565 0.250000 0.967039
O O13 0.073114 0.511574 0.046236
O O14 0.611964 0.750000 0.410666
O O15 0.780520 0.981387 0.362622
O O16 0.500000 0.000000 0.500000
O O17 0.952463 0.750000 0.282824
O O18 0.976437 0.516788 0.202420
O O19 0.059043 0.510557 0.292908
O O20 0.222744 0.750000 0.250929
O O21 0.943127 0.750000 0.143393
#
# Coordination Sequence:
#
# PCOD9159825 Si02
#       8
#     4   4   4   4   4   4   4   4
#     4  11  24  38  52  73 107 150 192 234 277 323
#     4  11  21  31  46  71 102 141 189 241 282 318
#     4  10  22  40  58  80 110 144 183 226 274 330
#     4  11  22  33  49  74 104 144 194 239 280 328
#     4  10  20  38  65  95 118 140 169 211 269 329
#     4   8  17  32  53  82 112 139 171 216 272 321
#     4  11  20  33  53  76 106 145 186 228 274 327
#     4  10  19  34  55  77 106 143 185 236 287 328
#
# _framework density 18.133413999999998
#
# number of rings (size 3 to 8) (size 9 to 14) (size 15 to 20)
#    0.000    1.750    2.500    3.375    0.000    3.500 
#    0.000    1.875    0.000    0.750    0.000    0.000 
#    0.000    0.000    0.000    0.000    0.000    0.000 
#
# Total GULP energy -178459.573988 kJ/mol
# GULP energy per Si atom -5576.861687 kJ/mol
# Density = 1.809214 g / cm^3
# Si number density = 18.133414 Si / 1000 Ang^3
#
#
#
# Elastic Constant Matrix: (Units=GPa)
#
#
# Indices 1 2 3 4 5 6 
#
# 1 132.4705 41.2994 64.9232 0.0000 -5.8900 0.0000
# 2 41.2994 58.3094 33.1562 0.0000 -2.6248 0.0000
# 3 64.9232 33.1562 92.0172 0.0000 -17.5537 0.0000
# 4 0.0000 0.0000 0.0000 22.6050 0.0000 -0.5021
# 5 -5.8900 -2.6248 -17.5537 0.0000 17.4686 0.0000
# 6 0.0000 0.0000 0.0000 -0.5021 0.0000 22.6505
#
#
#
# Elastic Compliance Matrix: (Units=1/GPa)
#
#
# Indices 1 2 3 4 5 6 
#
# 1 0.012838 -0.004583 -0.008304 0.000000 -0.004705 0.000000
# 2 -0.004583 0.023666 -0.006075 0.000000 -0.004094 0.000000
# 3 -0.008304 -0.006075 0.022525 0.000000 0.018922 0.000000
# 4 0.000000 0.000000 0.000000 0.044260 0.000000 0.000981
# 5 -0.004705 -0.004094 0.018922 0.000000 0.074059 0.000000
# 6 0.000000 0.000000 0.000000 0.000981 0.000000 0.044171
#
#
# Mechanical properties :
#
#
# Convention : Reuss Voigt Hill
#
# Bulk Modulus (GPa) = 47.38122 62.39499 54.88811
# Shear Modulus (GPa) = 18.76323 22.10602 20.43463
#
# Velocity S-wave (km/s) = 3.22022 3.49532 3.36058
# Velocity P-wave (km/s) = 6.32553 7.12553 6.73742
#
# Compressibility (1/GPa) = 0.02110541
#
# Stress axis : x y z
#
# Youngs Moduli (GPa) = 77.89163 42.25475 44.39440
#
# Poissons Ratio (x) = 0.19365 0.36866
# Poissons Ratio (y) = 0.35697 0.26969
# Poissons Ratio (z) = 0.64684 0.25670
#
# Static dielectric constant tensor:
#      x y z
#    x 1.677050 0.000000 -0.020280 
#    y 0.000000 1.621930 0.000000 
#    z -0.020280 0.000000 1.607110 
# 
# From -- ./inp_files/64351.got.cif
#   From: 2010.05.17/outbox.cif.g08.bks.cpg/sg11_33_cif.got.tgz:64351.got - 2010.06.03 12:22:45.
