data_PCOD9159080
_publ_section_title
;
Structure prediction by ZEFSAII (Michael W. Deem and Ramdas Pophale) SiO2 
 PCOD9159080
Probable space group: P 21/M
;
_chemical_formula_sum "Si O2"
_cell_formula_units_Z 32
_cell_length_a 15.380873
_cell_length_b 8.419328
_cell_length_c 14.670860
_cell_angle_alpha 90.000000
_cell_angle_beta 92.425560
_cell_angle_gamma 90.000000
_cell_volume 1898.124555
_symmetry_space_group_name_H-M "P 21/M"
_symmetry_group_IT_number 11
_symmetry_cell_setting 'monoclinic'
loop_
_space_group_symop_operation_xyz
x,y,z
-x,1/2+y,-z
-x,-y,-z
x,1/2-y,z
loop_
_atom_site_type_symbol
_atom_site_label
_atom_site_fract_x
_atom_site_fract_y
_atom_site_fract_z
Si Si1 0.319204 0.057693 0.670222
Si Si2 0.746609 0.057851 0.887231
Si Si3 0.904368 0.560694 0.017566
Si Si4 0.217330 0.056926 0.831021
Si Si5 0.623198 0.437480 0.038078
Si Si6 0.599953 0.940404 0.512806
Si Si7 0.480438 0.059805 0.807831
Si Si8 0.652966 0.442320 0.710847
O O1 0.316612 0.250000 0.664763
O O2 0.234939 0.010432 0.726652
O O3 0.342154 0.000030 0.570305
O O4 0.401513 0.014277 0.737218
O O5 0.747467 0.250000 0.891386
O O6 0.732133 0.011666 0.781390
O O7 0.832769 0.997597 0.941168
O O8 0.662121 0.005100 0.943283
O O9 0.905165 0.750000 0.014849
O O10 0.869178 0.513285 0.116984
O O11 0.000000 0.500000 0.000000
O O12 0.227159 0.250000 0.836989
O O13 0.294835 0.978686 0.892635
O O14 0.609686 0.250000 0.030397
O O15 0.542514 0.506958 0.091098
O O16 0.595924 0.750000 0.508520
O O17 0.500000 0.000000 0.500000
O O18 0.643599 0.991638 0.609402
O O19 0.484091 0.250000 0.810688
O O20 0.567396 0.004159 0.762758
O O21 0.651489 0.250000 0.704811
#
# Coordination Sequence:
#
# PCOD9159080 Si02
#       8
#     4   4   4   4   4   4   4   4
#     4   8  14  27  45  63  88 122 160 198 236 276
#     4   9  19  34  49  66  95 128 158 195 240 285
#     4  10  19  32  54  79 102 124 151 185 229 289
#     4   8  15  29  47  67  91 124 156 183 226 288
#     4   9  16  26  41  64  90 118 156 200 236 271
#     4  11  20  31  47  68  93 125 167 213 249 282
#     4   9  16  28  43  59  85 126 165 196 237 284
#     4  10  20  34  47  62  90 130 168 203 243 285
#
# _framework density 16.858747000000001
#
# number of rings (size 3 to 8) (size 9 to 14) (size 15 to 20)
#    0.000    2.750    1.250    1.875    0.000    2.500 
#    0.000    0.625    0.000    0.000    0.000    0.875 
#    0.000    0.000    0.000    0.000    0.000    0.000 
#
# Total GULP energy -178148.061086 kJ/mol
# GULP energy per Si atom -5567.126909 kJ/mol
# Density = 1.682038 g / cm^3
# Si number density = 16.858747 Si / 1000 Ang^3
#
#
#
# Elastic Constant Matrix: (Units=GPa)
#
#
# Indices 1 2 3 4 5 6 
#
# 1 92.9400 15.4087 65.0993 0.0000 -19.0915 0.0000
# 2 15.4087 15.2161 22.7670 0.0000 -2.2882 0.0000
# 3 65.0993 22.7670 165.1674 0.0000 -23.2602 0.0000
# 4 0.0000 0.0000 0.0000 20.7687 0.0000 -4.6000
# 5 -19.0915 -2.2882 -23.2602 0.0000 19.9444 0.0000
# 6 0.0000 0.0000 0.0000 -4.6000 0.0000 15.6667
#
#
#
# Elastic Compliance Matrix: (Units=1/GPa)
#
#
# Indices 1 2 3 4 5 6 
#
# 1 0.017446 -0.010127 -0.003939 0.000000 0.010944 0.000000
# 2 -0.010127 0.089023 -0.009819 0.000000 -0.010932 0.000000
# 3 -0.003939 -0.009819 0.009896 0.000000 0.006644 0.000000
# 4 0.000000 0.000000 0.000000 0.051498 0.000000 0.015121
# 5 0.010944 -0.010932 0.006644 0.000000 0.067110 0.000000
# 6 0.000000 0.000000 0.000000 0.015121 0.000000 0.068269
#
#
# Mechanical properties :
#
#
# Convention : Reuss Voigt Hill
#
# Bulk Modulus (GPa) = 14.57848 53.31928 33.94888
# Shear Modulus (GPa) = 13.37335 22.61254 17.99295
#
# Velocity S-wave (km/s) = 2.81954 3.66634 3.27046
# Velocity P-wave (km/s) = 4.38930 7.04404 5.86875
#
# Compressibility (1/GPa) = 0.06859427
#
# Stress axis : x y z
#
# Youngs Moduli (GPa) = 57.32060 11.23306 101.04940
#
# Poissons Ratio (x) = 0.11376 0.39802
# Poissons Ratio (y) = 0.58050 0.99221
# Poissons Ratio (z) = 0.22578 0.11030
#
# Static dielectric constant tensor:
#      x y z
#    x 1.581720 0.000000 -0.025900 
#    y 0.000000 1.599150 0.000000 
#    z -0.025900 0.000000 1.613470 
# 
# From -- ./inp_files/51393.got.cif
#   From: 2010.05.17/outbox.cif.g08.bks.cpg/sg11_26_cif.got.tgz:51393.got - 2010.06.03 12:22:45.
