data_PCOD9159732
_publ_section_title
;
Structure prediction by ZEFSAII (Michael W. Deem and Ramdas Pophale) SiO2 
 PCOD9159732
Probable space group: P 21/M
;
_chemical_formula_sum "Si O2"
_cell_formula_units_Z 32
_cell_length_a 19.280529
_cell_length_b 9.966818
_cell_length_c 12.796831
_cell_angle_alpha 90.000000
_cell_angle_beta 40.575907
_cell_angle_gamma 90.000000
_cell_volume 1599.539934
_symmetry_space_group_name_H-M "P 21/M"
_symmetry_group_IT_number 11
_symmetry_cell_setting 'monoclinic'
loop_
_space_group_symop_operation_xyz
x,y,z
-x,1/2+y,-z
-x,-y,-z
x,1/2-y,z
loop_
_atom_site_type_symbol
_atom_site_label
_atom_site_fract_x
_atom_site_fract_y
_atom_site_fract_z
Si Si1 0.877081 0.595077 0.851044
Si Si2 0.774869 0.093314 0.422462
Si Si3 0.658393 0.095069 0.348735
Si Si4 0.428713 0.406247 0.723889
Si Si5 0.991086 0.899037 0.916745
Si Si6 0.724592 0.906053 0.668352
Si Si7 0.660143 0.909164 0.966771
Si Si8 0.024141 0.097359 0.567513
O O1 0.912049 0.750000 0.783640
O O2 0.769906 0.573583 0.907242
O O3 0.885293 0.592424 0.967010
O O4 0.953480 0.472038 0.735848
O O5 0.744067 0.250000 0.472375
O O6 0.742003 0.054351 0.342133
O O7 0.903383 0.086407 0.276940
O O8 0.720140 0.000295 0.571957
O O9 0.678750 0.250000 0.294342
O O10 0.545670 0.091070 0.540109
O O11 0.643728 0.000055 0.266072
O O12 0.391822 0.250000 0.763753
O O13 0.426359 0.452407 0.847768
O O14 0.997062 0.750000 0.954748
O O15 0.000000 0.000000 0.000000
O O16 0.693120 0.750000 0.683590
O O17 0.668044 0.961610 0.839101
O O18 0.850398 0.902888 0.553230
O O19 0.647158 0.750000 0.965738
O O20 0.991576 0.250000 0.584716
O O21 0.000000 0.000000 0.500000
#
# Coordination Sequence:
#
# PCOD9159732 Si02
#       8
#     4   4   4   4   4   4   4   4
#     4  10  19  34  51  71 101 138 176 214 255 305
#     4  10  21  37  54  74 107 144 174 211 263 313
#     4   9  19  36  57  81 106 133 169 215 264 314
#     4   9  18  35  60  82 102 133 171 213 263 317
#     4  10  22  35  50  72 104 142 175 215 259 307
#     4  10  20  34  52  75 104 139 179 219 251 302
#     4   9  18  33  53  78 106 134 172 218 263 304
#     4  11  20  31  49  72 100 136 174 214 252 296
#
# _framework density 20.005754
#
# number of rings (size 3 to 8) (size 9 to 14) (size 15 to 20)
#    0.000    2.250    2.500    0.375    1.750    2.000 
#    0.000    1.875    0.000    0.000    0.000    0.000 
#    0.000    0.000    0.000    0.000    0.000    0.000 
#
# Total GULP energy -178239.483331 kJ/mol
# GULP energy per Si atom -5569.983854 kJ/mol
# Density = 1.996022 g / cm^3
# Si number density = 20.005754 Si / 1000 Ang^3
#
#
#
# Elastic Constant Matrix: (Units=GPa)
#
#
# Indices 1 2 3 4 5 6 
#
# 1 30.9506 13.0594 -11.1246 0.0000 5.8546 0.0000
# 2 13.0594 80.6069 29.1817 0.0000 18.9768 0.0000
# 3 -11.1246 29.1817 67.1049 0.0000 18.8054 0.0000
# 4 0.0000 0.0000 0.0000 26.9430 0.0000 12.9151
# 5 5.8546 18.9768 18.8054 0.0000 24.2457 0.0000
# 6 0.0000 0.0000 0.0000 12.9151 0.0000 25.7214
#
#
#
# Elastic Compliance Matrix: (Units=1/GPa)
#
#
# Indices 1 2 3 4 5 6 
#
# 1 0.045014 -0.009321 0.015994 0.000000 -0.015979 0.000000
# 2 -0.009321 0.018119 -0.007770 0.000000 -0.005904 0.000000
# 3 0.015994 -0.007770 0.025951 0.000000 -0.017909 0.000000
# 4 0.000000 0.000000 0.000000 0.048880 0.000000 -0.024544
# 5 -0.015979 -0.005904 -0.017909 0.000000 0.063614 0.000000
# 6 0.000000 0.000000 0.000000 -0.024544 0.000000 0.051202
#
#
# Mechanical properties :
#
#
# Convention : Reuss Voigt Hill
#
# Bulk Modulus (GPa) = 11.50892 26.76615 19.13754
# Shear Modulus (GPa) = 17.60946 25.21840 21.41393
#
# Velocity S-wave (km/s) = 2.97007 3.55428 3.27523
# Velocity P-wave (km/s) = 4.18653 5.50020 4.88770
#
# Compressibility (1/GPa) = 0.08688916
#
# Stress axis : x y z
#
# Youngs Moduli (GPa) = 22.21537 55.19084 38.53399
#
# Poissons Ratio (x) = 0.51444 -0.61630
# Poissons Ratio (y) = 0.20707 0.29941
# Poissons Ratio (z) = -0.35531 0.42883
#
# Static dielectric constant tensor:
#      x y z
#    x 1.748830 0.000000 0.024340 
#    y 0.000000 1.687440 0.000000 
#    z 0.024340 0.000000 1.898990 
# 
# From -- ./inp_files/42820.got.cif
#   From: 2010.05.17/outbox.cif.g08.bks.cpg/sg11_22_cif.got.tgz:42820.got - 2010.06.03 12:22:45.
