data_PCOD9159107
_publ_section_title
;
Structure prediction by ZEFSAII (Michael W. Deem and Ramdas Pophale) SiO2 
 PCOD9159107
Probable space group: P 21/M
;
_chemical_formula_sum "Si O2"
_cell_formula_units_Z 32
_cell_length_a 14.324395
_cell_length_b 15.793468
_cell_length_c 11.413778
_cell_angle_alpha 90.000000
_cell_angle_beta 41.056921
_cell_angle_gamma 90.000000
_cell_volume 1695.984834
_symmetry_space_group_name_H-M "P 21/M"
_symmetry_group_IT_number 11
_symmetry_cell_setting 'monoclinic'
loop_
_space_group_symop_operation_xyz
x,y,z
-x,1/2+y,-z
-x,-y,-z
x,1/2-y,z
loop_
_atom_site_type_symbol
_atom_site_label
_atom_site_fract_x
_atom_site_fract_y
_atom_site_fract_z
Si Si1 0.124983 0.051011 0.819084
Si Si2 0.149789 0.030013 0.410830
Si Si3 0.335987 0.030503 0.006756
Si Si4 0.813409 0.411664 0.397889
Si Si5 0.865963 0.850785 0.960907
Si Si6 0.298052 0.844299 0.074542
Si Si7 0.591323 0.341915 0.764999
Si Si8 0.967946 0.655088 0.317249
O O1 0.172765 0.119127 0.870094
O O2 0.058233 0.097181 0.770081
O O3 0.224820 0.977060 0.670832
O O4 0.000000 0.000000 0.000000
O O5 0.268973 0.029961 0.200039
O O6 0.128402 0.122419 0.485638
O O7 0.174719 0.968980 0.496696
O O8 0.000000 0.000000 0.500000
O O9 0.357727 0.930396 0.959769
O O10 0.223650 0.083972 0.035144
O O11 0.481070 0.081839 0.865031
O O12 0.694213 0.347568 0.555151
O O13 0.965971 0.369462 0.223892
O O14 0.839825 0.750000 0.968179
O O15 0.346367 0.750000 0.988172
O O16 0.327334 0.846132 0.186655
O O17 0.130107 0.849870 0.207366
O O18 0.517590 0.250000 0.833576
O O19 0.934354 0.750000 0.316149
#
# Coordination Sequence:
#
# PCOD9159107 Si02
#       8
#     4   4   4   4   4   4   4   4
#     4   9  19  35  57  82 109 145 191 242 291 330
#     4  11  18  33  54  81 116 146 186 229 286 346
#     4  12  22  37  56  83 122 156 187 233 291 340
#     4  10  19  36  59  80 110 153 195 238 285 333
#     4  11  22  36  59  88 119 153 192 241 289 342
#     4  10  20  34  55  79 111 152 189 229 278 337
#     4  11  23  37  55  85 120 156 194 231 283 350
#     4  10  19  32  54  84 112 142 183 238 285 334
#
# _framework density 18.868092999999998
#
# number of rings (size 3 to 8) (size 9 to 14) (size 15 to 20)
#    0.000    1.500    3.750    3.000    0.000    1.000 
#    0.000    0.625    0.000    1.500    0.000    0.000 
#    0.000    0.000    0.000    0.000    0.000    0.000 
#
# Total GULP energy -178275.884898 kJ/mol
# GULP energy per Si atom -5571.121403 kJ/mol
# Density = 1.882515 g / cm^3
# Si number density = 18.868093 Si / 1000 Ang^3
#
#
#
# Elastic Constant Matrix: (Units=GPa)
#
#
# Indices 1 2 3 4 5 6 
#
# 1 38.6273 36.4433 29.9499 0.0000 6.8867 0.0000
# 2 36.4433 169.3287 34.6017 0.0000 2.2277 0.0000
# 3 29.9499 34.6017 58.0109 0.0000 9.0747 0.0000
# 4 0.0000 0.0000 0.0000 30.8951 0.0000 1.8785
# 5 6.8867 2.2277 9.0747 0.0000 13.7741 0.0000
# 6 0.0000 0.0000 0.0000 1.8785 0.0000 27.1880
#
#
#
# Elastic Compliance Matrix: (Units=1/GPa)
#
#
# Indices 1 2 3 4 5 6 
#
# 1 0.049278 -0.006381 -0.020004 0.000000 -0.010427 0.000000
# 2 -0.006381 0.007589 -0.001716 0.000000 0.003094 0.000000
# 3 -0.020004 -0.001716 0.030082 0.000000 -0.009539 0.000000
# 4 0.000000 0.000000 0.000000 0.032504 0.000000 -0.002246
# 5 -0.010427 0.003094 -0.009539 0.000000 0.083598 0.000000
# 6 0.000000 0.000000 0.000000 -0.002246 0.000000 0.036936
#
#
# Mechanical properties :
#
#
# Convention : Reuss Voigt Hill
#
# Bulk Modulus (GPa) = 32.52436 51.99519 42.25978
# Shear Modulus (GPa) = 16.31657 25.36957 20.84307
#
# Velocity S-wave (km/s) = 2.94389 3.67082 3.32727
# Velocity P-wave (km/s) = 5.36940 6.75156 6.09976
#
# Compressibility (1/GPa) = 0.03074618
#
# Stress axis : x y z
#
# Youngs Moduli (GPa) = 20.29323 131.77049 33.24268
#
# Poissons Ratio (x) = 0.84079 0.66499
# Poissons Ratio (y) = 0.12948 0.05705
# Poissons Ratio (z) = 0.40595 0.22615
#
# Static dielectric constant tensor:
#      x y z
#    x 1.681380 0.000000 0.008640 
#    y 0.000000 1.746990 0.000000 
#    z 0.008640 0.000000 1.657510 
# 
# From -- ./inp_files/39645.got.cif
#   From: 2010.05.17/outbox.cif.g08.bks.cpg/sg11_20_cif.got.tgz:39645.got - 2010.06.03 12:22:45.
