data_PCOD9159997
_publ_section_title
;
Structure prediction by ZEFSAII (Michael W. Deem and Ramdas Pophale) SiO2 
 PCOD9159997
Probable space group: P 21/M
;
_chemical_formula_sum "Si O2"
_cell_formula_units_Z 32
_cell_length_a 9.642185
_cell_length_b 8.556728
_cell_length_c 19.353822
_cell_angle_alpha 90.000000
_cell_angle_beta 96.992985
_cell_angle_gamma 90.000000
_cell_volume 1584.919339
_symmetry_space_group_name_H-M "P 21/M"
_symmetry_group_IT_number 11
_symmetry_cell_setting 'monoclinic'
loop_
_space_group_symop_operation_xyz
x,y,z
-x,1/2+y,-z
-x,-y,-z
x,1/2-y,z
loop_
_atom_site_type_symbol
_atom_site_label
_atom_site_fract_x
_atom_site_fract_y
_atom_site_fract_z
Si Si1 0.500374 0.940351 0.762355
Si Si2 0.421699 0.566034 0.607007
Si Si3 0.188067 0.933440 0.202054
Si Si4 0.679657 0.433719 0.543259
Si Si5 0.977130 0.438463 0.075261
Si Si6 0.032273 0.926737 0.713711
Si Si7 0.732844 0.430649 0.154733
Si Si8 0.001592 0.929447 0.424494
O O1 0.494231 0.750000 0.761551
O O2 0.432536 0.997658 0.685543
O O3 0.409857 0.998232 0.822697
O O4 0.660683 0.991249 0.777316
O O5 0.393323 0.750000 0.612481
O O6 0.573190 0.533864 0.581757
O O7 0.323488 0.510574 0.537435
O O8 0.204741 0.750000 0.192127
O O9 0.102480 0.007042 0.132828
O O10 0.086567 0.964686 0.260965
O O11 0.635125 0.250000 0.540975
O O12 0.833525 0.439279 0.582852
O O13 0.973666 0.250000 0.076261
O O14 0.829717 0.497587 0.099522
O O15 0.000000 0.500000 0.000000
O O16 0.977517 0.750000 0.709253
O O17 0.162568 0.930395 0.773302
O O18 0.075534 0.976415 0.639845
O O19 0.703671 0.250000 0.133955
O O20 0.957465 0.750000 0.422347
O O21 0.000000 0.000000 0.500000
#
# Coordination Sequence:
#
# PCOD9159997 Si02
#       8
#     4   4   4   4   4   4   4   4
#     4  10  19  34  57  82 109 144 189 235 283 334
#     4   9  18  31  52  73  95 132 177 224 278 335
#     4  11  22  37  58  87 120 152 188 230 275 332
#     4   9  19  34  48  67  97 133 178 228 280 335
#     4  10  20  39  65  93 120 153 192 228 276 333
#     4  10  20  37  59  80 108 148 194 242 291 346
#     4   8  18  35  59  86 113 146 187 234 283 338
#     4  11  23  35  50  73 104 141 186 239 292 345
#
# _framework density 20.190301999999999
#
# number of rings (size 3 to 8) (size 9 to 14) (size 15 to 20)
#    0.000    2.250    0.000    3.750    1.750    3.500 
#    0.000    4.375    0.000    0.000    0.000    0.000 
#    0.000    0.000    0.000    0.000    0.000    0.000 
#
# Total GULP energy -178495.080650 kJ/mol
# GULP energy per Si atom -5577.971270 kJ/mol
# Density = 2.014435 g / cm^3
# Si number density = 20.190302 Si / 1000 Ang^3
#
#
#
# Elastic Constant Matrix: (Units=GPa)
#
#
# Indices 1 2 3 4 5 6 
#
# 1 51.8848 -1.8191 8.0945 0.0000 -9.0274 0.0000
# 2 -1.8191 33.1095 5.3193 0.0000 3.6804 0.0000
# 3 8.0945 5.3193 115.2355 0.0000 -11.3043 0.0000
# 4 0.0000 0.0000 0.0000 28.0781 0.0000 -1.8641
# 5 -9.0274 3.6804 -11.3043 0.0000 21.6932 0.0000
# 6 0.0000 0.0000 0.0000 -1.8641 0.0000 14.6100
#
#
#
# Elastic Compliance Matrix: (Units=1/GPa)
#
#
# Indices 1 2 3 4 5 6 
#
# 1 0.020827 0.000333 -0.000668 0.000000 0.008262 0.000000
# 2 0.000333 0.031249 -0.002079 0.000000 -0.006246 0.000000
# 3 -0.000668 -0.002079 0.009304 0.000000 0.004923 0.000000
# 4 0.000000 0.000000 0.000000 0.035919 0.000000 0.004583
# 5 0.008262 -0.006246 0.004923 0.000000 0.053161 0.000000
# 6 0.000000 0.000000 0.000000 0.004583 0.000000 0.069031
#
#
# Mechanical properties :
#
#
# Convention : Reuss Voigt Hill
#
# Bulk Modulus (GPa) = 17.68245 24.82438 21.25342
# Shear Modulus (GPa) = 20.56186 25.45192 23.00689
#
# Velocity S-wave (km/s) = 3.19470 3.55435 3.37931
# Velocity P-wave (km/s) = 4.73129 5.40059 5.07698
#
# Compressibility (1/GPa) = 0.05655324
#
# Stress axis : x y z
#
# Youngs Moduli (GPa) = 48.01487 32.00064 107.48455
#
# Poissons Ratio (x) = -0.01066 0.07178
# Poissons Ratio (y) = -0.01599 0.22342
# Poissons Ratio (z) = 0.03206 0.06652
#
# Static dielectric constant tensor:
#      x y z
#    x 1.737070 0.000000 -0.031530 
#    y 0.000000 1.711590 0.000000 
#    z -0.031530 0.000000 1.733130 
# 
# From -- ./inp_files/58707.got.cif
#   From: 2010.05.17/outbox.cif.g08.bks.cpg/sg11_30_cif.got.tgz:58707.got - 2010.06.03 12:22:45.
