data_PCOD9159452
_publ_section_title
;
Structure prediction by ZEFSAII (Michael W. Deem and Ramdas Pophale) SiO2 
 PCOD9159452
Probable space group: P 21/M
;
_chemical_formula_sum "Si O2"
_cell_formula_units_Z 28
_cell_length_a 22.432920
_cell_length_b 8.782222
_cell_length_c 15.351418
_cell_angle_alpha 90.000000
_cell_angle_beta 33.205571
_cell_angle_gamma 90.000000
_cell_volume 1656.294314
_symmetry_space_group_name_H-M "P 21/M"
_symmetry_group_IT_number 11
_symmetry_cell_setting 'monoclinic'
loop_
_space_group_symop_operation_xyz
x,y,z
-x,1/2+y,-z
-x,-y,-z
x,1/2-y,z
loop_
_atom_site_type_symbol
_atom_site_label
_atom_site_fract_x
_atom_site_fract_y
_atom_site_fract_z
Si Si1 0.303824 0.432210 0.413984
Si Si2 0.251258 0.931967 0.154582
Si Si3 0.139066 0.567345 0.474156
Si Si4 0.088696 0.931545 0.013611
Si Si5 0.108941 0.067866 0.176040
Si Si6 0.518201 0.568375 0.074110
Si Si7 0.846814 0.567326 0.243116
O O1 0.317011 0.250000 0.393962
O O2 0.219008 0.483772 0.443251
O O3 0.417657 0.512493 0.255555
O O4 0.249425 0.472687 0.573002
O O5 0.263822 0.750000 0.135004
O O6 0.176392 0.967707 0.330385
O O7 0.193049 0.993276 0.139785
O O8 0.367975 0.007515 0.028312
O O9 0.150182 0.750000 0.473465
O O10 0.014230 0.525051 0.644770
O O11 0.095147 0.750000 0.015029
O O12 0.154357 0.986355 0.848539
O O13 0.962211 0.972467 0.147869
O O14 0.124274 0.011033 0.058873
O O15 0.117847 0.250000 0.169288
O O16 0.519218 0.750000 0.066933
O O17 0.500000 0.500000 0.000000
O O18 0.847032 0.750000 0.230094
#
# Coordination Sequence:
#
# PCOD9159452 Si02
#       7
#     4   4   4   4   4   4   4
#     4  11  21  35  58  84 114 148 185 231 281 329
#     4  11  23  39  57  80 111 151 194 233 277 331
#     4  10  21  35  54  81 114 151 187 227 276 332
#     4  10  19  33  54  81 112 148 185 228 278 332
#     4  11  22  36  55  82 116 153 188 229 280 334
#     4  12  24  39  58  82 111 147 191 234 279 326
#     4   9  19  34  53  82 113 145 183 228 280 332
#
# _framework density 16.905207000000001
#
# number of rings (size 3 to 8) (size 9 to 14) (size 15 to 20)
#    0.000    1.429    2.857    3.429    0.000    2.857 
#    0.000    0.000    0.000    0.857    0.000    0.000 
#    0.000    0.000    0.000    0.000    0.000    0.000 
#
# Total GULP energy -156466.792360 kJ/mol
# GULP energy per Si atom -5588.099727 kJ/mol
# Density = 1.686673 g / cm^3
# Si number density = 16.905207 Si / 1000 Ang^3
#
#
#
# Elastic Constant Matrix: (Units=GPa)
#
#
# Indices 1 2 3 4 5 6 
#
# 1 132.2989 61.4049 77.7603 0.0000 5.2149 0.0000
# 2 61.4049 71.6505 53.1173 0.0000 6.1675 0.0000
# 3 77.7603 53.1173 109.0552 0.0000 15.6266 0.0000
# 4 0.0000 0.0000 0.0000 25.1727 0.0000 -1.9692
# 5 5.2149 6.1675 15.6266 0.0000 24.9734 0.0000
# 6 0.0000 0.0000 0.0000 -1.9692 0.0000 30.6964
#
#
#
# Elastic Compliance Matrix: (Units=1/GPa)
#
#
# Indices 1 2 3 4 5 6 
#
# 1 0.015730 -0.007972 -0.007848 0.000000 0.003595 0.000000
# 2 -0.007972 0.025928 -0.006883 0.000000 -0.000432 0.000000
# 3 -0.007848 -0.006883 0.019377 0.000000 -0.008786 0.000000
# 4 0.000000 0.000000 0.000000 0.039926 0.000000 0.002561
# 5 0.003595 -0.000432 -0.008786 0.000000 0.044896 0.000000
# 6 0.000000 0.000000 0.000000 0.002561 0.000000 0.032741
#
#
# Mechanical properties :
#
#
# Convention : Reuss Voigt Hill
#
# Bulk Modulus (GPa) = 63.98144 77.50775 70.74459
# Shear Modulus (GPa) = 21.81367 24.21665 23.01516
#
# Velocity S-wave (km/s) = 3.59604 3.78894 3.69375
# Velocity P-wave (km/s) = 7.42774 8.06780 7.75438
#
# Compressibility (1/GPa) = 0.01562953
#
# Stress axis : x y z
#
# Youngs Moduli (GPa) = 63.57337 38.56817 51.60737
#
# Poissons Ratio (x) = 0.30746 0.40503
# Poissons Ratio (y) = 0.50679 0.35520
# Poissons Ratio (z) = 0.49894 0.26545
#
# Static dielectric constant tensor:
#      x y z
#    x 1.534070 0.000000 0.008940 
#    y 0.000000 1.561120 0.000000 
#    z 0.008940 0.000000 1.564840 
# 
# From -- ./inp_files/37890.got.cif
#   From: 2010.05.17/outbox.cif.g08.bks.cpg/sg11_19_cif.got.tgz:37890.got - 2010.06.03 12:22:45.
