data_PCOD9159152
_publ_section_title
;
Structure prediction by ZEFSAII (Michael W. Deem and Ramdas Pophale) SiO2 
 PCOD9159152
Probable space group: P 21/M
;
_chemical_formula_sum "Si O2"
_cell_formula_units_Z 24
_cell_length_a 12.746248
_cell_length_b 12.141401
_cell_length_c 14.649045
_cell_angle_alpha 90.000000
_cell_angle_beta 27.614320
_cell_angle_gamma 90.000000
_cell_volume 1050.815876
_symmetry_space_group_name_H-M "P 21/M"
_symmetry_group_IT_number 11
_symmetry_cell_setting 'monoclinic'
loop_
_space_group_symop_operation_xyz
x,y,z
-x,1/2+y,-z
-x,-y,-z
x,1/2-y,z
loop_
_atom_site_type_symbol
_atom_site_label
_atom_site_fract_x
_atom_site_fract_y
_atom_site_fract_z
Si Si1 0.318038 0.579904 0.696877
Si Si2 0.372580 0.481345 0.906905
Si Si3 0.391157 0.580684 0.440728
Si Si4 0.826217 0.874077 0.576981
Si Si5 0.077827 0.437986 0.295270
Si Si6 0.996159 0.872753 0.101899
O O1 0.375242 0.629833 0.554796
O O2 0.534885 0.546085 0.590857
O O3 0.197886 0.461211 0.769848
O O4 0.139156 0.638157 0.898287
O O5 0.428201 0.397954 0.779752
O O6 0.601371 0.551086 0.743433
O O7 0.290109 0.427917 0.064472
O O8 0.168854 0.563550 0.035846
O O9 0.146063 0.597553 0.586738
O O10 0.786506 0.750000 0.576587
O O11 0.020987 0.936287 0.369683
O O12 0.894707 0.876195 0.630548
O O13 0.927833 0.750000 0.184429
#
# Coordination Sequence:
#
# PCOD9159152 Si02
#       6
#     4   4   4   4   4   4
#     4   9  18  35  53  79 115 143 180 227 270 321
#     4  10  19  35  58  84 107 142 184 233 280 322
#     4   9  18  35  58  79 109 149 180 222 272 324
#     4  10  22  37  56  83 112 144 184 229 280 337
#     4  10  20  38  59  82 111 147 184 229 282 329
#     4  10  19  32  56  82 108 146 184 225 276 323
#
# _framework density 22.839396000000001
#
# number of rings (size 3 to 8) (size 9 to 14) (size 15 to 20)
#    0.000    2.333    1.667    1.000    0.000    1.333 
#    0.000    9.167    0.000    1.000    0.000    0.000 
#    0.000    0.000    0.000    0.000    0.000    0.000 
#
# Total GULP energy -133740.528867 kJ/mol
# GULP energy per Si atom -5572.522036 kJ/mol
# Density = 2.278741 g / cm^3
# Si number density = 22.839396 Si / 1000 Ang^3
#
#
#
# Elastic Constant Matrix: (Units=GPa)
#
#
# Indices 1 2 3 4 5 6 
#
# 1 108.0568 -15.8142 19.0863 0.0000 7.6129 0.0000
# 2 -15.8142 61.5549 1.2681 0.0000 -5.8682 0.0000
# 3 19.0863 1.2681 81.9369 0.0000 33.1263 0.0000
# 4 0.0000 0.0000 0.0000 -12.8649 0.0000 9.8548
# 5 7.6129 -5.8682 33.1263 0.0000 56.8468 0.0000
# 6 0.0000 0.0000 0.0000 9.8548 0.0000 -12.9874
#
#
#
# Elastic Compliance Matrix: (Units=1/GPa)
#
#
# Indices 1 2 3 4 5 6 
#
# 1 0.010068 0.002679 -0.002556 0.000000 0.000417 0.000000
# 2 0.002679 0.017215 -0.001915 0.000000 0.002534 0.000000
# 3 -0.002556 -0.001915 0.016707 0.000000 -0.009591 0.000000
# 4 0.000000 0.000000 0.000000 -0.185627 0.000000 -0.140853
# 5 0.000417 0.002534 -0.009591 0.000000 0.023386 0.000000
# 6 0.000000 0.000000 0.000000 -0.140853 0.000000 -0.183876
#
#
# Mechanical properties :
#
#
# Convention : Reuss Voigt Hill
#
# Bulk Modulus (GPa) = 24.74782 28.95877 26.85330
# Shear Modulus (GPa) = -17.53929 22.66612 2.56342
#
# Velocity S-wave (km/s) = -2.77418 3.15368 1.06057
# Velocity P-wave (km/s) = 0.77310 5.09585 3.64454
#
# Compressibility (1/GPa) = 0.04040759
#
# Stress axis : x y z
#
# Youngs Moduli (GPa) = 99.31990 58.08880 59.85499
#
# Poissons Ratio (x) = -0.15563 0.15296
# Poissons Ratio (y) = -0.26609 0.11463
# Poissons Ratio (z) = 0.25382 0.11125
#
# Static dielectric constant tensor:
#      x y z
#    x 1.907390 0.000000 0.018610 
#    y 0.000000 1.849150 0.000000 
#    z 0.018610 0.000000 1.875750 
# 
# From -- ./inp_files/50329.got.cif
#   From: 2010.05.17/outbox.cif.g08.bks.cpg/sg11_26_cif.got.tgz:50329.got - 2010.06.03 12:22:45.
