data_PCOD9159994
_publ_section_title
;
Structure prediction by ZEFSAII (Michael W. Deem and Ramdas Pophale) SiO2 
 PCOD9159994
Probable space group: P 21/M
;
_chemical_formula_sum "Si O2"
_cell_formula_units_Z 20
_cell_length_a 8.441691
_cell_length_b 9.705337
_cell_length_c 11.017096
_cell_angle_alpha 90.000000
_cell_angle_beta 105.205331
_cell_angle_gamma 90.000000
_cell_volume 871.025683
_symmetry_space_group_name_H-M "P 21/M"
_symmetry_group_IT_number 11
_symmetry_cell_setting 'monoclinic'
loop_
_space_group_symop_operation_xyz
x,y,z
-x,1/2+y,-z
-x,-y,-z
x,1/2-y,z
loop_
_atom_site_type_symbol
_atom_site_label
_atom_site_fract_x
_atom_site_fract_y
_atom_site_fract_z
Si Si1 0.566850 0.537969 0.882342
Si Si2 0.356991 0.601729 0.335017
Si Si3 0.790061 0.091748 0.273737
Si Si4 0.106269 0.095936 0.934808
Si Si5 0.741555 0.907412 0.489605
O O1 0.627994 0.417557 0.805653
O O2 0.409068 0.600311 0.783046
O O3 0.500000 0.500000 0.000000
O O4 0.729333 0.615254 0.952889
O O5 0.287335 0.750000 0.355612
O O6 0.256699 0.479570 0.378582
O O7 0.546193 0.599531 0.418472
O O8 0.850963 0.250000 0.282181
O O9 0.854564 0.993105 0.178473
O O10 0.817766 0.009755 0.404819
O O11 0.041741 0.250000 0.893930
O O12 0.000000 0.000000 0.000000
O O13 0.802401 0.750000 0.498244
#
# Coordination Sequence:
#
# PCOD9159994 Si02
#       5
#     4   4   4   4   4
#     4   9  20  34  54  81 110 140 177 222 269 316
#     4   9  17  29  48  75 107 141 177 218 263 313
#     4  10  19  34  57  82 108 140 179 222 267 316
#     4  11  23  38  55  78 109 144 181 221 268 320
#     4   9  17  29  47  75 109 141 174 216 265 314
#
# _framework density 22.961434000000001
#
# number of rings (size 3 to 8) (size 9 to 14) (size 15 to 20)
#    0.000    2.400    0.000    2.400    0.000   14.400 
#    0.000    0.000    0.000    1.200    0.000    0.000 
#    0.000    0.000    0.000    0.000    0.000    0.000 
#
# Total GULP energy -111502.983622 kJ/mol
# GULP energy per Si atom -5575.149181 kJ/mol
# Density = 2.290917 g / cm^3
# Si number density = 22.961434 Si / 1000 Ang^3
#
#
#
# Elastic Constant Matrix: (Units=GPa)
#
#
# Indices 1 2 3 4 5 6 
#
# 1 69.7094 43.5354 31.1854 0.0000 -6.8552 0.0000
# 2 43.5354 231.1693 60.8280 0.0000 -36.4690 0.0000
# 3 31.1854 60.8280 97.5435 0.0000 -22.5339 0.0000
# 4 0.0000 0.0000 0.0000 15.2002 0.0000 -10.1234
# 5 -6.8552 -36.4690 -22.5339 0.0000 42.0166 0.0000
# 6 0.0000 0.0000 0.0000 -10.1234 0.0000 9.2697
#
#
#
# Elastic Compliance Matrix: (Units=1/GPa)
#
#
# Indices 1 2 3 4 5 6 
#
# 1 0.017716 -0.002397 -0.004545 0.000000 -0.001628 0.000000
# 2 -0.002397 0.005893 -0.002074 0.000000 0.003611 0.000000
# 3 -0.004545 -0.002074 0.014166 0.000000 0.005056 0.000000
# 4 0.000000 0.000000 0.000000 0.241285 0.000000 0.263506
# 5 -0.001628 0.003611 0.005056 0.000000 0.029380 0.000000
# 6 0.000000 0.000000 0.000000 0.263506 0.000000 0.395653
#
#
# Mechanical properties :
#
#
# Convention : Reuss Voigt Hill
#
# Bulk Modulus (GPa) = 50.65319 74.39110 62.52215
# Shear Modulus (GPa) = 6.86148 30.82218 18.84183
#
# Velocity S-wave (km/s) = 1.73053 3.66778 2.86769
# Velocity P-wave (km/s) = 5.10891 7.09968 6.18492
#
# Compressibility (1/GPa) = 0.01974209
#
# Stress axis : x y z
#
# Youngs Moduli (GPa) = 56.44757 169.70001 70.59046
#
# Poissons Ratio (x) = 0.40680 0.32083
# Poissons Ratio (y) = 0.13532 0.14641
# Poissons Ratio (z) = 0.25655 0.35197
#
# Static dielectric constant tensor:
#      x y z
#    x 1.903920 0.000000 0.066040 
#    y 0.000000 1.843680 0.000000 
#    z 0.066040 0.000000 1.744660 
# 
# From -- ./inp_files/30638.got.cif
#   From: 2010.05.17/outbox.cif.g08.bks.cpg/sg11_16_cif.got.tgz:30638.got - 2010.06.03 12:22:45.
