data_PCOD9159465
_publ_section_title
;
Structure prediction by ZEFSAII (Michael W. Deem and Ramdas Pophale) SiO2 
 PCOD9159465
Probable space group: P 21/M
;
_chemical_formula_sum "Si O2"
_cell_formula_units_Z 28
_cell_length_a 5.138488
_cell_length_b 13.164198
_cell_length_c 23.200621
_cell_angle_alpha 90.000000
_cell_angle_beta 112.905803
_cell_angle_gamma 90.000000
_cell_volume 1445.632249
_symmetry_space_group_name_H-M "P 21/M"
_symmetry_group_IT_number 11
_symmetry_cell_setting 'monoclinic'
loop_
_space_group_symop_operation_xyz
x,y,z
-x,1/2+y,-z
-x,-y,-z
x,1/2-y,z
loop_
_atom_site_type_symbol
_atom_site_label
_atom_site_fract_x
_atom_site_fract_y
_atom_site_fract_z
Si Si1 0.965810 0.750000 0.480146
Si Si2 0.091160 0.005652 0.918212
Si Si3 0.671788 0.127854 0.959694
Si Si4 0.006230 0.988226 0.215790
Si Si5 0.541188 0.861950 0.236422
Si Si6 0.378497 0.250000 0.431751
Si Si7 0.854652 0.579102 0.377604
Si Si8 0.315926 0.047724 0.355142
O O1 0.783601 0.750000 0.521984
O O2 0.899575 0.652195 0.435166
O O3 0.291093 0.750000 0.525679
O O4 0.356325 0.082660 0.935989
O O5 0.834216 0.072492 0.921210
O O6 0.031647 0.962002 0.849688
O O7 0.169731 0.917067 0.969993
O O8 0.678446 0.250000 0.957218
O O9 0.223349 0.895649 0.222420
O O10 0.712072 0.943569 0.213565
O O11 0.156438 0.050949 0.279681
O O12 0.553167 0.750000 0.211379
O O13 0.703684 0.863369 0.311639
O O14 0.304119 0.151797 0.388005
O O15 0.636740 0.488916 0.373864
O O16 0.146982 0.535689 0.378129
#
# Coordination Sequence:
#
# PCOD9159465 Si02
#       8
#     2   4   4   4   4   2   4   4
#     4  12  24  38  64  88 112 148 191 228 287 358
#     4  10  21  37  56  85 115 148 194 229 273 337
#     4  10  21  37  58  82 120 151 181 238 278 320
#     4  10  21  35  56  81 112 150 186 229 278 334
#     4  10  19  33  54  82 113 144 180 231 289 337
#     4  12  26  40  58  86 112 150 195 238 277 320
#     4  10  21  39  60  83 113 147 182 234 290 345
#     4  10  23  41  58  81 119 148 186 240 283 322
#
# _framework density 19.368687000000001
#
# number of rings (size 3 to 8) (size 9 to 14) (size 15 to 20)
#    0.000    1.714    0.714    3.429    0.000    6.857 
#    1.286    0.000    0.000    0.000    0.000    0.000 
#    0.000    0.000    0.000    0.000    0.000    0.000 
#
# Total GULP energy -156429.019343 kJ/mol
# GULP energy per Si atom -5586.750691 kJ/mol
# Density = 1.932460 g / cm^3
# Si number density = 19.368687 Si / 1000 Ang^3
#
#
#
# Elastic Constant Matrix: (Units=GPa)
#
#
# Indices 1 2 3 4 5 6 
#
# 1 94.4772 -1.6393 19.9185 0.0000 -12.1912 0.0000
# 2 -1.6393 46.0699 37.7361 0.0000 -4.6640 0.0000
# 3 19.9185 37.7361 148.7540 0.0000 -21.8532 0.0000
# 4 0.0000 0.0000 0.0000 3.5820 0.0000 -4.6355
# 5 -12.1912 -4.6640 -21.8532 0.0000 29.9213 0.0000
# 6 0.0000 0.0000 0.0000 -4.6355 0.0000 11.9529
#
#
#
# Elastic Compliance Matrix: (Units=1/GPa)
#
#
# Indices 1 2 3 4 5 6 
#
# 1 0.011431 0.002002 -0.001466 0.000000 0.003899 0.000000
# 2 0.002002 0.027772 -0.007346 0.000000 -0.000220 0.000000
# 3 -0.001466 -0.007346 0.009551 0.000000 0.005233 0.000000
# 4 0.000000 0.000000 0.000000 0.560431 0.000000 0.217341
# 5 0.003899 -0.000220 0.005233 0.000000 0.038798 0.000000
# 6 0.000000 0.000000 0.000000 0.217341 0.000000 0.167949
#
#
# Mechanical properties :
#
#
# Convention : Reuss Voigt Hill
#
# Bulk Modulus (GPa) = 28.46090 44.59241 36.52665
# Shear Modulus (GPa) = 5.94345 24.64364 15.29354
#
# Velocity S-wave (km/s) = 1.75364 3.57086 2.81303
# Velocity P-wave (km/s) = 4.33895 6.33043 5.42682
#
# Compressibility (1/GPa) = 0.03513592
#
# Stress axis : x y z
#
# Youngs Moduli (GPa) = 87.47772 36.00750 104.70023
#
# Poissons Ratio (x) = -0.07209 0.15347
# Poissons Ratio (y) = -0.17514 0.76909
# Poissons Ratio (z) = 0.12822 0.26450
#
# Static dielectric constant tensor:
#      x y z
#    x 1.650000 0.000000 0.003770 
#    y 0.000000 1.633460 0.000000 
#    z 0.003770 0.000000 1.702230 
# 
# From -- ./inp_files/62749.got.cif
#   From: 2010.05.17/outbox.cif.g08.bks.cpg/sg11_32_cif.got.tgz:62749.got - 2010.06.03 12:22:45.
