data_PCOD9159771
_publ_section_title
;
Structure prediction by ZEFSAII (Michael W. Deem and Ramdas Pophale) SiO2 
 PCOD9159771
Probable space group: P 21/M
;
_chemical_formula_sum "Si O2"
_cell_formula_units_Z 32
_cell_length_a 12.441173
_cell_length_b 11.528658
_cell_length_c 12.505436
_cell_angle_alpha 90.000000
_cell_angle_beta 68.535988
_cell_angle_gamma 90.000000
_cell_volume 1669.260739
_symmetry_space_group_name_H-M "P 21/M"
_symmetry_group_IT_number 11
_symmetry_cell_setting 'monoclinic'
loop_
_space_group_symop_operation_xyz
x,y,z
-x,1/2+y,-z
-x,-y,-z
x,1/2-y,z
loop_
_atom_site_type_symbol
_atom_site_label
_atom_site_fract_x
_atom_site_fract_y
_atom_site_fract_z
Si Si1 0.842626 0.621399 0.795582
Si Si2 0.633596 0.040863 0.825376
Si Si3 0.273593 0.886213 0.582118
Si Si4 0.922238 0.616759 0.011427
Si Si5 0.036654 0.882722 0.548748
Si Si6 0.591627 0.380263 0.073341
Si Si7 0.716289 0.517161 0.207032
Si Si8 0.534417 0.116194 0.642448
O O1 0.789478 0.750000 0.802377
O O2 0.753358 0.527084 0.785861
O O3 0.957607 0.617942 0.683419
O O4 0.873863 0.607635 0.908294
O O5 0.609410 0.105783 0.723879
O O6 0.527634 0.950057 0.872662
O O7 0.626583 0.114652 0.936394
O O8 0.291073 0.750000 0.598461
O O9 0.168505 0.895154 0.537525
O O10 0.388056 0.935046 0.481679
O O11 0.243057 0.947470 0.703965
O O12 0.971970 0.750000 0.003698
O O13 0.814307 0.605101 0.132072
O O14 0.000000 0.500000 0.000000
O O15 0.022611 0.750000 0.505935
O O16 0.000000 0.000000 0.500000
O O17 0.573691 0.250000 0.115873
O O18 0.686953 0.438638 0.114412
O O19 0.591502 0.566572 0.286845
O O20 0.517832 0.250000 0.622597
#
# Coordination Sequence:
#
# PCOD9159771 Si02
#       8
#     4   4   4   4   4   4   4   4
#     4  10  20  37  59  83 115 155 197 241 296 362
#     4  10  19  34  53  82 114 152 197 246 296 354
#     4  10  21  38  60  85 118 160 202 249 305 364
#     4  11  24  42  62  87 119 158 201 247 303 365
#     4  10  21  39  63  88 117 156 203 249 301 354
#     4  10  20  32  52  83 116 152 193 245 303 355
#     4  11  21  38  60  85 118 156 201 248 297 365
#     4  10  21  36  57  85 119 158 200 250 305 358
#
# _framework density 19.170162000000001
#
# number of rings (size 3 to 8) (size 9 to 14) (size 15 to 20)
#    0.000    1.750    1.250    3.375    0.000    2.000 
#    0.000    3.750    0.000    6.000    0.000    0.000 
#    0.000    0.000    0.000    0.000    0.000    0.000 
#
# Total GULP energy -178368.540503 kJ/mol
# GULP energy per Si atom -5574.016891 kJ/mol
# Density = 1.912653 g / cm^3
# Si number density = 19.170162 Si / 1000 Ang^3
#
#
#
# Elastic Constant Matrix: (Units=GPa)
#
#
# Indices 1 2 3 4 5 6 
#
# 1 55.9964 32.1171 10.8957 0.0000 -6.5346 0.0000
# 2 32.1171 100.4922 22.5071 0.0000 3.6275 0.0000
# 3 10.8957 22.5071 83.3565 0.0000 -3.3553 0.0000
# 4 0.0000 0.0000 0.0000 25.1503 0.0000 1.6583
# 5 -6.5346 3.6275 -3.3553 0.0000 27.3873 0.0000
# 6 0.0000 0.0000 0.0000 1.6583 0.0000 7.0931
#
#
#
# Elastic Compliance Matrix: (Units=1/GPa)
#
#
# Indices 1 2 3 4 5 6 
#
# 1 0.023000 -0.007414 -0.000748 0.000000 0.006378 0.000000
# 2 -0.007414 0.013066 -0.002713 0.000000 -0.003832 0.000000
# 3 -0.000748 -0.002713 0.012898 0.000000 0.001761 0.000000
# 4 0.000000 0.000000 0.000000 0.040383 0.000000 -0.009441
# 5 0.006378 -0.003832 0.001761 0.000000 0.038758 0.000000
# 6 0.000000 0.000000 0.000000 -0.009441 0.000000 0.143189
#
#
# Mechanical properties :
#
#
# Convention : Reuss Voigt Hill
#
# Bulk Modulus (GPa) = 36.74437 41.20941 38.97689
# Shear Modulus (GPa) = 16.54993 23.54784 20.04888
#
# Velocity S-wave (km/s) = 2.94141 3.50860 3.23745
# Velocity P-wave (km/s) = 5.54481 6.16092 5.86097
#
# Compressibility (1/GPa) = 0.02721506
#
# Stress axis : x y z
#
# Youngs Moduli (GPa) = 43.47787 76.53227 77.53184
#
# Poissons Ratio (x) = 0.56738 0.05799
# Poissons Ratio (y) = 0.32232 0.21036
# Poissons Ratio (z) = 0.03252 0.20765
#
# Static dielectric constant tensor:
#      x y z
#    x 1.660520 0.000000 -0.021050 
#    y 0.000000 1.685650 0.000000 
#    z -0.021050 0.000000 1.666280 
# 
# From -- ./inp_files/35015.got.cif
#   From: 2010.05.17/outbox.cif.g08.bks.cpg/sg11_18_cif.got.tgz:35015.got - 2010.06.03 12:22:45.
