data_PCOD9159716
_publ_section_title
;
Structure prediction by ZEFSAII (Michael W. Deem and Ramdas Pophale) SiO2 
 PCOD9159716
Probable space group: P 21/M
;
_chemical_formula_sum "Si O2"
_cell_formula_units_Z 32
_cell_length_a 8.541307
_cell_length_b 19.227592
_cell_length_c 12.544660
_cell_angle_alpha 90.000000
_cell_angle_beta 131.259943
_cell_angle_gamma 90.000000
_cell_volume 1548.700131
_symmetry_space_group_name_H-M "P 21/M"
_symmetry_group_IT_number 11
_symmetry_cell_setting 'monoclinic'
loop_
_space_group_symop_operation_xyz
x,y,z
-x,1/2+y,-z
-x,-y,-z
x,1/2-y,z
loop_
_atom_site_type_symbol
_atom_site_label
_atom_site_fract_x
_atom_site_fract_y
_atom_site_fract_z
Si Si1 0.633343 0.082836 0.595247
Si Si2 0.006313 0.169008 0.844233
Si Si3 0.887772 0.093331 0.429883
Si Si4 0.527215 0.172785 0.356867
Si Si5 0.485981 0.020634 0.742289
Si Si6 0.037124 0.460938 0.277059
Si Si7 0.781308 0.913895 0.225691
Si Si8 0.164977 0.094370 0.111906
O O1 0.798546 0.144016 0.691201
O O2 0.510219 0.113206 0.439959
O O3 0.237621 0.987284 0.373934
O O4 0.511079 0.065362 0.646999
O O5 0.004498 0.250000 0.869348
O O6 0.189253 0.148713 0.843121
O O7 0.018990 0.117368 0.950596
O O8 0.737117 0.158403 0.384479
O O9 0.717798 0.029967 0.357761
O O10 0.000620 0.085130 0.366648
O O11 0.052746 0.092292 0.601078
O O12 0.525862 0.250000 0.400470
O O13 0.327154 0.158057 0.195354
O O14 0.689397 0.972567 0.846985
O O15 0.438623 0.071408 0.819197
O O16 0.053027 0.420184 0.173660
O O17 0.849499 0.516688 0.193097
#
# Coordination Sequence:
#
# PCOD9159716 Si02
#       8
#     4   4   4   4   4   4   4   4
#     4  10  21  34  63  85 114 148 183 244 280 335
#     4  11  23  43  57  75 115 165 195 221 280 345
#     4  10  19  33  60  88 119 148 174 238 290 345
#     4  11  22  36  53  83 113 152 199 229 275 336
#     4   9  20  35  58  93 118 134 188 237 306 323
#     4   9  18  34  58  90 114 137 188 227 301 328
#     4  10  20  33  61  87 117 148 181 233 287 349
#     4  10  23  36  62  83 114 152 186 245 281 337
#
# _framework density 20.662489000000001
#
# number of rings (size 3 to 8) (size 9 to 14) (size 15 to 20)
#    0.000    2.000    2.500    2.250    5.250    6.500 
#    0.000    5.000    0.000    0.000    0.000    0.000 
#    0.000    0.000    0.000    0.000    0.000    0.000 
#
# Total GULP energy -178644.484362 kJ/mol
# GULP energy per Si atom -5582.640136 kJ/mol
# Density = 2.061546 g / cm^3
# Si number density = 20.662489 Si / 1000 Ang^3
#
#
#
# Elastic Constant Matrix: (Units=GPa)
#
#
# Indices 1 2 3 4 5 6 
#
# 1 115.2006 24.0113 6.2231 0.0000 -28.7242 0.0000
# 2 24.0113 68.6682 -0.8982 0.0000 -9.7971 0.0000
# 3 6.2231 -0.8982 37.1430 0.0000 -13.8705 0.0000
# 4 0.0000 0.0000 0.0000 20.8181 0.0000 -5.8822
# 5 -28.7242 -9.7971 -13.8705 0.0000 24.7662 0.0000
# 6 0.0000 0.0000 0.0000 -5.8822 0.0000 17.1216
#
#
#
# Elastic Compliance Matrix: (Units=1/GPa)
#
#
# Indices 1 2 3 4 5 6 
#
# 1 0.013015 -0.002156 0.003902 0.000000 0.016428 0.000000
# 2 -0.002156 0.016129 0.002782 0.000000 0.005438 0.000000
# 3 0.003902 0.002782 0.035958 0.000000 0.025764 0.000000
# 4 0.000000 0.000000 0.000000 0.053199 0.000000 0.018277
# 5 0.016428 0.005438 0.025764 0.000000 0.076011 0.000000
# 6 0.000000 0.000000 0.000000 0.018277 0.000000 0.064685
#
#
# Mechanical properties :
#
#
# Convention : Reuss Voigt Hill
#
# Bulk Modulus (GPa) = 13.48493 31.07604 22.28049
# Shear Modulus (GPa) = 18.20424 25.31953 21.76189
#
# Velocity S-wave (km/s) = 2.97143 3.50435 3.24884
# Velocity P-wave (km/s) = 4.27937 5.60771 4.98796
#
# Compressibility (1/GPa) = 0.07415684
#
# Stress axis : x y z
#
# Youngs Moduli (GPa) = 76.83313 62.00043 27.81036
#
# Poissons Ratio (x) = 0.13369 -0.10851
# Poissons Ratio (y) = 0.16567 -0.07736
# Poissons Ratio (z) = -0.29979 -0.17247
#
# Static dielectric constant tensor:
#      x y z
#    x 1.789150 0.000000 0.019210 
#    y 0.000000 1.740530 0.000000 
#    z 0.019210 0.000000 1.760550 
# 
# From -- ./inp_files/32859.got.cif
#   From: 2010.05.17/outbox.cif.g08.bks.cpg/sg11_17_cif.got.tgz:32859.got - 2010.06.03 12:22:45.
