data_PCOD9159458
_publ_section_title
;
Structure prediction by ZEFSAII (Michael W. Deem and Ramdas Pophale) SiO2 
 PCOD9159458
Probable space group: P 21/M
;
_chemical_formula_sum "Si O2"
_cell_formula_units_Z 32
_cell_length_a 23.333219
_cell_length_b 8.726060
_cell_length_c 28.767421
_cell_angle_alpha 90.000000
_cell_angle_beta 162.093638
_cell_angle_gamma 90.000000
_cell_volume 1800.883517
_symmetry_space_group_name_H-M "P 21/M"
_symmetry_group_IT_number 11
_symmetry_cell_setting 'monoclinic'
loop_
_space_group_symop_operation_xyz
x,y,z
-x,1/2+y,-z
-x,-y,-z
x,1/2-y,z
loop_
_atom_site_type_symbol
_atom_site_label
_atom_site_fract_x
_atom_site_fract_y
_atom_site_fract_z
Si Si1 0.576436 0.064923 0.459423
Si Si2 0.119427 0.933734 0.229238
Si Si3 0.847091 0.566727 0.847115
Si Si4 0.116363 0.934566 0.478972
Si Si5 0.844937 0.934074 0.345477
Si Si6 0.163097 0.433774 0.908395
Si Si7 0.572008 0.934522 0.210505
Si Si8 0.857007 0.567265 0.603297
O O1 0.586863 0.250000 0.463141
O O2 0.700529 0.023203 0.600474
O O3 0.362647 0.018487 0.300534
O O4 0.676611 0.991768 0.492313
O O5 0.123912 0.750000 0.226232
O O6 0.940168 0.971443 0.122688
O O7 0.117992 0.012696 0.178497
O O8 0.853700 0.750000 0.854237
O O9 0.000000 0.500000 0.000000
O O10 0.128219 0.750000 0.486404
O O11 0.919838 0.978781 0.352429
O O12 0.280887 0.998615 0.638821
O O13 0.136087 0.002670 0.443241
O O14 0.852867 0.750000 0.353198
O O15 0.650156 0.978253 0.219242
O O16 0.000000 0.000000 0.500000
O O17 0.164215 0.250000 0.904949
O O18 0.032872 0.503383 0.767837
O O19 0.369394 0.499054 0.063845
O O20 0.569615 0.750000 0.212103
O O21 0.859796 0.750000 0.605019
#
# Coordination Sequence:
#
# PCOD9159458 Si02
#       8
#     4   4   4   4   4   4   4   4
#     4   9  20  39  59  79 105 141 178 214 261 323
#     4   9  19  37  59  79 103 136 177 218 259 313
#     4  11  23  37  56  82 112 141 173 215 263 310
#     4  10  19  34  55  78 107 145 181 217 269 329
#     4   8  16  30  50  75 104 138 177 219 265 317
#     4  10  21  38  57  79 109 146 180 215 266 327
#     4  10  19  33  54  82 110 137 178 229 269 311
#     4  11  22  36  56  82 108 138 179 229 271 310
#
# _framework density 17.769057
#
# number of rings (size 3 to 8) (size 9 to 14) (size 15 to 20)
#    0.000    2.250    0.000    3.750    0.000    5.500 
#    0.000    1.875    0.000    0.000    0.000    0.000 
#    0.000    0.000    0.000    0.000    0.000    0.000 
#
# Total GULP energy -178508.894504 kJ/mol
# GULP energy per Si atom -5578.402953 kJ/mol
# Density = 1.772861 g / cm^3
# Si number density = 17.769057 Si / 1000 Ang^3
#
#
#
# Elastic Constant Matrix: (Units=GPa)
#
#
# Indices 1 2 3 4 5 6 
#
# 1 189.8463 64.9048 103.3433 0.0000 9.9615 0.0000
# 2 64.9048 61.5091 50.9907 0.0000 9.1842 0.0000
# 3 103.3433 50.9907 142.8798 0.0000 33.6880 0.0000
# 4 0.0000 0.0000 0.0000 91.0887 0.0000 80.5635
# 5 9.9615 9.1842 33.6880 0.0000 22.9384 0.0000
# 6 0.0000 0.0000 0.0000 80.5635 0.0000 139.0192
#
#
#
# Elastic Compliance Matrix: (Units=1/GPa)
#
#
# Indices 1 2 3 4 5 6 
#
# 1 0.011587 -0.006853 -0.008254 0.000000 0.009834 0.000000
# 2 -0.006853 0.027431 -0.004505 0.000000 -0.001391 0.000000
# 3 -0.008254 -0.004505 0.020354 0.000000 -0.024505 0.000000
# 4 0.000000 0.000000 0.000000 0.022522 0.000000 -0.013052
# 5 0.009834 -0.001391 -0.024505 0.000000 0.075870 0.000000
# 6 0.000000 0.000000 0.000000 -0.013052 0.000000 0.014757
#
#
# Mechanical properties :
#
#
# Convention : Reuss Voigt Hill
#
# Bulk Modulus (GPa) = 49.62996 92.52364 71.07680
# Shear Modulus (GPa) = 22.88727 62.27567 42.58147
#
# Velocity S-wave (km/s) = 3.59282 5.92650 4.90060
# Velocity P-wave (km/s) = 6.72327 9.95059 8.49166
#
# Compressibility (1/GPa) = 0.02014912
#
# Stress axis : x y z
#
# Youngs Moduli (GPa) = 86.30114 36.45467 49.12958
#
# Poissons Ratio (x) = 0.24982 0.40551
# Poissons Ratio (y) = 0.59141 0.22134
# Poissons Ratio (z) = 0.71232 0.16423
#
# Static dielectric constant tensor:
#      x y z
#    x 1.607240 0.000000 0.026570 
#    y 0.000000 1.619950 0.000000 
#    z 0.026570 0.000000 1.588400 
# 
# From -- ./inp_files/72154.got.cif
#   From: 2010.05.17/outbox.cif.g08.bks.cpg/sg11_37_cif.got.tgz:72154.got - 2010.06.03 12:22:45.
