data_PCOD9159497
_publ_section_title
;
Structure prediction by ZEFSAII (Michael W. Deem and Ramdas Pophale) SiO2 
 PCOD9159497
Probable space group: P 21/M
;
_chemical_formula_sum "Si O2"
_cell_formula_units_Z 24
_cell_length_a 17.108321
_cell_length_b 8.347646
_cell_length_c 23.904790
_cell_angle_alpha 90.000000
_cell_angle_beta 22.911994
_cell_angle_gamma 90.000000
_cell_volume 1329.105536
_symmetry_space_group_name_H-M "P 21/M"
_symmetry_group_IT_number 11
_symmetry_cell_setting 'monoclinic'
loop_
_space_group_symop_operation_xyz
x,y,z
-x,1/2+y,-z
-x,-y,-z
x,1/2-y,z
loop_
_atom_site_type_symbol
_atom_site_label
_atom_site_fract_x
_atom_site_fract_y
_atom_site_fract_z
Si Si1 0.864719 0.556893 0.403260
Si Si2 0.288469 0.556336 0.162459
Si Si3 0.577246 0.443526 0.689659
Si Si4 0.216781 0.556488 0.336310
Si Si5 0.775047 0.558125 0.158395
Si Si6 0.487087 0.441971 0.445057
O O1 0.866034 0.750000 0.400424
O O2 0.755835 0.505224 0.532284
O O3 0.718723 0.500147 0.449691
O O4 0.094758 0.501450 0.254294
O O5 0.286132 0.750000 0.164192
O O6 0.259740 0.500084 0.245339
O O7 0.500000 0.500000 0.000000
O O8 0.580040 0.250000 0.686624
O O9 0.621102 0.495691 0.723980
O O10 0.371735 0.496878 0.795431
O O11 0.215787 0.750000 0.335868
O O12 0.000000 0.500000 0.500000
O O13 0.774278 0.750000 0.159975
O O14 0.669772 0.498719 0.284936
O O15 0.000000 0.500000 0.000000
O O16 0.500000 0.500000 0.500000
O O17 0.486504 0.250000 0.445135
#
# Coordination Sequence:
#
# PCOD9159497 Si02
#       6
#     4   4   4   4   4   4
#     4   9  18  34  55  77 105 138 175 216 260 312
#     4  10  21  36  52  75 109 142 174 213 259 310
#     4   9  18  32  54  81 106 134 174 217 260 312
#     4  10  19  33  55  80 105 134 174 217 257 309
#     4  10  20  36  56  80 112 143 177 221 271 321
#     4  10  20  36  58  81 107 140 181 224 269 321
#
# _framework density 18.057257
#
# number of rings (size 3 to 8) (size 9 to 14) (size 15 to 20)
#    0.000    2.333    1.667    1.000    0.000    2.667 
#    3.000    0.000    0.000    0.000    0.000    0.000 
#    0.000    0.000    0.000    0.000    0.000    0.000 
#
# Total GULP energy -133843.177714 kJ/mol
# GULP energy per Si atom -5576.799071 kJ/mol
# Density = 1.801616 g / cm^3
# Si number density = 18.057257 Si / 1000 Ang^3
#
#
#
# Elastic Constant Matrix: (Units=GPa)
#
#
# Indices 1 2 3 4 5 6 
#
# 1 158.4124 23.7925 96.9785 0.0000 0.1823 0.0000
# 2 23.7925 14.8649 19.0615 0.0000 -1.4254 0.0000
# 3 96.9785 19.0615 162.5204 0.0000 -16.6371 0.0000
# 4 0.0000 0.0000 0.0000 32.1316 0.0000 2.0307
# 5 0.1823 -1.4254 -16.6371 0.0000 27.8679 0.0000
# 6 0.0000 0.0000 0.0000 2.0307 0.0000 19.6481
#
#
#
# Elastic Compliance Matrix: (Units=1/GPa)
#
#
# Indices 1 2 3 4 5 6 
#
# 1 0.011791 -0.011413 -0.006140 0.000000 -0.004326 0.000000
# 2 -0.011413 0.090296 -0.003514 0.000000 0.002595 0.000000
# 3 -0.006140 -0.003514 0.010880 0.000000 0.006356 0.000000
# 4 0.000000 0.000000 0.000000 0.031327 0.000000 -0.003238
# 5 -0.004326 0.002595 0.006356 0.000000 0.039839 0.000000
# 6 0.000000 0.000000 0.000000 -0.003238 0.000000 0.051230
#
#
# Mechanical properties :
#
#
# Convention : Reuss Voigt Hill
#
# Bulk Modulus (GPa) = 14.11814 68.38475 41.25145
# Shear Modulus (GPa) = 16.60539 28.99387 22.79963
#
# Velocity S-wave (km/s) = 3.03577 4.01142 3.55721
# Velocity P-wave (km/s) = 4.48591 7.70770 6.30603
#
# Compressibility (1/GPa) = 0.07083085
#
# Stress axis : x y z
#
# Youngs Moduli (GPa) = 84.81323 11.07472 91.91477
#
# Poissons Ratio (x) = 0.12640 0.56435
# Poissons Ratio (y) = 0.96800 0.32302
# Poissons Ratio (z) = 0.52074 0.03892
#
# Static dielectric constant tensor:
#      x y z
#    x 1.655010 0.000000 -0.026790 
#    y 0.000000 1.633200 0.000000 
#    z -0.026790 0.000000 1.587270 
# 
# From -- ./inp_files/20621.got.cif
#   From: 2010.05.17/outbox.cif.g08.bks.cpg/sg11_11_cif.got.tgz:20621.got - 2010.06.03 12:22:45.
