data_PCOD9159786
_publ_section_title
;
Structure prediction by ZEFSAII (Michael W. Deem and Ramdas Pophale) SiO2 
 PCOD9159786
Probable space group: P 21/M
;
_chemical_formula_sum "Si O2"
_cell_formula_units_Z 32
_cell_length_a 8.236976
_cell_length_b 14.609693
_cell_length_c 14.853736
_cell_angle_alpha 90.000000
_cell_angle_beta 121.589897
_cell_angle_gamma 90.000000
_cell_volume 1522.621911
_symmetry_space_group_name_H-M "P 21/M"
_symmetry_group_IT_number 11
_symmetry_cell_setting 'monoclinic'
loop_
_space_group_symop_operation_xyz
x,y,z
-x,1/2+y,-z
-x,-y,-z
x,1/2-y,z
loop_
_atom_site_type_symbol
_atom_site_label
_atom_site_fract_x
_atom_site_fract_y
_atom_site_fract_z
Si Si1 0.459036 0.858375 0.682752
Si Si2 0.029985 0.852619 0.014725
Si Si3 0.162808 0.524506 0.479054
Si Si4 0.574809 0.012254 0.163316
Si Si5 0.818348 0.502134 0.064064
Si Si6 0.570047 0.146660 0.772015
Si Si7 0.677814 0.850317 0.579039
Si Si8 0.734227 0.352013 0.635827
O O1 0.409383 0.750000 0.667971
O O2 0.313427 0.922306 0.585428
O O3 0.456681 0.900206 0.781747
O O4 0.651439 0.866014 0.678328
O O5 0.958058 0.750000 0.974861
O O6 0.248867 0.844745 0.110173
O O7 0.044072 0.922489 0.934989
O O8 0.916975 0.902902 0.062635
O O9 0.232576 0.432692 0.449925
O O10 0.122002 0.592014 0.383591
O O11 0.000000 0.500000 0.500000
O O12 0.754113 0.013541 0.148040
O O13 0.578649 0.922601 0.228069
O O14 0.381864 0.002448 0.048631
O O15 0.497232 0.250000 0.732069
O O16 0.661150 0.105685 0.707555
O O17 0.766734 0.750000 0.589560
O O18 0.461738 0.845177 0.477830
O O19 0.805490 0.250000 0.676544
#
# Coordination Sequence:
#
# PCOD9159786 Si02
#       8
#     4   4   4   4   4   4   4   4
#     4  10  21  37  55  76 103 138 178 216 257 309
#     4   9  18  34  52  72 103 136 167 207 256 312
#     4  11  21  32  51  76 105 139 168 209 260 303
#     4  10  19  34  54  77 104 131 170 223 263 302
#     4   9  20  34  52  77 102 135 175 212 261 318
#     4   9  17  30  52  77 100 130 166 209 259 306
#     4   9  18  33  53  74  99 134 174 209 246 301
#     4   9  17  32  52  72  96 130 169 204 245 301
#
# _framework density 21.016380999999999
#
# number of rings (size 3 to 8) (size 9 to 14) (size 15 to 20)
#    0.000    2.500    0.000    4.125    0.000    3.500 
#    0.000    3.750    0.000    4.500    0.000    0.000 
#    0.000    0.000    0.000    0.000    0.000    0.000 
#
# Total GULP energy -178327.813080 kJ/mol
# GULP energy per Si atom -5572.744159 kJ/mol
# Density = 2.096855 g / cm^3
# Si number density = 21.016381 Si / 1000 Ang^3
#
#
#
# Elastic Constant Matrix: (Units=GPa)
#
#
# Indices 1 2 3 4 5 6 
#
# 1 77.4931 61.8947 29.0922 0.0000 -44.9271 0.0000
# 2 61.8947 157.8384 38.9816 0.0000 -41.0622 0.0000
# 3 29.0922 38.9816 66.7980 0.0000 -38.6400 0.0000
# 4 0.0000 0.0000 0.0000 24.1322 0.0000 -14.0188
# 5 -44.9271 -41.0622 -38.6400 0.0000 41.0865 0.0000
# 6 0.0000 0.0000 0.0000 -14.0188 0.0000 -76.9855
#
#
#
# Elastic Compliance Matrix: (Units=1/GPa)
#
#
# Indices 1 2 3 4 5 6 
#
# 1 0.049598 -0.007284 0.021516 0.000000 0.067191 0.000000
# 2 -0.007284 0.009632 -0.003262 0.000000 -0.001407 0.000000
# 3 0.021516 -0.003262 0.042166 0.000000 0.059923 0.000000
# 4 0.000000 0.000000 0.000000 0.037474 0.000000 -0.006824
# 5 0.067191 -0.001407 0.059923 0.000000 0.152760 0.000000
# 6 0.000000 0.000000 0.000000 -0.006824 0.000000 -0.011747
#
#
# Mechanical properties :
#
#
# Convention : Reuss Voigt Hill
#
# Bulk Modulus (GPa) = 8.10783 62.45185 35.27984
# Shear Modulus (GPa) = 16.71933 9.12404 12.92168
#
# Velocity S-wave (km/s) = 2.82359 2.08586 2.48228
# Velocity P-wave (km/s) = 3.80742 5.96501 5.00389
#
# Compressibility (1/GPa) = 0.12333758
#
# Stress axis : x y z
#
# Youngs Moduli (GPa) = 20.16191 103.82570 23.71551
#
# Poissons Ratio (x) = 0.75622 -0.51027
# Poissons Ratio (y) = 0.14685 0.07736
# Poissons Ratio (z) = -0.43381 0.33869
#
# Static dielectric constant tensor:
#      x y z
#    x 1.749080 0.000000 0.013020 
#    y 0.000000 1.774140 0.000000 
#    z 0.013020 0.000000 1.832870 
# 
# From -- ./inp_files/47466.got.cif
#   From: 2010.05.17/outbox.cif.g08.bks.cpg/sg11_24_cif.got.tgz:47466.got - 2010.06.03 12:22:45.
