data_PCOD9159215
_publ_section_title
;
Structure prediction by ZEFSAII (Michael W. Deem and Ramdas Pophale) SiO2 
 PCOD9159215
Probable space group: P 21/M
;
_chemical_formula_sum "Si O2"
_cell_formula_units_Z 24
_cell_length_a 15.322931
_cell_length_b 10.963122
_cell_length_c 15.679007
_cell_angle_alpha 90.000000
_cell_angle_beta 152.235731
_cell_angle_gamma 90.000000
_cell_volume 1226.949458
_symmetry_space_group_name_H-M "P 21/M"
_symmetry_group_IT_number 11
_symmetry_cell_setting 'monoclinic'
loop_
_space_group_symop_operation_xyz
x,y,z
-x,1/2+y,-z
-x,-y,-z
x,1/2-y,z
loop_
_atom_site_type_symbol
_atom_site_label
_atom_site_fract_x
_atom_site_fract_y
_atom_site_fract_z
Si Si1 0.462490 0.384947 0.112575
Si Si2 0.789116 0.884559 0.259325
Si Si3 0.165412 0.999861 0.530273
Si Si4 0.044481 0.392462 0.104716
Si Si5 0.328008 0.888135 0.108078
Si Si6 0.701120 0.608380 0.527321
O O1 0.398986 0.250000 0.087477
O O2 0.685176 0.394236 0.318777
O O3 0.371064 0.499405 0.082759
O O4 0.396939 0.395828 0.957928
O O5 0.864705 0.750000 0.308298
O O6 0.766941 0.901550 0.341006
O O7 0.950119 0.973866 0.364477
O O8 0.196163 0.036703 0.459694
O O9 0.055762 0.250000 0.082554
O O10 0.231036 0.424327 0.319856
O O11 0.000000 0.500000 0.000000
O O12 0.876579 0.394236 0.028549
O O13 0.354410 0.750000 0.094607
O O14 0.481681 0.901801 0.316540
O O15 0.753404 0.750000 0.561985
#
# Coordination Sequence:
#
# PCOD9159215 Si02
#       6
#     4   4   4   4   4   4
#     4  10  20  34  52  77 108 138 172 216 259 298
#     4  10  20  32  48  73 105 139 176 218 259 298
#     4  10  19  33  51  73 101 138 178 214 254 302
#     4  10  21  37  56  80 106 132 166 209 257 310
#     4   9  19  36  56  78 104 137 174 208 248 305
#     4   9  18  34  55  75 100 135 174 213 253 303
#
# _framework density 19.560708999999999
#
# number of rings (size 3 to 8) (size 9 to 14) (size 15 to 20)
#    0.000    2.333    0.000    2.500    0.000    2.000 
#    0.000    8.333    0.000    0.000    0.000    0.000 
#    0.000    0.000    0.000    0.000    0.000    0.000 
#
# Total GULP energy -133651.405534 kJ/mol
# GULP energy per Si atom -5568.808564 kJ/mol
# Density = 1.951619 g / cm^3
# Si number density = 19.560709 Si / 1000 Ang^3
#
#
#
# Elastic Constant Matrix: (Units=GPa)
#
#
# Indices 1 2 3 4 5 6 
#
# 1 12.0948 13.1831 9.1056 0.0000 -5.4355 0.0000
# 2 13.1831 93.2005 38.4449 0.0000 -19.8701 0.0000
# 3 9.1056 38.4449 66.1519 0.0000 -26.0324 0.0000
# 4 0.0000 0.0000 0.0000 21.1170 0.0000 -1.5218
# 5 -5.4355 -19.8701 -26.0324 0.0000 31.7311 0.0000
# 6 0.0000 0.0000 0.0000 -1.5218 0.0000 24.7821
#
#
#
# Elastic Compliance Matrix: (Units=1/GPa)
#
#
# Indices 1 2 3 4 5 6 
#
# 1 0.101216 -0.010849 -0.005136 0.000000 0.006331 0.000000
# 2 -0.010849 0.015487 -0.006530 0.000000 0.002482 0.000000
# 3 -0.005136 -0.006530 0.026085 0.000000 0.016431 0.000000
# 4 0.000000 0.000000 0.000000 0.047566 0.000000 0.002921
# 5 0.006331 0.002482 0.016431 0.000000 0.047634 0.000000
# 6 0.000000 0.000000 0.000000 0.002921 0.000000 0.040531
#
#
# Mechanical properties :
#
#
# Convention : Reuss Voigt Hill
#
# Bulk Modulus (GPa) = 10.22927 32.54605 21.38766
# Shear Modulus (GPa) = 14.03962 22.90694 18.47328
#
# Velocity S-wave (km/s) = 2.68198 3.42580 3.07646
# Velocity P-wave (km/s) = 3.85118 5.68531 4.85563
#
# Compressibility (1/GPa) = 0.09775865
#
# Stress axis : x y z
#
# Youngs Moduli (GPa) = 9.87982 64.57003 38.33629
#
# Poissons Ratio (x) = 0.70050 0.19688
# Poissons Ratio (y) = 0.10718 0.25035
# Poissons Ratio (z) = 0.05074 0.42167
#
# Static dielectric constant tensor:
#      x y z
#    x 1.665550 0.000000 -0.001440 
#    y 0.000000 1.722040 0.000000 
#    z -0.001440 0.000000 1.722130 
# 
# From -- ./inp_files/52210.got.cif
#   From: 2010.05.17/outbox.cif.g08.bks.cpg/sg11_27_cif.got.tgz:52210.got - 2010.06.03 12:22:45.
