data_PCOD9159953
_publ_section_title
;
Structure prediction by ZEFSAII (Michael W. Deem and Ramdas Pophale) SiO2 
 PCOD9159953
Probable space group: P 21/M
;
_chemical_formula_sum "Si O2"
_cell_formula_units_Z 32
_cell_length_a 34.470552
_cell_length_b 7.731524
_cell_length_c 13.034666
_cell_angle_alpha 90.000000
_cell_angle_beta 24.769484
_cell_angle_gamma 90.000000
_cell_volume 1455.441196
_symmetry_space_group_name_H-M "P 21/M"
_symmetry_group_IT_number 11
_symmetry_cell_setting 'monoclinic'
loop_
_space_group_symop_operation_xyz
x,y,z
-x,1/2+y,-z
-x,-y,-z
x,1/2-y,z
loop_
_atom_site_type_symbol
_atom_site_label
_atom_site_fract_x
_atom_site_fract_y
_atom_site_fract_z
Si Si1 0.611637 0.048309 0.919060
Si Si2 0.921619 0.541314 0.449192
Si Si3 0.865758 0.542779 0.029671
Si Si4 0.393406 0.458303 0.729862
Si Si5 0.747811 0.544748 0.757974
Si Si6 0.411807 0.462043 0.459104
Si Si7 0.891887 0.957066 0.743945
Si Si8 0.673479 0.541068 0.552851
O O1 0.609541 0.250000 0.945576
O O2 0.702884 0.979785 0.755283
O O3 0.614968 0.021867 0.789629
O O4 0.517996 0.975858 0.193866
O O5 0.923755 0.750000 0.446939
O O6 0.851765 0.479957 0.528840
O O7 0.875100 0.480785 0.668837
O O8 0.029389 0.491664 0.187331
O O9 0.858171 0.750000 0.041796
O O10 0.849298 0.476030 0.952322
O O11 0.780650 0.482953 0.303408
O O12 0.500000 0.500000 0.500000
O O13 0.385499 0.250000 0.748072
O O14 0.372303 0.517759 0.664050
O O15 0.324257 0.525621 0.983576
O O16 0.752256 0.750000 0.764179
O O17 0.409839 0.250000 0.464052
O O18 0.362650 0.514896 0.471890
O O19 0.876362 0.750000 0.779640
O O20 0.000000 0.000000 0.500000
O O21 0.669183 0.750000 0.566225
#
# Coordination Sequence:
#
# PCOD9159953 Si02
#       8
#     4   4   4   4   4   4   4   4
#     4  11  22  38  57  79 109 144 184 231 277 321
#     4   9  18  32  52  78 109 143 179 219 264 320
#     4   9  18  32  52  78 107 140 179 222 268 319
#     4  10  19  34  56  83 115 146 179 220 269 324
#     4  10  21  35  56  83 111 148 186 220 265 327
#     4   9  19  35  57  83 111 143 178 220 272 328
#     4   8  14  26  45  70 100 133 166 205 255 308
#     4  10  21  37  58  81 107 143 186 228 270 324
#
# _framework density 21.986460999999998
#
# number of rings (size 3 to 8) (size 9 to 14) (size 15 to 20)
#    0.000    2.500    1.250    0.750    1.750    1.000 
#    0.000    1.875    0.000    0.000    0.000    0.000 
#    0.000    0.000    0.000    0.000    0.000    0.000 
#
# Total GULP energy -178467.022670 kJ/mol
# GULP energy per Si atom -5577.094458 kJ/mol
# Density = 2.193642 g / cm^3
# Si number density = 21.986461 Si / 1000 Ang^3
#
#
#
# Elastic Constant Matrix: (Units=GPa)
#
#
# Indices 1 2 3 4 5 6 
#
# 1 91.1179 -6.4277 5.9435 0.0000 -9.7789 0.0000
# 2 -6.4277 30.0358 -0.4514 0.0000 -1.8724 0.0000
# 3 5.9435 -0.4514 36.2610 0.0000 -2.2809 0.0000
# 4 0.0000 0.0000 0.0000 13.6525 0.0000 1.6559
# 5 -9.7789 -1.8724 -2.2809 0.0000 33.5617 0.0000
# 6 0.0000 0.0000 0.0000 1.6559 0.0000 14.1017
#
#
#
# Elastic Compliance Matrix: (Units=1/GPa)
#
#
# Indices 1 2 3 4 5 6 
#
# 1 0.011640 0.002680 -0.001659 0.000000 0.003428 0.000000
# 2 0.002680 0.034037 0.000154 0.000000 0.002690 0.000000
# 3 -0.001659 0.000154 0.027941 0.000000 0.001424 0.000000
# 4 0.000000 0.000000 0.000000 0.074305 0.000000 -0.008725
# 5 0.003428 0.002690 0.001424 0.000000 0.031042 0.000000
# 6 0.000000 0.000000 0.000000 -0.008725 0.000000 0.071938
#
#
# Mechanical properties :
#
#
# Convention : Reuss Voigt Hill
#
# Bulk Modulus (GPa) = 13.16354 17.28261 15.22308
# Shear Modulus (GPa) = 18.25642 22.81986 20.53814
#
# Velocity S-wave (km/s) = 2.88470 3.22515 3.05966
# Velocity P-wave (km/s) = 4.13467 4.66330 4.40692
#
# Compressibility (1/GPa) = 0.07596738
#
# Stress axis : x y z
#
# Youngs Moduli (GPa) = 85.91085 29.37976 35.78941
#
# Poissons Ratio (x) = -0.07873 0.05937
# Poissons Ratio (y) = -0.23022 -0.00550
# Poissons Ratio (z) = 0.14252 -0.00452
#
# Static dielectric constant tensor:
#      x y z
#    x 1.821890 0.000000 -0.017850 
#    y 0.000000 1.822490 0.000000 
#    z -0.017850 0.000000 1.820700 
# 
# From -- ./inp_files/45172.got.cif
#   From: 2010.05.17/outbox.cif.g08.bks.cpg/sg11_23_cif.got.tgz:45172.got - 2010.06.03 12:22:45.
