data_PCOD9159923
_publ_section_title
;
Structure prediction by ZEFSAII (Michael W. Deem and Ramdas Pophale) SiO2 
 PCOD9159923
Probable space group: P 21/M
;
_chemical_formula_sum "Si O2"
_cell_formula_units_Z 32
_cell_length_a 12.235633
_cell_length_b 8.327933
_cell_length_c 31.508511
_cell_angle_alpha 90.000000
_cell_angle_beta 150.206444
_cell_angle_gamma 90.000000
_cell_volume 1595.290873
_symmetry_space_group_name_H-M "P 21/M"
_symmetry_group_IT_number 11
_symmetry_cell_setting 'monoclinic'
loop_
_space_group_symop_operation_xyz
x,y,z
-x,1/2+y,-z
-x,-y,-z
x,1/2-y,z
loop_
_atom_site_type_symbol
_atom_site_label
_atom_site_fract_x
_atom_site_fract_y
_atom_site_fract_z
Si Si1 0.965708 0.056215 0.940936
Si Si2 0.335370 0.564990 0.001993
Si Si3 0.213861 0.564913 0.811625
Si Si4 0.962233 0.563690 0.166604
Si Si5 0.639003 0.056247 0.762829
Si Si6 0.753463 0.942274 0.425507
Si Si7 0.831481 0.944836 0.626001
Si Si8 0.592678 0.441742 0.463236
O O1 0.982252 0.250000 0.943619
O O2 0.736085 0.005335 0.841034
O O3 0.000000 0.000000 0.000000
O O4 0.157460 0.978021 0.977760
O O5 0.318813 0.750000 0.983679
O O6 0.571058 0.529683 0.101652
O O7 0.257802 0.459458 0.935780
O O8 0.275321 0.750000 0.825574
O O9 0.053423 0.547898 0.798011
O O10 0.070106 0.505042 0.723663
O O11 0.981254 0.750000 0.185610
O O12 0.167667 0.521393 0.206004
O O13 0.622073 0.250000 0.759062
O O14 0.412194 0.994544 0.666987
O O15 0.753141 0.750000 0.423777
O O16 0.657743 0.990856 0.439301
O O17 0.000000 0.000000 0.500000
O O18 0.827656 0.750000 0.623834
O O19 0.640203 0.997708 0.594750
O O20 0.768458 0.009277 0.558612
O O21 0.584453 0.250000 0.457066
#
# Coordination Sequence:
#
# PCOD9159923 Si02
#       8
#     4   4   4   4   4   4   4   4
#     4  10  20  39  62  85 110 144 187 235 283 336
#     4  11  22  36  53  78 111 148 186 228 277 331
#     4  11  21  34  52  80 115 148 184 228 276 332
#     4  10  19  34  56  81 110 146 185 229 279 335
#     4   8  18  36  59  83 109 143 187 230 277 334
#     4  11  22  39  60  85 116 152 192 242 294 344
#     4   9  20  37  58  84 114 150 191 235 284 343
#     4  10  20  37  60  85 113 147 188 237 290 347
#
# _framework density 20.059038999999999
#
# number of rings (size 3 to 8) (size 9 to 14) (size 15 to 20)
#    0.000    2.000    0.000    4.875    0.000    1.500 
#    2.250    6.875    0.000    0.000    0.000    0.000 
#    0.000    0.000    0.000    0.000    0.000    0.000 
#
# Total GULP energy -178640.803769 kJ/mol
# GULP energy per Si atom -5582.525118 kJ/mol
# Density = 2.001338 g / cm^3
# Si number density = 20.059039 Si / 1000 Ang^3
#
#
#
# Elastic Constant Matrix: (Units=GPa)
#
#
# Indices 1 2 3 4 5 6 
#
# 1 51.1214 3.6937 39.3888 0.0000 -15.7558 0.0000
# 2 3.6937 40.8210 12.6251 0.0000 3.3310 0.0000
# 3 39.3888 12.6251 161.2347 0.0000 -9.8665 0.0000
# 4 0.0000 0.0000 0.0000 24.5667 0.0000 -1.3667
# 5 -15.7558 3.3310 -9.8665 0.0000 24.0501 0.0000
# 6 0.0000 0.0000 0.0000 -1.3667 0.0000 31.1391
#
#
#
# Elastic Compliance Matrix: (Units=1/GPa)
#
#
# Indices 1 2 3 4 5 6 
#
# 1 0.029690 -0.002236 -0.006020 0.000000 0.017291 0.000000
# 2 -0.002236 0.025734 -0.001822 0.000000 -0.005776 0.000000
# 3 -0.006020 -0.001822 0.007785 0.000000 -0.000498 0.000000
# 4 0.000000 0.000000 0.000000 0.040805 0.000000 0.001791
# 5 0.017291 -0.005776 -0.000498 0.000000 0.053503 0.000000
# 6 0.000000 0.000000 0.000000 0.001791 0.000000 0.032193
#
#
# Mechanical properties :
#
#
# Convention : Reuss Voigt Hill
#
# Bulk Modulus (GPa) = 23.22682 40.51027 31.86854
# Shear Modulus (GPa) = 22.29973 29.11581 25.70777
#
# Velocity S-wave (km/s) = 3.33784 3.81400 3.58384
# Velocity P-wave (km/s) = 5.14386 6.29562 5.74865
#
# Compressibility (1/GPa) = 0.04305368
#
# Stress axis : x y z
#
# Youngs Moduli (GPa) = 33.68115 38.85841 128.45136
#
# Poissons Ratio (x) = 0.08687 0.77328
# Poissons Ratio (y) = 0.07530 0.23409
# Poissons Ratio (z) = 0.20276 0.07082
#
# Static dielectric constant tensor:
#      x y z
#    x 1.678890 0.000000 -0.008250 
#    y 0.000000 1.705150 0.000000 
#    z -0.008250 0.000000 1.740870 
# 
# From -- ./inp_files/73180.got.cif
#   From: 2010.05.17/outbox.cif.g08.bks.cpg/sg11_37_cif.got.tgz:73180.got - 2010.06.03 12:22:45.
