data_PCOD9159471
_publ_section_title
;
Structure prediction by ZEFSAII (Michael W. Deem and Ramdas Pophale) SiO2 
 PCOD9159471
Probable space group: P 21/M
;
_chemical_formula_sum "Si O2"
_cell_formula_units_Z 20
_cell_length_a 12.135829
_cell_length_b 14.502836
_cell_length_c 12.704617
_cell_angle_alpha 90.000000
_cell_angle_beta 150.458559
_cell_angle_gamma 90.000000
_cell_volume 1102.497257
_symmetry_space_group_name_H-M "P 21/M"
_symmetry_group_IT_number 11
_symmetry_cell_setting 'monoclinic'
loop_
_space_group_symop_operation_xyz
x,y,z
-x,1/2+y,-z
-x,-y,-z
x,1/2-y,z
loop_
_atom_site_type_symbol
_atom_site_label
_atom_site_fract_x
_atom_site_fract_y
_atom_site_fract_z
Si Si1 0.683339 0.521032 0.514947
Si Si2 0.249839 0.020002 0.667405
Si Si3 0.017175 0.149601 0.820478
Si Si4 0.428379 0.142237 0.002173
Si Si5 0.786736 0.933493 0.821277
O O1 0.739321 0.552951 0.444198
O O2 0.735341 0.588333 0.656518
O O3 0.836019 0.430492 0.660335
O O4 0.572429 0.511100 0.686574
O O5 0.366873 0.094943 0.840084
O O6 0.386048 0.923782 0.791277
O O7 0.000000 0.000000 0.500000
O O8 0.911219 0.250000 0.720210
O O9 0.205735 0.137260 0.888373
O O10 0.145900 0.143269 0.038867
O O11 0.493019 0.250000 0.047559
O O12 0.000000 0.000000 0.000000
#
# Coordination Sequence:
#
# PCOD9159471 Si02
#       5
#     4   4   4   4   4
#     4  10  19  34  55  82 105 143 185 223 268 334
#     4  11  21  36  59  82 113 152 188 226 285 334
#     4  10  19  33  54  83 113 140 179 233 279 319
#     4  10  22  36  54  84 117 147 186 235 279 331
#     4   9  19  34  54  77 107 140 176 223 270 324
#
# _framework density 18.140635
#
# number of rings (size 3 to 8) (size 9 to 14) (size 15 to 20)
#    0.000    2.000    4.000    0.000    0.000    2.400 
#    0.000    1.000    0.000   12.000    0.000    0.000 
#    0.000    0.000    0.000    0.000    0.000    0.000 
#
# Total GULP energy -111473.035090 kJ/mol
# GULP energy per Si atom -5573.651754 kJ/mol
# Density = 1.809935 g / cm^3
# Si number density = 18.140635 Si / 1000 Ang^3
#
#
#
# Elastic Constant Matrix: (Units=GPa)
#
#
# Indices 1 2 3 4 5 6 
#
# 1 113.6968 10.0228 29.7140 0.0000 -20.6692 0.0000
# 2 10.0228 67.0907 6.9038 0.0000 -2.1725 0.0000
# 3 29.7140 6.9038 60.8401 0.0000 -1.4824 0.0000
# 4 0.0000 0.0000 0.0000 16.2058 0.0000 3.1622
# 5 -20.6692 -2.1725 -1.4824 0.0000 43.8142 0.0000
# 6 0.0000 0.0000 0.0000 3.1622 0.0000 13.1981
#
#
#
# Elastic Compliance Matrix: (Units=1/GPa)
#
#
# Indices 1 2 3 4 5 6 
#
# 1 0.011161 -0.000967 -0.005218 0.000000 0.005041 0.000000
# 2 -0.000967 0.015186 -0.001245 0.000000 0.000255 0.000000
# 3 -0.005218 -0.001245 0.019081 0.000000 -0.001878 0.000000
# 4 0.000000 0.000000 0.000000 0.064733 0.000000 -0.015510
# 5 0.005041 0.000255 -0.001878 0.000000 0.025151 0.000000
# 6 0.000000 0.000000 0.000000 -0.015510 0.000000 0.079485
#
#
# Mechanical properties :
#
#
# Convention : Reuss Voigt Hill
#
# Bulk Modulus (GPa) = 32.71490 37.21211 34.96350
# Shear Modulus (GPa) = 20.84686 27.64274 24.24480
#
# Velocity S-wave (km/s) = 3.39363 3.90783 3.65977
# Velocity P-wave (km/s) = 5.78177 6.39681 6.09705
#
# Compressibility (1/GPa) = 0.03056711
#
# Stress axis : x y z
#
# Youngs Moduli (GPa) = 89.60044 65.85016 52.40929
#
# Poissons Ratio (x) = 0.06368 0.27349
# Poissons Ratio (y) = 0.08665 0.06523
# Poissons Ratio (z) = 0.46756 0.08196
#
# Static dielectric constant tensor:
#      x y z
#    x 1.633010 0.000000 -0.039280 
#    y 0.000000 1.482690 0.000000 
#    z -0.039280 0.000000 1.639390 
# 
# From -- ./inp_files/35752.got.cif
#   From: 2010.05.17/outbox.cif.g08.bks.cpg/sg11_18_cif.got.tgz:35752.got - 2010.06.03 12:22:45.
