data_PCOD9159665
_publ_section_title
;
Structure prediction by ZEFSAII (Michael W. Deem and Ramdas Pophale) SiO2 
 PCOD9159665
Probable space group: P 21/M
;
_chemical_formula_sum "Si O2"
_cell_formula_units_Z 28
_cell_length_a 9.160522
_cell_length_b 15.134076
_cell_length_c 11.480351
_cell_angle_alpha 90.000000
_cell_angle_beta 129.969841
_cell_angle_gamma 90.000000
_cell_volume 1219.767288
_symmetry_space_group_name_H-M "P 21/M"
_symmetry_group_IT_number 11
_symmetry_cell_setting 'monoclinic'
loop_
_space_group_symop_operation_xyz
x,y,z
-x,1/2+y,-z
-x,-y,-z
x,1/2-y,z
loop_
_atom_site_type_symbol
_atom_site_label
_atom_site_fract_x
_atom_site_fract_y
_atom_site_fract_z
Si Si1 0.804271 0.459683 0.076121
Si Si2 0.169915 0.847393 0.143129
Si Si3 0.229124 0.347608 0.932169
Si Si4 0.576050 0.013140 0.340291
Si Si5 0.248848 0.996886 0.322321
Si Si6 0.220288 0.350869 0.653906
Si Si7 0.818271 0.354910 0.320606
O O1 0.688377 0.552614 0.010738
O O2 0.771599 0.399675 0.172481
O O3 0.027364 0.484585 0.201174
O O4 0.797086 0.404894 0.954097
O O5 0.238124 0.750000 0.156095
O O6 0.275427 0.893682 0.304582
O O7 0.949512 0.844728 0.070975
O O8 0.327496 0.250000 0.995222
O O9 0.166017 0.350879 0.763380
O O10 0.673645 0.984268 0.512022
O O11 0.681801 0.096443 0.341113
O O12 0.368148 0.041371 0.279892
O O13 0.622674 0.927246 0.284809
O O14 0.282404 0.250000 0.658491
O O15 0.033598 0.371213 0.479793
O O16 0.794939 0.250000 0.302867
#
# Coordination Sequence:
#
# PCOD9159665 Si02
#       7
#     4   4   4   4   4   4   4
#     4  11  19  37  61  82 116 155 199 245 279 336
#     4  10  21  37  59  86 116 154 203 240 279 343
#     4   9  17  30  54  84 109 142 190 240 283 329
#     4  11  21  38  57  89 124 152 181 243 304 358
#     4  10  22  36  60  85 119 155 191 233 303 348
#     4  10  19  33  57  85 115 151 194 239 287 349
#     4  11  21  34  57  85 113 155 199 239 289 344
#
# _framework density 22.955197999999999
#
# number of rings (size 3 to 8) (size 9 to 14) (size 15 to 20)
#    0.000    1.714    2.857    4.286    0.000    2.286 
#    0.000    4.286    0.000    0.857    0.000    0.000 
#    0.000    0.000    0.000    0.000    0.000    0.000 
#
# Total GULP energy -156277.497784 kJ/mol
# GULP energy per Si atom -5581.339207 kJ/mol
# Density = 2.290295 g / cm^3
# Si number density = 22.955198 Si / 1000 Ang^3
#
#
#
# Elastic Constant Matrix: (Units=GPa)
#
#
# Indices 1 2 3 4 5 6 
#
# 1 105.0690 48.9551 27.8414 0.0000 -17.5688 0.0000
# 2 48.9551 156.4292 7.5281 0.0000 -17.9435 0.0000
# 3 27.8414 7.5281 51.2611 0.0000 -17.3926 0.0000
# 4 0.0000 0.0000 0.0000 28.5124 0.0000 -9.3537
# 5 -17.5688 -17.9435 -17.3926 0.0000 37.8370 0.0000
# 6 0.0000 0.0000 0.0000 -9.3537 0.0000 16.6334
#
#
#
# Elastic Compliance Matrix: (Units=1/GPa)
#
#
# Indices 1 2 3 4 5 6 
#
# 1 0.013065 -0.003617 -0.006029 0.000000 0.001580 0.000000
# 2 -0.003617 0.007763 0.001782 0.000000 0.002821 0.000000
# 3 -0.006029 0.001782 0.025896 0.000000 0.009950 0.000000
# 4 0.000000 0.000000 0.000000 0.043006 0.000000 0.024184
# 5 0.001580 0.002821 0.009950 0.000000 0.033074 0.000000
# 6 0.000000 0.000000 0.000000 0.024184 0.000000 0.073720
#
#
# Mechanical properties :
#
#
# Convention : Reuss Voigt Hill
#
# Bulk Modulus (GPa) = 32.26304 53.48984 42.87644
# Shear Modulus (GPa) = 22.46346 31.82553 27.14449
#
# Velocity S-wave (km/s) = 3.13162 3.72750 3.44248
# Velocity P-wave (km/s) = 5.21165 6.47133 5.87535
#
# Compressibility (1/GPa) = 0.03099522
#
# Stress axis : x y z
#
# Youngs Moduli (GPa) = 76.54286 128.82421 38.61531
#
# Poissons Ratio (x) = 0.46599 0.23280
# Poissons Ratio (y) = 0.27688 -0.06880
# Poissons Ratio (z) = 0.46144 -0.22953
#
# Static dielectric constant tensor:
#      x y z
#    x 1.883150 0.000000 0.054740 
#    y 0.000000 1.879890 0.000000 
#    z 0.054740 0.000000 1.878770 
# 
# From -- ./inp_files/24963.got.cif
#   From: 2010.05.17/outbox.cif.g08.bks.cpg/sg11_13_cif.got.tgz:24963.got - 2010.06.03 12:22:45.
