data_PCOD9159796
_publ_section_title
;
Structure prediction by ZEFSAII (Michael W. Deem and Ramdas Pophale) SiO2 
 PCOD9159796
Probable space group: P 21/M
;
_chemical_formula_sum "Si O2"
_cell_formula_units_Z 24
_cell_length_a 9.441613
_cell_length_b 8.623530
_cell_length_c 33.163888
_cell_angle_alpha 90.000000
_cell_angle_beta 29.983601
_cell_angle_gamma 90.000000
_cell_volume 1349.433070
_symmetry_space_group_name_H-M "P 21/M"
_symmetry_group_IT_number 11
_symmetry_cell_setting 'monoclinic'
loop_
_space_group_symop_operation_xyz
x,y,z
-x,1/2+y,-z
-x,-y,-z
x,1/2-y,z
loop_
_atom_site_type_symbol
_atom_site_label
_atom_site_fract_x
_atom_site_fract_y
_atom_site_fract_z
Si Si1 0.888551 0.062328 0.238797
Si Si2 0.860399 0.434974 0.740429
Si Si3 0.188796 0.565084 0.084789
Si Si4 0.672330 0.070613 0.168088
Si Si5 0.665737 0.929261 0.663038
Si Si6 0.184786 0.937668 0.582361
O O1 0.886198 0.250000 0.239063
O O2 0.563211 0.004956 0.311809
O O3 0.021673 0.000165 0.246858
O O4 0.069178 0.004126 0.156109
O O5 0.874725 0.250000 0.736147
O O6 0.538362 0.489336 0.811203
O O7 0.049324 0.503663 0.657486
O O8 0.192955 0.750000 0.086166
O O9 0.968162 0.511842 0.104569
O O10 0.500000 0.500000 0.000000
O O11 0.716579 0.250000 0.146365
O O12 0.502585 0.068501 0.252721
O O13 0.711138 0.750000 0.640309
O O14 0.973058 0.994961 0.598716
O O15 0.181372 0.750000 0.583138
O O16 0.500000 0.000000 0.500000
#
# Coordination Sequence:
#
# PCOD9159796 Si02
#       6
#     4   4   4   4   4   4
#     4  10  19  35  56  78 104 139 177 218 264 313
#     4  11  21  34  53  80 108 138 175 218 264 316
#     4  11  21  35  55  81 109 140 176 217 261 311
#     4   9  17  33  54  76 102 138 177 214 256 311
#     4   7  14  29  51  73  97 130 171 210 252 306
#     4  10  19  34  54  78 105 137 175 219 266 317
#
# _framework density 17.785246999999998
#
# number of rings (size 3 to 8) (size 9 to 14) (size 15 to 20)
#    0.000    2.333    0.000    6.500    0.000    0.000 
#    0.000    4.167    0.000    0.000    0.000    0.000 
#    0.000    0.000    0.000    0.000    0.000    0.000 
#
# Total GULP energy -133785.306810 kJ/mol
# GULP energy per Si atom -5574.387784 kJ/mol
# Density = 1.774477 g / cm^3
# Si number density = 17.785247 Si / 1000 Ang^3
#
#
#
# Elastic Constant Matrix: (Units=GPa)
#
#
# Indices 1 2 3 4 5 6 
#
# 1 188.4648 60.0613 70.2278 0.0000 -36.1275 0.0000
# 2 60.0613 118.7645 35.4741 0.0000 -16.1762 0.0000
# 3 70.2278 35.4741 84.5561 0.0000 -37.8126 0.0000
# 4 0.0000 0.0000 0.0000 26.8331 0.0000 -3.9848
# 5 -36.1275 -16.1762 -37.8126 0.0000 32.2711 0.0000
# 6 0.0000 0.0000 0.0000 -3.9848 0.0000 29.2883
#
#
#
# Elastic Compliance Matrix: (Units=1/GPa)
#
#
# Indices 1 2 3 4 5 6 
#
# 1 0.008352 -0.002453 -0.004782 0.000000 0.002518 0.000000
# 2 -0.002453 0.010347 -0.002547 0.000000 -0.000543 0.000000
# 3 -0.004782 -0.002547 0.029204 0.000000 0.027589 0.000000
# 4 0.000000 0.000000 0.000000 0.038036 0.000000 0.005175
# 5 0.002518 -0.000543 0.027589 0.000000 0.065860 0.000000
# 6 0.000000 0.000000 0.000000 0.005175 0.000000 0.034847
#
#
# Mechanical properties :
#
#
# Convention : Reuss Voigt Hill
#
# Bulk Modulus (GPa) = 35.28551 80.36798 57.82674
# Shear Modulus (GPa) = 23.18496 32.74663 27.96580
#
# Velocity S-wave (km/s) = 3.61447 4.29560 3.96967
# Velocity P-wave (km/s) = 6.10753 8.35997 7.32090
#
# Compressibility (1/GPa) = 0.02834025
#
# Stress axis : x y z
#
# Youngs Moduli (GPa) = 119.72884 96.64569 34.24157
#
# Poissons Ratio (x) = 0.23703 0.16375
# Poissons Ratio (y) = 0.29364 0.08721
# Poissons Ratio (z) = 0.57256 0.24615
#
# Static dielectric constant tensor:
#      x y z
#    x 1.631680 0.000000 -0.026840 
#    y 0.000000 1.612060 0.000000 
#    z -0.026840 0.000000 1.595020 
# 
# From -- ./inp_files/25610.got.cif
#   From: 2010.05.17/outbox.cif.g08.bks.cpg/sg11_13_cif.got.tgz:25610.got - 2010.06.03 12:22:45.
