data_PCOD9159111
_publ_section_title
;
Structure prediction by ZEFSAII (Michael W. Deem and Ramdas Pophale) SiO2 
 PCOD9159111
Probable space group: P 21/M
;
_chemical_formula_sum "Si O2"
_cell_formula_units_Z 28
_cell_length_a 10.226078
_cell_length_b 8.088852
_cell_length_c 29.161862
_cell_angle_alpha 90.000000
_cell_angle_beta 37.361959
_cell_angle_gamma 90.000000
_cell_volume 1463.832392
_symmetry_space_group_name_H-M "P 21/M"
_symmetry_group_IT_number 11
_symmetry_cell_setting 'monoclinic'
loop_
_space_group_symop_operation_xyz
x,y,z
-x,1/2+y,-z
-x,-y,-z
x,1/2-y,z
loop_
_atom_site_type_symbol
_atom_site_label
_atom_site_fract_x
_atom_site_fract_y
_atom_site_fract_z
Si Si1 0.641896 0.556116 0.503825
Si Si2 0.814744 0.049533 0.200881
Si Si3 0.764454 0.949718 0.049072
Si Si4 0.124593 0.444434 0.376687
Si Si5 0.272160 0.449050 0.044340
Si Si6 0.566299 0.547727 0.627550
Si Si7 0.504189 0.946371 0.207071
O O1 0.500000 0.500000 0.500000
O O2 0.603387 0.750000 0.517771
O O3 0.584588 0.485733 0.570458
O O4 0.897265 0.525130 0.428025
O O5 0.807410 0.250000 0.200873
O O6 0.659825 0.999381 0.285847
O O7 0.062507 0.995094 0.131370
O O8 0.701072 0.982867 0.186776
O O9 0.753944 0.750000 0.051872
O O10 0.582418 0.007268 0.135631
O O11 0.740353 0.011126 0.004239
O O12 0.000000 0.000000 0.000000
O O13 0.086430 0.250000 0.393219
O O14 0.242496 0.506508 0.390731
O O15 0.297112 0.471322 0.288053
O O16 0.261439 0.250000 0.046159
O O17 0.500000 0.500000 0.000000
O O18 0.575485 0.750000 0.624884
O O19 0.465916 0.750000 0.216057
#
# Coordination Sequence:
#
# PCOD9159111 Si02
#       7
#     4   4   4   4   4   4   4
#     4  11  22  38  57  81 115 147 179 221 271 326
#     4   9  17  34  57  79 107 141 182 226 269 318
#     4  10  20  34  55  81 110 143 181 224 269 320
#     4  10  20  37  60  84 109 141 183 225 269 322
#     4  10  21  36  53  76 110 147 185 225 266 318
#     4   8  17  34  59  84 106 137 180 226 269 319
#     4  10  19  32  54  85 114 139 176 225 274 319
#
# _framework density 19.127873999999998
#
# number of rings (size 3 to 8) (size 9 to 14) (size 15 to 20)
#    0.000    2.286    1.429    2.571    0.000    1.714 
#    2.571    6.429    0.000    0.000    0.000    0.000 
#    0.000    0.000    0.000    0.000    0.000    0.000 
#
# Total GULP energy -156163.041396 kJ/mol
# GULP energy per Si atom -5577.251478 kJ/mol
# Density = 1.908434 g / cm^3
# Si number density = 19.127874 Si / 1000 Ang^3
#
#
#
# Elastic Constant Matrix: (Units=GPa)
#
#
# Indices 1 2 3 4 5 6 
#
# 1 144.4599 6.4263 86.7088 0.0000 -6.3107 0.0000
# 2 6.4263 10.2905 0.0238 0.0000 4.2935 0.0000
# 3 86.7088 0.0238 125.2242 0.0000 -2.9692 0.0000
# 4 0.0000 0.0000 0.0000 21.4764 0.0000 -5.0188
# 5 -6.3107 4.2935 -2.9692 0.0000 25.4547 0.0000
# 6 0.0000 0.0000 0.0000 -5.0188 0.0000 26.7796
#
#
#
# Elastic Compliance Matrix: (Units=1/GPa)
#
#
# Indices 1 2 3 4 5 6 
#
# 1 0.012756 -0.009509 -0.008742 0.000000 0.003747 0.000000
# 2 -0.009509 0.111647 0.006078 0.000000 -0.020480 0.000000
# 3 -0.008742 0.006078 0.014001 0.000000 -0.001559 0.000000
# 4 0.000000 0.000000 0.000000 0.048695 0.000000 0.009126
# 5 0.003747 -0.020480 -0.001559 0.000000 0.043487 0.000000
# 6 0.000000 0.000000 0.000000 0.009126 0.000000 0.039052
#
#
# Mechanical properties :
#
#
# Convention : Reuss Voigt Hill
#
# Bulk Modulus (GPa) = 8.76761 51.81025 30.28893
# Shear Modulus (GPa) = 15.06004 27.19654 21.12829
#
# Velocity S-wave (km/s) = 2.80899 3.77480 3.32713
# Velocity P-wave (km/s) = 3.88770 6.79293 5.53435
#
# Compressibility (1/GPa) = 0.11405617
#
# Stress axis : x y z
#
# Youngs Moduli (GPa) = 78.39245 8.95684 71.42402
#
# Poissons Ratio (x) = 0.08517 0.62440
# Poissons Ratio (y) = 0.74545 -0.43409
# Poissons Ratio (z) = 0.68532 -0.05444
#
# Static dielectric constant tensor:
#      x y z
#    x 1.642980 0.000000 0.018970 
#    y 0.000000 1.680050 0.000000 
#    z 0.018970 0.000000 1.686210 
# 
# From -- ./inp_files/70816.got.cif
#   From: 2010.05.17/outbox.cif.g08.bks.cpg/sg11_36_cif.got.tgz:70816.got - 2010.06.03 12:22:45.
