data_PCOD9159645
_publ_section_title
;
Structure prediction by ZEFSAII (Michael W. Deem and Ramdas Pophale) SiO2 
 PCOD9159645
Probable space group: P 21/M
;
_chemical_formula_sum "Si O2"
_cell_formula_units_Z 30
_cell_length_a 12.021747
_cell_length_b 8.207183
_cell_length_c 14.490430
_cell_angle_alpha 90.000000
_cell_angle_beta 118.272311
_cell_angle_gamma 90.000000
_cell_volume 1259.140251
_symmetry_space_group_name_H-M "P 21/M"
_symmetry_group_IT_number 11
_symmetry_cell_setting 'monoclinic'
loop_
_space_group_symop_operation_xyz
x,y,z
-x,1/2+y,-z
-x,-y,-z
x,1/2-y,z
loop_
_atom_site_type_symbol
_atom_site_label
_atom_site_fract_x
_atom_site_fract_y
_atom_site_fract_z
Si Si1 0.978681 0.561509 0.301300
Si Si2 0.319884 0.573844 0.305560
Si Si3 0.858625 0.556018 0.921614
Si Si4 0.195270 0.572793 0.623341
Si Si5 0.245556 0.053284 0.922954
Si Si6 0.434999 0.564443 0.853684
Si Si7 0.469773 0.750000 0.213917
Si Si8 0.756256 0.570099 0.550146
O O1 0.009385 0.750000 0.296232
O O2 0.905077 0.548528 0.370117
O O3 0.879305 0.505663 0.184478
O O4 0.103759 0.454685 0.352779
O O5 0.286355 0.750000 0.333783
O O6 0.205806 0.521257 0.193153
O O7 0.434301 0.609824 0.281098
O O8 0.335847 0.460952 0.400018
O O9 0.857164 0.750000 0.911077
O O10 0.776896 0.510741 0.979698
O O11 0.000000 0.500000 0.000000
O O12 0.134210 0.750000 0.605731
O O13 0.317869 0.569432 0.735624
O O14 0.240769 0.542250 0.537999
O O15 0.254551 0.250000 0.917024
O O16 0.364863 0.969526 0.923093
O O17 0.493007 0.750000 0.874690
O O18 0.503014 0.398612 0.848606
O O19 0.735861 0.750000 0.505188
#
# Coordination Sequence:
#
# PCOD9159645 Si02
#       8
#     4   4   4   4   4   4   2   4
#     4  10  19  33  56  90 128 169 200 246 309 374
#     4  10  24  43  61  83 121 167 203 261 317 364
#     4  11  22  38  65  97 135 172 208 249 307 383
#     4  10  21  36  59  91 126 158 208 257 308 379
#     4   9  19  36  62  92 127 164 212 255 311 378
#     4  10  21  40  71  96 118 165 211 268 327 372
#     4  10  24  46  72  82 134 154 216 274 334 356
#     4  12  23  36  58  85 126 166 210 252 316 385
#
# _framework density 23.825780999999999
#
# number of rings (size 3 to 8) (size 9 to 14) (size 15 to 20)
#    0.400    1.333    0.667    4.000    1.867    3.733 
#    0.000    1.333    0.000    0.000    0.000    0.000 
#    0.000    0.000    0.000    0.000    0.000    0.000 
#
# Total GULP energy -167161.294510 kJ/mol
# GULP energy per Si atom -5572.043150 kJ/mol
# Density = 2.377155 g / cm^3
# Si number density = 23.825781 Si / 1000 Ang^3
#
#
#
# Elastic Constant Matrix: (Units=GPa)
#
#
# Indices 1 2 3 4 5 6 
#
# 1 55.6955 24.3530 10.9197 0.0000 -17.7091 0.0000
# 2 24.3530 88.5646 -5.2338 0.0000 -12.9211 0.0000
# 3 10.9197 -5.2338 76.2624 0.0000 -25.8707 0.0000
# 4 0.0000 0.0000 0.0000 6.0202 0.0000 -23.3472
# 5 -17.7091 -12.9211 -25.8707 0.0000 33.6738 0.0000
# 6 0.0000 0.0000 0.0000 -23.3472 0.0000 24.4622
#
#
#
# Elastic Compliance Matrix: (Units=1/GPa)
#
#
# Indices 1 2 3 4 5 6 
#
# 1 0.023424 -0.004959 -0.000217 0.000000 0.010249 0.000000
# 2 -0.004959 0.013624 0.003427 0.000000 0.005252 0.000000
# 3 -0.000217 0.003427 0.018646 0.000000 0.015526 0.000000
# 4 0.000000 0.000000 0.000000 -0.061490 0.000000 -0.058687
# 5 0.010249 0.005252 0.015526 0.000000 0.049030 0.000000
# 6 0.000000 0.000000 0.000000 -0.058687 0.000000 -0.015133
#
#
# Mechanical properties :
#
#
# Convention : Reuss Voigt Hill
#
# Bulk Modulus (GPa) = 19.15897 31.17779 25.16838
# Shear Modulus (GPa) = 102.04539 25.53015 63.78777
#
# Velocity S-wave (km/s) = 6.55155 3.27698 5.17984
# Velocity P-wave (km/s) = 8.08017 5.23758 6.80887
#
# Compressibility (1/GPa) = 0.05219486
#
# Stress axis : x y z
#
# Youngs Moduli (GPa) = 42.69044 73.40256 53.63169
#
# Poissons Ratio (x) = 0.36398 0.01166
# Poissons Ratio (y) = 0.21169 -0.18378
# Poissons Ratio (z) = 0.00929 -0.25153
#
# Static dielectric constant tensor:
#      x y z
#    x 1.928110 0.000000 0.029380 
#    y 0.000000 1.966090 0.000000 
#    z 0.029380 0.000000 1.917200 
# 
# From -- ./inp_files/48995.got.cif
#   From: 2010.05.17/outbox.cif.g08.bks.cpg/sg11_25_cif.got.tgz:48995.got - 2010.06.03 12:22:45.
