data_PCOD9159791
_publ_section_title
;
Structure prediction by ZEFSAII (Michael W. Deem and Ramdas Pophale) SiO2 
 PCOD9159791
Probable space group: P 21/M
;
_chemical_formula_sum "Si O2"
_cell_formula_units_Z 32
_cell_length_a 27.919109
_cell_length_b 8.465820
_cell_length_c 21.773614
_cell_angle_alpha 90.000000
_cell_angle_beta 161.307686
_cell_angle_gamma 90.000000
_cell_volume 1649.339510
_symmetry_space_group_name_H-M "P 21/M"
_symmetry_group_IT_number 11
_symmetry_cell_setting 'monoclinic'
loop_
_space_group_symop_operation_xyz
x,y,z
-x,1/2+y,-z
-x,-y,-z
x,1/2-y,z
loop_
_atom_site_type_symbol
_atom_site_label
_atom_site_fract_x
_atom_site_fract_y
_atom_site_fract_z
Si Si1 0.132535 0.442540 0.473964
Si Si2 0.547205 0.938663 0.740153
Si Si3 0.932532 0.561244 0.014131
Si Si4 0.145752 0.561224 0.947044
Si Si5 0.227611 0.941238 0.301465
Si Si6 0.027295 0.939708 0.600830
Si Si7 0.533290 0.940858 0.108983
Si Si8 0.636121 0.059250 0.976481
O O1 0.130729 0.250000 0.469843
O O2 0.301921 0.491944 0.668104
O O3 0.999802 0.496619 0.268043
O O4 0.091246 0.493557 0.492855
O O5 0.549115 0.750000 0.740136
O O6 0.393705 0.993574 0.521560
O O7 0.546740 0.992655 0.810369
O O8 0.698436 0.998970 0.891331
O O9 0.929240 0.750000 0.016470
O O10 0.879674 0.485800 0.013384
O O11 0.100880 0.513844 0.197745
O O12 0.827072 0.510026 0.829656
O O13 0.149974 0.750000 0.946289
O O14 0.225833 0.750000 0.295146
O O15 0.024330 0.750000 0.595878
O O16 0.191759 0.988154 0.822450
O O17 0.000000 0.000000 0.500000
O O18 0.530511 0.750000 0.103145
O O19 0.419055 0.992467 0.023329
O O20 0.500000 0.000000 0.000000
O O21 0.627255 0.250000 0.963605
#
# Coordination Sequence:
#
# PCOD9159791 Si02
#       8
#     4   4   4   4   4   4   4   4
#     4   9  19  36  55  78 111 149 187 230 280 341
#     4  11  23  39  60  87 119 154 195 242 289 339
#     4  10  21  39  63  92 121 151 193 240 284 340
#     4  11  22  39  61  86 119 158 196 238 289 345
#     4   9  21  41  62  88 122 156 192 236 286 343
#     4  10  19  34  54  77 107 144 187 232 279 334
#     4  10  21  37  57  82 112 147 189 237 289 347
#     4  10  21  37  56  81 115 150 190 236 287 348
#
# _framework density 19.401705
#
# number of rings (size 3 to 8) (size 9 to 14) (size 15 to 20)
#    0.000    2.000    1.250    1.875    1.750    3.000 
#    0.000    1.250    0.000    0.000    0.000    0.000 
#    0.000    0.000    0.000    0.000    0.000    0.000 
#
# Total GULP energy -178647.555781 kJ/mol
# GULP energy per Si atom -5582.736118 kJ/mol
# Density = 1.935755 g / cm^3
# Si number density = 19.401705 Si / 1000 Ang^3
#
#
#
# Elastic Constant Matrix: (Units=GPa)
#
#
# Indices 1 2 3 4 5 6 
#
# 1 87.8846 8.6229 8.7145 0.0000 -3.0135 0.0000
# 2 8.6229 13.7522 13.3966 0.0000 1.9504 0.0000
# 3 8.7145 13.3966 86.2883 0.0000 -5.5869 0.0000
# 4 0.0000 0.0000 0.0000 22.6067 0.0000 -4.9366
# 5 -3.0135 1.9504 -5.5869 0.0000 26.0454 0.0000
# 6 0.0000 0.0000 0.0000 -4.9366 0.0000 31.2415
#
#
#
# Elastic Compliance Matrix: (Units=1/GPa)
#
#
# Indices 1 2 3 4 5 6 
#
# 1 0.012229 -0.008113 0.000158 0.000000 0.002056 0.000000
# 2 -0.008113 0.093386 -0.014393 0.000000 -0.011019 0.000000
# 3 0.000158 -0.014393 0.014074 0.000000 0.004115 0.000000
# 4 0.000000 0.000000 0.000000 0.045816 0.000000 0.007239
# 5 0.002056 -0.011019 0.004115 0.000000 0.040340 0.000000
# 6 0.000000 0.000000 0.000000 0.007239 0.000000 0.033153
#
#
# Mechanical properties :
#
#
# Convention : Reuss Voigt Hill
#
# Bulk Modulus (GPa) = 13.33459 27.71034 20.52246
# Shear Modulus (GPa) = 16.19736 26.45815 21.32775
#
# Velocity S-wave (km/s) = 2.89250 3.69684 3.31912
# Velocity P-wave (km/s) = 4.24773 5.70400 5.02886
#
# Compressibility (1/GPa) = 0.07499294
#
# Stress axis : x y z
#
# Youngs Moduli (GPa) = 81.76964 10.70824 71.05253
#
# Poissons Ratio (x) = 0.08688 -0.01120
# Poissons Ratio (y) = 0.66343 1.02263
# Poissons Ratio (z) = -0.01289 0.15412
#
# Static dielectric constant tensor:
#      x y z
#    x 1.649580 0.000000 0.008780 
#    y 0.000000 1.670830 0.000000 
#    z 0.008780 0.000000 1.681590 
# 
# From -- ./inp_files/67307.got.cif
#   From: 2010.05.17/outbox.cif.g08.bks.cpg/sg11_34_cif.got.tgz:67307.got - 2010.06.03 12:22:45.
