data_PCOD9159387
_publ_section_title
;
Structure prediction by ZEFSAII (Michael W. Deem and Ramdas Pophale) SiO2 
 PCOD9159387
Probable space group: P 21/M
;
_chemical_formula_sum "Si O2"
_cell_formula_units_Z 20
_cell_length_a 13.708220
_cell_length_b 13.721155
_cell_length_c 8.662357
_cell_angle_alpha 90.000000
_cell_angle_beta 146.983038
_cell_angle_gamma 90.000000
_cell_volume 887.798680
_symmetry_space_group_name_H-M "P 21/M"
_symmetry_group_IT_number 11
_symmetry_cell_setting 'monoclinic'
loop_
_space_group_symop_operation_xyz
x,y,z
-x,1/2+y,-z
-x,-y,-z
x,1/2-y,z
loop_
_atom_site_type_symbol
_atom_site_label
_atom_site_fract_x
_atom_site_fract_y
_atom_site_fract_z
Si Si1 0.336843 0.863794 0.347877
Si Si2 0.863606 0.862041 0.040322
Si Si3 0.575553 0.493489 0.811300
Si Si4 0.155490 0.973964 0.580760
Si Si5 0.910989 0.638435 0.744786
O O1 0.374499 0.750000 0.427958
O O2 0.402341 0.937311 0.568866
O O3 0.126274 0.873370 0.033904
O O4 0.433307 0.904130 0.320836
O O5 0.822589 0.750000 0.018759
O O6 0.854216 0.878899 0.845154
O O7 0.725864 0.932871 0.941463
O O8 0.064038 0.886633 0.364461
O O9 0.659890 0.457946 0.083420
O O10 0.000000 0.000000 0.500000
O O11 0.169793 0.065040 0.484975
O O12 0.869981 0.750000 0.649218
#
# Coordination Sequence:
#
# PCOD9159387 Si02
#       5
#     4   4   4   4   4
#     4  10  20  35  55  78 109 143 177 218 267 320
#     4  10  20  34  56  81 108 143 179 217 262 317
#     4  10  21  36  55  82 106 141 180 220 268 312
#     4  10  19  33  53  83 105 136 178 224 260 307
#     4  10  20  35  57  79 107 143 179 217 265 317
#
# _framework density 22.527631
#
# number of rings (size 3 to 8) (size 9 to 14) (size 15 to 20)
#    0.000    2.000    4.000    1.200    0.000    4.800 
#    0.000    1.000    0.000    0.000    0.000    0.000 
#    0.000    0.000    0.000    0.000    0.000    0.000 
#
# Total GULP energy -111811.527946 kJ/mol
# GULP energy per Si atom -5590.576397 kJ/mol
# Density = 2.247636 g / cm^3
# Si number density = 22.527631 Si / 1000 Ang^3
#
#
#
# Elastic Constant Matrix: (Units=GPa)
#
#
# Indices 1 2 3 4 5 6 
#
# 1 39.2236 18.0170 5.1485 0.0000 2.1722 0.0000
# 2 18.0170 84.3833 12.5031 0.0000 2.5863 0.0000
# 3 5.1485 12.5031 113.7640 0.0000 -0.2281 0.0000
# 4 0.0000 0.0000 0.0000 13.7950 0.0000 0.2574
# 5 2.1722 2.5863 -0.2281 0.0000 20.1431 0.0000
# 6 0.0000 0.0000 0.0000 0.2574 0.0000 22.2204
#
#
#
# Elastic Compliance Matrix: (Units=1/GPa)
#
#
# Indices 1 2 3 4 5 6 
#
# 1 0.028418 -0.005902 -0.000642 0.000000 -0.002314 0.000000
# 2 -0.005902 0.013322 -0.001199 0.000000 -0.001088 0.000000
# 3 -0.000642 -0.001199 0.008952 0.000000 0.000325 0.000000
# 4 0.000000 0.000000 0.000000 0.072506 0.000000 -0.000840
# 5 -0.002314 -0.001088 0.000325 0.000000 0.050038 0.000000
# 6 0.000000 0.000000 0.000000 -0.000840 0.000000 0.045014
#
#
# Mechanical properties :
#
#
# Convention : Reuss Voigt Hill
#
# Bulk Modulus (GPa) = 28.40447 34.30089 31.35268
# Shear Modulus (GPa) = 20.36913 24.67851 22.52382
#
# Velocity S-wave (km/s) = 3.01023 3.31339 3.16544
# Velocity P-wave (km/s) = 4.97173 5.46784 5.22567
#
# Compressibility (1/GPa) = 0.03520573
#
# Stress axis : x y z
#
# Youngs Moduli (GPa) = 35.18876 75.06504 111.71144
#
# Poissons Ratio (x) = 0.44300 0.07173
# Poissons Ratio (y) = 0.20767 0.13397
# Poissons Ratio (z) = 0.02260 0.09002
#
# Static dielectric constant tensor:
#      x y z
#    x 1.904420 0.000000 0.043660 
#    y 0.000000 1.796900 0.000000 
#    z 0.043660 0.000000 1.878960 
# 
# From -- ./inp_files/12243.got.cif
#   From: 2010.05.17/outbox.cif.g08.bks.cpg/sg11_7_cif.got.tgz:12243.got - 2010.06.03 12:22:45.
