data_PCOD9159390
_publ_section_title
;
Structure prediction by ZEFSAII (Michael W. Deem and Ramdas Pophale) SiO2 
 PCOD9159390
Probable space group: P 21/M
;
_chemical_formula_sum "Si O2"
_cell_formula_units_Z 32
_cell_length_a 28.924483
_cell_length_b 8.268945
_cell_length_c 22.313461
_cell_angle_alpha 90.000000
_cell_angle_beta 161.176125
_cell_angle_gamma 90.000000
_cell_volume 1721.979415
_symmetry_space_group_name_H-M "P 21/M"
_symmetry_group_IT_number 11
_symmetry_cell_setting 'monoclinic'
loop_
_space_group_symop_operation_xyz
x,y,z
-x,1/2+y,-z
-x,-y,-z
x,1/2-y,z
loop_
_atom_site_type_symbol
_atom_site_label
_atom_site_fract_x
_atom_site_fract_y
_atom_site_fract_z
Si Si1 0.673357 0.945189 0.597877
Si Si2 0.556821 0.056422 0.005667
Si Si3 0.344254 0.945423 0.185085
Si Si4 0.845168 0.947945 0.690550
Si Si5 0.399758 0.056103 0.694533
Si Si6 0.826382 0.054342 0.906823
Si Si7 0.680989 0.556584 0.975481
Si Si8 0.159845 0.443263 0.709974
O O1 0.670786 0.750000 0.593318
O O2 0.509158 0.001922 0.391888
O O3 0.765715 0.999875 0.653977
O O4 0.745969 0.998863 0.748494
O O5 0.554270 0.250000 0.001298
O O6 0.717792 0.002575 0.185998
O O7 0.454017 0.993984 0.825480
O O8 0.500000 0.000000 0.000000
O O9 0.344966 0.750000 0.185844
O O10 0.256450 0.000749 0.135272
O O11 0.280283 0.002269 0.043533
O O12 0.845260 0.750000 0.690303
O O13 0.749076 0.002472 0.516256
O O14 0.009031 0.001695 0.890616
O O15 0.390050 0.250000 0.687209
O O16 0.526344 0.015624 0.803250
O O17 0.826925 0.250000 0.907747
O O18 0.671299 0.750000 0.965650
O O19 0.787881 0.502310 0.159636
O O20 0.161830 0.250000 0.711469
O O21 0.000000 0.500000 0.500000
#
# Coordination Sequence:
#
# PCOD9159390 Si02
#       8
#     4   4   4   4   4   4   4   4
#     4  10  19  33  54  73  99 139 177 218 265 316
#     4  10  20  35  58  85 116 151 187 230 276 328
#     4  10  20  35  53  75 104 141 180 214 261 322
#     4   9  17  33  54  75 103 134 173 219 258 310
#     4   9  17  34  58  78 104 144 184 216 260 319
#     4  10  21  34  50  76 106 135 173 221 266 314
#     4  10  20  34  56  83 109 136 177 227 267 310
#     4  10  21  38  59  85 115 147 186 229 280 335
#
# _framework density 18.583265000000001
#
# number of rings (size 3 to 8) (size 9 to 14) (size 15 to 20)
#    0.000    2.250    1.250    1.875    0.000    3.000 
#    2.250    0.625    0.000    0.000    0.000    0.000 
#    0.000    0.000    0.000    0.000    0.000    0.000 
#
# Total GULP energy -178576.582080 kJ/mol
# GULP energy per Si atom -5580.518190 kJ/mol
# Density = 1.854097 g / cm^3
# Si number density = 18.583265 Si / 1000 Ang^3
#
#
#
# Elastic Constant Matrix: (Units=GPa)
#
#
# Indices 1 2 3 4 5 6 
#
# 1 165.8106 15.7253 93.0489 0.0000 1.9676 0.0000
# 2 15.7253 12.1476 17.4634 0.0000 2.3982 0.0000
# 3 93.0489 17.4634 149.5806 0.0000 2.4329 0.0000
# 4 0.0000 0.0000 0.0000 18.2827 0.0000 -5.3669
# 5 1.9676 2.3982 2.4329 0.0000 25.9005 0.0000
# 6 0.0000 0.0000 0.0000 -5.3669 0.0000 24.7008
#
#
#
# Elastic Compliance Matrix: (Units=1/GPa)
#
#
# Indices 1 2 3 4 5 6 
#
# 1 0.009472 -0.004599 -0.005358 0.000000 0.000210 0.000000
# 2 -0.004599 0.102878 -0.009014 0.000000 -0.008330 0.000000
# 3 -0.005358 -0.009014 0.011068 0.000000 0.000202 0.000000
# 4 0.000000 0.000000 0.000000 0.058423 0.000000 0.012694
# 5 0.000210 -0.008330 0.000202 0.000000 0.039346 0.000000
# 6 0.000000 0.000000 0.000000 0.012694 0.000000 0.043243
#
#
# Mechanical properties :
#
#
# Convention : Reuss Voigt Hill
#
# Bulk Modulus (GPa) = 11.69957 64.44599 38.07278
# Shear Modulus (GPa) = 15.11195 27.19688 21.15442
#
# Velocity S-wave (km/s) = 2.85476 3.82974 3.37762
# Velocity P-wave (km/s) = 4.14435 7.36958 5.97856
#
# Compressibility (1/GPa) = 0.08547321
#
# Stress axis : x y z
#
# Youngs Moduli (GPa) = 105.57738 9.72025 90.35219
#
# Poissons Ratio (x) = 0.04471 0.48415
# Poissons Ratio (y) = 0.48559 0.81447
# Poissons Ratio (z) = 0.56573 0.08762
#
# Static dielectric constant tensor:
#      x y z
#    x 1.673760 0.000000 0.028080 
#    y 0.000000 1.647810 0.000000 
#    z 0.028080 0.000000 1.677440 
# 
# From -- ./inp_files/67258.got.cif
#   From: 2010.05.17/outbox.cif.g08.bks.cpg/sg11_34_cif.got.tgz:67258.got - 2010.06.03 12:22:45.
