data_PCOD9159138
_publ_section_title
;
Structure prediction by ZEFSAII (Michael W. Deem and Ramdas Pophale) SiO2 
 PCOD9159138
Probable space group: P 21/M
;
_chemical_formula_sum "Si O2"
_cell_formula_units_Z 32
_cell_length_a 20.412664
_cell_length_b 8.907982
_cell_length_c 12.450121
_cell_angle_alpha 90.000000
_cell_angle_beta 53.853327
_cell_angle_gamma 90.000000
_cell_volume 1828.101543
_symmetry_space_group_name_H-M "P 21/M"
_symmetry_group_IT_number 11
_symmetry_cell_setting 'monoclinic'
loop_
_space_group_symop_operation_xyz
x,y,z
-x,1/2+y,-z
-x,-y,-z
x,1/2-y,z
loop_
_atom_site_type_symbol
_atom_site_label
_atom_site_fract_x
_atom_site_fract_y
_atom_site_fract_z
Si Si1 0.490261 0.571346 0.182863
Si Si2 0.464324 0.928635 0.642280
Si Si3 0.374705 0.928280 0.100866
Si Si4 0.876457 0.570413 0.097992
Si Si5 0.988137 0.928662 0.184816
Si Si6 0.710493 0.570861 0.154138
Si Si7 0.223730 0.429188 0.149339
Si Si8 0.034867 0.429792 0.358135
O O1 0.498294 0.750000 0.190040
O O2 0.489065 0.490549 0.297995
O O3 0.413368 0.541192 0.180256
O O4 0.567811 0.511808 0.040889
O O5 0.469442 0.750000 0.633186
O O6 0.500000 0.000000 0.500000
O O7 0.371329 0.981415 0.746203
O O8 0.379832 0.750000 0.076911
O O9 0.284180 0.986268 0.170845
O O10 0.886012 0.750000 0.069671
O O11 0.782993 0.534257 0.166496
O O12 0.911350 0.537342 0.182256
O O13 0.934015 0.486138 0.957721
O O14 0.992943 0.750000 0.194449
O O15 0.988454 0.008810 0.298665
O O16 0.693575 0.750000 0.176396
O O17 0.745796 0.539557 0.001230
O O18 0.230718 0.250000 0.159193
O O19 0.129901 0.471141 0.252895
O O20 0.029621 0.250000 0.366486
O O21 0.000000 0.500000 0.500000
#
# Coordination Sequence:
#
# PCOD9159138 Si02
#       8
#     4   4   4   4   4   4   4   4
#     4  10  20  36  56  82 116 150 184 228 281 334
#     4  12  25  40  59  84 114 150 189 231 281 338
#     4  10  20  33  56  87 115 144 186 235 279 326
#     4   9  18  34  56  83 115 148 186 231 280 330
#     4  10  19  32  55  85 114 148 188 231 279 332
#     4  10  19  36  59  84 114 149 188 233 279 329
#     4  10  20  35  58  83 114 150 188 232 281 333
#     4  11  23  40  58  81 114 153 191 231 282 339
#
# _framework density 17.504498999999999
#
# number of rings (size 3 to 8) (size 9 to 14) (size 15 to 20)
#    0.000    1.750    2.500    2.625    0.000    3.500 
#    0.000    1.250    0.000    1.500    0.000    0.000 
#    0.000    0.000    0.000    0.000    0.000    0.000 
#
# Total GULP energy -178704.967411 kJ/mol
# GULP energy per Si atom -5584.530232 kJ/mol
# Density = 1.746466 g / cm^3
# Si number density = 17.504499 Si / 1000 Ang^3
#
#
#
# Elastic Constant Matrix: (Units=GPa)
#
#
# Indices 1 2 3 4 5 6 
#
# 1 132.9103 67.3601 61.7335 0.0000 17.7891 0.0000
# 2 67.3601 80.4471 62.7742 0.0000 12.2813 0.0000
# 3 61.7335 62.7742 110.5909 0.0000 19.7379 0.0000
# 4 0.0000 0.0000 0.0000 29.7457 0.0000 2.1516
# 5 17.7891 12.2813 19.7379 0.0000 26.3359 0.0000
# 6 0.0000 0.0000 0.0000 2.1516 0.0000 31.9488
#
#
#
# Elastic Compliance Matrix: (Units=1/GPa)
#
#
# Indices 1 2 3 4 5 6 
#
# 1 0.013593 -0.009717 -0.001434 0.000000 -0.003576 0.000000
# 2 -0.009717 0.029285 -0.011467 0.000000 0.001501 0.000000
# 3 -0.001434 -0.011467 0.017575 0.000000 -0.006856 0.000000
# 4 0.000000 0.000000 0.000000 0.033783 0.000000 -0.002275
# 5 -0.003576 0.001501 -0.006856 0.000000 0.044825 0.000000
# 6 0.000000 0.000000 0.000000 -0.002275 0.000000 0.031453
#
#
# Mechanical properties :
#
#
# Convention : Reuss Voigt Hill
#
# Bulk Modulus (GPa) = 65.71115 78.63154 72.17135
# Shear Modulus (GPa) = 22.64252 26.41145 24.52699
#
# Velocity S-wave (km/s) = 3.60046 3.88859 3.74730
# Velocity P-wave (km/s) = 7.40983 8.07340 7.74872
#
# Compressibility (1/GPa) = 0.01521812
#
# Stress axis : x y z
#
# Youngs Moduli (GPa) = 73.56626 34.14678 56.89754
#
# Poissons Ratio (x) = 0.33180 0.08160
# Poissons Ratio (y) = 0.71483 0.65244
# Poissons Ratio (z) = 0.10551 0.39156
#
# Static dielectric constant tensor:
#      x y z
#    x 1.613480 0.000000 0.007830 
#    y 0.000000 1.581980 0.000000 
#    z 0.007830 0.000000 1.558130 
# 
# From -- ./inp_files/42746.got.cif
#   From: 2010.05.17/outbox.cif.g08.bks.cpg/sg11_22_cif.got.tgz:42746.got - 2010.06.03 12:22:45.
