data_PCOD9159589
_publ_section_title
;
Structure prediction by ZEFSAII (Michael W. Deem and Ramdas Pophale) SiO2 
 PCOD9159589
Probable space group: P 21/M
;
_chemical_formula_sum "Si O2"
_cell_formula_units_Z 32
_cell_length_a 27.749784
_cell_length_b 8.612356
_cell_length_c 21.600915
_cell_angle_alpha 90.000000
_cell_angle_beta 19.610425
_cell_angle_gamma 90.000000
_cell_volume 1732.628315
_symmetry_space_group_name_H-M "P 21/M"
_symmetry_group_IT_number 11
_symmetry_cell_setting 'monoclinic'
loop_
_space_group_symop_operation_xyz
x,y,z
-x,1/2+y,-z
-x,-y,-z
x,1/2-y,z
loop_
_atom_site_type_symbol
_atom_site_label
_atom_site_fract_x
_atom_site_fract_y
_atom_site_fract_z
Si Si1 0.949504 0.437334 0.466677
Si Si2 0.443698 0.937174 0.503379
Si Si3 0.665597 0.937982 0.127324
Si Si4 0.780632 0.437957 0.429354
Si Si5 0.531866 0.434219 0.163515
Si Si6 0.770199 0.935353 0.792263
Si Si7 0.993109 0.560999 0.741961
Si Si8 0.152137 0.937776 0.793108
O O1 0.940147 0.250000 0.480157
O O2 0.824044 0.507642 0.660405
O O3 0.951465 0.487339 0.392952
O O4 0.100778 0.480933 0.316357
O O5 0.443389 0.750000 0.506103
O O6 0.283669 0.988523 0.677960
O O7 0.500000 0.000000 0.500000
O O8 0.552720 0.983092 0.316718
O O9 0.662940 0.750000 0.124569
O O10 0.827139 0.985898 0.948868
O O11 0.617242 0.007470 0.120797
O O12 0.776700 0.250000 0.434186
O O13 0.627390 0.497251 0.638068
O O14 0.905435 0.490736 0.325085
O O15 0.812171 0.486812 0.320561
O O16 0.525018 0.250000 0.171406
O O17 0.622778 0.493123 0.994920
O O18 0.759512 0.750000 0.806234
O O19 0.994421 0.750000 0.740787
O O20 0.148186 0.750000 0.798347
O O21 0.000000 0.000000 0.000000
#
# Coordination Sequence:
#
# PCOD9159589 Si02
#       8
#     4   4   4   4   4   4   4   4
#     4   9  17  32  54  85 117 142 182 238 285 335
#     4  10  22  38  59  86 117 150 189 237 284 336
#     4  10  19  38  62  84 112 148 192 238 284 340
#     4  10  21  40  62  82 111 152 193 230 282 347
#     4  12  23  36  57  86 115 150 193 239 285 330
#     4  10  19  33  56  82 115 154 188 229 282 339
#     4   9  18  34  61  88 109 143 189 237 286 335
#     4  10  22  39  59  84 115 152 192 232 280 342
#
# _framework density 18.469052000000001
#
# number of rings (size 3 to 8) (size 9 to 14) (size 15 to 20)
#    0.000    2.000    2.500    1.500    1.750    2.000 
#    0.000    1.875    0.000    0.000    0.000    0.000 
#    0.000    0.000    0.000    0.000    0.000    0.000 
#
# Total GULP energy -178672.915635 kJ/mol
# GULP energy per Si atom -5583.528614 kJ/mol
# Density = 1.842702 g / cm^3
# Si number density = 18.469052 Si / 1000 Ang^3
#
#
#
# Elastic Constant Matrix: (Units=GPa)
#
#
# Indices 1 2 3 4 5 6 
#
# 1 107.6833 17.6720 71.8579 0.0000 -13.5998 0.0000
# 2 17.6720 16.6505 28.9914 0.0000 0.2989 0.0000
# 3 71.8579 28.9914 173.6081 0.0000 -5.5799 0.0000
# 4 0.0000 0.0000 0.0000 23.9523 0.0000 5.5246
# 5 -13.5998 0.2989 -5.5799 0.0000 31.9130 0.0000
# 6 0.0000 0.0000 0.0000 5.5246 0.0000 22.3137
#
#
#
# Elastic Compliance Matrix: (Units=1/GPa)
#
#
# Indices 1 2 3 4 5 6 
#
# 1 0.014134 -0.007343 -0.004453 0.000000 0.005314 0.000000
# 2 -0.007343 0.088839 -0.011991 0.000000 -0.006058 0.000000
# 3 -0.004453 -0.011991 0.009602 0.000000 -0.000107 0.000000
# 4 0.000000 0.000000 0.000000 0.044278 0.000000 -0.010963
# 5 0.005314 -0.006058 -0.000107 0.000000 0.033638 0.000000
# 6 0.000000 0.000000 0.000000 -0.010963 0.000000 0.047530
#
#
# Mechanical properties :
#
#
# Convention : Reuss Voigt Hill
#
# Bulk Modulus (GPa) = 15.38435 59.44271 37.41353
# Shear Modulus (GPa) = 16.27275 27.59718 21.93497
#
# Velocity S-wave (km/s) = 2.97152 3.86973 3.44998
# Velocity P-wave (km/s) = 4.48566 7.22643 6.01425
#
# Compressibility (1/GPa) = 0.06500110
#
# Stress axis : x y z
#
# Youngs Moduli (GPa) = 70.74957 11.25637 104.14122
#
# Poissons Ratio (x) = 0.08265 0.46378
# Poissons Ratio (y) = 0.51951 1.24874
# Poissons Ratio (z) = 0.31507 0.13497
#
# Static dielectric constant tensor:
#      x y z
#    x 1.625200 0.000000 0.000230 
#    y 0.000000 1.630300 0.000000 
#    z 0.000230 0.000000 1.622910 
# 
# From -- ./inp_files/67068.got.cif
#   From: 2010.05.17/outbox.cif.g08.bks.cpg/sg11_34_cif.got.tgz:67068.got - 2010.06.03 12:22:45.
