data_PCOD9159831
_publ_section_title
;
Structure prediction by ZEFSAII (Michael W. Deem and Ramdas Pophale) SiO2 
 PCOD9159831
Probable space group: P 21/M
;
_chemical_formula_sum "Si O2"
_cell_formula_units_Z 32
_cell_length_a 7.774031
_cell_length_b 16.760489
_cell_length_c 18.479709
_cell_angle_alpha 90.000000
_cell_angle_beta 31.244796
_cell_angle_gamma 90.000000
_cell_volume 1248.937344
_symmetry_space_group_name_H-M "P 21/M"
_symmetry_group_IT_number 11
_symmetry_cell_setting 'monoclinic'
loop_
_space_group_symop_operation_xyz
x,y,z
-x,1/2+y,-z
-x,-y,-z
x,1/2-y,z
loop_
_atom_site_type_symbol
_atom_site_label
_atom_site_fract_x
_atom_site_fract_y
_atom_site_fract_z
Si Si1 0.148468 0.625700 0.461320
Si Si2 0.271382 0.042164 0.486513
Si Si3 0.143327 0.335793 0.130383
Si Si4 0.282778 0.336737 0.855822
Si Si5 0.088037 0.836108 0.147105
Si Si6 0.722594 0.664237 0.745301
Si Si7 0.424159 0.507587 0.187002
Si Si8 0.031111 0.509844 0.768541
O O1 0.268141 0.535553 0.435806
O O2 0.427422 0.663104 0.310187
O O3 0.816746 0.617547 0.531741
O O4 0.037321 0.660845 0.577523
O O5 0.946116 0.034126 0.652962
O O6 0.632990 0.041353 0.391172
O O7 0.995801 0.250000 0.161933
O O8 0.154354 0.336923 0.215250
O O9 0.989971 0.420715 0.163292
O O10 0.528546 0.336163 0.969972
O O11 0.301958 0.250000 0.886709
O O12 0.340798 0.419217 0.877513
O O13 0.954299 0.338966 0.924622
O O14 0.949599 0.750000 0.221480
O O15 0.920660 0.916802 0.233183
O O16 0.556354 0.750000 0.792685
O O17 0.527391 0.581471 0.799575
O O18 0.333604 0.491637 0.136557
#
# Coordination Sequence:
#
# PCOD9159831 Si02
#       8
#     4   4   4   4   4   4   4   4
#     4   9  16  30  52  80 106 138 174 221 256 313
#     4   9  17  30  52  77 113 141 171 213 266 317
#     4   9  20  38  55  76 106 141 180 222 268 313
#     4  10  19  34  55  78 107 142 174 218 270 314
#     4  10  21  36  58  79 102 140 185 223 263 316
#     4   9  17  31  53  74 101 139 177 213 258 312
#     4   9  20  33  51  80 113 140 171 217 267 314
#     4  11  19  34  57  80 106 145 179 216 263 323
#
# _framework density 25.621780000000001
#
# number of rings (size 3 to 8) (size 9 to 14) (size 15 to 20)
#    0.000    2.500    1.250    1.875    0.000    0.500 
#    0.000    5.625    2.750    4.500    0.000    0.000 
#    0.000    0.000    0.000    0.000    0.000    0.000 
#
# Total GULP energy -178277.261830 kJ/mol
# GULP energy per Si atom -5571.164432 kJ/mol
# Density = 2.556346 g / cm^3
# Si number density = 25.621780 Si / 1000 Ang^3
#
#
#
# Elastic Constant Matrix: (Units=GPa)
#
#
# Indices 1 2 3 4 5 6 
#
# 1 44.4364 6.8124 -3.9046 0.0000 3.0424 0.0000
# 2 6.8124 198.0079 2.9600 0.0000 -11.7035 0.0000
# 3 -3.9046 2.9600 64.2401 0.0000 6.9332 0.0000
# 4 0.0000 0.0000 0.0000 9.2953 0.0000 9.4244
# 5 3.0424 -11.7035 6.9332 0.0000 34.8739 0.0000
# 6 0.0000 0.0000 0.0000 9.4244 0.0000 11.7886
#
#
#
# Elastic Compliance Matrix: (Units=1/GPa)
#
#
# Indices 1 2 3 4 5 6 
#
# 1 0.022989 -0.000975 0.001731 0.000000 -0.002677 0.000000
# 2 -0.000975 0.005206 -0.000508 0.000000 0.001933 0.000000
# 3 0.001731 -0.000508 0.016075 0.000000 -0.003517 0.000000
# 4 0.000000 0.000000 0.000000 0.567849 0.000000 -0.453966
# 5 -0.002677 0.001933 -0.003517 0.000000 0.030256 0.000000
# 6 0.000000 0.000000 0.000000 -0.453966 0.000000 0.447749
#
#
# Mechanical properties :
#
#
# Convention : Reuss Voigt Hill
#
# Bulk Modulus (GPa) = 22.33831 35.38002 28.85917
# Shear Modulus (GPa) = 4.52673 31.24601 17.88637
#
# Velocity S-wave (km/s) = 1.33063 3.49594 2.64501
# Velocity P-wave (km/s) = 3.33140 5.48944 4.54049
#
# Compressibility (1/GPa) = 0.04476614
#
# Stress axis : x y z
#
# Youngs Moduli (GPa) = 43.49918 192.09742 62.20910
#
# Poissons Ratio (x) = 0.18730 -0.10769
# Poissons Ratio (y) = 0.04241 0.03159
# Poissons Ratio (z) = -0.07530 0.09754
#
# Static dielectric constant tensor:
#      x y z
#    x 2.170930 0.000000 0.050960 
#    y 0.000000 2.294480 0.000000 
#    z 0.050960 0.000000 2.029750 
# 
# From -- ./inp_files/68173.got.cif
#   From: 2010.05.17/outbox.cif.g08.bks.cpg/sg11_35_cif.got.tgz:68173.got - 2010.06.03 12:22:45.
