data_PCOD9159510
_publ_section_title
;
Structure prediction by ZEFSAII (Michael W. Deem and Ramdas Pophale) SiO2 
 PCOD9159510
Probable space group: P 21/M
;
_chemical_formula_sum "Si O2"
_cell_formula_units_Z 28
_cell_length_a 29.049389
_cell_length_b 8.045665
_cell_length_c 10.173894
_cell_angle_alpha 90.000000
_cell_angle_beta 37.827713
_cell_angle_gamma 90.000000
_cell_volume 1458.315358
_symmetry_space_group_name_H-M "P 21/M"
_symmetry_group_IT_number 11
_symmetry_cell_setting 'monoclinic'
loop_
_space_group_symop_operation_xyz
x,y,z
-x,1/2+y,-z
-x,-y,-z
x,1/2-y,z
loop_
_atom_site_type_symbol
_atom_site_label
_atom_site_fract_x
_atom_site_fract_y
_atom_site_fract_z
Si Si1 0.798262 0.550783 0.178207
Si Si2 0.198874 0.047161 0.528916
Si Si3 0.630530 0.950751 0.859722
Si Si4 0.499037 0.447205 0.349731
Si Si5 0.955221 0.549249 0.230308
Si Si6 0.628098 0.953443 0.563441
Si Si7 0.952110 0.447631 0.731980
O O1 0.795140 0.750000 0.188946
O O2 0.817029 0.493982 0.284714
O O3 0.713592 0.493742 0.339320
O O4 0.865768 0.502699 0.931246
O O5 0.199057 0.250000 0.527495
O O6 0.283706 0.994828 0.305898
O O7 0.130814 0.990808 0.590605
O O8 0.629727 0.750000 0.860540
O O9 0.610673 0.004384 0.754215
O O10 0.573551 0.008951 0.099415
O O11 0.500000 0.500000 0.500000
O O12 0.491217 0.250000 0.368890
O O13 0.430398 0.513925 0.413996
O O14 0.952830 0.750000 0.244307
O O15 0.002614 0.482703 0.245077
O O16 0.000000 0.500000 0.000000
O O17 0.626652 0.750000 0.567018
O O18 0.951530 0.250000 0.742122
O O19 0.000000 0.500000 0.500000
#
# Coordination Sequence:
#
# PCOD9159510 Si02
#       7
#     4   4   4   4   4   4   4
#     4   9  16  33  59  80 102 135 177 221 265 313
#     4   8  15  30  55  82 105 131 169 215 263 312
#     4   9  17  34  59  83 105 134 175 219 261 311
#     4  11  22  37  54  78 112 144 175 213 262 316
#     4  10  19  33  55  81 105 137 178 219 262 311
#     4   8  17  34  59  84 103 134 178 218 261 319
#     4  11  23  36  51  76 111 146 181 218 263 315
#
# _framework density 19.200234999999999
#
# number of rings (size 3 to 8) (size 9 to 14) (size 15 to 20)
#    0.000    2.571    1.429    3.000    0.000    0.571 
#    2.571    5.714    0.000    0.000    0.000    0.000 
#    0.000    0.000    0.000    0.000    0.000    0.000 
#
# Total GULP energy -156106.445959 kJ/mol
# GULP energy per Si atom -5575.230213 kJ/mol
# Density = 1.915653 g / cm^3
# Si number density = 19.200235 Si / 1000 Ang^3
#
#
#
# Elastic Constant Matrix: (Units=GPa)
#
#
# Indices 1 2 3 4 5 6 
#
# 1 120.2254 9.1483 88.1000 0.0000 -4.6663 0.0000
# 2 9.1483 13.1763 6.8051 0.0000 -0.9395 0.0000
# 3 88.1000 6.8051 172.3791 0.0000 -2.9126 0.0000
# 4 0.0000 0.0000 0.0000 30.5254 0.0000 -0.5646
# 5 -4.6663 -0.9395 -2.9126 0.0000 27.6190 0.0000
# 6 0.0000 0.0000 0.0000 -0.5646 0.0000 14.5791
#
#
#
# Elastic Compliance Matrix: (Units=1/GPa)
#
#
# Indices 1 2 3 4 5 6 
#
# 1 0.013808 -0.005976 -0.006797 0.000000 0.001413 0.000000
# 2 -0.005976 0.080208 -0.000083 0.000000 0.001710 0.000000
# 3 -0.006797 -0.000083 0.009276 0.000000 -0.000173 0.000000
# 4 0.000000 0.000000 0.000000 0.032783 0.000000 0.001269
# 5 0.001413 0.001710 -0.000173 0.000000 0.036486 0.000000
# 6 0.000000 0.000000 0.000000 0.001269 0.000000 0.068641
#
#
# Mechanical properties :
#
#
# Convention : Reuss Voigt Hill
#
# Bulk Modulus (GPa) = 12.89020 57.09863 34.99442
# Shear Modulus (GPa) = 17.07806 27.99320 22.53563
#
# Velocity S-wave (km/s) = 2.98564 3.82247 3.42967
# Velocity P-wave (km/s) = 4.31434 7.02031 5.82659
#
# Compressibility (1/GPa) = 0.07757830
#
# Stress axis : x y z
#
# Youngs Moduli (GPa) = 72.41990 12.46765 107.80989
#
# Poissons Ratio (x) = 0.07450 0.73283
# Poissons Ratio (y) = 0.43276 0.00899
# Poissons Ratio (z) = 0.49227 0.00104
#
# Static dielectric constant tensor:
#      x y z
#    x 1.721860 0.000000 0.010970 
#    y 0.000000 1.688690 0.000000 
#    z 0.010970 0.000000 1.685770 
# 
# From -- ./inp_files/28437.got.cif
#   From: 2010.05.17/outbox.cif.g08.bks.cpg/sg11_15_cif.got.tgz:28437.got - 2010.06.03 12:22:45.
