data_PCOD9159113
_publ_section_title
;
Structure prediction by ZEFSAII (Michael W. Deem and Ramdas Pophale) SiO2 
 PCOD9159113
Probable space group: P 21/M
;
_chemical_formula_sum "Si O2"
_cell_formula_units_Z 28
_cell_length_a 9.017317
_cell_length_b 14.952588
_cell_length_c 15.752614
_cell_angle_alpha 90.000000
_cell_angle_beta 34.396446
_cell_angle_gamma 90.000000
_cell_volume 1199.858614
_symmetry_space_group_name_H-M "P 21/M"
_symmetry_group_IT_number 11
_symmetry_cell_setting 'monoclinic'
loop_
_space_group_symop_operation_xyz
x,y,z
-x,1/2+y,-z
-x,-y,-z
x,1/2-y,z
loop_
_atom_site_type_symbol
_atom_site_label
_atom_site_fract_x
_atom_site_fract_y
_atom_site_fract_z
Si Si1 0.961261 0.454753 0.900665
Si Si2 0.567361 0.358216 0.204082
Si Si3 0.816584 0.649501 0.924643
Si Si4 0.692188 0.650722 0.505181
Si Si5 0.784354 0.144518 0.818166
Si Si6 0.054854 0.146520 0.336775
Si Si7 0.496786 0.581589 0.434177
O O1 0.188623 0.589549 0.950523
O O2 0.260368 0.424066 0.744285
O O3 0.937720 0.561349 0.907519
O O4 0.807185 0.414640 0.891338
O O5 0.610917 0.250000 0.177195
O O6 0.492877 0.387304 0.334831
O O7 0.307901 0.380888 0.271121
O O8 0.903328 0.750000 0.911217
O O9 0.872312 0.643571 0.797405
O O10 0.503455 0.641756 0.084499
O O11 0.747299 0.750000 0.511967
O O12 0.554830 0.656165 0.478395
O O13 0.979890 0.610898 0.353105
O O14 0.834185 0.250000 0.816060
O O15 0.001425 0.250000 0.384084
O O16 0.784001 0.093621 0.475447
O O17 0.500000 0.500000 0.500000
#
# Coordination Sequence:
#
# PCOD9159113 Si02
#       7
#     4   4   4   4   4   4   4
#     4  11  20  34  61  88 119 158 208 257 297 358
#     4  10  21  38  63  94 124 157 203 255 313 368
#     4  10  19  32  54  85 117 153 205 258 303 352
#     4   9  20  38  60  87 124 163 198 247 312 375
#     4   9  17  31  55  87 116 151 203 252 296 358
#     4  10  20  36  60  88 120 157 199 251 304 364
#     4  11  22  38  59  88 120 159 210 251 300 367
#
# _framework density 23.336082000000001
#
# number of rings (size 3 to 8) (size 9 to 14) (size 15 to 20)
#    0.000    2.000    2.857    1.286    0.000    1.714 
#    0.000    3.571    3.143    0.000    0.000    1.000 
#    0.000    0.000    0.000    0.000    0.000    0.000 
#
# Total GULP energy -156520.936216 kJ/mol
# GULP energy per Si atom -5590.033436 kJ/mol
# Density = 2.328297 g / cm^3
# Si number density = 23.336082 Si / 1000 Ang^3
#
#
#
# Elastic Constant Matrix: (Units=GPa)
#
#
# Indices 1 2 3 4 5 6 
#
# 1 82.7137 47.9064 75.7248 0.0000 2.3521 0.0000
# 2 47.9064 115.6951 60.3935 0.0000 4.4888 0.0000
# 3 75.7248 60.3935 178.8314 0.0000 11.9525 0.0000
# 4 0.0000 0.0000 0.0000 27.9885 0.0000 -0.3995
# 5 2.3521 4.4888 11.9525 0.0000 41.5628 0.0000
# 6 0.0000 0.0000 0.0000 -0.3995 0.0000 -3.9649
#
#
#
# Elastic Compliance Matrix: (Units=1/GPa)
#
#
# Indices 1 2 3 4 5 6 
#
# 1 0.022114 -0.005190 -0.007713 0.000000 0.001527 0.000000
# 2 -0.005190 0.011712 -0.001726 0.000000 -0.000475 0.000000
# 3 -0.007713 -0.001726 0.009583 0.000000 -0.002133 0.000000
# 4 0.000000 0.000000 0.000000 0.035678 0.000000 -0.003595
# 5 0.001527 -0.000475 -0.002133 0.000000 0.024638 0.000000
# 6 0.000000 0.000000 0.000000 -0.003595 0.000000 -0.251852
#
#
# Mechanical properties :
#
#
# Convention : Reuss Voigt Hill
#
# Bulk Modulus (GPa) = 70.66590 82.80997 76.73794
# Shear Modulus (GPa) = -43.80113 25.99831 -8.90141
#
# Velocity S-wave (km/s) = -4.33710 3.34141 -1.95518
# Velocity P-wave (km/s) = 2.29499 7.10278 5.27809
#
# Compressibility (1/GPa) = 0.01415110
#
# Stress axis : x y z
#
# Youngs Moduli (GPa) = 45.22045 85.38503 104.34602
#
# Poissons Ratio (x) = 0.44311 0.80487
# Poissons Ratio (y) = 0.23468 0.18010
# Poissons Ratio (z) = 0.34881 0.14737
#
# Static dielectric constant tensor:
#      x y z
#    x 1.859130 0.000000 0.003600 
#    y 0.000000 2.093400 0.000000 
#    z 0.003600 0.000000 1.876680 
# 
# From -- ./inp_files/63922.got.cif
#   From: 2010.05.17/outbox.cif.g08.bks.cpg/sg11_32_cif.got.tgz:63922.got - 2010.06.03 12:22:45.
