data_PCOD9159096
_publ_section_title
;
Structure prediction by ZEFSAII (Michael W. Deem and Ramdas Pophale) SiO2 
 PCOD9159096
Probable space group: P 21/M
;
_chemical_formula_sum "Si O2"
_cell_formula_units_Z 32
_cell_length_a 13.990930
_cell_length_b 20.507365
_cell_length_c 6.138091
_cell_angle_alpha 90.000000
_cell_angle_beta 106.773567
_cell_angle_gamma 90.000000
_cell_volume 1686.192345
_symmetry_space_group_name_H-M "P 21/M"
_symmetry_group_IT_number 11
_symmetry_cell_setting 'monoclinic'
loop_
_space_group_symop_operation_xyz
x,y,z
-x,1/2+y,-z
-x,-y,-z
x,1/2-y,z
loop_
_atom_site_type_symbol
_atom_site_label
_atom_site_fract_x
_atom_site_fract_y
_atom_site_fract_z
Si Si1 0.162637 0.022998 0.560340
Si Si2 0.322897 0.634530 0.991806
Si Si3 0.168830 0.908814 0.240487
Si Si4 0.501564 0.174479 0.594479
Si Si5 0.531811 0.434277 0.243008
Si Si6 0.141266 0.821331 0.600116
Si Si7 0.967374 0.436769 0.220164
Si Si8 0.618640 0.568920 0.235233
O O1 0.262534 0.060554 0.687330
O O2 0.083525 0.057629 0.349089
O O3 0.196117 0.959586 0.445653
O O4 0.095331 0.997040 0.716808
O O5 0.253238 0.595514 0.114259
O O6 0.401900 0.674402 0.184959
O O7 0.385409 0.586887 0.879851
O O8 0.247888 0.674579 0.790775
O O9 0.155643 0.841284 0.358736
O O10 0.067325 0.928718 0.050578
O O11 0.479279 0.250000 0.518497
O O12 0.526217 0.123795 0.414896
O O13 0.416088 0.136194 0.674738
O O14 0.566178 0.507575 0.328840
O O15 0.428964 0.435823 0.037712
O O16 0.098429 0.750000 0.593728
O O17 0.072986 0.874367 0.673850
#
# Coordination Sequence:
#
# PCOD9159096 Si02
#       8
#     4   4   4   4   4   4   4   4
#     4  10  19  36  58  80 106 135 173 222 271 318
#     4  10  20  34  55  82 110 140 176 217 270 325
#     4  10  19  32  54  83 108 133 169 218 272 322
#     4  11  23  37  54  78 111 148 183 221 265 318
#     4  10  21  37  56  82 111 141 180 226 272 320
#     4  10  20  33  50  77 111 143 175 213 262 321
#     4   9  20  35  55  81 106 136 174 218 270 320
#     4  10  21  36  57  81 106 141 181 224 271 320
#
# _framework density 18.97767
#
# number of rings (size 3 to 8) (size 9 to 14) (size 15 to 20)
#    0.000    2.000    0.000    4.875    0.000    9.000 
#    0.000    0.625    0.000    1.500    0.000    0.000 
#    0.000    0.000    0.000    0.000    0.000    0.000 
#
# Total GULP energy -178542.446194 kJ/mol
# GULP energy per Si atom -5579.451444 kJ/mol
# Density = 1.893448 g / cm^3
# Si number density = 18.977670 Si / 1000 Ang^3
#
#
#
# Elastic Constant Matrix: (Units=GPa)
#
#
# Indices 1 2 3 4 5 6 
#
# 1 83.5798 26.2869 30.1291 0.0000 25.8640 0.0000
# 2 26.2869 100.2018 23.7550 0.0000 10.2297 0.0000
# 3 30.1291 23.7550 82.0854 0.0000 14.9901 0.0000
# 4 0.0000 0.0000 0.0000 12.1411 0.0000 3.4385
# 5 25.8640 10.2297 14.9901 0.0000 30.5960 0.0000
# 6 0.0000 0.0000 0.0000 3.4385 0.0000 12.1645
#
#
#
# Elastic Compliance Matrix: (Units=1/GPa)
#
#
# Indices 1 2 3 4 5 6 
#
# 1 0.017944 -0.002584 -0.003543 0.000000 -0.012569 0.000000
# 2 -0.002584 0.011232 -0.002213 0.000000 -0.000487 0.000000
# 3 -0.003543 -0.002213 0.014762 0.000000 -0.003497 0.000000
# 4 0.000000 0.000000 0.000000 0.089532 0.000000 -0.025308
# 5 -0.012569 -0.000487 -0.003497 0.000000 0.045185 0.000000
# 6 0.000000 0.000000 0.000000 -0.025308 0.000000 0.089360
#
#
# Mechanical properties :
#
#
# Convention : Reuss Voigt Hill
#
# Bulk Modulus (GPa) = 36.68752 47.35654 42.02203
# Shear Modulus (GPa) = 17.01938 23.36006 20.18972
#
# Velocity S-wave (km/s) = 2.99793 3.51226 3.26524
# Velocity P-wave (km/s) = 5.59976 6.43863 6.03379
#
# Compressibility (1/GPa) = 0.02725723
#
# Stress axis : x y z
#
# Youngs Moduli (GPa) = 55.72858 89.03004 67.74122
#
# Poissons Ratio (x) = 0.23008 0.24002
# Poissons Ratio (y) = 0.14402 0.14992
# Poissons Ratio (z) = 0.19746 0.19703
#
# Static dielectric constant tensor:
#      x y z
#    x 1.660430 0.000000 -0.001360 
#    y 0.000000 1.697110 0.000000 
#    z -0.001360 0.000000 1.701360 
# 
# From -- ./inp_files/7078.got.cif
#   From: 2010.05.17/outbox.cif.g08.bks.cpg/sg11_4_cif.got.tgz:7078.got - 2010.06.03 12:22:45.
