data_PCOD9159636
_publ_section_title
;
Structure prediction by ZEFSAII (Michael W. Deem and Ramdas Pophale) SiO2 
 PCOD9159636
Probable space group: P 21/M
;
_chemical_formula_sum "Si O2"
_cell_formula_units_Z 28
_cell_length_a 15.441278
_cell_length_b 8.234005
_cell_length_c 22.998225
_cell_angle_alpha 90.000000
_cell_angle_beta 152.030750
_cell_angle_gamma 90.000000
_cell_volume 1371.384802
_symmetry_space_group_name_H-M "P 21/M"
_symmetry_group_IT_number 11
_symmetry_cell_setting 'monoclinic'
loop_
_space_group_symop_operation_xyz
x,y,z
-x,1/2+y,-z
-x,-y,-z
x,1/2-y,z
loop_
_atom_site_type_symbol
_atom_site_label
_atom_site_fract_x
_atom_site_fract_y
_atom_site_fract_z
Si Si1 0.337459 0.054807 0.980631
Si Si2 0.659774 0.054062 0.550829
Si Si3 0.024152 0.551664 0.178133
Si Si4 0.937146 0.943418 0.526027
Si Si5 0.831373 0.055834 0.860526
Si Si6 0.424798 0.556331 0.629115
Si Si7 0.744869 0.447106 0.198431
O O1 0.341972 0.250000 0.986939
O O2 0.185985 0.996165 0.937123
O O3 0.264541 0.008883 0.873195
O O4 0.549280 0.999018 0.110985
O O5 0.659248 0.250000 0.548534
O O6 0.852412 0.001349 0.693641
O O7 0.625096 0.992301 0.465297
O O8 0.500000 0.000000 0.500000
O O9 0.023318 0.750000 0.176126
O O10 0.123445 0.496296 0.178176
O O11 0.946300 0.750000 0.532865
O O12 0.080627 0.004864 0.660622
O O13 0.730361 0.996010 0.418900
O O14 0.000000 0.000000 0.500000
O O15 0.824055 0.250000 0.854892
O O16 0.634595 0.993113 0.765661
O O17 0.000000 0.000000 0.000000
O O18 0.415620 0.750000 0.622473
O O19 0.747100 0.250000 0.198075
#
# Coordination Sequence:
#
# PCOD9159636 Si02
#       7
#     4   4   4   4   4   4   4
#     4   9  17  33  58  83 111 148 188 232 287 351
#     4  10  19  33  56  86 117 151 192 240 296 356
#     4   9  18  33  55  83 114 151 190 232 289 349
#     4  11  24  41  61  86 119 158 202 249 299 356
#     4  11  23  40  60  83 118 158 200 245 295 355
#     4  11  23  40  63  90 119 154 199 249 305 363
#     4   9  19  35  55  84 117 149 186 235 295 346
#
# _framework density 20.41732
#
# number of rings (size 3 to 8) (size 9 to 14) (size 15 to 20)
#    0.000    2.000    1.429    2.143    0.000    4.000 
#    0.000    5.000    0.000    0.000    0.000    0.000 
#    0.000    0.000    0.000    0.000    0.000    0.000 
#
# Total GULP energy -156374.605720 kJ/mol
# GULP energy per Si atom -5584.807347 kJ/mol
# Density = 2.037085 g / cm^3
# Si number density = 20.417320 Si / 1000 Ang^3
#
#
#
# Elastic Constant Matrix: (Units=GPa)
#
#
# Indices 1 2 3 4 5 6 
#
# 1 129.8640 14.2094 54.1667 0.0000 36.4888 0.0000
# 2 14.2094 23.4986 11.6642 0.0000 4.0450 0.0000
# 3 54.1667 11.6642 114.2871 0.0000 22.8679 0.0000
# 4 0.0000 0.0000 0.0000 22.8966 0.0000 0.3181
# 5 36.4888 4.0450 22.8679 0.0000 35.8172 0.0000
# 6 0.0000 0.0000 0.0000 0.3181 0.0000 25.5092
#
#
#
# Elastic Compliance Matrix: (Units=1/GPa)
#
#
# Indices 1 2 3 4 5 6 
#
# 1 0.012384 -0.004056 -0.003465 0.000000 -0.009946 0.000000
# 2 -0.004056 0.046344 -0.002966 0.000000 0.000792 0.000000
# 3 -0.003465 -0.002966 0.011375 0.000000 -0.003397 0.000000
# 4 0.000000 0.000000 0.000000 0.043682 0.000000 -0.000545
# 5 -0.009946 0.000792 -0.003397 0.000000 0.040131 0.000000
# 6 0.000000 0.000000 0.000000 -0.000545 0.000000 0.039208
#
#
# Mechanical properties :
#
#
# Convention : Reuss Voigt Hill
#
# Bulk Modulus (GPa) = 20.35507 47.52558 33.94032
# Shear Modulus (GPa) = 21.69421 29.35191 25.52306
#
# Velocity S-wave (km/s) = 3.26320 3.79568 3.53947
# Velocity P-wave (km/s) = 4.91824 6.52206 5.77609
#
# Compressibility (1/GPa) = 0.04912782
#
# Stress axis : x y z
#
# Youngs Moduli (GPa) = 80.74822 21.57759 87.91391
#
# Poissons Ratio (x) = 0.08753 0.30466
# Poissons Ratio (y) = 0.32755 0.26074
# Poissons Ratio (z) = 0.27983 0.06400
#
# Static dielectric constant tensor:
#      x y z
#    x 1.721500 0.000000 0.006680 
#    y 0.000000 1.700910 0.000000 
#    z 0.006680 0.000000 1.731300 
# 
# From -- ./inp_files/65449.got.cif
#   From: 2010.05.17/outbox.cif.g08.bks.cpg/sg11_33_cif.got.tgz:65449.got - 2010.06.03 12:22:45.
