data_PCOD9159052
_publ_section_title
;
Structure prediction by ZEFSAII (Michael W. Deem and Ramdas Pophale) SiO2 
 PCOD9159052
Probable space group: P 21/M
;
_chemical_formula_sum "Si O2"
_cell_formula_units_Z 32
_cell_length_a 8.672826
_cell_length_b 14.680393
_cell_length_c 13.920417
_cell_angle_alpha 90.000000
_cell_angle_beta 111.249549
_cell_angle_gamma 90.000000
_cell_volume 1651.853277
_symmetry_space_group_name_H-M "P 21/M"
_symmetry_group_IT_number 11
_symmetry_cell_setting 'monoclinic'
loop_
_space_group_symop_operation_xyz
x,y,z
-x,1/2+y,-z
-x,-y,-z
x,1/2-y,z
loop_
_atom_site_type_symbol
_atom_site_label
_atom_site_fract_x
_atom_site_fract_y
_atom_site_fract_z
Si Si1 0.743499 0.642531 0.424558
Si Si2 0.384386 0.643510 0.317533
Si Si3 0.037552 0.358512 0.340917
Si Si4 0.805424 0.647345 0.820350
Si Si5 0.970530 0.147836 0.788993
Si Si6 0.781159 0.513788 0.246427
Si Si7 0.097132 0.594701 0.010816
Si Si8 0.592747 0.013346 0.861136
O O1 0.761541 0.750000 0.401685
O O2 0.551787 0.631246 0.416060
O O3 0.871538 0.623118 0.538079
O O4 0.770316 0.576611 0.339989
O O5 0.383876 0.750000 0.287494
O O6 0.406391 0.577507 0.232669
O O7 0.196712 0.627831 0.310082
O O8 0.002774 0.250000 0.326779
O O9 0.165150 0.380594 0.283108
O O10 0.876803 0.420863 0.291892
O O11 0.740898 0.750000 0.810586
O O12 0.687874 0.578461 0.851134
O O13 0.990455 0.645447 0.907295
O O14 0.028702 0.250000 0.779965
O O15 0.106137 0.072362 0.799967
O O16 0.920188 0.143036 0.889700
O O17 0.599167 0.498909 0.161704
O O18 0.288242 0.567788 0.038344
O O19 0.000000 0.500000 0.000000
#
# Coordination Sequence:
#
# PCOD9159052 Si02
#       8
#     4   4   4   4   4   4   4   4
#     4   9  18  34  54  78 106 138 176 218 264 312
#     4   8  15  30  52  75 100 130 170 220 263 299
#     4  10  21  36  54  75 104 143 184 219 255 308
#     4  10  20  37  57  74  99 139 182 221 256 300
#     4  10  19  32  53  81 108 135 170 216 270 323
#     4  11  20  34  53  79 113 142 166 210 271 325
#     4   9  17  34  56  77 100 131 173 217 257 302
#     4   9  19  33  53  79 104 132 170 215 262 315
#
# _framework density 19.372181999999999
#
# number of rings (size 3 to 8) (size 9 to 14) (size 15 to 20)
#    0.000    2.500    0.000    3.375    0.000    1.500 
#    0.000   12.500    0.000    6.000    0.000    0.000 
#    0.000    0.000    0.000    0.000    0.000    0.000 
#
# Total GULP energy -178263.102021 kJ/mol
# GULP energy per Si atom -5570.721938 kJ/mol
# Density = 1.932809 g / cm^3
# Si number density = 19.372182 Si / 1000 Ang^3
#
#
#
# Elastic Constant Matrix: (Units=GPa)
#
#
# Indices 1 2 3 4 5 6 
#
# 1 84.2249 39.2648 34.3470 0.0000 24.1852 0.0000
# 2 39.2648 71.2096 11.0266 0.0000 14.1643 0.0000
# 3 34.3470 11.0266 50.9430 0.0000 10.3917 0.0000
# 4 0.0000 0.0000 0.0000 26.0498 0.0000 0.7970
# 5 24.1852 14.1643 10.3917 0.0000 32.1994 0.0000
# 6 0.0000 0.0000 0.0000 0.7970 0.0000 25.5486
#
#
#
# Elastic Compliance Matrix: (Units=1/GPa)
#
#
# Indices 1 2 3 4 5 6 
#
# 1 0.024104 -0.009410 -0.012167 0.000000 -0.010039 0.000000
# 2 -0.009410 0.019274 0.002634 0.000000 -0.002260 0.000000
# 3 -0.012167 0.002634 0.027442 0.000000 -0.000876 0.000000
# 4 0.000000 0.000000 0.000000 0.038425 0.000000 -0.001199
# 5 -0.010039 -0.002260 -0.000876 0.000000 0.039874 0.000000
# 6 0.000000 0.000000 0.000000 -0.001199 0.000000 0.039178
#
#
# Mechanical properties :
#
#
# Convention : Reuss Voigt Hill
#
# Bulk Modulus (GPa) = 30.36484 41.73936 36.05210
# Shear Modulus (GPa) = 21.08274 24.87551 22.97913
#
# Velocity S-wave (km/s) = 3.30252 3.58730 3.44785
# Velocity P-wave (km/s) = 5.50006 6.22504 5.87374
#
# Compressibility (1/GPa) = 0.03293282
#
# Stress axis : x y z
#
# Youngs Moduli (GPa) = 41.48637 51.88459 36.44081
#
# Poissons Ratio (x) = 0.48824 0.44338
# Poissons Ratio (y) = 0.39040 -0.09598
# Poissons Ratio (z) = 0.50477 -0.13666
#
# Static dielectric constant tensor:
#      x y z
#    x 1.708200 0.000000 0.023110 
#    y 0.000000 1.680240 0.000000 
#    z 0.023110 0.000000 1.704360 
# 
# From -- ./inp_files/47462.got.cif
#   From: 2010.05.17/outbox.cif.g08.bks.cpg/sg11_24_cif.got.tgz:47462.got - 2010.06.03 12:22:45.
