data_PCOD9159529
_publ_section_title
;
Structure prediction by ZEFSAII (Michael W. Deem and Ramdas Pophale) SiO2 
 PCOD9159529
Probable space group: P 21/M
;
_chemical_formula_sum "Si O2"
_cell_formula_units_Z 32
_cell_length_a 19.491186
_cell_length_b 8.561137
_cell_length_c 25.101708
_cell_angle_alpha 90.000000
_cell_angle_beta 24.483847
_cell_angle_gamma 90.000000
_cell_volume 1735.925887
_symmetry_space_group_name_H-M "P 21/M"
_symmetry_group_IT_number 11
_symmetry_cell_setting 'monoclinic'
loop_
_space_group_symop_operation_xyz
x,y,z
-x,1/2+y,-z
-x,-y,-z
x,1/2-y,z
loop_
_atom_site_type_symbol
_atom_site_label
_atom_site_fract_x
_atom_site_fract_y
_atom_site_fract_z
Si Si1 0.391322 0.566322 0.622954
Si Si2 0.436093 0.932953 0.394628
Si Si3 0.753059 0.937399 0.843983
Si Si4 0.571164 0.060982 0.866488
Si Si5 0.914720 0.933511 0.122538
Si Si6 0.116623 0.063479 0.564609
Si Si7 0.743928 0.432341 0.137559
Si Si8 0.168559 0.561675 0.408170
O O1 0.500000 0.500000 0.500000
O O2 0.636670 0.250000 0.359648
O O3 0.488516 0.523075 0.608293
O O4 0.219601 0.474086 0.739275
O O5 0.426492 0.750000 0.412783
O O6 0.262748 0.999762 0.498635
O O7 0.581025 0.965128 0.248718
O O8 0.765530 0.750000 0.835509
O O9 0.671676 0.992410 0.845700
O O10 0.621122 0.982721 0.984193
O O11 0.937789 0.006769 0.712239
O O12 0.578727 0.250000 0.863606
O O13 0.671296 0.015145 0.741673
O O14 0.908443 0.750000 0.112308
O O15 0.840411 0.033426 0.125507
O O16 0.100273 0.970044 0.009840
O O17 0.117205 0.250000 0.562576
O O18 0.159477 0.000678 0.474966
O O19 0.700542 0.250000 0.165077
O O20 0.165347 0.750000 0.411801
O O21 0.000000 0.500000 0.500000
#
# Coordination Sequence:
#
# PCOD9159529 Si02
#       8
#     4   4   4   4   4   4   4   4
#     4  11  21  35  56  82 111 143 181 225 272 323
#     4  11  22  37  57  81 109 143 183 227 275 331
#     4  10  19  33  55  82 110 146 189 234 282 337
#     4   9  19  34  54  81 113 144 183 235 286 335
#     4   9  16  27  47  76 106 135 170 213 258 307
#     4  12  24  38  56  81 114 152 191 235 284 339
#     4   9  16  28  48  75 105 135 168 211 260 312
#     4  11  21  35  56  85 115 147 187 236 285 334
#
# _framework density 18.433966000000002
#
# number of rings (size 3 to 8) (size 9 to 14) (size 15 to 20)
#    0.000    1.750    1.250    6.375    0.000    2.500 
#    0.000    0.000    2.750    0.000    0.000    0.000 
#    0.000    0.000    0.000    0.000    0.000    0.000 
#
# Total GULP energy -178258.710688 kJ/mol
# GULP energy per Si atom -5570.584709 kJ/mol
# Density = 1.839201 g / cm^3
# Si number density = 18.433966 Si / 1000 Ang^3
#
#
#
# Elastic Constant Matrix: (Units=GPa)
#
#
# Indices 1 2 3 4 5 6 
#
# 1 19.8571 -0.4071 19.8838 0.0000 -7.8250 0.0000
# 2 -0.4071 50.6674 15.4868 0.0000 -4.9215 0.0000
# 3 19.8838 15.4868 147.5493 0.0000 -7.6739 0.0000
# 4 0.0000 0.0000 0.0000 32.5202 0.0000 -1.9646
# 5 -7.8250 -4.9215 -7.6739 0.0000 26.9295 0.0000
# 6 0.0000 0.0000 0.0000 -1.9646 0.0000 21.7180
#
#
#
# Elastic Compliance Matrix: (Units=1/GPa)
#
#
# Indices 1 2 3 4 5 6 
#
# 1 0.065879 0.004829 -0.008469 0.000000 0.017612 0.000000
# 2 0.004829 0.021014 -0.002622 0.000000 0.004496 0.000000
# 3 -0.008469 -0.002622 0.008162 0.000000 -0.000614 0.000000
# 4 0.000000 0.000000 0.000000 0.030919 0.000000 0.002797
# 5 0.017612 0.004496 -0.000614 0.000000 0.042898 0.000000
# 6 0.000000 0.000000 0.000000 0.002797 0.000000 0.046298
#
#
# Mechanical properties :
#
#
# Convention : Reuss Voigt Hill
#
# Bulk Modulus (GPa) = 12.11686 32.00008 22.05847
# Shear Modulus (GPa) = 19.59208 28.44090 24.01649
#
# Velocity S-wave (km/s) = 3.26364 3.93218 3.61340
# Velocity P-wave (km/s) = 4.55951 6.16547 5.42228
#
# Compressibility (1/GPa) = 0.08252966
#
# Stress axis : x y z
#
# Youngs Moduli (GPa) = 15.17927 47.58811 122.51969
#
# Poissons Ratio (x) = -0.22978 1.03759
# Poissons Ratio (y) = -0.07329 0.32130
# Poissons Ratio (z) = 0.12855 0.12480
#
# Static dielectric constant tensor:
#      x y z
#    x 1.619650 0.000000 0.050730 
#    y 0.000000 1.685860 0.000000 
#    z 0.050730 0.000000 1.759050 
# 
# From -- ./inp_files/71988.got.cif
#   From: 2010.05.17/outbox.cif.g08.bks.cpg/sg11_36_cif.got.tgz:71988.got - 2010.06.03 12:22:45.
