data_PCOD9159092
_publ_section_title
;
Structure prediction by ZEFSAII (Michael W. Deem and Ramdas Pophale) SiO2 
 PCOD9159092
Probable space group: P 21/M
;
_chemical_formula_sum "Si O2"
_cell_formula_units_Z 24
_cell_length_a 14.512600
_cell_length_b 17.178456
_cell_length_c 9.407232
_cell_angle_alpha 90.000000
_cell_angle_beta 26.413810
_cell_angle_gamma 90.000000
_cell_volume 1043.291902
_symmetry_space_group_name_H-M "P 21/M"
_symmetry_group_IT_number 11
_symmetry_cell_setting 'monoclinic'
loop_
_space_group_symop_operation_xyz
x,y,z
-x,1/2+y,-z
-x,-y,-z
x,1/2-y,z
loop_
_atom_site_type_symbol
_atom_site_label
_atom_site_fract_x
_atom_site_fract_y
_atom_site_fract_z
Si Si1 0.485796 0.339770 0.147327
Si Si2 0.970646 0.659091 0.285684
Si Si3 0.104606 0.662313 0.768086
Si Si4 0.671230 0.888553 0.328222
Si Si5 0.417608 0.948478 0.435385
Si Si6 0.197589 0.948969 0.192531
O O1 0.523777 0.250000 0.061432
O O2 0.272035 0.365331 0.366339
O O3 0.421206 0.347199 0.404403
O O4 0.689954 0.391768 0.850706
O O5 0.985407 0.750000 0.306994
O O6 0.118851 0.606093 0.173959
O O7 0.033101 0.654952 0.033356
O O8 0.177615 0.750000 0.642602
O O9 0.279977 0.597551 0.514300
O O10 0.891256 0.646336 0.980832
O O11 0.504648 0.889478 0.433322
O O12 0.705821 0.979557 0.322562
O O13 0.619333 0.991659 0.098676
O O14 0.000000 0.000000 0.500000
#
# Coordination Sequence:
#
# PCOD9159092 Si02
#       6
#     4   4   4   4   4   4
#     4   9  18  34  58  82 101 128 169 217 264 309
#     4   9  18  34  57  81 101 127 169 218 264 309
#     4  10  19  32  54  82 108 132 161 207 268 324
#     4   9  17  31  54  82 105 126 157 207 268 319
#     4  10  20  32  50  75 105 136 166 205 256 308
#     4  11  23  36  51  73 104 144 183 216 247 289
#
# _framework density 23.004107999999999
#
# number of rings (size 3 to 8) (size 9 to 14) (size 15 to 20)
#    0.000    2.333    0.000    5.500    0.000    6.000 
#    0.000    1.667    0.000    2.000    0.000    0.000 
#    0.000    0.000    0.000    0.000    0.000    0.000 
#
# Total GULP energy -134129.036810 kJ/mol
# GULP energy per Si atom -5588.709867 kJ/mol
# Density = 2.295175 g / cm^3
# Si number density = 23.004108 Si / 1000 Ang^3
#
#
#
# Elastic Constant Matrix: (Units=GPa)
#
#
# Indices 1 2 3 4 5 6 
#
# 1 58.3851 20.5308 28.5957 0.0000 -12.0371 0.0000
# 2 20.5308 73.8370 58.5959 0.0000 -21.0519 0.0000
# 3 28.5957 58.5959 100.6421 0.0000 -38.4411 0.0000
# 4 0.0000 0.0000 0.0000 -1.1703 0.0000 -30.5609
# 5 -12.0371 -21.0519 -38.4411 0.0000 24.7524 0.0000
# 6 0.0000 0.0000 0.0000 -30.5609 0.0000 20.3587
#
#
#
# Elastic Compliance Matrix: (Units=1/GPa)
#
#
# Indices 1 2 3 4 5 6 
#
# 1 0.020110 -0.002049 -0.003567 0.000000 0.002497 0.000000
# 2 -0.002049 0.025496 -0.015634 0.000000 -0.003593 0.000000
# 3 -0.003567 -0.015634 0.035179 0.000000 0.039601 0.000000
# 4 0.000000 0.000000 0.000000 -0.021256 0.000000 -0.031908
# 5 0.002497 -0.003593 0.039601 0.000000 0.100061 0.000000
# 6 0.000000 0.000000 0.000000 -0.031908 0.000000 0.001222
#
#
# Mechanical properties :
#
#
# Convention : Reuss Voigt Hill
#
# Bulk Modulus (GPa) = 26.12102 49.81212 37.96657
# Shear Modulus (GPa) = 23.14022 17.13093 20.13557
#
# Velocity S-wave (km/s) = 3.17506 2.73186 2.96176
# Velocity P-wave (km/s) = 4.98206 5.62595 5.31377
#
# Compressibility (1/GPa) = 0.03828335
#
# Stress axis : x y z
#
# Youngs Moduli (GPa) = 49.72629 39.22196 28.42639
#
# Poissons Ratio (x) = 0.08036 0.10141
# Poissons Ratio (y) = 0.10188 0.44443
# Poissons Ratio (z) = 0.17740 0.61321
#
# Static dielectric constant tensor:
#      x y z
#    x 1.857370 0.000000 0.042510 
#    y 0.000000 1.855500 0.000000 
#    z 0.042510 0.000000 1.912900 
# 
# From -- ./inp_files/41903.got.cif
#   From: 2010.05.17/outbox.cif.g08.bks.cpg/sg11_21_cif.got.tgz:41903.got - 2010.06.03 12:22:45.
