data_PCOD9159049
_publ_section_title
;
Structure prediction by ZEFSAII (Michael W. Deem and Ramdas Pophale) SiO2 
 PCOD9159049
Probable space group: P 21/M
;
_chemical_formula_sum "Si O2"
_cell_formula_units_Z 32
_cell_length_a 14.589832
_cell_length_b 7.463897
_cell_length_c 14.910417
_cell_angle_alpha 90.000000
_cell_angle_beta 121.808867
_cell_angle_gamma 90.000000
_cell_volume 1379.838105
_symmetry_space_group_name_H-M "P 21/M"
_symmetry_group_IT_number 11
_symmetry_cell_setting 'monoclinic'
loop_
_space_group_symop_operation_xyz
x,y,z
-x,1/2+y,-z
-x,-y,-z
x,1/2-y,z
loop_
_atom_site_type_symbol
_atom_site_label
_atom_site_fract_x
_atom_site_fract_y
_atom_site_fract_z
Si Si1 0.355706 0.455127 0.684605
Si Si2 0.382356 0.464710 0.899959
Si Si3 0.877987 0.037516 0.406728
Si Si4 0.948821 0.033134 0.254834
Si Si5 0.123277 0.465384 0.092267
Si Si6 0.177690 0.468619 0.321084
Si Si7 0.776707 0.955575 0.030884
Si Si8 0.402794 0.465106 0.517806
O O1 0.393374 0.250000 0.711579
O O2 0.371529 0.535767 0.792285
O O3 0.226271 0.455781 0.599783
O O4 0.411865 0.534097 0.624983
O O5 0.363198 0.250000 0.884605
O O6 0.300330 0.538139 0.933219
O O7 0.500000 0.500000 0.000000
O O8 0.862736 0.250000 0.401687
O O9 0.880052 0.973397 0.304604
O O10 0.000000 0.000000 0.500000
O O11 0.945834 0.250000 0.249939
O O12 0.073295 0.978586 0.325377
O O13 0.894058 0.960294 0.137703
O O14 0.134131 0.250000 0.098937
O O15 0.153389 0.528150 0.207016
O O16 0.204217 0.535938 0.057136
O O17 0.000000 0.500000 0.000000
O O18 0.179971 0.250000 0.321845
O O19 0.290936 0.532228 0.417478
O O20 0.741047 0.750000 0.000177
O O21 0.500000 0.500000 0.500000
O O22 0.393286 0.250000 0.520747
#
# Coordination Sequence:
#
# PCOD9159049 Si02
#       8
#     4   4   4   4   4   4   4   4
#     4  10  21  40  62  84 116 154 193 244 301 351
#     4  10  22  39  59  84 117 155 194 242 293 344
#     4  11  22  34  55  87 119 155 196 237 286 350
#     4  10  19  33  55  81 110 147 187 226 279 346
#     4  10  19  32  53  80 112 150 189 228 282 343
#     4   9  18  34  55  80 112 149 187 231 285 342
#     4  10  20  34  53  80 112 148 186 231 287 336
#     4  10  22  41  63  84 112 151 195 245 294 345
#
# _framework density 23.191127000000002
#
# number of rings (size 3 to 8) (size 9 to 14) (size 15 to 20)
#    0.000    2.000    2.500    1.125    0.000    5.000 
#    0.000    2.500    0.000    0.000    0.000    0.000 
#    0.000    0.000    0.000    0.000    0.000    0.000 
#
# Total GULP energy -178716.128932 kJ/mol
# GULP energy per Si atom -5584.879029 kJ/mol
# Density = 2.313834 g / cm^3
# Si number density = 23.191127 Si / 1000 Ang^3
#
#
#
# Elastic Constant Matrix: (Units=GPa)
#
#
# Indices 1 2 3 4 5 6 
#
# 1 167.3836 -0.3875 59.9669 0.0000 -27.7922 0.0000
# 2 -0.3875 77.5837 -1.5483 0.0000 -8.3199 0.0000
# 3 59.9669 -1.5483 94.2932 0.0000 -18.8928 0.0000
# 4 0.0000 0.0000 0.0000 12.0560 0.0000 8.7447
# 5 -27.7922 -8.3199 -18.8928 0.0000 46.5950 0.0000
# 6 0.0000 0.0000 0.0000 8.7447 0.0000 17.8519
#
#
#
# Elastic Compliance Matrix: (Units=1/GPa)
#
#
# Indices 1 2 3 4 5 6 
#
# 1 0.008107 0.000276 -0.004542 0.000000 0.003044 0.000000
# 2 0.000276 0.013199 0.000595 0.000000 0.002763 0.000000
# 3 -0.004542 0.000595 0.014130 0.000000 0.003126 0.000000
# 4 0.000000 0.000000 0.000000 0.128661 0.000000 -0.063025
# 5 0.003044 0.002763 0.003126 0.000000 0.025038 0.000000
# 6 0.000000 0.000000 0.000000 -0.063025 0.000000 0.086889
#
#
# Mechanical properties :
#
#
# Convention : Reuss Voigt Hill
#
# Bulk Modulus (GPa) = 35.59450 50.59141 43.09296
# Shear Modulus (GPa) = 17.08056 34.04920 25.56488
#
# Velocity S-wave (km/s) = 2.71682 3.83587 3.32378
# Velocity P-wave (km/s) = 5.02226 6.44056 5.77512
#
# Compressibility (1/GPa) = 0.02809423
#
# Stress axis : x y z
#
# Youngs Moduli (GPa) = 123.34438 75.76446 70.77294
#
# Poissons Ratio (x) = -0.02093 0.32142
# Poissons Ratio (y) = -0.03407 -0.04208
# Poissons Ratio (z) = 0.56018 -0.04505
#
# Static dielectric constant tensor:
#      x y z
#    x 1.874030 0.000000 -0.033640 
#    y 0.000000 1.901330 0.000000 
#    z -0.033640 0.000000 1.887110 
# 
# From -- ./inp_files/51745.got.cif
#   From: 2010.05.17/outbox.cif.g08.bks.cpg/sg11_26_cif.got.tgz:51745.got - 2010.06.03 12:22:45.
