data_PCOD9159597
_publ_section_title
;
Structure prediction by ZEFSAII (Michael W. Deem and Ramdas Pophale) SiO2 
 PCOD9159597
Probable space group: P 21/M
;
_chemical_formula_sum "Si O2"
_cell_formula_units_Z 32
_cell_length_a 10.239894
_cell_length_b 13.472843
_cell_length_c 21.421043
_cell_angle_alpha 90.000000
_cell_angle_beta 32.927788
_cell_angle_gamma 90.000000
_cell_volume 1606.423566
_symmetry_space_group_name_H-M "P 21/M"
_symmetry_group_IT_number 11
_symmetry_cell_setting 'monoclinic'
loop_
_space_group_symop_operation_xyz
x,y,z
-x,1/2+y,-z
-x,-y,-z
x,1/2-y,z
loop_
_atom_site_type_symbol
_atom_site_label
_atom_site_fract_x
_atom_site_fract_y
_atom_site_fract_z
Si Si1 0.146975 0.536281 0.537874
Si Si2 0.972638 0.362065 0.291713
Si Si3 0.651879 0.637992 0.965990
Si Si4 0.176575 0.575887 0.097027
Si Si5 0.357877 0.476218 0.810479
Si Si6 0.137347 0.640039 0.977743
Si Si7 0.860834 0.132677 0.592927
Si Si8 0.688090 0.499837 0.317243
O O1 0.008440 0.572752 0.654192
O O2 0.107087 0.605755 0.493339
O O3 0.428621 0.537210 0.441721
O O4 0.062769 0.427616 0.549699
O O5 0.909969 0.250000 0.334333
O O6 0.776032 0.407231 0.322874
O O7 0.218213 0.361268 0.153723
O O8 0.683540 0.750000 0.979684
O O9 0.771372 0.538644 0.946747
O O10 0.375227 0.610707 0.066182
O O11 0.191235 0.640406 0.029550
O O12 0.911532 0.575806 0.232563
O O13 0.605068 0.415801 0.714981
O O14 0.334335 0.514659 0.748488
O O15 0.130272 0.406558 0.918082
O O16 0.327487 0.569831 0.867373
O O17 0.140391 0.750000 0.950034
O O18 0.864054 0.250000 0.601175
#
# Coordination Sequence:
#
# PCOD9159597 Si02
#       8
#     4   4   4   4   4   4   4   4
#     4  10  21  37  59  85 112 146 195 236 276 339
#     4  10  20  34  57  84 113 146 185 235 286 333
#     4   9  18  33  53  79 111 148 183 228 283 336
#     4   9  18  33  54  78 112 145 186 229 278 339
#     4   9  20  36  55  84 117 149 190 237 283 342
#     4  10  19  33  56  83 111 148 191 236 284 337
#     4  10  21  39  59  80 115 155 187 233 291 339
#     4   9  19  37  56  78 112 151 179 235 280 329
#
# _framework density 19.920026
#
# number of rings (size 3 to 8) (size 9 to 14) (size 15 to 20)
#    0.000    2.500    0.000    1.500    1.750    1.000 
#    0.000   13.750    0.000    7.500    0.000    0.000 
#    0.000    0.000    0.000    0.000    0.000    0.000 
#
# Total GULP energy -178436.512620 kJ/mol
# GULP energy per Si atom -5576.141019 kJ/mol
# Density = 1.987469 g / cm^3
# Si number density = 19.920026 Si / 1000 Ang^3
#
#
#
# Elastic Constant Matrix: (Units=GPa)
#
#
# Indices 1 2 3 4 5 6 
#
# 1 35.1928 24.0909 20.3601 0.0000 -7.5658 0.0000
# 2 24.0909 133.2358 20.2033 0.0000 16.4630 0.0000
# 3 20.3601 20.2033 55.0701 0.0000 1.7781 0.0000
# 4 0.0000 0.0000 0.0000 15.2324 0.0000 5.0312
# 5 -7.5658 16.4630 1.7781 0.0000 11.4441 0.0000
# 6 0.0000 0.0000 0.0000 5.0312 0.0000 11.9211
#
#
#
# Elastic Compliance Matrix: (Units=1/GPa)
#
#
# Indices 1 2 3 4 5 6 
#
# 1 0.070634 -0.019067 -0.021621 0.000000 0.077486 0.000000
# 2 -0.019067 0.014775 0.002736 0.000000 -0.034285 0.000000
# 3 -0.021621 0.002736 0.025867 0.000000 -0.022249 0.000000
# 4 0.000000 0.000000 0.000000 0.076283 0.000000 -0.032195
# 5 0.077486 -0.034285 -0.022249 0.000000 0.191386 0.000000
# 6 0.000000 0.000000 0.000000 -0.032195 0.000000 0.097472
#
#
# Mechanical properties :
#
#
# Convention : Reuss Voigt Hill
#
# Bulk Modulus (GPa) = 28.27189 39.20082 33.73636
# Shear Modulus (GPa) = 8.86350 18.30916 13.58633
#
# Velocity S-wave (km/s) = 2.11168 3.03501 2.61443
# Velocity P-wave (km/s) = 4.49100 5.65717 5.10748
#
# Compressibility (1/GPa) = 0.03537082
#
# Stress axis : x y z
#
# Youngs Moduli (GPa) = 14.15754 67.68390 38.65962
#
# Poissons Ratio (x) = 1.29056 0.83586
# Poissons Ratio (y) = 0.26995 -0.10578
# Poissons Ratio (z) = 0.30610 -0.18520
#
# Static dielectric constant tensor:
#      x y z
#    x 1.700790 0.000000 -0.012870 
#    y 0.000000 1.712480 0.000000 
#    z -0.012870 0.000000 1.708620 
# 
# From -- ./inp_files/68572.got.cif
#   From: 2010.05.17/outbox.cif.g08.bks.cpg/sg11_35_cif.got.tgz:68572.got - 2010.06.03 12:22:45.
