data_PCOD9159490
_publ_section_title
;
Structure prediction by ZEFSAII (Michael W. Deem and Ramdas Pophale) SiO2 
 PCOD9159490
Probable space group: P 21/M
;
_chemical_formula_sum "Si O2"
_cell_formula_units_Z 20
_cell_length_a 18.780857
_cell_length_b 8.985303
_cell_length_c 11.476404
_cell_angle_alpha 90.000000
_cell_angle_beta 36.623405
_cell_angle_gamma 90.000000
_cell_volume 1155.321429
_symmetry_space_group_name_H-M "P 21/M"
_symmetry_group_IT_number 11
_symmetry_cell_setting 'monoclinic'
loop_
_space_group_symop_operation_xyz
x,y,z
-x,1/2+y,-z
-x,-y,-z
x,1/2-y,z
loop_
_atom_site_type_symbol
_atom_site_label
_atom_site_fract_x
_atom_site_fract_y
_atom_site_fract_z
Si Si1 0.317830 0.072975 0.303555
Si Si2 0.901490 0.426815 0.286632
Si Si3 0.151088 0.572880 0.915912
Si Si4 0.453851 0.072947 0.888389
Si Si5 0.386906 0.071943 0.712555
O O1 0.304275 0.250000 0.333431
O O2 0.196336 0.992316 0.497883
O O3 0.424460 0.015119 0.246428
O O4 0.363097 0.039436 0.113112
O O5 0.914515 0.250000 0.284191
O O6 0.855493 0.454606 0.214745
O O7 0.029445 0.505646 0.127976
O O8 0.155546 0.750000 0.927894
O O9 0.266421 0.496040 0.818827
O O10 0.480845 0.250000 0.858298
O O11 0.400276 0.040218 0.832649
O O12 0.387945 0.250000 0.695403
O O13 0.500000 0.000000 0.500000
#
# Coordination Sequence:
#
# PCOD9159490 Si02
#       5
#     4   4   4   4   4
#     4  10  19  33  55  79 103 135 175 215 255 302
#     4  10  20  35  55  78 105 136 170 212 260 306
#     4  10  21  36  54  78 106 135 172 214 255 305
#     4   9  20  36  52  75 107 139 172 212 256 304
#     4  11  22  36  54  77 107 139 171 210 258 307
#
# _framework density 17.311199999999999
#
# number of rings (size 3 to 8) (size 9 to 14) (size 15 to 20)
#    0.000    2.000    0.000    3.600    0.000    9.600 
#    0.000    1.000    0.000    0.000    0.000    0.000 
#    0.000    0.000    0.000    0.000    0.000    0.000 
#
# Total GULP energy -111709.577793 kJ/mol
# GULP energy per Si atom -5585.478890 kJ/mol
# Density = 1.727180 g / cm^3
# Si number density = 17.311200 Si / 1000 Ang^3
#
#
#
# Elastic Constant Matrix: (Units=GPa)
#
#
# Indices 1 2 3 4 5 6 
#
# 1 115.4776 67.7088 71.5156 0.0000 -23.3155 0.0000
# 2 67.7088 72.9011 69.9221 0.0000 -10.8972 0.0000
# 3 71.5156 69.9221 142.9680 0.0000 -20.4972 0.0000
# 4 0.0000 0.0000 0.0000 37.7728 0.0000 -5.7137
# 5 -23.3155 -10.8972 -20.4972 0.0000 18.8388 0.0000
# 6 0.0000 0.0000 0.0000 -5.7137 0.0000 29.4870
#
#
#
# Elastic Compliance Matrix: (Units=1/GPa)
#
#
# Indices 1 2 3 4 5 6 
#
# 1 0.023553 -0.019507 0.000379 0.000000 0.018279 0.000000
# 2 -0.019507 0.042025 -0.012763 0.000000 -0.013719 0.000000
# 3 0.000379 -0.012763 0.014284 0.000000 0.008628 0.000000
# 4 0.000000 0.000000 0.000000 0.027273 0.000000 0.005285
# 5 0.018279 -0.013719 0.008628 0.000000 0.077156 0.000000
# 6 0.000000 0.000000 0.000000 0.005285 0.000000 0.034937
#
#
# Mechanical properties :
#
#
# Convention : Reuss Voigt Hill
#
# Bulk Modulus (GPa) = 62.18382 83.29333 72.73858
# Shear Modulus (GPa) = 17.33882 25.36641 21.35261
#
# Velocity S-wave (km/s) = 3.16823 3.83210 3.51587
# Velocity P-wave (km/s) = 7.02728 8.23406 7.65449
#
# Compressibility (1/GPa) = 0.01608135
#
# Stress axis : x y z
#
# Youngs Moduli (GPa) = 42.45715 23.79525 70.00983
#
# Poissons Ratio (x) = 0.46418 -0.02655
# Poissons Ratio (y) = 0.82821 0.89351
# Poissons Ratio (z) = -0.01610 0.30369
#
# Static dielectric constant tensor:
#      x y z
#    x 1.564600 0.000000 0.017550 
#    y 0.000000 1.574040 0.000000 
#    z 0.017550 0.000000 1.565000 
# 
# From -- ./inp_files/16076.got.cif
#   From: 2010.05.17/outbox.cif.g08.bks.cpg/sg11_9_cif.got.tgz:16076.got - 2010.06.03 12:22:45.
