data_PCOD9159767
_publ_section_title
;
Structure prediction by ZEFSAII (Michael W. Deem and Ramdas Pophale) SiO2 
 PCOD9159767
Probable space group: P 21/M
;
_chemical_formula_sum "Si O2"
_cell_formula_units_Z 32
_cell_length_a 6.376257
_cell_length_b 28.561154
_cell_length_c 10.212895
_cell_angle_alpha 90.000000
_cell_angle_beta 112.552858
_cell_angle_gamma 90.000000
_cell_volume 1717.669496
_symmetry_space_group_name_H-M "P 21/M"
_symmetry_group_IT_number 11
_symmetry_cell_setting 'monoclinic'
loop_
_space_group_symop_operation_xyz
x,y,z
-x,1/2+y,-z
-x,-y,-z
x,1/2-y,z
loop_
_atom_site_type_symbol
_atom_site_label
_atom_site_fract_x
_atom_site_fract_y
_atom_site_fract_z
Si Si1 0.719199 0.372010 0.112018
Si Si2 0.256042 0.463893 0.343727
Si Si3 0.707413 0.434114 0.581182
Si Si4 0.778537 0.629577 0.086101
Si Si5 0.004792 0.113463 0.439807
Si Si6 0.826968 0.194698 0.896910
Si Si7 0.003355 0.054516 0.033683
Si Si8 0.570545 0.861673 0.319200
O O1 0.848193 0.369673 0.281798
O O2 0.788166 0.420821 0.053997
O O3 0.448545 0.367295 0.056153
O O4 0.801016 0.331957 0.030115
O O5 0.518517 0.454761 0.436274
O O6 0.191025 0.518406 0.334890
O O7 0.113660 0.435397 0.416729
O O8 0.195979 0.441802 0.190741
O O9 0.577493 0.404299 0.659341
O O10 0.864068 0.399576 0.535431
O O11 0.686300 0.624593 0.210117
O O12 0.943446 0.674035 0.111575
O O13 0.926108 0.585906 0.072080
O O14 0.220456 0.145793 0.530039
O O15 0.834492 0.250000 0.913425
O O16 0.608783 0.178970 0.757997
O O17 0.000000 0.000000 0.000000
#
# Coordination Sequence:
#
# PCOD9159767 Si02
#       8
#     4   4   4   4   4   4   4   4
#     4   9  21  39  58  87 114 150 194 236 289 347
#     4   9  20  32  48  79 113 160 205 234 271 328
#     4  10  19  34  53  78 117 156 197 236 278 333
#     4  10  21  38  57  84 116 155 195 238 294 342
#     4  10  19  36  58  81 117 157 191 238 286 335
#     4  10  22  42  65  86 111 142 187 244 301 361
#     4  10  21  33  52  79 121 157 197 242 276 332
#     4  10  22  36  60  86 113 149 189 244 290 350
#
# _framework density 18.629894
#
# number of rings (size 3 to 8) (size 9 to 14) (size 15 to 20)
#    0.000    2.250    0.000    1.875    7.000    3.500 
#    4.500    0.625    0.000    0.750    0.000    0.000 
#    0.000    0.000    0.000    0.000    0.000    0.000 
#
# Total GULP energy -178414.092010 kJ/mol
# GULP energy per Si atom -5575.440375 kJ/mol
# Density = 1.858749 g / cm^3
# Si number density = 18.629894 Si / 1000 Ang^3
#
#
#
# Elastic Constant Matrix: (Units=GPa)
#
#
# Indices 1 2 3 4 5 6 
#
# 1 92.3232 32.1694 44.4445 0.0000 6.2482 0.0000
# 2 32.1694 104.5105 29.8961 0.0000 0.0113 0.0000
# 3 44.4445 29.8961 84.0677 0.0000 18.0442 0.0000
# 4 0.0000 0.0000 0.0000 18.4143 0.0000 3.5972
# 5 6.2482 0.0113 18.0442 0.0000 34.5242 0.0000
# 6 0.0000 0.0000 0.0000 3.5972 0.0000 11.1099
#
#
#
# Elastic Compliance Matrix: (Units=1/GPa)
#
#
# Indices 1 2 3 4 5 6 
#
# 1 0.015194 -0.002574 -0.007352 0.000000 0.001094 0.000000
# 2 -0.002574 0.011242 -0.003082 0.000000 0.002073 0.000000
# 3 -0.007352 -0.003082 0.018689 0.000000 -0.008436 0.000000
# 4 0.000000 0.000000 0.000000 0.057972 0.000000 -0.018771
# 5 0.001094 0.002073 -0.008436 0.000000 0.033176 0.000000
# 6 0.000000 0.000000 0.000000 -0.018771 0.000000 0.096088
#
#
# Mechanical properties :
#
#
# Convention : Reuss Voigt Hill
#
# Bulk Modulus (GPa) = 52.33215 54.88015 53.60615
# Shear Modulus (GPa) = 18.88607 24.43577 21.66092
#
# Velocity S-wave (km/s) = 3.18740 3.62559 3.41353
# Velocity P-wave (km/s) = 6.45735 6.85920 6.66131
#
# Compressibility (1/GPa) = 0.01910871
#
# Stress axis : x y z
#
# Youngs Moduli (GPa) = 65.81753 88.95130 53.50810
#
# Poissons Ratio (x) = 0.22894 0.39339
# Poissons Ratio (y) = 0.16940 0.16492
# Poissons Ratio (z) = 0.48388 0.27416
#
# Static dielectric constant tensor:
#      x y z
#    x 1.670930 0.000000 0.027570 
#    y 0.000000 1.614660 0.000000 
#    z 0.027570 0.000000 1.692510 
# 
# From -- ./inp_files/30258.got.cif
#   From: 2010.05.17/outbox.cif.g08.bks.cpg/sg11_16_cif.got.tgz:30258.got - 2010.06.03 12:22:45.
