data_PCOD9159299
_publ_section_title
;
Structure prediction by ZEFSAII (Michael W. Deem and Ramdas Pophale) SiO2 
 PCOD9159299
Probable space group: P 21/M
;
_chemical_formula_sum "Si O2"
_cell_formula_units_Z 32
_cell_length_a 21.749778
_cell_length_b 8.926233
_cell_length_c 15.861660
_cell_angle_alpha 90.000000
_cell_angle_beta 41.854955
_cell_angle_gamma 90.000000
_cell_volume 2054.747370
_symmetry_space_group_name_H-M "P 21/M"
_symmetry_group_IT_number 11
_symmetry_cell_setting 'monoclinic'
loop_
_space_group_symop_operation_xyz
x,y,z
-x,1/2+y,-z
-x,-y,-z
x,1/2-y,z
loop_
_atom_site_type_symbol
_atom_site_label
_atom_site_fract_x
_atom_site_fract_y
_atom_site_fract_z
Si Si1 0.396242 0.071706 0.703796
Si Si2 0.118577 0.570937 0.557008
Si Si3 0.409917 0.070928 0.490918
Si Si4 0.899533 0.071071 0.112474
Si Si5 0.214001 0.429293 0.618280
Si Si6 0.790350 0.428609 0.050938
Si Si7 0.898542 0.429467 0.612871
Si Si8 0.099980 0.429382 0.215783
O O1 0.389181 0.250000 0.721023
O O2 0.389012 0.036977 0.610802
O O3 0.496621 0.013509 0.628312
O O4 0.312832 0.991174 0.836064
O O5 0.126372 0.750000 0.561732
O O6 0.177596 0.485861 0.565971
O O7 0.147136 0.537616 0.431094
O O8 0.009526 0.532966 0.678406
O O9 0.424926 0.250000 0.469796
O O10 0.320239 0.030162 0.528599
O O11 0.906991 0.250000 0.114362
O O12 0.841146 0.038770 0.087744
O O13 0.848155 0.002648 0.245410
O O14 0.000000 0.000000 0.000000
O O15 0.206190 0.250000 0.632288
O O16 0.789777 0.250000 0.039546
O O17 0.846411 0.505894 0.918632
O O18 0.905077 0.250000 0.614289
O O19 0.861356 0.500284 0.736855
O O20 0.000000 0.500000 0.500000
O O21 0.106728 0.250000 0.212399
#
# Coordination Sequence:
#
# PCOD9159299 Si02
#       8
#     4   4   4   4   4   4   4   4
#     4  10  19  33  53  72  94 125 162 207 251 291
#     4   9  19  33  49  72 101 133 166 204 244 288
#     4   9  19  34  50  71  97 125 161 205 250 292
#     4  11  23  35  48  66  95 134 171 203 238 284
#     4  11  21  33  50  72  99 131 165 203 244 289
#     4  11  22  34  49  71  98 131 167 203 246 295
#     4   9  17  31  50  71  97 128 164 206 249 289
#     4  10  20  33  50  72 100 132 167 207 247 290
#
# _framework density 15.573689999999999
#
# number of rings (size 3 to 8) (size 9 to 14) (size 15 to 20)
#    0.000    2.000    1.250    3.750    0.000    8.000 
#    0.000    0.000    0.000    0.000    0.000    0.875 
#    0.000    0.000    0.000    0.000    0.000    0.000 
#
# Total GULP energy -178554.611120 kJ/mol
# GULP energy per Si atom -5579.831597 kJ/mol
# Density = 1.553824 g / cm^3
# Si number density = 15.573690 Si / 1000 Ang^3
#
#
#
# Elastic Constant Matrix: (Units=GPa)
#
#
# Indices 1 2 3 4 5 6 
#
# 1 122.4922 58.4329 61.6271 0.0000 5.3686 0.0000
# 2 58.4329 52.1193 35.4576 0.0000 3.6517 0.0000
# 3 61.6271 35.4576 41.6468 0.0000 -3.6921 0.0000
# 4 0.0000 0.0000 0.0000 29.4073 0.0000 1.3867
# 5 5.3686 3.6517 -3.6921 0.0000 25.3418 0.0000
# 6 0.0000 0.0000 0.0000 1.3867 0.0000 26.1581
#
#
#
# Elastic Compliance Matrix: (Units=1/GPa)
#
#
# Indices 1 2 3 4 5 6 
#
# 1 0.038235 -0.005752 -0.053010 0.000000 -0.014994 0.000000
# 2 -0.005752 0.050653 -0.035612 0.000000 -0.011269 0.000000
# 3 -0.053010 -0.035612 0.135980 0.000000 0.036173 0.000000
# 4 0.000000 0.000000 0.000000 0.034090 0.000000 -0.001807
# 5 -0.014994 -0.011269 0.036173 0.000000 0.049531 0.000000
# 6 0.000000 0.000000 0.000000 -0.001807 0.000000 0.038325
#
#
# Mechanical properties :
#
#
# Convention : Reuss Voigt Hill
#
# Bulk Modulus (GPa) = 27.68659 58.58816 43.13737
# Shear Modulus (GPa) = 9.13067 20.23083 14.68075
#
# Velocity S-wave (km/s) = 2.42397 3.60813 3.07361
# Velocity P-wave (km/s) = 5.06464 7.42023 6.35257
#
# Compressibility (1/GPa) = 0.03611857
#
# Stress axis : x y z
#
# Youngs Moduli (GPa) = 26.15399 19.74204 7.35400
#
# Poissons Ratio (x) = 0.11356 0.38984
# Poissons Ratio (y) = 0.15045 0.26189
# Poissons Ratio (z) = 1.38643 0.70306
#
# Static dielectric constant tensor:
#      x y z
#    x 1.519240 0.000000 0.012480 
#    y 0.000000 1.516360 0.000000 
#    z 0.012480 0.000000 1.502560 
# 
# From -- ./inp_files/45209.got.cif
#   From: 2010.05.17/outbox.cif.g08.bks.cpg/sg11_23_cif.got.tgz:45209.got - 2010.06.03 12:22:45.
