data_PCOD9159670
_publ_section_title
;
Structure prediction by ZEFSAII (Michael W. Deem and Ramdas Pophale) SiO2 
 PCOD9159670
Probable space group: P 21/M
;
_chemical_formula_sum "Si O2"
_cell_formula_units_Z 32
_cell_length_a 26.599937
_cell_length_b 8.757404
_cell_length_c 20.651840
_cell_angle_alpha 90.000000
_cell_angle_beta 21.193648
_cell_angle_gamma 90.000000
_cell_volume 1739.195983
_symmetry_space_group_name_H-M "P 21/M"
_symmetry_group_IT_number 11
_symmetry_cell_setting 'monoclinic'
loop_
_space_group_symop_operation_xyz
x,y,z
-x,1/2+y,-z
-x,-y,-z
x,1/2-y,z
loop_
_atom_site_type_symbol
_atom_site_label
_atom_site_fract_x
_atom_site_fract_y
_atom_site_fract_z
Si Si1 0.652589 0.433636 0.804289
Si Si2 0.155484 0.432894 0.313513
Si Si3 0.774047 0.066659 0.517848
Si Si4 0.720732 0.066728 0.966637
Si Si5 0.699767 0.933225 0.222998
Si Si6 0.396068 0.567857 0.533077
Si Si7 0.097798 0.434376 0.135105
Si Si8 0.594959 0.932213 0.617233
O O1 0.651367 0.250000 0.812448
O O2 0.759867 0.503516 0.726858
O O3 0.701254 0.472060 0.673224
O O4 0.500000 0.500000 0.000000
O O5 0.150270 0.250000 0.321572
O O6 0.233053 0.488735 0.155515
O O7 0.000000 0.500000 0.500000
O O8 0.766656 0.250000 0.518749
O O9 0.936185 0.024182 0.326686
O O10 0.695604 0.989805 0.552645
O O11 0.726258 0.250000 0.952747
O O12 0.823520 0.013154 0.900015
O O13 0.563632 0.021817 0.174781
O O14 0.698665 0.750000 0.231980
O O15 0.554089 0.977701 0.363425
O O16 0.699739 0.008250 0.293527
O O17 0.823715 0.974932 0.025797
O O18 0.390535 0.750000 0.536838
O O19 0.365162 0.499896 0.500227
O O20 0.108670 0.250000 0.130240
O O21 0.598364 0.750000 0.609463
#
# Coordination Sequence:
#
# PCOD9159670 Si02
#       8
#     4   4   4   4   4   4   4   4
#     4  11  23  41  63  89 119 158 203 248 299 359
#     4  12  25  41  62  88 120 156 196 248 302 359
#     4  10  23  40  60  84 115 153 194 238 290 351
#     4  11  23  38  60  89 118 151 195 245 294 352
#     4   9  18  33  56  86 118 151 188 237 293 348
#     4  10  19  33  57  86 117 152 192 239 289 344
#     4  10  20  38  61  87 118 155 195 241 297 353
#     4  11  23  38  58  86 119 153 194 243 288 340
#
# _framework density 18.399305999999999
#
# number of rings (size 3 to 8) (size 9 to 14) (size 15 to 20)
#    0.000    1.500    1.250    4.125    0.000    7.000 
#    0.000    0.625    0.000    0.000    0.000    0.000 
#    0.000    0.000    0.000    0.000    0.000    0.000 
#
# Total GULP energy -178896.161730 kJ/mol
# GULP energy per Si atom -5590.505054 kJ/mol
# Density = 1.835743 g / cm^3
# Si number density = 18.399306 Si / 1000 Ang^3
#
#
#
# Elastic Constant Matrix: (Units=GPa)
#
#
# Indices 1 2 3 4 5 6 
#
# 1 162.6361 55.8145 53.9356 0.0000 9.2545 0.0000
# 2 55.8145 53.5328 28.4747 0.0000 4.9644 0.0000
# 3 53.9356 28.4747 63.6831 0.0000 4.7575 0.0000
# 4 0.0000 0.0000 0.0000 26.4342 0.0000 1.4175
# 5 9.2545 4.9644 4.7575 0.0000 37.3372 0.0000
# 6 0.0000 0.0000 0.0000 1.4175 0.0000 39.9086
#
#
#
# Elastic Compliance Matrix: (Units=1/GPa)
#
#
# Indices 1 2 3 4 5 6 
#
# 1 0.010860 -0.008375 -0.005386 0.000000 -0.000892 0.000000
# 2 -0.008375 0.031100 -0.006723 0.000000 -0.001203 0.000000
# 3 -0.005386 -0.006723 0.023326 0.000000 -0.000743 0.000000
# 4 0.000000 0.000000 0.000000 0.037902 0.000000 -0.001346
# 5 -0.000892 -0.001203 -0.000743 0.000000 0.027259 0.000000
# 6 0.000000 0.000000 0.000000 -0.001346 0.000000 0.025105
#
#
# Mechanical properties :
#
#
# Convention : Reuss Voigt Hill
#
# Bulk Modulus (GPa) = 41.12248 61.81129 51.46689
# Shear Modulus (GPa) = 24.43494 30.17780 27.30637
#
# Velocity S-wave (km/s) = 3.64818 4.05428 3.85658
# Velocity P-wave (km/s) = 6.33594 7.45544 6.91837
#
# Compressibility (1/GPa) = 0.02431760
#
# Stress axis : x y z
#
# Youngs Moduli (GPa) = 92.08147 32.15483 42.87053
#
# Poissons Ratio (x) = 0.26930 0.23091
# Poissons Ratio (y) = 0.77119 0.28820
# Poissons Ratio (z) = 0.49598 0.21616
#
# Static dielectric constant tensor:
#      x y z
#    x 1.594950 0.000000 0.005840 
#    y 0.000000 1.618880 0.000000 
#    z 0.005840 0.000000 1.621600 
# 
# From -- ./inp_files/67111.got.cif
#   From: 2010.05.17/outbox.cif.g08.bks.cpg/sg11_34_cif.got.tgz:67111.got - 2010.06.03 12:22:45.
