data_PCOD9159030
_publ_section_title
;
Structure prediction by ZEFSAII (Michael W. Deem and Ramdas Pophale) SiO2 
 PCOD9159030
Probable space group: P 21/M
;
_chemical_formula_sum "Si O2"
_cell_formula_units_Z 32
_cell_length_a 22.879556
_cell_length_b 7.411728
_cell_length_c 8.246323
_cell_angle_alpha 90.000000
_cell_angle_beta 120.502006
_cell_angle_gamma 90.000000
_cell_volume 1204.866248
_symmetry_space_group_name_H-M "P 21/M"
_symmetry_group_IT_number 11
_symmetry_cell_setting 'monoclinic'
loop_
_space_group_symop_operation_xyz
x,y,z
-x,1/2+y,-z
-x,-y,-z
x,1/2-y,z
loop_
_atom_site_type_symbol
_atom_site_label
_atom_site_fract_x
_atom_site_fract_y
_atom_site_fract_z
Si Si1 0.918730 0.529683 0.242622
Si Si2 0.416009 0.029237 0.539539
Si Si3 0.042580 0.535843 0.222754
Si Si4 0.335496 0.037789 0.110928
Si Si5 0.168024 0.043408 0.579317
Si Si6 0.209136 0.031468 0.112857
Si Si7 0.541525 0.037958 0.896270
Si Si8 0.287988 0.469877 0.549118
O O1 0.922417 0.750000 0.253594
O O2 0.879225 0.464449 0.346392
O O3 0.867013 0.473440 0.026826
O O4 0.993297 0.467374 0.299040
O O5 0.417014 0.250000 0.538658
O O6 0.382384 0.966528 0.324834
O O7 0.491175 0.963043 0.685737
O O8 0.364402 0.975422 0.612422
O O9 0.051032 0.750000 0.247166
O O10 0.117028 0.454446 0.352896
O O11 0.000000 0.500000 0.000000
O O12 0.329562 0.250000 0.129490
O O13 0.381006 0.022161 0.015009
O O14 0.259599 0.971281 0.037641
O O15 0.181975 0.250000 0.649357
O O16 0.240602 0.965437 0.629325
O O17 0.206318 0.250000 0.111348
O O18 0.245719 0.976986 0.328700
O O19 0.544895 0.250000 0.882384
O O20 0.500000 0.000000 0.000000
O O21 0.288540 0.250000 0.558686
#
# Coordination Sequence:
#
# PCOD9159030 Si02
#       8
#     4   4   4   4   4   4   4   4
#     4   9  18  31  50  78 106 133 167 207 250 299
#     4   8  16  31  52  77 100 128 169 212 250 295
#     4  11  22  36  54  75 102 135 174 216 254 296
#     4   9  17  32  55  78  99 126 164 210 257 302
#     4  10  19  32  53  79 105 132 163 203 254 306
#     4   8  14  27  49  76 101 126 163 208 247 291
#     4  11  22  34  49  72 104 137 171 211 255 303
#     4   8  14  27  50  77 101 127 166 211 248 292
#
# _framework density 26.558962999999999
#
# number of rings (size 3 to 8) (size 9 to 14) (size 15 to 20)
#    0.000    2.750    0.000    3.750    0.000    3.000 
#    0.000    5.000    0.000   11.250    0.000    0.000 
#    0.000    0.000    0.000    0.000    0.000    0.000 
#
# Total GULP energy -178828.641881 kJ/mol
# GULP energy per Si atom -5588.395059 kJ/mol
# Density = 2.649851 g / cm^3
# Si number density = 26.558963 Si / 1000 Ang^3
#
#
#
# Elastic Constant Matrix: (Units=GPa)
#
#
# Indices 1 2 3 4 5 6 
#
# 1 186.2187 -6.1085 7.2031 0.0000 13.3685 0.0000
# 2 -6.1085 97.0029 -9.1352 0.0000 3.5840 0.0000
# 3 7.2031 -9.1352 51.8890 0.0000 6.4846 0.0000
# 4 0.0000 0.0000 0.0000 3.7675 0.0000 1.9179
# 5 13.3685 3.5840 6.4846 0.0000 52.0003 0.0000
# 6 0.0000 0.0000 0.0000 1.9179 0.0000 4.7938
#
#
#
# Elastic Compliance Matrix: (Units=1/GPa)
#
#
# Indices 1 2 3 4 5 6 
#
# 1 0.005500 0.000347 -0.000531 0.000000 -0.001372 0.000000
# 2 0.000347 0.010553 0.001942 0.000000 -0.001059 0.000000
# 3 -0.000531 0.001942 0.019999 0.000000 -0.002491 0.000000
# 4 0.000000 0.000000 0.000000 0.333315 0.000000 -0.133353
# 5 -0.001372 -0.001059 -0.002491 0.000000 0.019967 0.000000
# 6 0.000000 0.000000 0.000000 -0.133353 0.000000 0.261955
#
#
# Mechanical properties :
#
#
# Convention : Reuss Voigt Hill
#
# Bulk Modulus (GPa) = 25.27284 35.44770 30.36027
# Shear Modulus (GPa) = 7.56473 34.98905 21.27689
#
# Velocity S-wave (km/s) = 1.68952 3.63355 2.83348
# Velocity P-wave (km/s) = 3.65272 5.56591 4.70753
#
# Compressibility (1/GPa) = 0.03956817
#
# Stress axis : x y z
#
# Youngs Moduli (GPa) = 181.80384 94.76128 50.00285
#
# Poissons Ratio (x) = -0.03289 0.02655
# Poissons Ratio (y) = -0.06309 -0.09711
# Poissons Ratio (z) = 0.09654 -0.18403
#
# Static dielectric constant tensor:
#      x y z
#    x 1.988400 0.000000 -0.092590 
#    y 0.000000 2.011240 0.000000 
#    z -0.092590 0.000000 2.132780 
# 
# From -- ./inp_files/26420.got.cif
#   From: 2010.05.17/outbox.cif.g08.bks.cpg/sg11_14_cif.got.tgz:26420.got - 2010.06.03 12:22:45.
