data_PCOD9159906
_publ_section_title
;
Structure prediction by ZEFSAII (Michael W. Deem and Ramdas Pophale) SiO2 
 PCOD9159906
Probable space group: P 21/M
;
_chemical_formula_sum "Si O2"
_cell_formula_units_Z 20
_cell_length_a 7.529052
_cell_length_b 17.579966
_cell_length_c 6.970344
_cell_angle_alpha 90.000000
_cell_angle_beta 122.968335
_cell_angle_gamma 90.000000
_cell_volume 774.033426
_symmetry_space_group_name_H-M "P 21/M"
_symmetry_group_IT_number 11
_symmetry_cell_setting 'monoclinic'
loop_
_space_group_symop_operation_xyz
x,y,z
-x,1/2+y,-z
-x,-y,-z
x,1/2-y,z
loop_
_atom_site_type_symbol
_atom_site_label
_atom_site_fract_x
_atom_site_fract_y
_atom_site_fract_z
Si Si1 0.156588 0.165192 0.105976
Si Si2 0.245788 0.662127 0.418548
Si Si3 0.139261 0.610591 0.768175
Si Si4 0.715032 0.546057 0.092876
Si Si5 0.545434 0.838562 0.256095
O O1 0.246618 0.250000 0.136110
O O2 0.061530 0.154061 0.261002
O O3 0.292725 0.096495 0.102362
O O4 0.952005 0.159273 0.844023
O O5 0.266420 0.750000 0.491339
O O6 0.192865 0.615502 0.576219
O O7 0.450585 0.642664 0.409753
O O8 0.116796 0.521825 0.814018
O O9 0.342298 0.648229 0.995714
O O10 0.719437 0.605324 0.270742
O O11 0.500000 0.500000 0.000000
O O12 0.604240 0.750000 0.282394
#
# Coordination Sequence:
#
# PCOD9159906 Si02
#       5
#     4   4   4   4   4
#     4  10  20  36  57  78 103 137 177 218 259 308
#     4   9  18  33  55  79 101 135 182 220 256 306
#     4  10  19  34  56  80 106 135 175 223 265 303
#     4  10  21  35  53  78 110 142 172 212 265 317
#     4   9  18  34  54  76 107 144 178 214 258 310
#
# _framework density 25.838677000000001
#
# number of rings (size 3 to 8) (size 9 to 14) (size 15 to 20)
#    0.000    2.400    0.000    4.200    0.000    1.600 
#    0.000    4.000    0.000    7.200    0.000    0.000 
#    0.000    0.000    0.000    0.000    0.000    0.000 
#
# Total GULP energy -111992.480050 kJ/mol
# GULP energy per Si atom -5599.624003 kJ/mol
# Density = 2.577987 g / cm^3
# Si number density = 25.838677 Si / 1000 Ang^3
#
#
#
# Elastic Constant Matrix: (Units=GPa)
#
#
# Indices 1 2 3 4 5 6 
#
# 1 80.7175 36.2480 1.9603 0.0000 -15.0200 0.0000
# 2 36.2480 151.2692 45.6739 0.0000 -18.2040 0.0000
# 3 1.9603 45.6739 126.7295 0.0000 -12.5387 0.0000
# 4 0.0000 0.0000 0.0000 11.8627 0.0000 -26.8323
# 5 -15.0200 -18.2040 -12.5387 0.0000 38.4121 0.0000
# 6 0.0000 0.0000 0.0000 -26.8323 0.0000 38.5463
#
#
#
# Elastic Compliance Matrix: (Units=1/GPa)
#
#
# Indices 1 2 3 4 5 6 
#
# 1 0.014749 -0.003419 0.001462 0.000000 0.004624 0.000000
# 2 -0.003419 0.008499 -0.002835 0.000000 0.001765 0.000000
# 3 0.001462 -0.002835 0.009108 0.000000 0.002201 0.000000
# 4 0.000000 0.000000 0.000000 -0.146725 0.000000 -0.102136
# 5 0.004624 0.001765 0.002201 0.000000 0.029396 0.000000
# 6 0.000000 0.000000 0.000000 -0.102136 0.000000 -0.045155
#
#
# Mechanical properties :
#
#
# Convention : Reuss Voigt Hill
#
# Bulk Modulus (GPa) = 43.91772 58.49786 51.20779
# Shear Modulus (GPa) = -44.26656 36.08647 -4.09004
#
# Velocity S-wave (km/s) = -4.14356 3.74117 -1.25950
# Velocity P-wave (km/s) = 2.42040 6.43045 4.21262
#
# Compressibility (1/GPa) = 0.02276985
#
# Stress axis : x y z
#
# Youngs Moduli (GPa) = 67.79993 117.66675 109.79534
#
# Poissons Ratio (x) = 0.40232 -0.16048
# Poissons Ratio (y) = 0.23182 0.31131
# Poissons Ratio (z) = -0.09910 0.33363
#
# Static dielectric constant tensor:
#      x y z
#    x 2.115240 0.000000 0.098180 
#    y 0.000000 1.994840 0.000000 
#    z 0.098180 0.000000 2.053200 
# 
# From -- ./inp_files/1938.got.cif
#   From: 2010.05.17/outbox.cif.g08.bks.cpg/sg11_1_cif.got.tgz:1938.got - 2010.06.03 12:22:45.
