data_PCOD9159177
_publ_section_title
;
Structure prediction by ZEFSAII (Michael W. Deem and Ramdas Pophale) SiO2 
 PCOD9159177
Probable space group: P 21/M
;
_chemical_formula_sum "Si O2"
_cell_formula_units_Z 28
_cell_length_a 16.776989
_cell_length_b 11.562041
_cell_length_c 19.765749
_cell_angle_alpha 90.000000
_cell_angle_beta 159.000951
_cell_angle_gamma 90.000000
_cell_volume 1373.953971
_symmetry_space_group_name_H-M "P 21/M"
_symmetry_group_IT_number 11
_symmetry_cell_setting 'monoclinic'
loop_
_space_group_symop_operation_xyz
x,y,z
-x,1/2+y,-z
-x,-y,-z
x,1/2-y,z
loop_
_atom_site_type_symbol
_atom_site_label
_atom_site_fract_x
_atom_site_fract_y
_atom_site_fract_z
Si Si1 0.599428 0.115060 0.987308
Si Si2 0.739710 0.040796 0.363406
Si Si3 0.075330 0.615732 0.965491
Si Si4 0.934570 0.614835 0.700545
Si Si5 0.522524 0.466520 0.330244
Si Si6 0.852425 0.124432 0.312973
Si Si7 0.589133 0.885841 0.614872
O O1 0.579897 0.250000 0.953907
O O2 0.628933 0.108677 0.091619
O O3 0.836843 0.069229 0.149659
O O4 0.411103 0.049707 0.797921
O O5 0.605294 0.082646 0.323071
O O6 0.968339 0.973886 0.561120
O O7 0.803532 0.126521 0.353725
O O8 0.149038 0.750000 0.031223
O O9 0.966116 0.600337 0.805224
O O10 0.855414 0.597544 0.836278
O O11 0.285552 0.531715 0.137322
O O12 0.923743 0.750000 0.678273
O O13 0.714036 0.558559 0.498338
O O14 0.514688 0.390243 0.392116
O O15 0.944337 0.250000 0.365499
O O16 0.558517 0.750000 0.563841
O O17 0.500000 0.000000 0.500000
#
# Coordination Sequence:
#
# PCOD9159177 Si02
#       7
#     4   4   4   4   4   4   4
#     4  10  19  34  57  85 118 151 199 256 305 362
#     4  11  22  35  58  87 115 156 199 251 304 369
#     4  10  21  38  62  94 125 159 207 260 316 382
#     4  10  19  32  57  93 124 152 197 259 317 372
#     4  12  22  37  64  90 124 162 204 257 322 377
#     4  10  22  38  55  81 118 158 201 250 305 363
#     4  11  25  45  67  95 132 171 215 264 318 382
#
# _framework density 20.379138999999999
#
# number of rings (size 3 to 8) (size 9 to 14) (size 15 to 20)
#    0.000    1.429    4.286    1.714    0.000    2.286 
#    0.000    0.714    0.000    0.857    0.000    0.000 
#    0.000    0.000    0.000    0.000    0.000    0.000 
#
# Total GULP energy -155918.648697 kJ/mol
# GULP energy per Si atom -5568.523168 kJ/mol
# Density = 2.033276 g / cm^3
# Si number density = 20.379139 Si / 1000 Ang^3
#
#
#
# Elastic Constant Matrix: (Units=GPa)
#
#
# Indices 1 2 3 4 5 6 
#
# 1 116.8802 21.8700 6.2931 0.0000 -9.9058 0.0000
# 2 21.8700 50.9120 22.1254 0.0000 -0.1606 0.0000
# 3 6.2931 22.1254 71.7720 0.0000 3.8457 0.0000
# 4 0.0000 0.0000 0.0000 28.5253 0.0000 5.0223
# 5 -9.9058 -0.1606 3.8457 0.0000 24.1556 0.0000
# 6 0.0000 0.0000 0.0000 5.0223 0.0000 17.1144
#
#
#
# Elastic Compliance Matrix: (Units=1/GPa)
#
#
# Indices 1 2 3 4 5 6 
#
# 1 0.009668 -0.004251 0.000254 0.000000 0.003896 0.000000
# 2 -0.004251 0.024588 -0.007184 0.000000 -0.000436 0.000000
# 3 0.000254 -0.007184 0.016261 0.000000 -0.002532 0.000000
# 4 0.000000 0.000000 0.000000 0.036967 0.000000 -0.010848
# 5 0.003896 -0.000436 -0.002532 0.000000 0.043396 0.000000
# 6 0.000000 0.000000 0.000000 -0.010848 0.000000 0.061614
#
#
# Mechanical properties :
#
#
# Convention : Reuss Voigt Hill
#
# Bulk Modulus (GPa) = 35.51706 37.79346 36.65526
# Shear Modulus (GPa) = 22.29750 26.57745 24.43747
#
# Velocity S-wave (km/s) = 3.31136 3.61522 3.46662
# Velocity P-wave (km/s) = 5.66446 6.00099 5.83515
#
# Compressibility (1/GPa) = 0.02815548
#
# Stress axis : x y z
#
# Youngs Moduli (GPa) = 103.43730 40.66960 61.49675
#
# Poissons Ratio (x) = 0.17289 -0.01562
# Poissons Ratio (y) = 0.43971 0.44178
# Poissons Ratio (z) = -0.02628 0.29216
#
# Static dielectric constant tensor:
#      x y z
#    x 1.856760 0.000000 -0.011350 
#    y 0.000000 1.735940 0.000000 
#    z -0.011350 0.000000 1.701310 
# 
# From -- ./inp_files/61460.got.cif
#   From: 2010.05.17/outbox.cif.g08.bks.cpg/sg11_31_cif.got.tgz:61460.got - 2010.06.03 12:22:45.
