data_PCOD9159897
_publ_section_title
;
Structure prediction by ZEFSAII (Michael W. Deem and Ramdas Pophale) SiO2 
 PCOD9159897
Probable space group: P 21/M
;
_chemical_formula_sum "Si O2"
_cell_formula_units_Z 28
_cell_length_a 10.886799
_cell_length_b 13.489356
_cell_length_c 11.530182
_cell_angle_alpha 90.000000
_cell_angle_beta 43.130790
_cell_angle_gamma 90.000000
_cell_volume 1157.634871
_symmetry_space_group_name_H-M "P 21/M"
_symmetry_group_IT_number 11
_symmetry_cell_setting 'monoclinic'
loop_
_space_group_symop_operation_xyz
x,y,z
-x,1/2+y,-z
-x,-y,-z
x,1/2-y,z
loop_
_atom_site_type_symbol
_atom_site_label
_atom_site_fract_x
_atom_site_fract_y
_atom_site_fract_z
Si Si1 0.855458 0.141019 0.471289
Si Si2 0.301716 0.046320 0.540588
Si Si3 0.426301 0.140072 0.158156
Si Si4 0.516360 0.087876 0.839481
Si Si5 0.979440 0.864461 0.410070
Si Si6 0.707011 0.988365 0.205173
Si Si7 0.837399 0.138466 0.950719
O O1 0.904823 0.250000 0.392021
O O2 0.796108 0.058991 0.419231
O O3 0.674893 0.147910 0.671591
O O4 0.996998 0.104215 0.471920
O O5 0.247616 0.070989 0.709313
O O6 0.515909 0.039872 0.375875
O O7 0.220242 0.119910 0.501463
O O8 0.337740 0.250000 0.239531
O O9 0.624251 0.147811 0.077609
O O10 0.393019 0.021636 0.205580
O O11 0.450820 0.133502 0.002781
O O12 0.353468 0.077394 0.861677
O O13 0.032400 0.750000 0.376913
O O14 0.092322 0.905280 0.221480
O O15 0.845349 0.067973 0.057711
O O16 0.911329 0.250000 0.916240
#
# Coordination Sequence:
#
# PCOD9159897 Si02
#       7
#     4   4   4   4   4   4   4
#     4  10  19  34  56  79 103 139 185 226 272 330
#     4  10  21  37  53  79 111 146 181 221 269 321
#     4   9  15  26  47  78 109 137 177 224 271 320
#     4   9  16  28  50  76 105 139 177 221 271 314
#     4  10  20  35  57  82 105 135 181 229 274 323
#     4   9  20  35  51  78 112 144 185 214 264 328
#     4   9  17  31  54  81 105 138 183 225 268 321
#
# _framework density 24.187248
#
# number of rings (size 3 to 8) (size 9 to 14) (size 15 to 20)
#    0.000    2.571    1.429    0.857    0.000    1.714 
#    0.000    8.571    0.000    0.857    0.000    0.000 
#    0.000    0.000    0.000    0.000    0.000    0.000 
#
# Total GULP energy -156004.086272 kJ/mol
# GULP energy per Si atom -5571.574510 kJ/mol
# Density = 2.413220 g / cm^3
# Si number density = 24.187248 Si / 1000 Ang^3
#
#
#
# Elastic Constant Matrix: (Units=GPa)
#
#
# Indices 1 2 3 4 5 6 
#
# 1 57.4777 17.4044 0.9821 0.0000 22.1056 0.0000
# 2 17.4044 118.0812 15.1799 0.0000 6.4007 0.0000
# 3 0.9821 15.1799 50.9748 0.0000 13.5024 0.0000
# 4 0.0000 0.0000 0.0000 18.7098 0.0000 -3.6625
# 5 22.1056 6.4007 13.5024 0.0000 42.2736 0.0000
# 6 0.0000 0.0000 0.0000 -3.6625 0.0000 18.6283
#
#
#
# Elastic Compliance Matrix: (Units=1/GPa)
#
#
# Indices 1 2 3 4 5 6 
#
# 1 0.023291 -0.003238 0.003946 0.000000 -0.012949 0.000000
# 2 -0.003238 0.009267 -0.003031 0.000000 0.001258 0.000000
# 3 0.003946 -0.003031 0.022798 0.000000 -0.008886 0.000000
# 4 0.000000 0.000000 0.000000 0.055587 0.000000 0.010929
# 5 -0.012949 0.001258 -0.008886 0.000000 0.033075 0.000000
# 6 0.000000 0.000000 0.000000 0.010929 0.000000 0.055831
#
#
# Mechanical properties :
#
#
# Convention : Reuss Voigt Hill
#
# Bulk Modulus (GPa) = 19.71986 32.62959 26.17473
# Shear Modulus (GPa) = 22.58363 28.78682 25.68523
#
# Velocity S-wave (km/s) = 3.05897 3.45362 3.26227
# Velocity P-wave (km/s) = 4.54390 5.42430 5.00350
#
# Compressibility (1/GPa) = 0.05071030
#
# Stress axis : x y z
#
# Youngs Moduli (GPa) = 42.93415 107.90441 43.86378
#
# Poissons Ratio (x) = 0.34943 -0.17307
# Poissons Ratio (y) = 0.13903 0.13294
# Poissons Ratio (z) = -0.16941 0.32702
#
# Static dielectric constant tensor:
#      x y z
#    x 2.010430 0.000000 -0.063780 
#    y 0.000000 2.047460 0.000000 
#    z -0.063780 0.000000 2.046470 
# 
# From -- ./inp_files/31790.got.cif
#   From: 2010.05.17/outbox.cif.g08.bks.cpg/sg11_16_cif.got.tgz:31790.got - 2010.06.03 12:22:45.
