data_PCOD9159446
_publ_section_title
;
Structure prediction by ZEFSAII (Michael W. Deem and Ramdas Pophale) SiO2 
 PCOD9159446
Probable space group: P 21/M
;
_chemical_formula_sum "Si O2"
_cell_formula_units_Z 24
_cell_length_a 7.427913
_cell_length_b 10.530884
_cell_length_c 13.994753
_cell_angle_alpha 90.000000
_cell_angle_beta 89.999938
_cell_angle_gamma 90.000000
_cell_volume 1094.704429
_symmetry_space_group_name_H-M "P 21/M"
_symmetry_group_IT_number 11
_symmetry_cell_setting 'monoclinic'
loop_
_space_group_symop_operation_xyz
x,y,z
-x,1/2+y,-z
-x,-y,-z
x,1/2-y,z
loop_
_atom_site_type_symbol
_atom_site_label
_atom_site_fract_x
_atom_site_fract_y
_atom_site_fract_z
Si Si1 0.279881 0.250000 0.141305
Si Si2 0.280120 0.750000 0.079609
Si Si3 0.213384 0.608297 0.430469
Si Si4 0.786617 0.608297 0.430468
Si Si5 0.280120 0.250000 0.920392
Si Si6 0.716880 0.021632 0.784878
Si Si7 0.279879 0.750000 0.858697
Si Si8 0.716882 0.521632 0.215121
O O1 0.219787 0.379700 0.191667
O O2 0.500001 0.250000 0.142782
O O3 0.224721 0.250000 0.030402
O O4 0.500000 0.750000 0.079794
O O5 0.221406 0.625058 0.137377
O O6 0.224720 0.750000 0.969599
O O7 0.288141 0.750000 0.444909
O O8 0.288595 0.500000 0.500001
O O9 0.235284 0.567580 0.320734
O O10 0.000001 0.615951 0.449621
O O11 0.711860 0.750000 0.444908
O O12 0.764720 0.567580 0.320732
O O13 0.221404 0.125058 0.862624
O O14 0.499999 0.019796 0.790466
O O15 0.219784 0.620300 0.808334
#
# Coordination Sequence:
#
# PCOD9159446 Si02
#       8
#     2   2   4   4   2   4   2   4
#     4   9  18  30  50  81 112 140 171 209 252 305
#     4   9  16  30  52  77 108 142 173 207 254 307
#     4  10  22  39  57  76 101 136 174 213 262 316
#     4  10  22  39  57  76 101 136 174 213 262 316
#     4   9  16  30  52  77 108 142 173 207 254 307
#     4  10  19  33  54  81 108 136 173 215 257 299
#     4   9  18  30  50  81 112 140 171 209 252 305
#     4  10  19  33  54  81 108 136 173 215 257 299
#
# _framework density 21.923724
#
# number of rings (size 3 to 8) (size 9 to 14) (size 15 to 20)
#    0.000    2.333    1.667    1.000    2.333    4.667 
#    0.000    0.000    0.000    6.000    0.000    0.000 
#    0.000    0.000    0.000    0.000    0.000    0.000 
#
# Total GULP energy -134143.770935 kJ/mol
# GULP energy per Si atom -5589.323789 kJ/mol
# Density = 2.187382 g / cm^3
# Si number density = 21.923724 Si / 1000 Ang^3
#
#
#
# Elastic Constant Matrix: (Units=GPa)
#
#
# Indices 1 2 3 4 5 6 
#
# 1 70.7573 13.5868 -4.2034 0.0000 -0.0004 0.0000
# 2 13.5868 261.5311 99.3919 0.0000 -0.0006 0.0000
# 3 -4.2034 99.3919 111.9653 0.0000 -0.0005 0.0000
# 4 0.0000 0.0000 0.0000 85.5398 0.0000 0.0005
# 5 -0.0004 -0.0006 -0.0005 0.0000 28.9487 0.0000
# 6 0.0000 0.0000 0.0000 0.0005 0.0000 0.1996
#
#
#
# Elastic Compliance Matrix: (Units=1/GPa)
#
#
# Indices 1 2 3 4 5 6 
#
# 1 0.014520 -0.001451 0.001833 0.000000 0.000000 0.000000
# 2 -0.001451 0.005915 -0.005306 0.000000 0.000000 0.000000
# 3 0.001833 -0.005306 0.013710 0.000000 0.000000 0.000000
# 4 0.000000 0.000000 0.000000 0.011690 0.000000 -0.000027
# 5 0.000000 0.000000 0.000000 0.000000 0.034544 0.000000
# 6 0.000000 0.000000 0.000000 -0.000027 0.000000 5.009859
#
#
# Mechanical properties :
#
#
# Convention : Reuss Voigt Hill
#
# Bulk Modulus (GPa) = 41.15422 73.53383 57.34402
# Shear Modulus (GPa) = 0.97882 45.30284 23.14083
#
# Velocity S-wave (km/s) = 0.66891 4.55068 3.25239
# Velocity P-wave (km/s) = 4.40555 7.82465 6.34957
#
# Compressibility (1/GPa) = 0.02429885
#
# Stress axis : x y z
#
# Youngs Moduli (GPa) = 68.86891 169.05250 72.94006
#
# Poissons Ratio (x) = 0.24530 -0.13371
# Poissons Ratio (y) = 0.09993 0.38699
# Poissons Ratio (z) = -0.12625 0.89691
#
# Static dielectric constant tensor:
#      x y z
#    x 1.859270 0.000000 0.000000 
#    y 0.000000 1.794180 0.000000 
#    z 0.000000 0.000000 1.720260 
# 
# From -- ./inp_files/27689.got.cif
#   From: 2010.05.17/outbox.cif.g08.bks.cpg/sg11_14_cif.got.tgz:27689.got - 2010.06.03 12:22:45.
