data_PCOD9159628
_publ_section_title
;
Structure prediction by ZEFSAII (Michael W. Deem and Ramdas Pophale) SiO2 
 PCOD9159628
Probable space group: P 21/M
;
_chemical_formula_sum "Si O2"
_cell_formula_units_Z 32
_cell_length_a 14.430448
_cell_length_b 15.962919
_cell_length_c 5.777709
_cell_angle_alpha 90.000000
_cell_angle_beta 84.662084
_cell_angle_gamma 90.000000
_cell_volume 1325.135568
_symmetry_space_group_name_H-M "P 21/M"
_symmetry_group_IT_number 11
_symmetry_cell_setting 'monoclinic'
loop_
_space_group_symop_operation_xyz
x,y,z
-x,1/2+y,-z
-x,-y,-z
x,1/2-y,z
loop_
_atom_site_type_symbol
_atom_site_label
_atom_site_fract_x
_atom_site_fract_y
_atom_site_fract_z
Si Si1 0.143464 0.156965 0.401938
Si Si2 0.626856 0.121461 0.347403
Si Si3 0.859320 0.352964 0.786651
Si Si4 0.645095 0.123153 0.845564
Si Si5 0.565956 0.946693 0.742448
Si Si6 0.739562 0.535134 0.362790
Si Si7 0.686514 0.659626 0.987765
Si Si8 0.943129 0.349395 0.264527
O O1 0.128286 0.250000 0.521638
O O2 0.167653 0.077182 0.555984
O O3 0.234931 0.166492 0.225486
O O4 0.054119 0.141115 0.264455
O O5 0.622842 0.162297 0.600504
O O6 0.532928 0.066655 0.350801
O O7 0.719308 0.062744 0.331165
O O8 0.629721 0.164339 0.097838
O O9 0.853014 0.250000 0.789002
O O10 0.755982 0.390791 0.811275
O O11 0.905598 0.377675 0.528393
O O12 0.908770 0.379642 0.018114
O O13 0.586822 0.035947 0.857647
O O14 0.651251 0.940776 0.543102
O O15 0.588106 0.869763 0.909357
O O16 0.721626 0.584385 0.133957
O O17 0.679411 0.750000 0.109514
O O18 0.920850 0.250000 0.265586
#
# Coordination Sequence:
#
# PCOD9159628 Si02
#       8
#     4   4   4   4   4   4   4   4
#     4   9  19  33  54  86 119 154 195 241 298 355
#     4  11  23  38  65  83 113 157 207 233 282 358
#     4  10  21  38  61  88 117 151 198 250 300 345
#     4  11  21  38  62  88 113 153 199 246 288 344
#     4  10  22  38  59  85 114 158 206 235 285 364
#     4  10  19  33  56  85 116 150 193 247 288 344
#     4  10  20  34  56  85 120 152 189 248 302 344
#     4   9  19  36  59  86 116 155 198 242 292 359
#
# _framework density 24.148471000000001
#
# number of rings (size 3 to 8) (size 9 to 14) (size 15 to 20)
#    0.000    2.000    1.250    3.000    3.500    0.500 
#    0.000    1.250    0.000   19.500    0.000    0.000 
#    0.000    0.000    0.000    0.000    0.000    0.000 
#
# Total GULP energy -178353.178312 kJ/mol
# GULP energy per Si atom -5573.536822 kJ/mol
# Density = 2.409351 g / cm^3
# Si number density = 24.148471 Si / 1000 Ang^3
#
#
#
# Elastic Constant Matrix: (Units=GPa)
#
#
# Indices 1 2 3 4 5 6 
#
# 1 117.1141 28.4887 45.5260 0.0000 36.6717 0.0000
# 2 28.4887 91.0197 36.7403 0.0000 11.6294 0.0000
# 3 45.5260 36.7403 181.3908 0.0000 28.4271 0.0000
# 4 0.0000 0.0000 0.0000 -16.5260 0.0000 -2.9452
# 5 36.6717 11.6294 28.4271 0.0000 38.9784 0.0000
# 6 0.0000 0.0000 0.0000 -2.9452 0.0000 15.7860
#
#
#
# Elastic Compliance Matrix: (Units=1/GPa)
#
#
# Indices 1 2 3 4 5 6 
#
# 1 0.012827 -0.002213 -0.001110 0.000000 -0.010598 0.000000
# 2 -0.002213 0.012491 -0.001938 0.000000 -0.000231 0.000000
# 3 -0.001110 -0.001938 0.006695 0.000000 -0.003260 0.000000
# 4 0.000000 0.000000 0.000000 -0.058563 0.000000 -0.010926
# 5 -0.010598 -0.000231 -0.003260 0.000000 0.038073 0.000000
# 6 0.000000 0.000000 0.000000 -0.010926 0.000000 0.061309
#
#
# Mechanical properties :
#
#
# Convention : Reuss Voigt Hill
#
# Bulk Modulus (GPa) = 46.53167 67.89273 57.21220
# Shear Modulus (GPa) = 55.23796 26.23233 40.73515
#
# Velocity S-wave (km/s) = 4.78790 3.29947 4.11160
# Velocity P-wave (km/s) = 7.06230 6.53384 6.80321
#
# Compressibility (1/GPa) = 0.02149074
#
# Stress axis : x y z
#
# Youngs Moduli (GPa) = 77.96011 80.05648 149.36217
#
# Poissons Ratio (x) = 0.17713 0.16584
# Poissons Ratio (y) = 0.17249 0.28954
# Poissons Ratio (z) = 0.08656 0.15519
#
# Static dielectric constant tensor:
#      x y z
#    x 1.874600 0.000000 -0.021760 
#    y 0.000000 1.960530 0.000000 
#    z -0.021760 0.000000 2.008270 
# 
# From -- ./inp_files/6845.got.cif
#   From: 2010.05.17/outbox.cif.g08.bks.cpg/sg11_4_cif.got.tgz:6845.got - 2010.06.03 12:22:45.
