data_PCOD9159246
_publ_section_title
;
Structure prediction by ZEFSAII (Michael W. Deem and Ramdas Pophale) SiO2 
 PCOD9159246
Probable space group: P 21/M
;
_chemical_formula_sum "Si O2"
_cell_formula_units_Z 28
_cell_length_a 18.367674
_cell_length_b 9.313595
_cell_length_c 12.115799
_cell_angle_alpha 90.000000
_cell_angle_beta 36.740027
_cell_angle_gamma 90.000000
_cell_volume 1239.821547
_symmetry_space_group_name_H-M "P 21/M"
_symmetry_group_IT_number 11
_symmetry_cell_setting 'monoclinic'
loop_
_space_group_symop_operation_xyz
x,y,z
-x,1/2+y,-z
-x,-y,-z
x,1/2-y,z
loop_
_atom_site_type_symbol
_atom_site_label
_atom_site_fract_x
_atom_site_fract_y
_atom_site_fract_z
Si Si1 0.695742 0.418143 0.594528
Si Si2 0.319836 0.912256 0.139697
Si Si3 0.097833 0.911836 0.951390
Si Si4 0.125961 0.413009 0.254718
Si Si5 0.503730 0.416717 0.286240
Si Si6 0.065218 0.410672 0.634119
Si Si7 0.703258 0.915553 0.173407
O O1 0.702468 0.250000 0.560337
O O2 0.634526 0.431373 0.791053
O O3 0.619626 0.503274 0.596377
O O4 0.827374 0.487654 0.453626
O O5 0.267163 0.750000 0.198565
O O6 0.216316 0.026975 0.237670
O O7 0.417679 0.920702 0.923290
O O8 0.119391 0.750000 0.882032
O O9 0.031365 0.897741 0.149595
O O10 0.220826 0.000033 0.825682
O O11 0.000000 0.000000 0.000000
O O12 0.086157 0.250000 0.321458
O O13 0.209898 0.412693 0.041245
O O14 0.013639 0.516692 0.365868
O O15 0.486417 0.250000 0.336111
O O16 0.583129 0.499875 0.280822
O O17 0.110233 0.250000 0.554559
O O18 0.679307 0.750000 0.232479
#
# Coordination Sequence:
#
# PCOD9159246 Si02
#       7
#     4   4   4   4   4   4   4
#     4  11  22  34  49  71 101 138 178 217 256 298
#     4   9  19  33  49  71  99 134 177 221 259 296
#     4  10  20  35  58  85 108 130 160 201 250 305
#     4   9  17  30  50  73  98 131 170 213 257 300
#     4  10  19  33  52  73 101 137 177 217 255 296
#     4  10  21  36  52  73 103 136 168 204 253 309
#     4   9  17  31  52  78 105 132 166 207 250 297
#
# _framework density 22.583894999999998
#
# number of rings (size 3 to 8) (size 9 to 14) (size 15 to 20)
#    0.000    2.286    0.000    3.000    0.000    7.429 
#    0.000    0.000    0.000    0.857    0.000    0.000 
#    0.000    0.000    0.000    0.000    0.000    0.000 
#
# Total GULP energy -156567.160410 kJ/mol
# GULP energy per Si atom -5591.684300 kJ/mol
# Density = 2.253249 g / cm^3
# Si number density = 22.583895 Si / 1000 Ang^3
#
#
#
# Elastic Constant Matrix: (Units=GPa)
#
#
# Indices 1 2 3 4 5 6 
#
# 1 153.3146 104.1178 21.1890 0.0000 -39.0891 0.0000
# 2 104.1178 217.1099 21.1443 0.0000 -40.3938 0.0000
# 3 21.1890 21.1443 54.8018 0.0000 2.5012 0.0000
# 4 0.0000 0.0000 0.0000 19.2520 0.0000 -16.6016
# 5 -39.0891 -40.3938 2.5012 0.0000 41.5066 0.0000
# 6 0.0000 0.0000 0.0000 -16.6016 0.0000 33.9876
#
#
#
# Elastic Compliance Matrix: (Units=1/GPa)
#
#
# Indices 1 2 3 4 5 6 
#
# 1 0.011402 -0.003804 -0.003271 0.000000 0.007233 0.000000
# 2 -0.003804 0.007234 -0.001483 0.000000 0.003548 0.000000
# 3 -0.003271 -0.001483 0.020347 0.000000 -0.005750 0.000000
# 4 0.000000 0.000000 0.000000 0.089744 0.000000 0.043836
# 5 0.007233 0.003548 -0.005750 0.000000 0.034704 0.000000
# 6 0.000000 0.000000 0.000000 0.043836 0.000000 0.050835
#
#
# Mechanical properties :
#
#
# Convention : Reuss Voigt Hill
#
# Bulk Modulus (GPa) = 45.72756 79.79205 62.75981
# Shear Modulus (GPa) = 20.94947 37.53425 29.24186
#
# Velocity S-wave (km/s) = 3.04900 4.08118 3.60225
# Velocity P-wave (km/s) = 5.71726 7.59053 6.71949
#
# Compressibility (1/GPa) = 0.02186865
#
# Stress axis : x y z
#
# Youngs Moduli (GPa) = 87.70483 138.22690 49.14780
#
# Poissons Ratio (x) = 0.52576 0.16077
# Poissons Ratio (y) = 0.33359 0.07287
# Poissons Ratio (z) = 0.28689 0.20493
#
# Static dielectric constant tensor:
#      x y z
#    x 1.805350 0.000000 0.079380 
#    y 0.000000 1.790370 0.000000 
#    z 0.079380 0.000000 1.884820 
# 
# From -- ./inp_files/53181.got.cif
#   From: 2010.05.17/outbox.cif.g08.bks.cpg/sg11_27_cif.got.tgz:53181.got - 2010.06.03 12:22:45.
