data_PCOD9159173
_publ_section_title
;
Structure prediction by ZEFSAII (Michael W. Deem and Ramdas Pophale) SiO2 
 PCOD9159173
Probable space group: P 21/M
;
_chemical_formula_sum "Si O2"
_cell_formula_units_Z 32
_cell_length_a 30.656419
_cell_length_b 9.632103
_cell_length_c 11.626410
_cell_angle_alpha 90.000000
_cell_angle_beta 152.058955
_cell_angle_gamma 90.000000
_cell_volume 1608.629317
_symmetry_space_group_name_H-M "P 21/M"
_symmetry_group_IT_number 11
_symmetry_cell_setting 'monoclinic'
loop_
_space_group_symop_operation_xyz
x,y,z
-x,1/2+y,-z
-x,-y,-z
x,1/2-y,z
loop_
_atom_site_type_symbol
_atom_site_label
_atom_site_fract_x
_atom_site_fract_y
_atom_site_fract_z
Si Si1 0.285779 0.915982 0.990361
Si Si2 0.876854 0.594470 0.294720
Si Si3 0.045073 0.597283 0.827672
Si Si4 0.361282 0.587717 0.416398
Si Si5 0.077730 0.406691 0.238577
Si Si6 0.462547 0.412881 0.019879
Si Si7 0.289710 0.082073 0.768534
Si Si8 0.201214 0.093488 0.145466
O O1 0.285101 0.750000 0.969900
O O2 0.346844 0.946279 0.247701
O O3 0.184002 0.975063 0.787631
O O4 0.314371 0.999834 0.942872
O O5 0.849955 0.750000 0.275961
O O6 0.986092 0.578813 0.573962
O O7 0.847755 0.596250 0.094103
O O8 0.089471 0.750000 0.929160
O O9 0.961342 0.597671 0.723093
O O10 0.124021 0.486447 0.039554
O O11 0.334463 0.750000 0.366322
O O12 0.464917 0.571323 0.705513
O O13 0.293955 0.493859 0.338059
O O14 0.075708 0.250000 0.186552
O O15 0.184013 0.455243 0.487493
O O16 0.000000 0.500000 0.000000
O O17 0.460717 0.250000 0.984095
O O18 0.500000 0.500000 0.000000
O O19 0.361716 0.452068 0.834601
O O20 0.293122 0.250000 0.795406
O O21 0.219779 0.250000 0.227823
#
# Coordination Sequence:
#
# PCOD9159173 Si02
#       8
#     4   4   4   4   4   4   4   4
#     4  10  19  32  57  90 122 154 193 240 290 351
#     4   9  17  32  51  75 113 153 190 229 282 341
#     4  10  19  33  52  74 109 154 190 231 288 340
#     4   9  20  39  58  85 124 159 192 239 301 353
#     4  10  22  39  58  81 112 149 191 237 287 343
#     4  10  23  43  67  89 116 154 196 244 296 351
#     4  10  21  41  64  86 116 155 193 239 301 355
#     4  10  20  31  51  83 114 150 192 234 276 332
#
# _framework density 19.892713000000001
#
# number of rings (size 3 to 8) (size 9 to 14) (size 15 to 20)
#    0.000    2.250    1.250    1.125    0.000    5.000 
#    0.000    2.500    0.000    0.000    0.000    0.000 
#    0.000    0.000    0.000    0.000    0.000    0.000 
#
# Total GULP energy -178454.443927 kJ/mol
# GULP energy per Si atom -5576.701373 kJ/mol
# Density = 1.984744 g / cm^3
# Si number density = 19.892713 Si / 1000 Ang^3
#
#
#
# Elastic Constant Matrix: (Units=GPa)
#
#
# Indices 1 2 3 4 5 6 
#
# 1 87.8571 52.7439 45.2199 0.0000 21.0707 0.0000
# 2 52.7439 75.9386 44.6077 0.0000 6.9634 0.0000
# 3 45.2199 44.6077 79.4486 0.0000 10.1138 0.0000
# 4 0.0000 0.0000 0.0000 26.6888 0.0000 -1.5909
# 5 21.0707 6.9634 10.1138 0.0000 28.7423 0.0000
# 6 0.0000 0.0000 0.0000 -1.5909 0.0000 32.9182
#
#
#
# Elastic Compliance Matrix: (Units=1/GPa)
#
#
# Indices 1 2 3 4 5 6 
#
# 1 0.025241 -0.013227 -0.005226 0.000000 -0.013460 0.000000
# 2 -0.013227 0.026604 -0.008189 0.000000 0.006133 0.000000
# 3 -0.005226 -0.008189 0.020330 0.000000 -0.001338 0.000000
# 4 0.000000 0.000000 0.000000 0.037577 0.000000 0.001816
# 5 -0.013460 0.006133 -0.001338 0.000000 0.043645 0.000000
# 6 0.000000 0.000000 0.000000 0.001816 0.000000 0.030466
#
#
# Mechanical properties :
#
#
# Convention : Reuss Voigt Hill
#
# Bulk Modulus (GPa) = 52.94100 58.70971 55.82536
# Shear Modulus (GPa) = 20.53856 24.38137 22.45996
#
# Velocity S-wave (km/s) = 3.21669 3.50472 3.36379
# Velocity P-wave (km/s) = 6.36138 6.77898 6.57350
#
# Compressibility (1/GPa) = 0.01888895
#
# Stress axis : x y z
#
# Youngs Moduli (GPa) = 39.61799 37.58878 49.18862
#
# Poissons Ratio (x) = 0.49719 0.25708
# Poissons Ratio (y) = 0.52403 0.40282
# Poissons Ratio (z) = 0.20706 0.30783
#
# Static dielectric constant tensor:
#      x y z
#    x 1.777790 0.000000 -0.056740 
#    y 0.000000 1.714220 0.000000 
#    z -0.056740 0.000000 1.720500 
# 
# From -- ./inp_files/45377.got.cif
#   From: 2010.05.17/outbox.cif.g08.bks.cpg/sg11_23_cif.got.tgz:45377.got - 2010.06.03 12:22:45.
