data_PCOD9159987
_publ_section_title
;
Structure prediction by ZEFSAII (Michael W. Deem and Ramdas Pophale) SiO2 
 PCOD9159987
Probable space group: P 21/M
;
_chemical_formula_sum "Si O2"
_cell_formula_units_Z 32
_cell_length_a 26.249460
_cell_length_b 9.329340
_cell_length_c 21.507380
_cell_angle_alpha 90.000000
_cell_angle_beta 20.087117
_cell_angle_gamma 90.000000
_cell_volume 1808.924599
_symmetry_space_group_name_H-M "P 21/M"
_symmetry_group_IT_number 11
_symmetry_cell_setting 'monoclinic'
loop_
_space_group_symop_operation_xyz
x,y,z
-x,1/2+y,-z
-x,-y,-z
x,1/2-y,z
loop_
_atom_site_type_symbol
_atom_site_label
_atom_site_fract_x
_atom_site_fract_y
_atom_site_fract_z
Si Si1 0.356703 0.413636 0.182945
Si Si2 0.859391 0.584409 0.686872
Si Si3 0.627967 0.922179 0.314368
Si Si4 0.680155 0.918352 0.639797
Si Si5 0.226614 0.920931 0.587096
Si Si6 0.957052 0.922902 0.985476
Si Si7 0.443409 0.078342 0.746437
Si Si8 0.340385 0.580106 0.985779
O O1 0.401790 0.250000 0.144799
O O2 0.250111 0.414269 0.246573
O O3 0.286953 0.466949 0.327635
O O4 0.500000 0.500000 0.000000
O O5 0.892263 0.750000 0.665900
O O6 0.000000 0.500000 0.500000
O O7 0.779408 0.501853 0.834929
O O8 0.610566 0.750000 0.340358
O O9 0.609143 0.956491 0.262831
O O10 0.500000 0.000000 0.500000
O O11 0.791670 0.960227 0.151870
O O12 0.714474 0.750000 0.593475
O O13 0.503237 0.937154 0.830882
O O14 0.762939 0.004620 0.491505
O O15 0.222942 0.750000 0.582955
O O16 0.380848 0.954475 0.446347
O O17 0.082376 0.963035 0.791405
O O18 0.962874 0.750000 0.986702
O O19 0.000000 0.000000 0.000000
O O20 0.424948 0.250000 0.777555
O O21 0.357928 0.991341 0.897866
O O22 0.309200 0.750000 0.017765
#
# Coordination Sequence:
#
# PCOD9159987 Si02
#       8
#     4   4   4   4   4   4   4   4
#     4  10  20  35  57  82 109 142 184 232 277 328
#     4  11  23  38  56  79 111 149 188 231 281 333
#     4  10  21  37  58  83 114 148 187 229 270 325
#     4   9  18  33  54  81 109 138 177 226 274 323
#     4   9  18  33  53  77 107 143 182 221 268 323
#     4  10  21  37  57  83 114 146 182 224 272 324
#     4   9  18  34  55  78 107 145 185 226 272 326
#     4  10  19  34  57  81 109 143 184 230 277 331
#
# _framework density 17.690068
#
# number of rings (size 3 to 8) (size 9 to 14) (size 15 to 20)
#    0.000    2.250    1.250    1.500    0.000    4.000 
#    2.250    2.500    0.000    0.000    0.000    0.000 
#    0.000    0.000    0.000    0.000    0.000    0.000 
#
# Total GULP energy -178523.012093 kJ/mol
# GULP energy per Si atom -5578.844128 kJ/mol
# Density = 1.764980 g / cm^3
# Si number density = 17.690068 Si / 1000 Ang^3
#
#
#
# Elastic Constant Matrix: (Units=GPa)
#
#
# Indices 1 2 3 4 5 6 
#
# 1 118.0470 52.1176 72.8565 0.0000 24.4711 0.0000
# 2 52.1176 69.5805 75.2173 0.0000 13.4944 0.0000
# 3 72.8565 75.2173 163.4380 0.0000 26.6184 0.0000
# 4 0.0000 0.0000 0.0000 32.7191 0.0000 9.2319
# 5 24.4711 13.4944 26.6184 0.0000 26.9417 0.0000
# 6 0.0000 0.0000 0.0000 9.2319 0.0000 28.0523
#
#
#
# Elastic Compliance Matrix: (Units=1/GPa)
#
#
# Indices 1 2 3 4 5 6 
#
# 1 0.014416 -0.007393 -0.001781 0.000000 -0.007632 0.000000
# 2 -0.007393 0.032448 -0.012018 0.000000 0.002336 0.000000
# 3 -0.001781 -0.012018 0.013347 0.000000 -0.005550 0.000000
# 4 0.000000 0.000000 0.000000 0.033692 0.000000 -0.011088
# 5 -0.007632 0.002336 -0.005550 0.000000 0.048362 0.000000
# 6 0.000000 0.000000 0.000000 -0.011088 0.000000 0.039297
#
#
# Mechanical properties :
#
#
# Convention : Reuss Voigt Hill
#
# Bulk Modulus (GPa) = 56.09315 83.49426 69.79370
# Shear Modulus (GPa) = 21.74968 27.60090 24.67529
#
# Velocity S-wave (km/s) = 3.51021 3.95428 3.73884
# Velocity P-wave (km/s) = 6.94308 8.25526 7.62744
#
# Compressibility (1/GPa) = 0.01782749
#
# Stress axis : x y z
#
# Youngs Moduli (GPa) = 69.36501 30.81888 74.92071
#
# Poissons Ratio (x) = 0.22783 0.13346
# Poissons Ratio (y) = 0.51278 0.90041
# Poissons Ratio (z) = 0.12356 0.37039
#
# Static dielectric constant tensor:
#      x y z
#    x 1.603380 0.000000 -0.002730 
#    y 0.000000 1.608270 0.000000 
#    z -0.002730 0.000000 1.579350 
# 
# From -- ./inp_files/67101.got.cif
#   From: 2010.05.17/outbox.cif.g08.bks.cpg/sg11_34_cif.got.tgz:67101.got - 2010.06.03 12:22:45.
