data_PCOD9159690
_publ_section_title
;
Structure prediction by ZEFSAII (Michael W. Deem and Ramdas Pophale) SiO2 
 PCOD9159690
Probable space group: P 21/M
;
_chemical_formula_sum "Si O2"
_cell_formula_units_Z 32
_cell_length_a 9.018508
_cell_length_b 12.934156
_cell_length_c 21.137035
_cell_angle_alpha 90.000000
_cell_angle_beta 41.142348
_cell_angle_gamma 90.000000
_cell_volume 1622.175688
_symmetry_space_group_name_H-M "P 21/M"
_symmetry_group_IT_number 11
_symmetry_cell_setting 'monoclinic'
loop_
_space_group_symop_operation_xyz
x,y,z
-x,1/2+y,-z
-x,-y,-z
x,1/2-y,z
loop_
_atom_site_type_symbol
_atom_site_label
_atom_site_fract_x
_atom_site_fract_y
_atom_site_fract_z
Si Si1 0.187254 0.630780 0.893817
Si Si2 0.972817 0.365965 0.458844
Si Si3 0.651859 0.131924 0.678577
Si Si4 0.720862 0.512578 0.019186
Si Si5 0.515139 0.924993 0.679944
Si Si6 0.715546 0.374394 0.896652
Si Si7 0.330894 0.454667 0.504065
Si Si8 0.925193 0.370165 0.706837
O O1 0.172278 0.750000 0.920042
O O2 0.329654 0.627112 0.783003
O O3 0.941205 0.582749 0.959727
O O4 0.303093 0.557788 0.909943
O O5 0.939934 0.250000 0.444069
O O6 0.873089 0.365891 0.562290
O O7 0.825892 0.451789 0.471200
O O8 0.235195 0.393395 0.375847
O O9 0.567059 0.250000 0.709077
O O10 0.733806 0.090774 0.720025
O O11 0.489487 0.048517 0.699456
O O12 0.750020 0.433247 0.951270
O O13 0.513170 0.585197 0.064191
O O14 0.536799 0.906461 0.598039
O O15 0.711428 0.250000 0.907131
O O16 0.906043 0.408484 0.784362
O O17 0.500000 0.500000 0.500000
O O18 0.161916 0.382231 0.596635
O O19 0.872202 0.250000 0.728159
#
# Coordination Sequence:
#
# PCOD9159690 Si02
#       8
#     4   4   4   4   4   4   4   4
#     4  11  24  41  63  93 124 159 203 253 313 370
#     4  10  19  35  56  79 112 158 204 239 278 343
#     4   9  16  31  55  82 110 147 199 244 279 334
#     4  10  23  42  65  88 124 156 201 262 313 363
#     4  11  20  37  59  87 118 161 199 242 297 356
#     4  10  21  40  67  92 117 158 205 252 308 367
#     4  11  23  36  56  84 127 157 188 242 296 359
#     4  10  19  33  58  86 111 148 195 236 288 353
#
# _framework density 19.726593000000001
#
# number of rings (size 3 to 8) (size 9 to 14) (size 15 to 20)
#    0.000    1.750    2.500    2.625    1.750    1.000 
#    0.000    3.125    0.000    0.000    0.000    0.000 
#    0.000    0.000    0.000    0.000    0.000    0.000 
#
# Total GULP energy -178445.097377 kJ/mol
# GULP energy per Si atom -5576.409293 kJ/mol
# Density = 1.968169 g / cm^3
# Si number density = 19.726593 Si / 1000 Ang^3
#
#
#
# Elastic Constant Matrix: (Units=GPa)
#
#
# Indices 1 2 3 4 5 6 
#
# 1 52.9998 -5.2951 18.0133 0.0000 9.1404 0.0000
# 2 -5.2951 75.5787 14.5003 0.0000 0.3470 0.0000
# 3 18.0133 14.5003 79.0398 0.0000 25.9858 0.0000
# 4 0.0000 0.0000 0.0000 23.3987 0.0000 2.8325
# 5 9.1404 0.3470 25.9858 0.0000 22.2642 0.0000
# 6 0.0000 0.0000 0.0000 2.8325 0.0000 17.7113
#
#
#
# Elastic Compliance Matrix: (Units=1/GPa)
#
#
# Indices 1 2 3 4 5 6 
#
# 1 0.021124 0.002235 -0.003832 0.000000 -0.004235 0.000000
# 2 0.002235 0.014223 -0.004453 0.000000 0.004058 0.000000
# 3 -0.003832 -0.004453 0.022396 0.000000 -0.024497 0.000000
# 4 0.000000 0.000000 0.000000 0.043581 0.000000 -0.006970
# 5 -0.004235 0.004058 -0.024497 0.000000 0.075182 0.000000
# 6 0.000000 0.000000 0.000000 -0.006970 0.000000 0.057576
#
#
# Mechanical properties :
#
#
# Convention : Reuss Voigt Hill
#
# Bulk Modulus (GPa) = 21.90916 29.11724 25.51320
# Shear Modulus (GPa) = 19.12804 24.70149 21.91476
#
# Velocity S-wave (km/s) = 3.11731 3.54247 3.33667
# Velocity P-wave (km/s) = 4.90789 5.61468 5.27314
#
# Compressibility (1/GPa) = 0.04564300
#
# Stress axis : x y z
#
# Youngs Moduli (GPa) = 47.33966 70.30636 44.65130
#
# Poissons Ratio (x) = -0.15710 0.17110
# Poissons Ratio (y) = -0.10578 0.19882
# Poissons Ratio (z) = 0.18140 0.31306
#
# Static dielectric constant tensor:
#      x y z
#    x 1.700620 0.000000 0.018110 
#    y 0.000000 1.718320 0.000000 
#    z 0.018110 0.000000 1.750810 
# 
# From -- ./inp_files/63796.got.cif
#   From: 2010.05.17/outbox.cif.g08.bks.cpg/sg11_32_cif.got.tgz:63796.got - 2010.06.03 12:22:45.
