data_PCOD9159986
_publ_section_title
;
Structure prediction by ZEFSAII (Michael W. Deem and Ramdas Pophale) SiO2 
 PCOD9159986
Probable space group: P 21/M
;
_chemical_formula_sum "Si O2"
_cell_formula_units_Z 24
_cell_length_a 12.276822
_cell_length_b 14.213502
_cell_length_c 15.071786
_cell_angle_alpha 90.000000
_cell_angle_beta 27.225318
_cell_angle_gamma 90.000000
_cell_volume 1203.190053
_symmetry_space_group_name_H-M "P 21/M"
_symmetry_group_IT_number 11
_symmetry_cell_setting 'monoclinic'
loop_
_space_group_symop_operation_xyz
x,y,z
-x,1/2+y,-z
-x,-y,-z
x,1/2-y,z
loop_
_atom_site_type_symbol
_atom_site_label
_atom_site_fract_x
_atom_site_fract_y
_atom_site_fract_z
Si Si1 0.753758 0.044984 0.888824
Si Si2 0.203212 0.549126 0.523366
Si Si3 0.441868 0.142409 0.386372
Si Si4 0.257649 0.951192 0.295507
Si Si5 0.556300 0.859860 0.403018
Si Si6 0.939781 0.139009 0.930461
O O1 0.749146 0.097474 0.796564
O O2 0.920551 0.953712 0.746782
O O3 0.885441 0.095838 0.874024
O O4 0.488227 0.018369 0.113082
O O5 0.279764 0.438914 0.462404
O O6 0.284251 0.597433 0.372409
O O7 0.352604 0.588366 0.496898
O O8 0.364844 0.250000 0.422170
O O9 0.461559 0.132371 0.477948
O O10 0.704648 0.128416 0.157828
O O11 0.000000 0.000000 0.500000
O O12 0.541586 0.750000 0.389366
O O13 0.823254 0.898273 0.193122
O O14 0.983544 0.250000 0.885324
#
# Coordination Sequence:
#
# PCOD9159986 Si02
#       6
#     4   4   4   4   4   4
#     4  10  19  34  57  81 108 142 182 230 276 329
#     4  11  20  34  58  82 108 151 186 220 280 334
#     4  10  20  33  51  81 114 142 178 226 274 325
#     4   9  20  36  54  80 109 139 183 230 277 332
#     4  10  22  37  52  79 118 149 184 229 270 327
#     4  10  20  34  54  83 113 144 183 228 277 326
#
# _framework density 19.946974000000001
#
# number of rings (size 3 to 8) (size 9 to 14) (size 15 to 20)
#    0.000    2.000    3.333    0.500    0.000    2.000 
#    0.000    0.833    0.000   15.000    0.000    0.000 
#    0.000    0.000    0.000    0.000    0.000    0.000 
#
# Total GULP energy -133629.339917 kJ/mol
# GULP energy per Si atom -5567.889163 kJ/mol
# Density = 1.990157 g / cm^3
# Si number density = 19.946974 Si / 1000 Ang^3
#
#
#
# Elastic Constant Matrix: (Units=GPa)
#
#
# Indices 1 2 3 4 5 6 
#
# 1 70.4286 11.9080 22.8253 0.0000 -16.6132 0.0000
# 2 11.9080 29.2565 13.5461 0.0000 -6.6242 0.0000
# 3 22.8253 13.5461 130.4747 0.0000 -6.4104 0.0000
# 4 0.0000 0.0000 0.0000 14.3845 0.0000 2.4220
# 5 -16.6132 -6.6242 -6.4104 0.0000 26.1480 0.0000
# 6 0.0000 0.0000 0.0000 2.4220 0.0000 -1.0287
#
#
#
# Elastic Compliance Matrix: (Units=1/GPa)
#
#
# Indices 1 2 3 4 5 6 
#
# 1 0.017921 -0.004038 -0.002234 0.000000 0.009816 0.000000
# 2 -0.004038 0.038680 -0.002990 0.000000 0.006501 0.000000
# 3 -0.002234 -0.002990 0.008359 0.000000 -0.000127 0.000000
# 4 0.000000 0.000000 0.000000 0.049783 0.000000 0.117214
# 5 0.009816 0.006501 -0.000127 0.000000 0.046096 0.000000
# 6 0.000000 0.000000 0.000000 0.117214 0.000000 -0.696141
#
#
# Mechanical properties :
#
#
# Convention : Reuss Voigt Hill
#
# Bulk Modulus (GPa) = 21.53428 36.30207 28.91818
# Shear Modulus (GPa) = -9.97406 20.02612 5.02603
#
# Velocity S-wave (km/s) = -2.23856 3.17198 1.58908
# Velocity P-wave (km/s) = 2.03413 5.62620 4.23035
#
# Compressibility (1/GPa) = 0.04643760
#
# Stress axis : x y z
#
# Youngs Moduli (GPa) = 55.80142 25.85306 119.62784
#
# Poissons Ratio (x) = 0.10438 0.26720
# Poissons Ratio (y) = 0.22530 0.35770
# Poissons Ratio (z) = 0.12464 0.07730
#
# Static dielectric constant tensor:
#      x y z
#    x 1.758620 0.000000 0.002150 
#    y 0.000000 1.718160 0.000000 
#    z 0.002150 0.000000 1.768920 
# 
# From -- ./inp_files/39405.got.cif
#   From: 2010.05.17/outbox.cif.g08.bks.cpg/sg11_20_cif.got.tgz:39405.got - 2010.06.03 12:22:45.
