data_PCOD9159333
_publ_section_title
;
Structure prediction by ZEFSAII (Michael W. Deem and Ramdas Pophale) SiO2 
 PCOD9159333
Probable space group: P 21/M
;
_chemical_formula_sum "Si O2"
_cell_formula_units_Z 24
_cell_length_a 9.457125
_cell_length_b 8.696308
_cell_length_c 19.005410
_cell_angle_alpha 90.000000
_cell_angle_beta 59.728370
_cell_angle_gamma 90.000000
_cell_volume 1349.915798
_symmetry_space_group_name_H-M "P 21/M"
_symmetry_group_IT_number 11
_symmetry_cell_setting 'monoclinic'
loop_
_space_group_symop_operation_xyz
x,y,z
-x,1/2+y,-z
-x,-y,-z
x,1/2-y,z
loop_
_atom_site_type_symbol
_atom_site_label
_atom_site_fract_x
_atom_site_fract_y
_atom_site_fract_z
Si Si1 0.855546 0.066605 0.583105
Si Si2 0.151388 0.433316 0.918869
Si Si3 0.510459 0.066165 0.163886
Si Si4 0.841223 0.065120 0.241166
Si Si5 0.849501 0.564672 0.742075
Si Si6 0.493716 0.434669 0.676437
O O1 0.867454 0.250000 0.581460
O O2 0.672418 0.027835 0.600615
O O3 0.866391 0.005501 0.660193
O O4 0.000000 0.000000 0.500000
O O5 0.146597 0.250000 0.918668
O O6 0.326225 0.488091 0.906611
O O7 0.142823 0.497785 0.841398
O O8 0.000000 0.500000 0.000000
O O9 0.529796 0.250000 0.156140
O O10 0.329657 0.023558 0.181500
O O11 0.503870 0.010512 0.246650
O O12 0.832624 0.250000 0.239174
O O13 0.998785 0.020149 0.247258
O O14 0.671263 0.001062 0.315909
O O15 0.850700 0.750000 0.734566
O O16 0.480022 0.250000 0.686385
#
# Coordination Sequence:
#
# PCOD9159333 Si02
#       6
#     4   4   4   4   4   4
#     4  10  20  33  52  75 101 131 168 208 249 294
#     4  11  21  34  52  75 101 131 167 206 245 292
#     4   9  16  30  51  73  97 129 164 200 242 292
#     4  10  19  33  53  77 102 131 164 202 246 295
#     4   9  19  34  53  76 103 131 164 203 246 295
#     4   9  17  30  48  72  98 129 166 203 241 292
#
# _framework density 17.778887999999998
#
# number of rings (size 3 to 8) (size 9 to 14) (size 15 to 20)
#    0.000    2.333    0.000    5.500    0.000    4.000 
#    0.000    1.667    0.000    0.000    0.000    0.000 
#    0.000    0.000    0.000    0.000    0.000    0.000 
#
# Total GULP energy -133751.681763 kJ/mol
# GULP energy per Si atom -5572.986740 kJ/mol
# Density = 1.773842 g / cm^3
# Si number density = 17.778888 Si / 1000 Ang^3
#
#
#
# Elastic Constant Matrix: (Units=GPa)
#
#
# Indices 1 2 3 4 5 6 
#
# 1 143.3615 49.3656 64.7922 0.0000 -47.1811 0.0000
# 2 49.3656 74.9818 42.1352 0.0000 -21.1088 0.0000
# 3 64.7922 42.1352 118.3641 0.0000 -45.9538 0.0000
# 4 0.0000 0.0000 0.0000 28.3554 0.0000 -8.8173
# 5 -47.1811 -21.1088 -45.9538 0.0000 34.7836 0.0000
# 6 0.0000 0.0000 0.0000 -8.8173 0.0000 21.2615
#
#
#
# Elastic Compliance Matrix: (Units=1/GPa)
#
#
# Indices 1 2 3 4 5 6 
#
# 1 0.013821 -0.004743 0.000582 0.000000 0.016638 0.000000
# 2 -0.004743 0.018677 -0.004413 0.000000 -0.000929 0.000000
# 3 0.000582 -0.004413 0.018411 0.000000 0.022435 0.000000
# 4 0.000000 0.000000 0.000000 0.040488 0.000000 0.016791
# 5 0.016638 -0.000929 0.022435 0.000000 0.080394 0.000000
# 6 0.000000 0.000000 0.000000 0.016791 0.000000 0.053997
#
#
# Mechanical properties :
#
#
# Convention : Reuss Voigt Hill
#
# Bulk Modulus (GPa) = 29.61886 72.14374 50.88130
# Shear Modulus (GPa) = 19.67040 28.90772 24.28906
#
# Velocity S-wave (km/s) = 3.32985 4.03669 3.70019
# Velocity P-wave (km/s) = 5.61067 7.89892 6.85101
#
# Compressibility (1/GPa) = 0.03376227
#
# Stress axis : x y z
#
# Youngs Moduli (GPa) = 72.35345 53.54048 54.31538
#
# Poissons Ratio (x) = 0.25392 -0.03163
# Poissons Ratio (y) = 0.34314 0.23972
# Poissons Ratio (z) = -0.04214 0.23630
#
# Static dielectric constant tensor:
#      x y z
#    x 1.646820 0.000000 -0.047330 
#    y 0.000000 1.594770 0.000000 
#    z -0.047330 0.000000 1.612250 
# 
# From -- ./inp_files/27244.got.cif
#   From: 2010.05.17/outbox.cif.g08.bks.cpg/sg11_14_cif.got.tgz:27244.got - 2010.06.03 12:22:45.
