data_PCOD9159719
_publ_section_title
;
Structure prediction by ZEFSAII (Michael W. Deem and Ramdas Pophale) SiO2 
 PCOD9159719
Probable space group: P 21/M
;
_chemical_formula_sum "Si O2"
_cell_formula_units_Z 32
_cell_length_a 5.717827
_cell_length_b 18.105217
_cell_length_c 14.513909
_cell_angle_alpha 90.000000
_cell_angle_beta 81.591696
_cell_angle_gamma 90.000000
_cell_volume 1486.365804
_symmetry_space_group_name_H-M "P 21/M"
_symmetry_group_IT_number 11
_symmetry_cell_setting 'monoclinic'
loop_
_space_group_symop_operation_xyz
x,y,z
-x,1/2+y,-z
-x,-y,-z
x,1/2-y,z
loop_
_atom_site_type_symbol
_atom_site_label
_atom_site_fract_x
_atom_site_fract_y
_atom_site_fract_z
Si Si1 0.368288 0.664126 0.189228
Si Si2 0.936497 0.454687 0.719449
Si Si3 0.716373 0.164246 0.341437
Si Si4 0.434921 0.066849 0.209869
Si Si5 0.766715 0.555733 0.129022
Si Si6 0.910803 0.334819 0.981457
Si Si7 0.068829 0.330311 0.160679
Si Si8 0.233696 0.519860 0.548738
O O1 0.395609 0.750000 0.204517
O O2 0.172658 0.626823 0.266877
O O3 0.608160 0.618847 0.186922
O O4 0.284362 0.653457 0.086723
O O5 0.722716 0.511426 0.717774
O O6 0.024271 0.470239 0.817162
O O7 0.158798 0.472888 0.643351
O O8 0.650683 0.250000 0.366535
O O9 0.546285 0.123295 0.277380
O O10 0.754496 0.106553 0.422686
O O11 0.956008 0.167131 0.268008
O O12 0.270725 0.110512 0.149629
O O13 0.600198 0.014975 0.137033
O O14 0.893832 0.601324 0.042136
O O15 0.996605 0.250000 0.957380
O O16 0.867875 0.337109 0.093351
O O17 0.178628 0.250000 0.139161
O O18 0.500000 0.500000 0.500000
O O19 0.000000 0.500000 0.500000
#
# Coordination Sequence:
#
# PCOD9159719 Si02
#       8
#     4   4   4   4   4   4   4   4
#     4   9  19  35  60  86 124 178 225 277 329 390
#     4  10  21  40  62  92 127 168 215 264 339 413
#     4  11  24  44  69  98 131 174 219 272 338 410
#     4  11  19  37  62  90 125 173 220 265 333 406
#     4  10  19  33  61  85 127 170 220 270 326 399
#     4   9  19  35  52  87 128 172 228 280 329 382
#     4  10  21  36  59  87 128 172 219 279 334 391
#     4  12  26  46  76 103 132 175 216 279 348 418
#
# _framework density 21.529019000000002
#
# number of rings (size 3 to 8) (size 9 to 14) (size 15 to 20)
#    0.000    1.750    2.500    1.500    1.750    2.000 
#    0.000   12.500    0.000    0.000    0.000    0.000 
#    0.000    0.000    0.000    0.000    0.000    0.000 
#
# Total GULP energy -178208.821859 kJ/mol
# GULP energy per Si atom -5569.025683 kJ/mol
# Density = 2.148002 g / cm^3
# Si number density = 21.529019 Si / 1000 Ang^3
#
#
#
# Elastic Constant Matrix: (Units=GPa)
#
#
# Indices 1 2 3 4 5 6 
#
# 1 67.9823 52.1661 15.6335 0.0000 8.1944 0.0000
# 2 52.1661 158.3942 35.7722 0.0000 12.8580 0.0000
# 3 15.6335 35.7722 56.6373 0.0000 2.7920 0.0000
# 4 0.0000 0.0000 0.0000 19.1510 0.0000 14.8369
# 5 8.1944 12.8580 2.7920 0.0000 23.4700 0.0000
# 6 0.0000 0.0000 0.0000 14.8369 0.0000 16.4723
#
#
#
# Elastic Compliance Matrix: (Units=1/GPa)
#
#
# Indices 1 2 3 4 5 6 
#
# 1 0.020083 -0.005964 -0.001601 0.000000 -0.003554 0.000000
# 2 -0.005964 0.009432 -0.004184 0.000000 -0.002588 0.000000
# 3 -0.001601 -0.004184 0.020722 0.000000 0.000386 0.000000
# 4 0.000000 0.000000 0.000000 0.172799 0.000000 -0.155644
# 5 -0.003554 -0.002588 0.000386 0.000000 0.045220 0.000000
# 6 0.000000 0.000000 0.000000 -0.155644 0.000000 0.200900
#
#
# Mechanical properties :
#
#
# Convention : Reuss Voigt Hill
#
# Bulk Modulus (GPa) = 37.39897 54.46192 45.93044
# Shear Modulus (GPa) = 9.96874 23.78145 16.87509
#
# Velocity S-wave (km/s) = 2.15416 3.32719 2.80273
# Velocity P-wave (km/s) = 4.85761 6.33342 5.64396
#
# Compressibility (1/GPa) = 0.02673871
#
# Stress axis : x y z
#
# Youngs Moduli (GPa) = 49.79384 106.01654 48.25860
#
# Poissons Ratio (x) = 0.63228 0.07728
# Poissons Ratio (y) = 0.29697 0.20190
# Poissons Ratio (z) = 0.07974 0.44355
#
# Static dielectric constant tensor:
#      x y z
#    x 1.824660 0.000000 0.001000 
#    y 0.000000 1.833140 0.000000 
#    z 0.001000 0.000000 1.845680 
# 
# From -- ./inp_files/46030.got.cif
#   From: 2010.05.17/outbox.cif.g08.bks.cpg/sg11_24_cif.got.tgz:46030.got - 2010.06.03 12:22:45.
