data_PCOD9159188
_publ_section_title
;
Structure prediction by ZEFSAII (Michael W. Deem and Ramdas Pophale) SiO2 
 PCOD9159188
Probable space group: P 21/M
;
_chemical_formula_sum "Si O2"
_cell_formula_units_Z 24
_cell_length_a 14.422156
_cell_length_b 9.002782
_cell_length_c 27.467321
_cell_angle_alpha 90.000000
_cell_angle_beta 155.039176
_cell_angle_gamma 90.000000
_cell_volume 1504.991708
_symmetry_space_group_name_H-M "P 21/M"
_symmetry_group_IT_number 11
_symmetry_cell_setting 'monoclinic'
loop_
_space_group_symop_operation_xyz
x,y,z
-x,1/2+y,-z
-x,-y,-z
x,1/2-y,z
loop_
_atom_site_type_symbol
_atom_site_label
_atom_site_fract_x
_atom_site_fract_y
_atom_site_fract_z
Si Si1 0.945219 0.573300 0.548845
Si Si2 0.354400 0.925527 0.670717
Si Si3 0.217427 0.926969 0.081431
Si Si4 0.843483 0.072290 0.250919
Si Si5 0.334224 0.426996 0.035995
Si Si6 0.261127 0.072908 0.894101
O O1 0.898481 0.750000 0.524863
O O2 0.755705 0.483848 0.431288
O O3 0.168892 0.550591 0.624132
O O4 0.996673 0.529996 0.628800
O O5 0.399803 0.750000 0.690223
O O6 0.571010 0.013813 0.788471
O O7 0.205157 0.750000 0.077915
O O8 0.249856 0.981799 0.041460
O O9 0.000000 0.000000 0.000000
O O10 0.854719 0.250000 0.249449
O O11 0.592713 0.040448 0.149096
O O12 0.882361 0.992626 0.218005
O O13 0.319406 0.250000 0.039208
O O14 0.207204 0.458421 0.924888
O O15 0.279258 0.250000 0.897874
O O16 0.500000 0.000000 0.000000
#
# Coordination Sequence:
#
# PCOD9159188 Si02
#       6
#     4   4   4   4   4   4
#     4   9  17  30  48  71 100 132 161 195 242 288
#     4  10  19  33  49  69  98 128 163 203 242 287
#     4  12  24  36  52  71  94 128 168 206 245 291
#     4   9  16  28  46  69 100 131 158 194 238 286
#     4   9  17  32  47  65  96 129 160 202 244 280
#     4   9  17  27  42  65  95 127 159 195 237 287
#
# _framework density 15.946933
#
# number of rings (size 3 to 8) (size 9 to 14) (size 15 to 20)
#    0.000    2.333    1.667    3.500    0.000    4.667 
#    0.000    0.000    0.000    0.000    0.000    1.167 
#    0.000    0.000    0.000    0.000    0.000    0.000 
#
# Total GULP energy -133787.131819 kJ/mol
# GULP energy per Si atom -5574.463826 kJ/mol
# Density = 1.591064 g / cm^3
# Si number density = 15.946933 Si / 1000 Ang^3
#
#
#
# Elastic Constant Matrix: (Units=GPa)
#
#
# Indices 1 2 3 4 5 6 
#
# 1 84.3759 62.7056 70.5399 0.0000 -28.3279 0.0000
# 2 62.7056 89.3842 64.0760 0.0000 -13.2074 0.0000
# 3 70.5399 64.0760 89.0878 0.0000 -30.5058 0.0000
# 4 0.0000 0.0000 0.0000 26.7189 0.0000 -7.7934
# 5 -28.3279 -13.2074 -30.5058 0.0000 33.8552 0.0000
# 6 0.0000 0.0000 0.0000 -7.7934 0.0000 26.7922
#
#
#
# Elastic Compliance Matrix: (Units=1/GPa)
#
#
# Indices 1 2 3 4 5 6 
#
# 1 0.043088 -0.014557 -0.019157 0.000000 0.013113 0.000000
# 2 -0.014557 0.029893 -0.014682 0.000000 -0.013748 0.000000
# 3 -0.019157 -0.014682 0.042669 0.000000 0.016690 0.000000
# 4 0.000000 0.000000 0.000000 0.040897 0.000000 0.011896
# 5 0.013113 -0.013748 0.016690 0.000000 0.050185 0.000000
# 6 0.000000 0.000000 0.000000 0.011896 0.000000 0.040785
#
#
# Mechanical properties :
#
#
# Convention : Reuss Voigt Hill
#
# Bulk Modulus (GPa) = 53.02851 73.05452 63.04151
# Shear Modulus (GPa) = 14.26145 21.84168 18.05157
#
# Velocity S-wave (km/s) = 2.99374 3.70489 3.36814
# Velocity P-wave (km/s) = 6.72869 8.01324 7.39890
#
# Compressibility (1/GPa) = 0.01885778
#
# Stress axis : x y z
#
# Youngs Moduli (GPa) = 23.20813 33.45210 23.43646
#
# Poissons Ratio (x) = 0.48697 0.44897
# Poissons Ratio (y) = 0.33785 0.34409
# Poissons Ratio (z) = 0.44460 0.49114
#
# Static dielectric constant tensor:
#      x y z
#    x 1.534820 0.000000 -0.037870 
#    y 0.000000 1.528030 0.000000 
#    z -0.037870 0.000000 1.534900 
# 
# From -- ./inp_files/37000.got.cif
#   From: 2010.05.17/outbox.cif.g08.bks.cpg/sg11_19_cif.got.tgz:37000.got - 2010.06.03 12:22:45.
