data_PCOD9159411
_publ_section_title
;
Structure prediction by ZEFSAII (Michael W. Deem and Ramdas Pophale) SiO2 
 PCOD9159411
Probable space group: P 21/M
;
_chemical_formula_sum "Si O2"
_cell_formula_units_Z 20
_cell_length_a 10.636441
_cell_length_b 12.738403
_cell_length_c 17.781160
_cell_angle_alpha 90.000000
_cell_angle_beta 26.168791
_cell_angle_gamma 90.000000
_cell_volume 1062.494744
_symmetry_space_group_name_H-M "P 21/M"
_symmetry_group_IT_number 11
_symmetry_cell_setting 'monoclinic'
loop_
_space_group_symop_operation_xyz
x,y,z
-x,1/2+y,-z
-x,-y,-z
x,1/2-y,z
loop_
_atom_site_type_symbol
_atom_site_label
_atom_site_fract_x
_atom_site_fract_y
_atom_site_fract_z
Si Si1 0.996638 0.012797 0.591290
Si Si2 0.851671 0.026340 0.248312
Si Si3 0.566315 0.627760 0.117894
Si Si4 0.263511 0.132051 0.567877
Si Si5 0.494072 0.630259 0.337497
O O1 0.322645 0.951067 0.217979
O O2 0.171651 0.911109 0.525837
O O3 0.189868 0.106982 0.520824
O O4 0.000000 0.000000 0.500000
O O5 0.595238 0.106857 0.403999
O O6 0.904710 0.952762 0.291951
O O7 0.713558 0.946930 0.261205
O O8 0.127773 0.086245 0.072001
O O9 0.518852 0.750000 0.121127
O O10 0.546206 0.625084 0.219790
O O11 0.191415 0.250000 0.625916
O O12 0.529297 0.750000 0.343398
#
# Coordination Sequence:
#
# PCOD9159411 Si02
#       5
#     4   4   4   4   4
#     4   9  19  35  54  76 102 135 175 215 261 318
#     4  10  20  33  53  80 108 138 179 220 260 315
#     4  10  19  33  54  78 106 139 175 220 266 308
#     4  10  20  35  54  75 105 144 179 217 265 315
#     4   9  18  34  54  76 106 141 175 215 263 312
#
# _framework density 18.823623000000001
#
# number of rings (size 3 to 8) (size 9 to 14) (size 15 to 20)
#    0.000    2.400    0.000    2.400    0.000    1.600 
#    0.000    3.000    0.000    3.600    0.000    0.000 
#    0.000    0.000    0.000    0.000    0.000    0.000 
#
# Total GULP energy -111398.071119 kJ/mol
# GULP energy per Si atom -5569.903556 kJ/mol
# Density = 1.878078 g / cm^3
# Si number density = 18.823623 Si / 1000 Ang^3
#
#
#
# Elastic Constant Matrix: (Units=GPa)
#
#
# Indices 1 2 3 4 5 6 
#
# 1 63.6792 15.3485 14.1369 0.0000 0.5799 0.0000
# 2 15.3485 71.1986 37.0982 0.0000 4.7050 0.0000
# 3 14.1369 37.0982 84.0891 0.0000 -12.5894 0.0000
# 4 0.0000 0.0000 0.0000 25.3550 0.0000 0.9909
# 5 0.5799 4.7050 -12.5894 0.0000 20.1169 0.0000
# 6 0.0000 0.0000 0.0000 0.9909 0.0000 15.2710
#
#
#
# Elastic Compliance Matrix: (Units=1/GPa)
#
#
# Indices 1 2 3 4 5 6 
#
# 1 0.016743 -0.002592 -0.001824 0.000000 -0.001018 0.000000
# 2 -0.002592 0.020785 -0.010428 0.000000 -0.011312 0.000000
# 3 -0.001824 -0.010428 0.018948 0.000000 0.014349 0.000000
# 4 0.000000 0.000000 0.000000 0.039540 0.000000 -0.002566
# 5 -0.001018 -0.011312 0.014349 0.000000 0.061364 0.000000
# 6 0.000000 0.000000 0.000000 -0.002566 0.000000 0.065650
#
#
# Mechanical properties :
#
#
# Convention : Reuss Voigt Hill
#
# Bulk Modulus (GPa) = 37.32933 39.12601 38.22767
# Shear Modulus (GPa) = 19.10983 22.30747 20.70865
#
# Velocity S-wave (km/s) = 3.18968 3.44623 3.32044
# Velocity P-wave (km/s) = 5.78270 6.05525 5.92054
#
# Compressibility (1/GPa) = 0.02678859
#
# Stress axis : x y z
#
# Youngs Moduli (GPa) = 59.72814 48.11182 52.77738
#
# Poissons Ratio (x) = 0.12469 0.09625
# Poissons Ratio (y) = 0.15480 0.55035
# Poissons Ratio (z) = 0.10892 0.50170
#
# Static dielectric constant tensor:
#      x y z
#    x 1.717220 0.000000 0.019200 
#    y 0.000000 1.644570 0.000000 
#    z 0.019200 0.000000 1.630650 
# 
# From -- ./inp_files/34600.got.cif
#   From: 2010.05.17/outbox.cif.g08.bks.cpg/sg11_18_cif.got.tgz:34600.got - 2010.06.03 12:22:45.
