data_PCOD9159588
_publ_section_title
;
Structure prediction by ZEFSAII (Michael W. Deem and Ramdas Pophale) SiO2 
 PCOD9159588
Probable space group: P 21/M
;
_chemical_formula_sum "Si O2"
_cell_formula_units_Z 32
_cell_length_a 25.386414
_cell_length_b 9.146315
_cell_length_c 20.454565
_cell_angle_alpha 90.000000
_cell_angle_beta 156.856901
_cell_angle_gamma 90.000000
_cell_volume 1866.647277
_symmetry_space_group_name_H-M "P 21/M"
_symmetry_group_IT_number 11
_symmetry_cell_setting 'monoclinic'
loop_
_space_group_symop_operation_xyz
x,y,z
-x,1/2+y,-z
-x,-y,-z
x,1/2-y,z
loop_
_atom_site_type_symbol
_atom_site_label
_atom_site_fract_x
_atom_site_fract_y
_atom_site_fract_z
Si Si1 0.189396 0.423238 0.766465
Si Si2 0.120985 0.423335 0.051032
Si Si3 0.869060 0.075569 0.073036
Si Si4 0.628592 0.425182 0.410355
Si Si5 0.185725 0.576239 0.256562
Si Si6 0.876141 0.076881 0.438893
Si Si7 0.347715 0.575576 0.061722
Si Si8 0.858744 0.424982 0.568397
O O1 0.212816 0.250000 0.793932
O O2 0.193509 0.486069 0.697858
O O3 0.036417 0.449867 0.616454
O O4 0.289271 0.503721 0.929349
O O5 0.141111 0.250000 0.068729
O O6 0.191019 0.487446 0.195464
O O7 0.164238 0.503586 0.034530
O O8 0.961176 0.449708 0.879291
O O9 0.880406 0.250000 0.079175
O O10 0.756793 0.042748 0.999133
O O11 0.009671 0.008798 0.257549
O O12 0.605351 0.250000 0.383372
O O13 0.702016 0.462417 0.562320
O O14 0.491323 0.509278 0.243006
O O15 0.734115 0.457991 0.472955
O O16 0.193647 0.750000 0.252044
O O17 0.855259 0.250000 0.403629
O O18 0.831962 0.040625 0.461913
O O19 0.355147 0.750000 0.062723
O O20 0.885252 0.250000 0.603177
#
# Coordination Sequence:
#
# PCOD9159588 Si02
#       8
#     4   4   4   4   4   4   4   4
#     4  10  19  33  56  82 111 147 185 225 277 333
#     4  10  19  33  56  84 113 143 182 230 277 327
#     4  11  22  35  55  83 113 145 185 233 276 323
#     4  10  21  38  59  82 112 148 185 226 277 335
#     4   9  18  34  55  82 114 144 179 226 278 330
#     4   9  18  32  55  84 114 142 176 230 281 327
#     4  11  24  39  55  80 115 150 188 230 275 330
#     4  10  19  36  59  85 112 142 185 231 278 330
#
# _framework density 17.143035000000001
#
# number of rings (size 3 to 8) (size 9 to 14) (size 15 to 20)
#    0.000    2.000    2.500    1.500    0.000    4.000 
#    0.000    1.250    0.000    0.000    0.000    0.000 
#    0.000    0.000    0.000    0.000    0.000    0.000 
#
# Total GULP energy -178656.827418 kJ/mol
# GULP energy per Si atom -5583.025857 kJ/mol
# Density = 1.710402 g / cm^3
# Si number density = 17.143035 Si / 1000 Ang^3
#
#
#
# Elastic Constant Matrix: (Units=GPa)
#
#
# Indices 1 2 3 4 5 6 
#
# 1 118.6669 67.5365 78.4476 0.0000 -22.5312 0.0000
# 2 67.5365 62.5191 73.5325 0.0000 -9.4814 0.0000
# 3 78.4476 73.5325 133.7868 0.0000 -18.5451 0.0000
# 4 0.0000 0.0000 0.0000 32.0950 0.0000 -6.5327
# 5 -22.5312 -9.4814 -18.5451 0.0000 26.4928 0.0000
# 6 0.0000 0.0000 0.0000 -6.5327 0.0000 27.4110
#
#
#
# Elastic Compliance Matrix: (Units=1/GPa)
#
#
# Indices 1 2 3 4 5 6 
#
# 1 0.025503 -0.028602 0.002607 0.000000 0.013278 0.000000
# 2 -0.028602 0.077363 -0.028000 0.000000 -0.016239 0.000000
# 3 0.002607 -0.028000 0.022430 0.000000 0.007898 0.000000
# 4 0.000000 0.000000 0.000000 0.032746 0.000000 0.007804
# 5 0.013278 -0.016239 0.007898 0.000000 0.048756 0.000000
# 6 0.000000 0.000000 0.000000 0.007804 0.000000 0.038342
#
#
# Mechanical properties :
#
#
# Convention : Reuss Voigt Hill
#
# Bulk Modulus (GPa) = 57.78573 83.77842 70.78208
# Shear Modulus (GPa) = 13.93155 23.56352 18.74754
#
# Velocity S-wave (km/s) = 2.85382 3.71148 3.31054
# Velocity P-wave (km/s) = 6.68133 8.20628 7.48276
#
# Compressibility (1/GPa) = 0.01730531
#
# Stress axis : x y z
#
# Youngs Moduli (GPa) = 39.21130 12.92612 44.58290
#
# Poissons Ratio (x) = 0.36972 -0.11623
# Poissons Ratio (y) = 1.12153 1.24832
# Poissons Ratio (z) = -0.10223 0.36193
#
# Static dielectric constant tensor:
#      x y z
#    x 1.573260 0.000000 -0.005730 
#    y 0.000000 1.567590 0.000000 
#    z -0.005730 0.000000 1.551570 
# 
# From -- ./inp_files/67287.got.cif
#   From: 2010.05.17/outbox.cif.g08.bks.cpg/sg11_34_cif.got.tgz:67287.got - 2010.06.03 12:22:45.
