data_PCOD9159405
_publ_section_title
;
Structure prediction by ZEFSAII (Michael W. Deem and Ramdas Pophale) SiO2 
 PCOD9159405
Probable space group: P 21/M
;
_chemical_formula_sum "Si O2"
_cell_formula_units_Z 24
_cell_length_a 8.815399
_cell_length_b 9.871470
_cell_length_c 19.341362
_cell_angle_alpha 90.000000
_cell_angle_beta 128.914291
_cell_angle_gamma 90.000000
_cell_volume 1309.600206
_symmetry_space_group_name_H-M "P 21/M"
_symmetry_group_IT_number 11
_symmetry_cell_setting 'monoclinic'
loop_
_space_group_symop_operation_xyz
x,y,z
-x,1/2+y,-z
-x,-y,-z
x,1/2-y,z
loop_
_atom_site_type_symbol
_atom_site_label
_atom_site_fract_x
_atom_site_fract_y
_atom_site_fract_z
Si Si1 0.969870 0.101096 0.752441
Si Si2 0.578152 0.909135 0.084844
Si Si3 0.539380 0.400724 0.200239
Si Si4 0.937499 0.504733 0.368602
Si Si5 0.626500 0.908292 0.695466
Si Si6 0.279759 0.099210 0.557882
O O1 0.894438 0.250000 0.750550
O O2 0.186166 0.084660 0.845405
O O3 0.824942 0.983679 0.733682
O O4 0.996128 0.092930 0.677230
O O5 0.523273 0.750000 0.065346
O O6 0.508600 0.981581 0.135745
O O7 0.500000 0.000000 0.000000
O O8 0.503794 0.250000 0.161049
O O9 0.764282 0.410680 0.289816
O O10 0.414428 0.418428 0.234009
O O11 0.838490 0.585300 0.403645
O O12 0.121854 0.427848 0.453191
O O13 0.628040 0.750000 0.677328
O O14 0.448500 0.987235 0.607833
O O15 0.361922 0.250000 0.575648
#
# Coordination Sequence:
#
# PCOD9159405 Si02
#       6
#     4   4   4   4   4   4
#     4  10  21  37  56  78 106 138 174 216 263 315
#     4  10  21  37  60  87 108 132 169 213 261 316
#     4   9  18  35  56  78 107 140 176 218 262 310
#     4   9  19  32  53  80 105 137 182 227 267 308
#     4  10  22  36  52  77 109 145 180 217 263 311
#     4  10  19  33  54  77 105 142 184 225 266 312
#
# _framework density 18.326204000000001
#
# number of rings (size 3 to 8) (size 9 to 14) (size 15 to 20)
#    0.000    2.333    0.000    2.000    0.000   14.000 
#    0.000    0.833    0.000    0.000    0.000    0.000 
#    0.000    0.000    0.000    0.000    0.000    0.000 
#
# Total GULP energy -133874.843669 kJ/mol
# GULP energy per Si atom -5578.118486 kJ/mol
# Density = 1.828449 g / cm^3
# Si number density = 18.326204 Si / 1000 Ang^3
#
#
#
# Elastic Constant Matrix: (Units=GPa)
#
#
# Indices 1 2 3 4 5 6 
#
# 1 51.1302 47.2291 22.2960 0.0000 7.7105 0.0000
# 2 47.2291 167.2040 60.0873 0.0000 1.1981 0.0000
# 3 22.2960 60.0873 90.3434 0.0000 -11.7795 0.0000
# 4 0.0000 0.0000 0.0000 15.7996 0.0000 5.0803
# 5 7.7105 1.1981 -11.7795 0.0000 11.4923 0.0000
# 6 0.0000 0.0000 0.0000 5.0803 0.0000 22.2004
#
#
#
# Elastic Compliance Matrix: (Units=1/GPa)
#
#
# Indices 1 2 3 4 5 6 
#
# 1 0.033388 -0.006386 -0.007880 0.000000 -0.029812 0.000000
# 2 -0.006386 0.009621 -0.005074 0.000000 -0.001919 0.000000
# 3 -0.007880 -0.005074 0.019791 0.000000 0.026102 0.000000
# 4 0.000000 0.000000 0.000000 0.068320 0.000000 -0.015634
# 5 -0.029812 -0.001919 0.026102 0.000000 0.133970 0.000000
# 6 0.000000 0.000000 0.000000 -0.015634 0.000000 0.048622
#
#
# Mechanical properties :
#
#
# Convention : Reuss Voigt Hill
#
# Bulk Modulus (GPa) = 41.45468 63.10027 52.27747
# Shear Modulus (GPa) = 13.87226 21.83615 17.85421
#
# Velocity S-wave (km/s) = 2.75428 3.45559 3.12468
# Velocity P-wave (km/s) = 5.72576 7.10127 6.45028
#
# Compressibility (1/GPa) = 0.02412273
#
# Stress axis : x y z
#
# Youngs Moduli (GPa) = 29.95078 103.93504 50.52735
#
# Poissons Ratio (x) = 0.66368 0.39815
# Poissons Ratio (y) = 0.19125 0.25635
# Poissons Ratio (z) = 0.23601 0.52732
#
# Static dielectric constant tensor:
#      x y z
#    x 1.619230 0.000000 -0.008290 
#    y 0.000000 1.638930 0.000000 
#    z -0.008290 0.000000 1.615470 
# 
# From -- ./inp_files/46607.got.cif
#   From: 2010.05.17/outbox.cif.g08.bks.cpg/sg11_24_cif.got.tgz:46607.got - 2010.06.03 12:22:45.
