data_PCOD9159872
_publ_section_title
;
Structure prediction by ZEFSAII (Michael W. Deem and Ramdas Pophale) SiO2 
 PCOD9159872
Probable space group: P 21/M
;
_chemical_formula_sum "Si O2"
_cell_formula_units_Z 32
_cell_length_a 27.277200
_cell_length_b 8.523361
_cell_length_c 20.886970
_cell_angle_alpha 90.000000
_cell_angle_beta 160.124230
_cell_angle_gamma 90.000000
_cell_volume 1650.980268
_symmetry_space_group_name_H-M "P 21/M"
_symmetry_group_IT_number 11
_symmetry_cell_setting 'monoclinic'
loop_
_space_group_symop_operation_xyz
x,y,z
-x,1/2+y,-z
-x,-y,-z
x,1/2-y,z
loop_
_atom_site_type_symbol
_atom_site_label
_atom_site_fract_x
_atom_site_fract_y
_atom_site_fract_z
Si Si1 0.394249 0.060795 0.313825
Si Si2 0.358646 0.559481 0.468897
Si Si3 0.144305 0.936929 0.309017
Si Si4 0.849851 0.062531 0.905036
Si Si5 0.473375 0.938550 0.895767
Si Si6 0.836671 0.562524 0.526994
Si Si7 0.993133 0.938952 0.593234
Si Si8 0.225812 0.438788 0.788896
O O1 0.384724 0.250000 0.304515
O O2 0.480617 0.012621 0.355600
O O3 0.500000 0.000000 0.500000
O O4 0.240840 0.987876 0.143310
O O5 0.359734 0.750000 0.471157
O O6 0.287937 0.506105 0.448290
O O7 0.247324 0.514659 0.275350
O O8 0.152864 0.750000 0.325501
O O9 0.125515 0.008891 0.355650
O O10 0.004479 0.982027 0.096012
O O11 0.865600 0.250000 0.923312
O O12 0.470710 0.750000 0.893543
O O13 0.322210 0.000956 0.684887
O O14 0.610148 0.989354 0.020798
O O15 0.500000 0.000000 0.000000
O O16 0.835017 0.750000 0.522354
O O17 0.945519 0.506325 0.604951
O O18 0.996102 0.750000 0.596609
O O19 0.869950 0.988579 0.390524
O O20 0.143551 0.999472 0.750093
O O21 0.223315 0.250000 0.787386
#
# Coordination Sequence:
#
# PCOD9159872 Si02
#       8
#     4   4   4   4   4   4   4   4
#     4   9  16  30  52  80 109 140 176 224 275 322
#     4   8  17  33  55  81 111 141 181 230 275 323
#     4  11  22  37  55  79 108 146 187 226 275 330
#     4  10  19  34  55  82 111 144 182 228 278 327
#     4  11  21  36  58  85 112 142 178 220 267 321
#     4  11  23  40  56  78 112 146 183 227 275 328
#     4   9  18  34  54  78 108 139 172 218 267 316
#     4   9  18  33  54  83 110 135 173 219 264 314
#
# _framework density 19.382424
#
# number of rings (size 3 to 8) (size 9 to 14) (size 15 to 20)
#    0.000    2.250    1.250    3.000    0.000    2.000 
#    0.000    8.125    0.000    1.500    0.000    0.000 
#    0.000    0.000    0.000    0.000    0.000    0.000 
#
# Total GULP energy -178513.956991 kJ/mol
# GULP energy per Si atom -5578.561156 kJ/mol
# Density = 1.933831 g / cm^3
# Si number density = 19.382424 Si / 1000 Ang^3
#
#
#
# Elastic Constant Matrix: (Units=GPa)
#
#
# Indices 1 2 3 4 5 6 
#
# 1 143.3607 19.5263 22.7371 0.0000 33.2655 0.0000
# 2 19.5263 34.1982 4.2985 0.0000 4.6348 0.0000
# 3 22.7371 4.2985 23.7140 0.0000 16.5794 0.0000
# 4 0.0000 0.0000 0.0000 28.4880 0.0000 2.7858
# 5 33.2655 4.6348 16.5794 0.0000 33.5794 0.0000
# 6 0.0000 0.0000 0.0000 2.7858 0.0000 25.1461
#
#
#
# Elastic Compliance Matrix: (Units=1/GPa)
#
#
# Indices 1 2 3 4 5 6 
#
# 1 0.009818 -0.004163 -0.003452 0.000000 -0.007447 0.000000
# 2 -0.004163 0.031796 -0.002424 0.000000 0.000932 0.000000
# 3 -0.003452 -0.002424 0.066116 0.000000 -0.028889 0.000000
# 4 0.000000 0.000000 0.000000 0.035487 0.000000 -0.003931
# 5 -0.007447 0.000932 -0.028889 0.000000 0.051293 0.000000
# 6 0.000000 0.000000 0.000000 -0.003931 0.000000 0.040203
#
#
# Mechanical properties :
#
#
# Convention : Reuss Voigt Hill
#
# Bulk Modulus (GPa) = 11.40863 32.71076 22.05969
# Shear Modulus (GPa) = 17.60508 27.75678 22.68093
#
# Velocity S-wave (km/s) = 3.01707 3.78836 3.42450
# Velocity P-wave (km/s) = 4.24686 6.00406 5.20022
#
# Compressibility (1/GPa) = 0.08765298
#
# Stress axis : x y z
#
# Youngs Moduli (GPa) = 101.85439 31.45005 15.12483
#
# Poissons Ratio (x) = 0.13091 0.05222
# Poissons Ratio (y) = 0.42398 0.03666
# Poissons Ratio (z) = 0.35165 0.07623
#
# Static dielectric constant tensor:
#      x y z
#    x 1.708070 0.000000 0.053470 
#    y 0.000000 1.657530 0.000000 
#    z 0.053470 0.000000 1.603870 
# 
# From -- ./inp_files/67187.got.cif
#   From: 2010.05.17/outbox.cif.g08.bks.cpg/sg11_34_cif.got.tgz:67187.got - 2010.06.03 12:22:45.
