data_PCOD9159379
_publ_section_title
;
Structure prediction by ZEFSAII (Michael W. Deem and Ramdas Pophale) SiO2 
 PCOD9159379
Probable space group: P 21/M
;
_chemical_formula_sum "Si O2"
_cell_formula_units_Z 28
_cell_length_a 13.942359
_cell_length_b 8.370888
_cell_length_c 13.865411
_cell_angle_alpha 90.000000
_cell_angle_beta 63.520127
_cell_angle_gamma 90.000000
_cell_volume 1448.464159
_symmetry_space_group_name_H-M "P 21/M"
_symmetry_group_IT_number 11
_symmetry_cell_setting 'monoclinic'
loop_
_space_group_symop_operation_xyz
x,y,z
-x,1/2+y,-z
-x,-y,-z
x,1/2-y,z
loop_
_atom_site_type_symbol
_atom_site_label
_atom_site_fract_x
_atom_site_fract_y
_atom_site_fract_z
Si Si1 0.884340 0.441694 0.587060
Si Si2 0.581889 0.442393 0.882018
Si Si3 0.244395 0.558930 0.049653
Si Si4 0.182929 0.944948 0.587406
Si Si5 0.394954 0.558959 0.602805
Si Si6 0.947085 0.560627 0.760466
Si Si7 0.409449 0.441622 0.814108
O O1 0.878704 0.250000 0.600105
O O2 0.810513 0.488982 0.529307
O O3 0.881007 0.517809 0.693275
O O4 0.000000 0.500000 0.500000
O O5 0.587423 0.250000 0.873813
O O6 0.692002 0.496130 0.881793
O O7 0.523558 0.496691 0.810150
O O8 0.500000 0.500000 0.000000
O O9 0.249607 0.750000 0.042287
O O10 0.121501 0.508246 0.120103
O O11 0.312220 0.493073 0.928740
O O12 0.179627 0.750000 0.590116
O O13 0.286308 0.999993 0.599405
O O14 0.069205 0.998340 0.685415
O O15 0.500000 0.500000 0.500000
O O16 0.393407 0.750000 0.598917
O O17 0.396488 0.506778 0.713060
O O18 0.952639 0.750000 0.768713
O O19 0.410864 0.250000 0.810708
#
# Coordination Sequence:
#
# PCOD9159379 Si02
#       7
#     4   4   4   4   4   4   4
#     4   9  16  30  51  76 104 138 174 214 261 311
#     4   8  16  30  50  74 105 139 172 208 256 309
#     4  10  19  33  54  83 113 145 178 215 263 320
#     4   8  18  36  56  75 105 144 181 220 267 315
#     4  11  23  41  60  79 102 136 180 226 269 317
#     4  10  19  33  53  81 112 145 179 217 264 320
#     4  10  20  37  57  80 109 143 179 222 267 314
#
# _framework density 19.330818000000001
#
# number of rings (size 3 to 8) (size 9 to 14) (size 15 to 20)
#    0.000    2.571    0.000    3.000    0.000    2.286 
#    0.000   15.000    0.000    0.000    0.000    0.000 
#    0.000    0.000    0.000    0.000    0.000    0.000 
#
# Total GULP energy -155891.448633 kJ/mol
# GULP energy per Si atom -5567.551737 kJ/mol
# Density = 1.928682 g / cm^3
# Si number density = 19.330818 Si / 1000 Ang^3
#
#
#
# Elastic Constant Matrix: (Units=GPa)
#
#
# Indices 1 2 3 4 5 6 
#
# 1 126.5801 17.7157 77.1428 0.0000 6.2926 0.0000
# 2 17.7157 29.3088 14.2862 0.0000 -0.2453 0.0000
# 3 77.1428 14.2862 111.6149 0.0000 -4.3580 0.0000
# 4 0.0000 0.0000 0.0000 32.0020 0.0000 1.8200
# 5 6.2926 -0.2453 -4.3580 0.0000 38.1439 0.0000
# 6 0.0000 0.0000 0.0000 1.8200 0.0000 17.3669
#
#
#
# Elastic Compliance Matrix: (Units=1/GPa)
#
#
# Indices 1 2 3 4 5 6 
#
# 1 0.014537 -0.004108 -0.009659 0.000000 -0.003528 0.000000
# 2 -0.004108 0.037554 -0.001940 0.000000 0.000698 0.000000
# 3 -0.009659 -0.001940 0.016017 0.000000 0.003411 0.000000
# 4 0.000000 0.000000 0.000000 0.031435 0.000000 -0.003294
# 5 -0.003528 0.000698 0.003411 0.000000 0.027193 0.000000
# 6 0.000000 0.000000 0.000000 -0.003294 0.000000 0.057926
#
#
# Mechanical properties :
#
#
# Convention : Reuss Voigt Hill
#
# Bulk Modulus (GPa) = 27.25319 53.97703 40.61511
# Shear Modulus (GPa) = 21.90011 28.05983 24.97997
#
# Velocity S-wave (km/s) = 3.36953 3.81407 3.59867
# Velocity P-wave (km/s) = 5.40992 6.88328 6.19059
#
# Compressibility (1/GPa) = 0.03669295
#
# Stress axis : x y z
#
# Youngs Moduli (GPa) = 68.78840 26.62820 62.43369
#
# Poissons Ratio (x) = 0.10940 0.60307
# Poissons Ratio (y) = 0.28260 0.12113
# Poissons Ratio (z) = 0.66446 0.05166
#
# Static dielectric constant tensor:
#      x y z
#    x 1.715370 0.000000 0.007680 
#    y 0.000000 1.511060 0.000000 
#    z 0.007680 0.000000 1.664320 
# 
# From -- ./inp_files/37447.got.cif
#   From: 2010.05.17/outbox.cif.g08.bks.cpg/sg11_19_cif.got.tgz:37447.got - 2010.06.03 12:22:45.
