data_PCOD9159149
_publ_section_title
;
Structure prediction by ZEFSAII (Michael W. Deem and Ramdas Pophale) SiO2 
 PCOD9159149
Probable space group: P 21/M
;
_chemical_formula_sum "Si O2"
_cell_formula_units_Z 24
_cell_length_a 14.815145
_cell_length_b 9.926279
_cell_length_c 17.010639
_cell_angle_alpha 90.000000
_cell_angle_beta 24.812365
_cell_angle_gamma 90.000000
_cell_volume 1049.779649
_symmetry_space_group_name_H-M "P 21/M"
_symmetry_group_IT_number 11
_symmetry_cell_setting 'monoclinic'
loop_
_space_group_symop_operation_xyz
x,y,z
-x,1/2+y,-z
-x,-y,-z
x,1/2-y,z
loop_
_atom_site_type_symbol
_atom_site_label
_atom_site_fract_x
_atom_site_fract_y
_atom_site_fract_z
Si Si1 0.278193 0.401425 0.237670
Si Si2 0.655883 0.086788 0.320502
Si Si3 0.999892 0.607292 0.383499
Si Si4 0.579244 0.594710 0.095333
Si Si5 0.639775 0.015988 0.574424
Si Si6 0.987038 0.096845 0.176527
O O1 0.348939 0.250000 0.163627
O O2 0.146712 0.475081 0.272483
O O3 0.459082 0.502248 0.127100
O O4 0.115073 0.388854 0.440566
O O5 0.634051 0.250000 0.346271
O O6 0.569640 0.044272 0.303279
O O7 0.889986 0.047956 0.170340
O O8 0.500000 0.000000 0.500000
O O9 0.116406 0.750000 0.280332
O O10 0.808327 0.594318 0.472683
O O11 0.600343 0.750000 0.052748
O O12 0.433429 0.593286 0.289883
O O13 0.806732 0.533032 0.944828
O O14 0.786277 0.095015 0.395710
O O15 0.057131 0.250000 0.106757
#
# Coordination Sequence:
#
# PCOD9159149 Si02
#       6
#     4   4   4   4   4   4
#     4   9  18  32  51  78 109 138 174 221 266 311
#     4   9  18  34  55  79 110 143 177 220 265 311
#     4   9  17  30  51  78 107 140 176 215 263 317
#     4  10  20  35  56  79 106 142 179 216 263 316
#     4  10  19  32  56  81 106 139 178 218 263 312
#     4   9  19  35  53  78 110 140 175 220 264 310
#
# _framework density 22.861941000000002
#
# number of rings (size 3 to 8) (size 9 to 14) (size 15 to 20)
#    0.000    2.667    0.000    1.500    0.000    6.667 
#    0.000    5.000    0.000    0.000    0.000    0.000 
#    0.000    0.000    0.000    0.000    0.000    0.000 
#
# Total GULP energy -133809.135514 kJ/mol
# GULP energy per Si atom -5575.380646 kJ/mol
# Density = 2.280991 g / cm^3
# Si number density = 22.861941 Si / 1000 Ang^3
#
#
#
# Elastic Constant Matrix: (Units=GPa)
#
#
# Indices 1 2 3 4 5 6 
#
# 1 123.3762 34.7682 29.4558 0.0000 -34.2697 0.0000
# 2 34.7682 121.5067 27.6581 0.0000 -35.0195 0.0000
# 3 29.4558 27.6581 87.0604 0.0000 -25.9502 0.0000
# 4 0.0000 0.0000 0.0000 17.4066 0.0000 -12.9309
# 5 -34.2697 -35.0195 -25.9502 0.0000 58.4864 0.0000
# 6 0.0000 0.0000 0.0000 -12.9309 0.0000 -7.5295
#
#
#
# Elastic Compliance Matrix: (Units=1/GPa)
#
#
# Indices 1 2 3 4 5 6 
#
# 1 0.010085 -0.001224 -0.001706 0.000000 0.004420 0.000000
# 2 -0.001224 0.010291 -0.001420 0.000000 0.004815 0.000000
# 3 -0.001706 -0.001420 0.013787 0.000000 0.004267 0.000000
# 4 0.000000 0.000000 0.000000 0.025244 0.000000 -0.043353
# 5 0.004420 0.004815 0.004267 0.000000 0.024464 0.000000
# 6 0.000000 0.000000 0.000000 -0.043353 0.000000 -0.058358
#
#
# Mechanical properties :
#
#
# Convention : Reuss Voigt Hill
#
# Bulk Modulus (GPa) = 39.27281 57.30083 48.28682
# Shear Modulus (GPa) = 117.09728 29.67679 73.38704
#
# Velocity S-wave (km/s) = 7.16453 3.60681 5.67184
# Velocity P-wave (km/s) = 9.25506 6.51641 8.00375
#
# Compressibility (1/GPa) = 0.02546291
#
# Stress axis : x y z
#
# Youngs Moduli (GPa) = 99.15655 97.17147 72.53446
#
# Poissons Ratio (x) = 0.11890 0.12375
# Poissons Ratio (y) = 0.12133 0.10301
# Poissons Ratio (z) = 0.16917 0.13800
#
# Static dielectric constant tensor:
#      x y z
#    x 1.906470 0.000000 -0.006700 
#    y 0.000000 1.819390 0.000000 
#    z -0.006700 0.000000 1.880800 
# 
# From -- ./inp_files/65575.got.cif
#   From: 2010.05.17/outbox.cif.g08.bks.cpg/sg11_33_cif.got.tgz:65575.got - 2010.06.03 12:22:45.
