data_PCOD9159499
_publ_section_title
;
Structure prediction by ZEFSAII (Michael W. Deem and Ramdas Pophale) SiO2 
 PCOD9159499
Probable space group: P 21/M
;
_chemical_formula_sum "Si O2"
_cell_formula_units_Z 24
_cell_length_a 23.804046
_cell_length_b 9.876081
_cell_length_c 15.106774
_cell_angle_alpha 90.000000
_cell_angle_beta 20.722271
_cell_angle_gamma 90.000000
_cell_volume 1256.643679
_symmetry_space_group_name_H-M "P 21/M"
_symmetry_group_IT_number 11
_symmetry_cell_setting 'monoclinic'
loop_
_space_group_symop_operation_xyz
x,y,z
-x,1/2+y,-z
-x,-y,-z
x,1/2-y,z
loop_
_atom_site_type_symbol
_atom_site_label
_atom_site_fract_x
_atom_site_fract_y
_atom_site_fract_z
Si Si1 0.241695 0.504456 0.714313
Si Si2 0.906123 0.893037 0.237081
Si Si3 0.288925 0.591860 0.372699
Si Si4 0.650193 0.905864 0.263563
Si Si5 0.415641 0.909447 0.995177
Si Si6 0.602142 0.906770 0.141231
O O1 0.200661 0.405764 0.693631
O O2 0.242679 0.436424 0.809576
O O3 0.414166 0.569519 0.441224
O O4 0.089752 0.601877 0.938739
O O5 0.871600 0.750000 0.333550
O O6 0.863463 0.020937 0.360474
O O7 0.305500 0.750000 0.374023
O O8 0.432283 0.498912 0.198856
O O9 0.299023 0.584946 0.251629
O O10 0.600745 0.750000 0.340292
O O11 0.699300 0.929416 0.089408
O O12 0.500000 0.000000 0.500000
O O13 0.452502 0.750000 0.925650
O O14 0.355057 0.985446 0.997114
O O15 0.621668 0.750000 0.084642
#
# Coordination Sequence:
#
# PCOD9159499 Si02
#       6
#     4   4   4   4   4   4
#     4  10  21  34  52  78 111 142 177 210 260 312
#     4  11  22  34  53  79 110 144 178 214 258 316
#     4  10  21  35  52  75 105 139 174 218 266 311
#     4   9  19  34  52  76 105 140 178 217 260 307
#     4  10  20  34  53  77 104 135 175 219 265 315
#     4  10  19  33  55  80 107 137 173 219 264 308
#
# _framework density 19.098493000000001
#
# number of rings (size 3 to 8) (size 9 to 14) (size 15 to 20)
#    0.000    2.000    1.667    2.000    0.000    8.667 
#    0.000    0.000    0.000    1.000    0.000    0.000 
#    0.000    0.000    0.000    0.000    0.000    0.000 
#
# Total GULP energy -133693.213406 kJ/mol
# GULP energy per Si atom -5570.550559 kJ/mol
# Density = 1.905502 g / cm^3
# Si number density = 19.098493 Si / 1000 Ang^3
#
#
#
# Elastic Constant Matrix: (Units=GPa)
#
#
# Indices 1 2 3 4 5 6 
#
# 1 123.0404 65.6372 18.7775 0.0000 17.6009 0.0000
# 2 65.6372 150.0323 13.5223 0.0000 19.9149 0.0000
# 3 18.7775 13.5223 34.8499 0.0000 6.9056 0.0000
# 4 0.0000 0.0000 0.0000 2.1121 0.0000 18.1623
# 5 17.6009 19.9149 6.9056 0.0000 16.2384 0.0000
# 6 0.0000 0.0000 0.0000 18.1623 0.0000 19.3036
#
#
#
# Elastic Compliance Matrix: (Units=1/GPa)
#
#
# Indices 1 2 3 4 5 6 
#
# 1 0.011675 -0.003953 -0.003505 0.000000 -0.006315 0.000000
# 2 -0.003953 0.009351 -0.000082 0.000000 -0.007148 0.000000
# 3 -0.003505 -0.000082 0.032588 0.000000 -0.009959 0.000000
# 4 0.000000 0.000000 0.000000 -0.066772 0.000000 0.062824
# 5 -0.006315 -0.007148 -0.009959 0.000000 0.081429 0.000000
# 6 0.000000 0.000000 0.000000 0.062824 0.000000 -0.007306
#
#
# Mechanical properties :
#
#
# Convention : Reuss Voigt Hill
#
# Bulk Modulus (GPa) = 25.95154 55.97738 40.96446
# Shear Modulus (GPa) = 56.24941 21.52987 38.88964
#
# Velocity S-wave (km/s) = 5.43288 3.36118 4.51740
# Velocity P-wave (km/s) = 7.27824 6.66610 6.97888
#
# Compressibility (1/GPa) = 0.03853335
#
# Stress axis : x y z
#
# Youngs Moduli (GPa) = 85.65547 106.94069 30.68601
#
# Poissons Ratio (x) = 0.42277 0.10756
# Poissons Ratio (y) = 0.33863 0.00251
# Poissons Ratio (z) = 0.30023 0.00875
#
# Static dielectric constant tensor:
#      x y z
#    x 1.713360 0.000000 0.007800 
#    y 0.000000 1.671020 0.000000 
#    z 0.007800 0.000000 1.671540 
# 
# From -- ./inp_files/62111.got.cif
#   From: 2010.05.17/outbox.cif.g08.bks.cpg/sg11_32_cif.got.tgz:62111.got - 2010.06.03 12:22:45.
