data_PCOD9159074
_publ_section_title
;
Structure prediction by ZEFSAII (Michael W. Deem and Ramdas Pophale) SiO2 
 PCOD9159074
Probable space group: P 21/M
;
_chemical_formula_sum "Si O2"
_cell_formula_units_Z 28
_cell_length_a 13.453131
_cell_length_b 17.624909
_cell_length_c 6.333582
_cell_angle_alpha 90.000000
_cell_angle_beta 67.012406
_cell_angle_gamma 90.000000
_cell_volume 1382.501588
_symmetry_space_group_name_H-M "P 21/M"
_symmetry_group_IT_number 11
_symmetry_cell_setting 'monoclinic'
loop_
_space_group_symop_operation_xyz
x,y,z
-x,1/2+y,-z
-x,-y,-z
x,1/2-y,z
loop_
_atom_site_type_symbol
_atom_site_label
_atom_site_fract_x
_atom_site_fract_y
_atom_site_fract_z
Si Si1 0.566221 0.956043 0.625937
Si Si2 0.631758 0.437117 0.963439
Si Si3 0.902698 0.425773 0.158881
Si Si4 0.776255 0.167315 0.574536
Si Si5 0.900621 0.658596 0.781143
Si Si6 0.018582 0.666509 0.294893
Si Si7 0.757149 0.555392 0.165343
O O1 0.670505 0.923596 0.418271
O O2 0.500000 0.000000 0.500000
O O3 0.602065 0.013143 0.781622
O O4 0.473879 0.908406 0.823216
O O5 0.698552 0.369205 0.809655
O O6 0.701485 0.492233 0.058248
O O7 0.935680 0.394283 0.903774
O O8 0.800899 0.382989 0.349617
O O9 0.860726 0.511606 0.179967
O O10 0.004840 0.397463 0.210516
O O11 0.739647 0.250000 0.537420
O O12 0.889302 0.173704 0.604618
O O13 0.914658 0.750000 0.807198
O O14 0.910753 0.649321 0.518605
O O15 0.797123 0.625223 0.988145
O O16 0.007157 0.750000 0.200592
#
# Coordination Sequence:
#
# PCOD9159074 Si02
#       7
#     4   4   4   4   4   4   4
#     4   9  20  37  60  82 110 141 185 235 286 333
#     4  10  19  37  58  84 112 145 186 233 283 338
#     4  11  19  34  55  81 112 149 191 228 274 332
#     4  10  19  32  53  83 115 143 178 231 287 333
#     4  10  23  38  52  79 118 154 188 232 278 326
#     4   9  18  33  50  73 110 148 178 218 277 328
#     4  11  21  35  59  85 107 149 198 232 274 336
#
# _framework density 20.253140999999999
#
# number of rings (size 3 to 8) (size 9 to 14) (size 15 to 20)
#    0.000    2.000    2.857    2.571    0.000    1.714 
#    0.000    0.714    0.000    7.714    0.000    0.000 
#    0.000    0.000    0.000    0.000    0.000    0.000 
#
# Total GULP energy -155875.961298 kJ/mol
# GULP energy per Si atom -5566.998618 kJ/mol
# Density = 2.020704 g / cm^3
# Si number density = 20.253141 Si / 1000 Ang^3
#
#
#
# Elastic Constant Matrix: (Units=GPa)
#
#
# Indices 1 2 3 4 5 6 
#
# 1 39.4814 12.6502 23.6548 0.0000 -7.7558 0.0000
# 2 12.6502 58.8689 50.0478 0.0000 -24.9859 0.0000
# 3 23.6548 50.0478 173.3070 0.0000 -48.0052 0.0000
# 4 0.0000 0.0000 0.0000 63.7766 0.0000 3.0178
# 5 -7.7558 -24.9859 -48.0052 0.0000 45.5630 0.0000
# 6 0.0000 0.0000 0.0000 3.0178 0.0000 10.7346
#
#
#
# Elastic Compliance Matrix: (Units=1/GPa)
#
#
# Indices 1 2 3 4 5 6 
#
# 1 0.028178 -0.003752 -0.002830 0.000000 -0.000242 0.000000
# 2 -0.003752 0.025141 -0.004386 0.000000 0.008527 0.000000
# 3 -0.002830 -0.004386 0.009353 0.000000 0.006967 0.000000
# 4 0.000000 0.000000 0.000000 0.015891 0.000000 -0.004467
# 5 -0.000242 0.008527 0.006967 0.000000 0.033923 0.000000
# 6 0.000000 0.000000 0.000000 -0.004467 0.000000 0.094413
#
#
# Mechanical properties :
#
#
# Convention : Reuss Voigt Hill
#
# Bulk Modulus (GPa) = 24.54836 49.37365 36.96101
# Shear Modulus (GPa) = 20.62582 36.36849 28.49716
#
# Velocity S-wave (km/s) = 3.19470 4.24216 3.75513
# Velocity P-wave (km/s) = 5.07496 6.95886 6.09020
#
# Compressibility (1/GPa) = 0.04073592
#
# Stress axis : x y z
#
# Youngs Moduli (GPa) = 35.48814 39.77511 106.91915
#
# Poissons Ratio (x) = 0.14926 0.30254
# Poissons Ratio (y) = 0.13317 0.46898
# Poissons Ratio (z) = 0.10042 0.17446
#
# Static dielectric constant tensor:
#      x y z
#    x 1.806270 0.000000 -0.036130 
#    y 0.000000 1.769240 0.000000 
#    z -0.036130 0.000000 1.760030 
# 
# From -- ./inp_files/6663.got.cif
#   From: 2010.05.17/outbox.cif.g08.bks.cpg/sg11_4_cif.got.tgz:6663.got - 2010.06.03 12:22:45.
