data_PCOD9159134
_publ_section_title
;
Structure prediction by ZEFSAII (Michael W. Deem and Ramdas Pophale) SiO2 
 PCOD9159134
Probable space group: P 21/M
;
_chemical_formula_sum "Si O2"
_cell_formula_units_Z 32
_cell_length_a 15.863560
_cell_length_b 17.253077
_cell_length_c 12.967595
_cell_angle_alpha 90.000000
_cell_angle_beta 152.385803
_cell_angle_gamma 90.000000
_cell_volume 1645.095133
_symmetry_space_group_name_H-M "P 21/M"
_symmetry_group_IT_number 11
_symmetry_cell_setting 'monoclinic'
loop_
_space_group_symop_operation_xyz
x,y,z
-x,1/2+y,-z
-x,-y,-z
x,1/2-y,z
loop_
_atom_site_type_symbol
_atom_site_label
_atom_site_fract_x
_atom_site_fract_y
_atom_site_fract_z
Si Si1 0.636587 0.658334 0.618850
Si Si2 0.464273 0.663256 0.209639
Si Si3 0.065717 0.997228 0.687376
Si Si4 0.511618 0.485372 0.889739
Si Si5 0.954854 0.589537 0.867659
Si Si6 0.828183 0.057615 0.597340
Si Si7 0.973710 0.166056 0.257546
Si Si8 0.726921 0.341865 0.668350
O O1 0.677983 0.750000 0.668443
O O2 0.546068 0.641177 0.409161
O O3 0.819400 0.609137 0.814195
O O4 0.485135 0.641552 0.540136
O O5 0.524307 0.750000 0.249176
O O6 0.514754 0.603670 0.174789
O O7 0.246212 0.665463 0.988874
O O8 0.975298 0.059498 0.665386
O O9 0.992469 0.913128 0.645469
O O10 0.000000 0.000000 0.500000
O O11 0.283190 0.003334 0.924753
O O12 0.358279 0.531569 0.660701
O O13 0.500000 0.500000 0.000000
O O14 0.901369 0.509072 0.755863
O O15 0.937372 0.653367 0.757803
O O16 0.156548 0.604489 0.127894
O O17 0.789002 0.133249 0.622204
O O18 0.026531 0.250000 0.358081
O O19 0.757209 0.250000 0.722342
#
# Coordination Sequence:
#
# PCOD9159134 Si02
#       8
#     4   4   4   4   4   4   4   4
#     4  10  19  32  55  84 116 150 190 233 282 335
#     4   9  17  33  55  84 114 146 188 238 289 340
#     4  10  21  38  61  84 112 149 197 240 288 346
#     4  11  21  39  62  84 117 153 188 244 302 338
#     4  11  20  35  59  86 116 148 193 238 287 334
#     4  11  24  39  59  88 114 151 197 239 285 347
#     4   9  17  31  55  84 114 142 180 239 296 337
#     4  11  24  41  57  82 123 162 190 229 282 345
#
# _framework density 19.451763
#
# number of rings (size 3 to 8) (size 9 to 14) (size 15 to 20)
#    0.000    1.750    3.750    1.500    0.000    1.500 
#    0.000    1.250    0.000    1.500    0.000    0.000 
#    0.000    0.000    0.000    0.000    0.000    0.000 
#
# Total GULP energy -178498.912256 kJ/mol
# GULP energy per Si atom -5578.091008 kJ/mol
# Density = 1.940749 g / cm^3
# Si number density = 19.451763 Si / 1000 Ang^3
#
#
#
# Elastic Constant Matrix: (Units=GPa)
#
#
# Indices 1 2 3 4 5 6 
#
# 1 108.2488 22.7973 14.3544 0.0000 10.1104 0.0000
# 2 22.7973 34.2891 5.2855 0.0000 -3.2449 0.0000
# 3 14.3544 5.2855 51.7036 0.0000 8.9838 0.0000
# 4 0.0000 0.0000 0.0000 15.2305 0.0000 -0.1835
# 5 10.1104 -3.2449 8.9838 0.0000 29.4792 0.0000
# 6 0.0000 0.0000 0.0000 -0.1835 0.0000 27.0992
#
#
#
# Elastic Compliance Matrix: (Units=1/GPa)
#
#
# Indices 1 2 3 4 5 6 
#
# 1 0.011501 -0.007799 -0.001648 0.000000 -0.004301 0.000000
# 2 -0.007799 0.035475 -0.002750 0.000000 0.007418 0.000000
# 3 -0.001648 -0.002750 0.021154 0.000000 -0.006184 0.000000
# 4 0.000000 0.000000 0.000000 0.065663 0.000000 0.000445
# 5 -0.004301 0.007418 -0.006184 0.000000 0.038098 0.000000
# 6 0.000000 0.000000 0.000000 0.000445 0.000000 0.036904
#
#
# Mechanical properties :
#
#
# Convention : Reuss Voigt Hill
#
# Bulk Modulus (GPa) = 22.86515 31.01287 26.93901
# Shear Modulus (GPa) = 20.18002 24.48206 22.33104
#
# Velocity S-wave (km/s) = 3.22442 3.55153 3.39192
# Velocity P-wave (km/s) = 5.06388 5.72677 5.40550
#
# Compressibility (1/GPa) = 0.04373467
#
# Stress axis : x y z
#
# Youngs Moduli (GPa) = 86.95075 28.18882 47.27162
#
# Poissons Ratio (x) = 0.21985 0.07792
# Poissons Ratio (y) = 0.67815 0.13000
# Poissons Ratio (z) = 0.14333 0.07752
#
# Static dielectric constant tensor:
#      x y z
#    x 1.695780 0.000000 0.038890 
#    y 0.000000 1.692480 0.000000 
#    z 0.038890 0.000000 1.714220 
# 
# From -- ./inp_files/40039.got.cif
#   From: 2010.05.17/outbox.cif.g08.bks.cpg/sg11_21_cif.got.tgz:40039.got - 2010.06.03 12:22:45.
