data_PCOD9159053
_publ_section_title
;
Structure prediction by ZEFSAII (Michael W. Deem and Ramdas Pophale) SiO2 
 PCOD9159053
Probable space group: P 21/M
;
_chemical_formula_sum "Si O2"
_cell_formula_units_Z 28
_cell_length_a 12.860471
_cell_length_b 8.767263
_cell_length_c 15.407625
_cell_angle_alpha 90.000000
_cell_angle_beta 74.795916
_cell_angle_gamma 90.000000
_cell_volume 1676.420387
_symmetry_space_group_name_H-M "P 21/M"
_symmetry_group_IT_number 11
_symmetry_cell_setting 'monoclinic'
loop_
_space_group_symop_operation_xyz
x,y,z
-x,1/2+y,-z
-x,-y,-z
x,1/2-y,z
loop_
_atom_site_type_symbol
_atom_site_label
_atom_site_fract_x
_atom_site_fract_y
_atom_site_fract_z
Si Si1 0.655968 0.567961 0.908082
Si Si2 0.584715 0.433352 0.098047
Si Si3 0.399061 0.933454 0.706883
Si Si4 0.986411 0.566080 0.406805
Si Si5 0.207493 0.933347 0.272192
Si Si6 0.744868 0.933346 0.410067
Si Si7 0.630843 0.066594 0.605231
O O1 0.659758 0.750000 0.908163
O O2 0.539803 0.520689 0.892681
O O3 0.748077 0.503984 0.825821
O O4 0.654920 0.505496 0.006085
O O5 0.589906 0.250000 0.089721
O O6 0.615308 0.476732 0.188998
O O7 0.401719 0.750000 0.700559
O O8 0.307272 0.999800 0.665237
O O9 0.513597 0.998836 0.650010
O O10 0.990116 0.750000 0.412127
O O11 0.870039 0.523240 0.394638
O O12 0.000000 0.500000 0.500000
O O13 0.087878 0.517250 0.326245
O O14 0.208512 0.750000 0.264075
O O15 0.289037 0.973657 0.332911
O O16 0.736592 0.750000 0.411844
O O17 0.679430 0.999213 0.506351
O O18 0.624925 0.250000 0.600261
#
# Coordination Sequence:
#
# PCOD9159053 Si02
#       7
#     4   4   4   4   4   4   4
#     4  10  19  32  53  81 108 136 172 216 265 317
#     4   9  19  34  52  76 107 140 172 212 264 318
#     4  11  22  37  55  77 110 145 180 218 263 320
#     4  10  21  37  56  78 105 140 181 225 266 310
#     4  10  20  34  54  79 109 141 174 216 268 316
#     4  11  23  37  54  77 108 144 183 223 265 313
#     4  11  21  34  54  79 109 144 180 217 263 318
#
# _framework density 16.702254
#
# number of rings (size 3 to 8) (size 9 to 14) (size 15 to 20)
#    0.000    1.714    2.857    2.143    0.000    3.429 
#    0.000    0.000    0.000    0.857    0.000    0.000 
#    0.000    0.000    0.000    0.000    0.000    0.000 
#
# Total GULP energy -156369.371493 kJ/mol
# GULP energy per Si atom -5584.620410 kJ/mol
# Density = 1.666424 g / cm^3
# Si number density = 16.702254 Si / 1000 Ang^3
#
#
#
# Elastic Constant Matrix: (Units=GPa)
#
#
# Indices 1 2 3 4 5 6 
#
# 1 132.1361 44.0929 95.4178 0.0000 6.3714 0.0000
# 2 44.0929 35.5840 46.6977 0.0000 2.5638 0.0000
# 3 95.4178 46.6977 174.6765 0.0000 -7.9410 0.0000
# 4 0.0000 0.0000 0.0000 24.6608 0.0000 5.0642
# 5 6.3714 2.5638 -7.9410 0.0000 21.6403 0.0000
# 6 0.0000 0.0000 0.0000 5.0642 0.0000 16.2947
#
#
#
# Elastic Compliance Matrix: (Units=1/GPa)
#
#
# Indices 1 2 3 4 5 6 
#
# 1 0.015950 -0.011728 -0.005825 0.000000 -0.005444 0.000000
# 2 -0.011728 0.053938 -0.008285 0.000000 -0.005978 0.000000
# 3 -0.005825 -0.008285 0.011435 0.000000 0.006893 0.000000
# 4 0.000000 0.000000 0.000000 0.043315 0.000000 -0.013462
# 5 -0.005444 -0.005978 0.006893 0.000000 0.051051 0.000000
# 6 0.000000 0.000000 0.000000 -0.013462 0.000000 0.065553
#
#
# Mechanical properties :
#
#
# Convention : Reuss Voigt Hill
#
# Bulk Modulus (GPa) = 33.72962 79.42371 56.57666
# Shear Modulus (GPa) = 16.51250 22.93169 19.72210
#
# Velocity S-wave (km/s) = 3.14767 3.70938 3.44001
# Velocity P-wave (km/s) = 5.78351 8.12416 7.05163
#
# Compressibility (1/GPa) = 0.02964754
#
# Stress axis : x y z
#
# Youngs Moduli (GPa) = 62.69420 18.53981 87.44901
#
# Poissons Ratio (x) = 0.21743 0.50941
# Poissons Ratio (y) = 0.73526 0.72453
# Poissons Ratio (z) = 0.36521 0.15360
#
# Static dielectric constant tensor:
#      x y z
#    x 1.551320 0.000000 0.000860 
#    y 0.000000 1.557370 0.000000 
#    z 0.000860 0.000000 1.542080 
# 
# From -- ./inp_files/37383.got.cif
#   From: 2010.05.17/outbox.cif.g08.bks.cpg/sg11_19_cif.got.tgz:37383.got - 2010.06.03 12:22:45.
