data_PCOD9159165
_publ_section_title
;
Structure prediction by ZEFSAII (Michael W. Deem and Ramdas Pophale) SiO2 
 PCOD9159165
Probable space group: P 21/M
;
_chemical_formula_sum "Si O2"
_cell_formula_units_Z 32
_cell_length_a 19.796239
_cell_length_b 16.861124
_cell_length_c 12.286649
_cell_angle_alpha 90.000000
_cell_angle_beta 153.739420
_cell_angle_gamma 90.000000
_cell_volume 1814.558935
_symmetry_space_group_name_H-M "P 21/M"
_symmetry_group_IT_number 11
_symmetry_cell_setting 'monoclinic'
loop_
_space_group_symop_operation_xyz
x,y,z
-x,1/2+y,-z
-x,-y,-z
x,1/2-y,z
loop_
_atom_site_type_symbol
_atom_site_label
_atom_site_fract_x
_atom_site_fract_y
_atom_site_fract_z
Si Si1 0.151530 0.844833 0.853765
Si Si2 0.425523 0.932654 0.663539
Si Si3 0.602417 0.155966 0.604292
Si Si4 0.385526 0.914913 0.036377
Si Si5 0.361887 0.157736 0.441827
Si Si6 0.853704 0.547419 0.750783
Si Si7 0.851043 0.656027 0.540079
Si Si8 0.494955 0.843209 0.978125
O O1 0.167500 0.750000 0.857623
O O2 0.976624 0.862783 0.629713
O O3 0.255117 0.863083 0.110374
O O4 0.226688 0.890921 0.861981
O O5 0.404364 0.894093 0.514890
O O6 0.565521 0.994960 0.869604
O O7 0.276995 0.985673 0.473105
O O8 0.448070 0.868428 0.789804
O O9 0.610605 0.250000 0.591820
O O10 0.451629 0.142062 0.459718
O O11 0.513936 0.861522 0.284354
O O12 0.404389 0.893881 0.937384
O O13 0.320252 0.250000 0.387424
O O14 0.221281 0.100417 0.262016
O O15 0.886602 0.605905 0.698606
O O16 0.000000 0.500000 0.000000
O O17 0.866005 0.750000 0.585214
O O18 0.676055 0.641189 0.254358
O O19 0.468651 0.750000 0.959364
#
# Coordination Sequence:
#
# PCOD9159165 Si02
#       8
#     4   4   4   4   4   4   4   4
#     4   9  18  33  55  82 106 135 181 229 266 312
#     4  11  22  34  53  81 112 141 179 223 274 326
#     4   9  18  33  53  77 108 142 177 220 273 327
#     4  10  19  32  57  83 105 136 182 229 271 314
#     4   9  17  33  56  79 104 142 188 223 259 324
#     4  11  22  33  53  82 113 143 175 227 285 325
#     4  10  20  35  56  79 106 143 185 224 263 323
#     4  11  21  37  59  77 104 149 190 220 259 322
#
# _framework density 17.635138999999999
#
# number of rings (size 3 to 8) (size 9 to 14) (size 15 to 20)
#    0.000    2.000    2.500    3.750    0.000    5.500 
#    0.000    2.500    2.750    0.000    0.000    0.000 
#    0.000    0.000    0.000    0.000    0.000    0.000 
#
# Total GULP energy -178594.071613 kJ/mol
# GULP energy per Si atom -5581.064738 kJ/mol
# Density = 1.759500 g / cm^3
# Si number density = 17.635139 Si / 1000 Ang^3
#
#
#
# Elastic Constant Matrix: (Units=GPa)
#
#
# Indices 1 2 3 4 5 6 
#
# 1 64.3549 11.1636 15.7286 0.0000 9.8312 0.0000
# 2 11.1636 28.3309 8.4142 0.0000 6.9188 0.0000
# 3 15.7286 8.4142 24.3836 0.0000 8.6893 0.0000
# 4 0.0000 0.0000 0.0000 21.7469 0.0000 -0.4888
# 5 9.8312 6.9188 8.6893 0.0000 25.5607 0.0000
# 6 0.0000 0.0000 0.0000 -0.4888 0.0000 17.0165
#
#
#
# Elastic Compliance Matrix: (Units=1/GPa)
#
#
# Indices 1 2 3 4 5 6 
#
# 1 0.019082 -0.003855 -0.009939 0.000000 -0.002917 0.000000
# 2 -0.003855 0.041194 -0.009425 0.000000 -0.006464 0.000000
# 3 -0.009939 -0.009425 0.055076 0.000000 -0.012349 0.000000
# 4 0.000000 0.000000 0.000000 0.046013 0.000000 0.001322
# 5 -0.002917 -0.006464 -0.012349 0.000000 0.046192 0.000000
# 6 0.000000 0.000000 0.000000 0.001322 0.000000 0.058805
#
#
# Mechanical properties :
#
#
# Convention : Reuss Voigt Hill
#
# Bulk Modulus (GPa) = 14.51099 20.85358 17.68229
# Shear Modulus (GPa) = 14.89109 18.31568 16.60338
#
# Velocity S-wave (km/s) = 2.90901 3.22621 3.07171
# Velocity P-wave (km/s) = 4.41921 5.07234 4.75700
#
# Compressibility (1/GPa) = 0.06891330
#
# Stress axis : x y z
#
# Youngs Moduli (GPa) = 52.40425 24.27547 18.15689
#
# Poissons Ratio (x) = 0.09358 0.18047
# Poissons Ratio (y) = 0.20202 0.17113
# Poissons Ratio (z) = 0.52086 0.22880
#
# Static dielectric constant tensor:
#      x y z
#    x 1.599680 0.000000 0.020440 
#    y 0.000000 1.599230 0.000000 
#    z 0.020440 0.000000 1.588550 
# 
# From -- ./inp_files/41711.got.cif
#   From: 2010.05.17/outbox.cif.g08.bks.cpg/sg11_21_cif.got.tgz:41711.got - 2010.06.03 12:22:45.
