data_PCOD9159553
_publ_section_title
;
Structure prediction by ZEFSAII (Michael W. Deem and Ramdas Pophale) SiO2 
 PCOD9159553
Probable space group: P 21/M
;
_chemical_formula_sum "Si O2"
_cell_formula_units_Z 28
_cell_length_a 9.926806
_cell_length_b 9.043819
_cell_length_c 28.148637
_cell_angle_alpha 90.000000
_cell_angle_beta 141.671065
_cell_angle_gamma 90.000000
_cell_volume 1567.231723
_symmetry_space_group_name_H-M "P 21/M"
_symmetry_group_IT_number 11
_symmetry_cell_setting 'monoclinic'
loop_
_space_group_symop_operation_xyz
x,y,z
-x,1/2+y,-z
-x,-y,-z
x,1/2-y,z
loop_
_atom_site_type_symbol
_atom_site_label
_atom_site_fract_x
_atom_site_fract_y
_atom_site_fract_z
Si Si1 0.852202 0.571318 0.499681
Si Si2 0.957766 0.926721 0.191375
Si Si3 0.723065 0.078427 0.047212
Si Si4 0.666745 0.426703 0.191644
Si Si5 0.934592 0.926764 0.630696
Si Si6 0.648217 0.427075 0.631677
Si Si7 0.774075 0.421870 0.948120
O O1 0.865872 0.750000 0.499744
O O2 0.924552 0.527970 0.573060
O O3 0.598156 0.528071 0.425878
O O4 0.000000 0.500000 0.500000
O O5 0.929354 0.750000 0.182021
O O6 0.188440 0.961020 0.279671
O O7 0.915782 0.996780 0.128555
O O8 0.778514 0.997785 0.176794
O O9 0.717410 0.250000 0.060019
O O10 0.743946 0.070760 0.996591
O O11 0.500000 0.000000 0.000000
O O12 0.654789 0.250000 0.181859
O O13 0.429297 0.494934 0.131726
O O14 0.832901 0.458575 0.280699
O O15 0.901051 0.750000 0.623320
O O16 0.751428 0.000589 0.613166
O O17 0.650264 0.250000 0.625403
O O18 0.776777 0.250000 0.934667
O O19 0.000000 0.500000 0.000000
#
# Coordination Sequence:
#
# PCOD9159553 Si02
#       7
#     4   4   4   4   4   4   4
#     4  10  21  38  56  80 115 149 182 223 271 327
#     4  10  19  33  55  84 114 143 183 231 277 324
#     4  11  22  36  58  84 111 145 186 229 276 329
#     4  10  19  34  57  82 112 145 183 230 278 326
#     4   9  19  35  58  85 110 141 184 229 273 324
#     4   9  19  35  57  83 112 143 183 230 271 322
#     4  11  24  40  57  80 111 148 189 230 277 332
#
# _framework density 17.865897
#
# number of rings (size 3 to 8) (size 9 to 14) (size 15 to 20)
#    0.000    2.000    1.429    2.143    0.000    4.000 
#    2.571    0.000    0.000    0.000    0.000    0.000 
#    0.000    0.000    0.000    0.000    0.000    0.000 
#
# Total GULP energy -156308.374335 kJ/mol
# GULP energy per Si atom -5582.441941 kJ/mol
# Density = 1.782523 g / cm^3
# Si number density = 17.865897 Si / 1000 Ang^3
#
#
#
# Elastic Constant Matrix: (Units=GPa)
#
#
# Indices 1 2 3 4 5 6 
#
# 1 92.6152 47.6019 70.9353 0.0000 17.9631 0.0000
# 2 47.6019 76.4402 57.6874 0.0000 8.0151 0.0000
# 3 70.9353 57.6874 132.1293 0.0000 13.8758 0.0000
# 4 0.0000 0.0000 0.0000 26.3687 0.0000 -0.3446
# 5 17.9631 8.0151 13.8758 0.0000 30.5410 0.0000
# 6 0.0000 0.0000 0.0000 -0.3446 0.0000 32.2283
#
#
#
# Elastic Compliance Matrix: (Units=1/GPa)
#
#
# Indices 1 2 3 4 5 6 
#
# 1 0.021848 -0.006805 -0.007977 0.000000 -0.007440 0.000000
# 2 -0.006805 0.021681 -0.005917 0.000000 0.001001 0.000000
# 3 -0.007977 -0.005917 0.014469 0.000000 -0.000329 0.000000
# 4 0.000000 0.000000 0.000000 0.037929 0.000000 0.000406
# 5 -0.007440 0.001001 -0.000329 0.000000 0.037006 0.000000
# 6 0.000000 0.000000 0.000000 0.000406 0.000000 0.031033
#
#
# Mechanical properties :
#
#
# Convention : Reuss Voigt Hill
#
# Bulk Modulus (GPa) = 60.24689 72.62601 66.43645
# Shear Modulus (GPa) = 23.70833 26.15825 24.93329
#
# Velocity S-wave (km/s) = 3.64678 3.83057 3.73980
# Velocity P-wave (km/s) = 7.17822 7.76551 7.47764
#
# Compressibility (1/GPa) = 0.01659837
#
# Stress axis : x y z
#
# Youngs Moduli (GPa) = 45.77168 46.12382 69.11438
#
# Poissons Ratio (x) = 0.31389 0.55130
# Poissons Ratio (y) = 0.31149 0.40898
# Poissons Ratio (z) = 0.36510 0.27293
#
# Static dielectric constant tensor:
#      x y z
#    x 1.578290 0.000000 -0.006580 
#    y 0.000000 1.600150 0.000000 
#    z -0.006580 0.000000 1.634620 
# 
# From -- ./inp_files/28436.got.cif
#   From: 2010.05.17/outbox.cif.g08.bks.cpg/sg11_15_cif.got.tgz:28436.got - 2010.06.03 12:22:45.
