data_PCOD9159574
_publ_section_title
;
Structure prediction by ZEFSAII (Michael W. Deem and Ramdas Pophale) SiO2 
 PCOD9159574
Probable space group: P 21/M
;
_chemical_formula_sum "Si O2"
_cell_formula_units_Z 20
_cell_length_a 8.366202
_cell_length_b 14.496598
_cell_length_c 7.302946
_cell_angle_alpha 90.000000
_cell_angle_beta 79.838016
_cell_angle_gamma 90.000000
_cell_volume 871.817742
_symmetry_space_group_name_H-M "P 21/M"
_symmetry_group_IT_number 11
_symmetry_cell_setting 'monoclinic'
loop_
_space_group_symop_operation_xyz
x,y,z
-x,1/2+y,-z
-x,-y,-z
x,1/2-y,z
loop_
_atom_site_type_symbol
_atom_site_label
_atom_site_fract_x
_atom_site_fract_y
_atom_site_fract_z
Si Si1 0.490157 0.643210 0.918535
Si Si2 0.912350 0.503781 0.318903
Si Si3 0.562122 0.953124 0.274688
Si Si4 0.874194 0.347778 0.859230
Si Si5 0.263530 0.649810 0.519343
O O1 0.539021 0.750000 0.864549
O O2 0.578665 0.606058 0.083978
O O3 0.301026 0.646036 0.014328
O O4 0.494966 0.556587 0.776874
O O5 0.734978 0.551104 0.342162
O O6 0.854552 0.398175 0.309877
O O7 0.000000 0.500000 0.500000
O O8 0.023362 0.559011 0.155828
O O9 0.419749 0.908000 0.423286
O O10 0.953251 0.250000 0.897566
O O11 0.835415 0.341613 0.649451
O O12 0.315280 0.750000 0.573390
#
# Coordination Sequence:
#
# PCOD9159574 Si02
#       5
#     4   4   4   4   4
#     4   9  19  36  56  77 104 140 181 224 266 309
#     4  10  20  33  53  81 110 139 175 218 264 320
#     4  10  19  33  56  80 103 140 182 218 263 316
#     4   8  16  32  52  73 102 141 177 213 264 318
#     4   9  18  34  53  74 106 145 180 216 263 313
#
# _framework density 22.940573000000001
#
# number of rings (size 3 to 8) (size 9 to 14) (size 15 to 20)
#    0.000    2.800    0.000    2.400    0.000    3.200 
#    0.000    1.000    0.000   19.200    0.000    0.000 
#    0.000    0.000    0.000    0.000    0.000    0.000 
#
# Total GULP energy -111358.582349 kJ/mol
# GULP energy per Si atom -5567.929117 kJ/mol
# Density = 2.288836 g / cm^3
# Si number density = 22.940573 Si / 1000 Ang^3
#
#
#
# Elastic Constant Matrix: (Units=GPa)
#
#
# Indices 1 2 3 4 5 6 
#
# 1 89.6868 52.3494 17.0219 0.0000 20.9506 0.0000
# 2 52.3494 203.8069 41.2729 0.0000 -13.2406 0.0000
# 3 17.0219 41.2729 47.0827 0.0000 24.5450 0.0000
# 4 0.0000 0.0000 0.0000 19.8768 0.0000 -11.6676
# 5 20.9506 -13.2406 24.5450 0.0000 39.6606 0.0000
# 6 0.0000 0.0000 0.0000 -11.6676 0.0000 21.3781
#
#
#
# Elastic Compliance Matrix: (Units=1/GPa)
#
#
# Indices 1 2 3 4 5 6 
#
# 1 0.018130 -0.007841 0.009857 0.000000 -0.018295 0.000000
# 2 -0.007841 0.011544 -0.016908 0.000000 0.018460 0.000000
# 3 0.009857 -0.016908 0.056328 0.000000 -0.045712 0.000000
# 4 0.000000 0.000000 0.000000 0.074025 0.000000 0.040401
# 5 -0.018295 0.018460 -0.045712 0.000000 0.069331 0.000000
# 6 0.000000 0.000000 0.000000 0.040401 0.000000 0.068827
#
#
# Mechanical properties :
#
#
# Convention : Reuss Voigt Hill
#
# Bulk Modulus (GPa) = 17.78866 62.42943 40.10904
# Shear Modulus (GPa) = 14.42132 31.51194 22.96663
#
# Velocity S-wave (km/s) = 2.50999 3.71028 3.16751
# Velocity P-wave (km/s) = 4.02133 6.75481 5.55871
#
# Compressibility (1/GPa) = 0.05621560
#
# Stress axis : x y z
#
# Youngs Moduli (GPa) = 55.15784 86.62379 17.75322
#
# Poissons Ratio (x) = 0.67926 -0.17499
# Poissons Ratio (y) = 0.43252 0.30018
# Poissons Ratio (z) = -0.54368 1.46467
#
# Static dielectric constant tensor:
#      x y z
#    x 1.835110 0.000000 0.057140 
#    y 0.000000 1.986840 0.000000 
#    z 0.057140 0.000000 1.894090 
# 
# From -- ./inp_files/12253.got.cif
#   From: 2010.05.17/outbox.cif.g08.bks.cpg/sg11_7_cif.got.tgz:12253.got - 2010.06.03 12:22:45.
