data_PCOD9159309
_publ_section_title
;
Structure prediction by ZEFSAII (Michael W. Deem and Ramdas Pophale) SiO2 
 PCOD9159309
Probable space group: P 21/M
;
_chemical_formula_sum "Si O2"
_cell_formula_units_Z 32
_cell_length_a 14.943285
_cell_length_b 7.883136
_cell_length_c 14.734913
_cell_angle_alpha 90.000000
_cell_angle_beta 106.638740
_cell_angle_gamma 90.000000
_cell_volume 1663.093805
_symmetry_space_group_name_H-M "P 21/M"
_symmetry_group_IT_number 11
_symmetry_cell_setting 'monoclinic'
loop_
_space_group_symop_operation_xyz
x,y,z
-x,1/2+y,-z
-x,-y,-z
x,1/2-y,z
loop_
_atom_site_type_symbol
_atom_site_label
_atom_site_fract_x
_atom_site_fract_y
_atom_site_fract_z
Si Si1 0.688430 0.543911 0.355165
Si Si2 0.298806 0.555683 0.282932
Si Si3 0.497326 0.544216 0.392259
Si Si4 0.118076 0.545591 0.126268
Si Si5 0.209259 0.446736 0.434140
Si Si6 0.181272 0.454163 0.760924
Si Si7 0.912358 0.048620 0.087349
Si Si8 0.995322 0.046673 0.604113
O O1 0.682815 0.750000 0.348881
O O2 0.589093 0.484224 0.364805
O O3 0.763710 0.503818 0.455718
O O4 0.729337 0.484034 0.270643
O O5 0.309038 0.750000 0.254232
O O6 0.402311 0.479098 0.317288
O O7 0.211497 0.478737 0.202281
O O8 0.265429 0.552967 0.377405
O O9 0.500000 0.500000 0.500000
O O10 0.496047 0.750000 0.388352
O O11 0.125114 0.750000 0.127861
O O12 0.017852 0.507674 0.142740
O O13 0.110165 0.481589 0.020221
O O14 0.236225 0.250000 0.430456
O O15 0.099936 0.468825 0.386463
O O16 0.182355 0.250000 0.755764
O O17 0.163759 0.499715 0.859965
O O18 0.088022 0.514040 0.681619
O O19 0.914587 0.250000 0.081854
O O20 0.989936 0.250000 0.611741
O O21 0.000000 0.000000 0.500000
#
# Coordination Sequence:
#
# PCOD9159309 Si02
#       8
#     4   4   4   4   4   4   4   4
#     4   9  18  33  49  68  98 135 169 201 245 297
#     4  10  20  33  52  77 101 132 169 209 259 310
#     4  10  19  33  53  75 100 132 173 213 253 301
#     4   9  19  36  54  75 106 135 163 206 258 309
#     4  11  20  32  48  70 102 137 169 207 249 295
#     4  10  20  35  51  68  98 139 171 202 251 303
#     4  10  20  34  54  79 102 130 170 212 253 300
#     4  11  21  32  46  68  99 135 170 204 244 297
#
# _framework density 19.241247999999999
#
# number of rings (size 3 to 8) (size 9 to 14) (size 15 to 20)
#    0.000    2.000    2.500    1.875    0.000    5.000 
#    0.000    0.625    0.000    0.750    0.000    0.000 
#    0.000    0.000    0.000    0.000    0.000    0.375 
#
# Total GULP energy -178518.711477 kJ/mol
# GULP energy per Si atom -5578.709734 kJ/mol
# Density = 1.919745 g / cm^3
# Si number density = 19.241248 Si / 1000 Ang^3
#
#
#
# Elastic Constant Matrix: (Units=GPa)
#
#
# Indices 1 2 3 4 5 6 
#
# 1 152.4454 8.1512 54.3465 0.0000 -9.0762 0.0000
# 2 8.1512 24.9154 2.8230 0.0000 3.2384 0.0000
# 3 54.3465 2.8230 76.8292 0.0000 -9.2146 0.0000
# 4 0.0000 0.0000 0.0000 19.3053 0.0000 -5.5309
# 5 -9.0762 3.2384 -9.2146 0.0000 31.0312 0.0000
# 6 0.0000 0.0000 0.0000 -5.5309 0.0000 14.5638
#
#
#
# Elastic Compliance Matrix: (Units=1/GPa)
#
#
# Indices 1 2 3 4 5 6 
#
# 1 0.008923 -0.002364 -0.006099 0.000000 0.001045 0.000000
# 2 -0.002364 0.041637 -0.000479 0.000000 -0.005179 0.000000
# 3 -0.006099 -0.000479 0.017773 0.000000 0.003544 0.000000
# 4 0.000000 0.000000 0.000000 0.058123 0.000000 0.022074
# 5 0.001045 -0.005179 0.003544 0.000000 0.034124 0.000000
# 6 0.000000 0.000000 0.000000 0.022074 0.000000 0.077046
#
#
# Mechanical properties :
#
#
# Convention : Reuss Voigt Hill
#
# Bulk Modulus (GPa) = 19.82238 42.75903 31.29070
# Shear Modulus (GPa) = 18.36030 25.57135 21.96582
#
# Velocity S-wave (km/s) = 3.09239 3.64948 3.38242
# Velocity P-wave (km/s) = 4.80363 6.32686 5.61712
#
# Compressibility (1/GPa) = 0.05044802
#
# Stress axis : x y z
#
# Youngs Moduli (GPa) = 112.07226 24.01730 56.26488
#
# Poissons Ratio (x) = 0.05678 0.34319
# Poissons Ratio (y) = 0.26493 0.02694
# Poissons Ratio (z) = 0.68358 0.01150
#
# Static dielectric constant tensor:
#      x y z
#    x 1.695600 0.000000 0.005420 
#    y 0.000000 1.705610 0.000000 
#    z 0.005420 0.000000 1.679900 
# 
# From -- ./inp_files/51373.got.cif
#   From: 2010.05.17/outbox.cif.g08.bks.cpg/sg11_26_cif.got.tgz:51373.got - 2010.06.03 12:22:45.
