data_PCOD9159970
_publ_section_title
;
Structure prediction by ZEFSAII (Michael W. Deem and Ramdas Pophale) SiO2 
 PCOD9159970
Probable space group: P 21/M
;
_chemical_formula_sum "Si O2"
_cell_formula_units_Z 32
_cell_length_a 9.649848
_cell_length_b 14.288338
_cell_length_c 22.698822
_cell_angle_alpha 90.000000
_cell_angle_beta 33.696217
_cell_angle_gamma 90.000000
_cell_volume 1736.335868
_symmetry_space_group_name_H-M "P 21/M"
_symmetry_group_IT_number 11
_symmetry_cell_setting 'monoclinic'
loop_
_space_group_symop_operation_xyz
x,y,z
-x,1/2+y,-z
-x,-y,-z
x,1/2-y,z
loop_
_atom_site_type_symbol
_atom_site_label
_atom_site_fract_x
_atom_site_fract_y
_atom_site_fract_z
Si Si1 0.912000 0.639154 0.498056
Si Si2 0.886948 0.854712 0.140473
Si Si3 0.847554 0.357456 0.235784
Si Si4 0.401699 0.645754 0.386219
Si Si5 0.452102 0.472850 0.450053
Si Si6 0.297343 0.023335 0.894277
Si Si7 0.540867 0.858454 0.734031
Si Si8 0.721611 0.517817 0.966683
O O1 0.872408 0.750000 0.505380
O O2 0.780576 0.590840 0.489140
O O3 0.773715 0.614167 0.609184
O O4 0.202885 0.620019 0.405641
O O5 0.982633 0.750000 0.095095
O O6 0.683761 0.852823 0.263875
O O7 0.718484 0.891047 0.145477
O O8 0.105067 0.926486 0.081219
O O9 0.872579 0.250000 0.246952
O O10 0.692610 0.420188 0.336838
O O11 0.683236 0.357370 0.234199
O O12 0.103083 0.405151 0.125844
O O13 0.329935 0.750000 0.431381
O O14 0.393822 0.569581 0.438601
O O15 0.500000 0.500000 0.500000
O O16 0.458171 0.936469 0.810963
O O17 0.370110 0.046361 0.935410
O O18 0.000000 0.000000 0.000000
O O19 0.573404 0.750000 0.743900
O O20 0.500000 0.500000 0.000000
#
# Coordination Sequence:
#
# PCOD9159970 Si02
#       8
#     4   4   4   4   4   4   4   4
#     4   9  19  36  59  88 117 154 201 245 290 349
#     4  10  20  38  61  84 115 152 193 241 295 353
#     4  10  20  39  62  83 113 154 197 241 293 351
#     4  10  20  37  59  84 119 155 195 242 292 352
#     4  11  21  36  59  87 119 158 191 238 297 354
#     4  10  19  34  56  86 111 146 197 240 284 345
#     4   9  16  32  60  86 113 146 192 246 291 335
#     4  11  23  41  59  83 120 157 196 243 299 358
#
# _framework density 18.429613
#
# number of rings (size 3 to 8) (size 9 to 14) (size 15 to 20)
#    0.000    2.000    3.750    2.250    0.000    4.000 
#    4.500    0.000    0.000    0.000    0.000    0.000 
#    0.000    0.000    0.000    0.000    0.000    0.000 
#
# Total GULP energy -178263.013428 kJ/mol
# GULP energy per Si atom -5570.719170 kJ/mol
# Density = 1.838767 g / cm^3
# Si number density = 18.429613 Si / 1000 Ang^3
#
#
#
# Elastic Constant Matrix: (Units=GPa)
#
#
# Indices 1 2 3 4 5 6 
#
# 1 115.6108 58.9868 36.8391 0.0000 15.2898 0.0000
# 2 58.9868 117.7728 28.9664 0.0000 8.9578 0.0000
# 3 36.8391 28.9664 42.2706 0.0000 -2.6665 0.0000
# 4 0.0000 0.0000 0.0000 15.1292 0.0000 -12.2420
# 5 15.2898 8.9578 -2.6665 0.0000 24.0445 0.0000
# 6 0.0000 0.0000 0.0000 -12.2420 0.0000 5.9943
#
#
#
# Elastic Compliance Matrix: (Units=1/GPa)
#
#
# Indices 1 2 3 4 5 6 
#
# 1 0.015781 -0.004373 -0.011367 0.000000 -0.009667 0.000000
# 2 -0.004373 0.011959 -0.004521 0.000000 -0.002176 0.000000
# 3 -0.011367 -0.004521 0.037485 0.000000 0.013069 0.000000
# 4 0.000000 0.000000 0.000000 -0.101294 0.000000 -0.206869
# 5 -0.009667 -0.002176 0.013069 0.000000 0.049996 0.000000
# 6 0.000000 0.000000 0.000000 -0.206869 0.000000 -0.255658
#
#
# Mechanical properties :
#
#
# Convention : Reuss Voigt Hill
#
# Bulk Modulus (GPa) = 40.47858 58.35989 49.41924
# Shear Modulus (GPa) = -25.91020 19.09106 -3.40957
#
# Velocity S-wave (km/s) = -3.75360 3.22202 -1.36164
# Velocity P-wave (km/s) = 1.79598 6.75107 4.93976
#
# Compressibility (1/GPa) = 0.02470442
#
# Stress axis : x y z
#
# Youngs Moduli (GPa) = 63.36573 83.62151 26.67704
#
# Poissons Ratio (x) = 0.36570 0.30323
# Poissons Ratio (y) = 0.27712 0.12060
# Poissons Ratio (z) = 0.72025 0.37803
#
# Static dielectric constant tensor:
#      x y z
#    x 1.627540 0.000000 -0.005520 
#    y 0.000000 1.690680 0.000000 
#    z -0.005520 0.000000 1.710520 
# 
# From -- ./inp_files/63797.got.cif
#   From: 2010.05.17/outbox.cif.g08.bks.cpg/sg11_32_cif.got.tgz:63797.got - 2010.06.03 12:22:45.
