data_PCOD9159633
_publ_section_title
;
Structure prediction by ZEFSAII (Michael W. Deem and Ramdas Pophale) SiO2 
 PCOD9159633
Probable space group: P 21/M
;
_chemical_formula_sum "Si O2"
_cell_formula_units_Z 28
_cell_length_a 31.663748
_cell_length_b 8.829667
_cell_length_c 10.465870
_cell_angle_alpha 90.000000
_cell_angle_beta 32.582832
_cell_angle_gamma 90.000000
_cell_volume 1575.732424
_symmetry_space_group_name_H-M "P 21/M"
_symmetry_group_IT_number 11
_symmetry_cell_setting 'monoclinic'
loop_
_space_group_symop_operation_xyz
x,y,z
-x,1/2+y,-z
-x,-y,-z
x,1/2-y,z
loop_
_atom_site_type_symbol
_atom_site_label
_atom_site_fract_x
_atom_site_fract_y
_atom_site_fract_z
Si Si1 0.591156 0.430786 0.627007
Si Si2 0.008674 0.569052 0.836421
Si Si3 0.164306 0.068232 0.811345
Si Si4 0.169830 0.431844 0.328731
Si Si5 0.247175 0.067666 0.864271
Si Si6 0.262427 0.931561 0.327987
Si Si7 0.425586 0.568080 0.032301
O O1 0.592858 0.250000 0.615203
O O2 0.666219 0.499096 0.365986
O O3 0.594634 0.474523 0.769034
O O4 0.508105 0.492267 0.788841
O O5 0.017775 0.750000 0.823722
O O6 0.084541 0.499396 0.575916
O O7 0.000000 0.500000 0.000000
O O8 0.928007 0.536776 0.967203
O O9 0.174846 0.250000 0.768716
O O10 0.199596 0.023277 0.858045
O O11 0.210234 0.985232 0.580921
O O12 0.165656 0.250000 0.345773
O O13 0.228102 0.491756 0.289555
O O14 0.202135 0.477421 0.107604
O O15 0.253384 0.250000 0.848355
O O16 0.257635 0.750000 0.329129
O O17 0.352234 0.973808 0.130989
O O18 0.434574 0.750000 0.006405
#
# Coordination Sequence:
#
# PCOD9159633 Si02
#       7
#     4   4   4   4   4   4   4
#     4  10  19  33  56  86 116 148 188 235 285 337
#     4  11  22  37  59  87 116 148 192 240 287 338
#     4  10  21  37  60  85 112 149 192 236 285 340
#     4  11  24  40  58  83 117 156 193 233 287 344
#     4  10  22  40  59  82 117 156 191 234 288 341
#     4  11  21  36  59  87 115 148 192 239 284 336
#     4   9  19  34  54  85 117 146 186 235 286 338
#
# _framework density 17.769515999999999
#
# number of rings (size 3 to 8) (size 9 to 14) (size 15 to 20)
#    0.000    1.714    2.857    1.714    0.000    4.000 
#    0.000    0.714    0.000    0.000    0.000    0.000 
#    0.000    0.000    0.000    0.000    0.000    0.000 
#
# Total GULP energy -156397.042827 kJ/mol
# GULP energy per Si atom -5585.608672 kJ/mol
# Density = 1.772907 g / cm^3
# Si number density = 17.769516 Si / 1000 Ang^3
#
#
#
# Elastic Constant Matrix: (Units=GPa)
#
#
# Indices 1 2 3 4 5 6 
#
# 1 107.4080 39.6031 68.8171 0.0000 -9.3634 0.0000
# 2 39.6031 37.0577 46.1815 0.0000 -5.0213 0.0000
# 3 68.8171 46.1815 146.5172 0.0000 -8.4288 0.0000
# 4 0.0000 0.0000 0.0000 28.9307 0.0000 -8.3142
# 5 -9.3634 -5.0213 -8.4288 0.0000 33.5700 0.0000
# 6 0.0000 0.0000 0.0000 -8.3142 0.0000 17.8249
#
#
#
# Elastic Compliance Matrix: (Units=1/GPa)
#
#
# Indices 1 2 3 4 5 6 
#
# 1 0.016543 -0.012983 -0.003576 0.000000 0.001774 0.000000
# 2 -0.012983 0.054966 -0.011123 0.000000 0.001808 0.000000
# 3 -0.003576 -0.011123 0.012031 0.000000 0.000360 0.000000
# 4 0.000000 0.000000 0.000000 0.039916 0.000000 0.018618
# 5 0.001774 0.001808 0.000360 0.000000 0.030644 0.000000
# 6 0.000000 0.000000 0.000000 0.018618 0.000000 0.064785
#
#
# Mechanical properties :
#
#
# Convention : Reuss Voigt Hill
#
# Bulk Modulus (GPa) = 35.48996 66.68737 51.08866
# Shear Modulus (GPa) = 17.62785 25.15718 21.39252
#
# Velocity S-wave (km/s) = 3.15306 3.76673 3.47347
# Velocity P-wave (km/s) = 5.76814 7.51852 6.70073
#
# Compressibility (1/GPa) = 0.02817698
#
# Stress axis : x y z
#
# Youngs Moduli (GPa) = 60.44867 18.19300 83.11573
#
# Poissons Ratio (x) = 0.23619 0.29721
# Poissons Ratio (y) = 0.78478 0.92453
# Poissons Ratio (z) = 0.21616 0.20237
#
# Static dielectric constant tensor:
#      x y z
#    x 1.599890 0.000000 -0.007210 
#    y 0.000000 1.592920 0.000000 
#    z -0.007210 0.000000 1.576480 
# 
# From -- ./inp_files/28391.got.cif
#   From: 2010.05.17/outbox.cif.g08.bks.cpg/sg11_15_cif.got.tgz:28391.got - 2010.06.03 12:22:45.
