data_PCOD9159002
_publ_section_title
;
Structure prediction by ZEFSAII (Michael W. Deem and Ramdas Pophale) SiO2 
 PCOD9159002
Probable space group: P 21/M
;
_chemical_formula_sum "Si O2"
_cell_formula_units_Z 32
_cell_length_a 23.652185
_cell_length_b 8.080998
_cell_length_c 12.618462
_cell_angle_alpha 90.000000
_cell_angle_beta 133.594151
_cell_angle_gamma 90.000000
_cell_volume 1746.733106
_symmetry_space_group_name_H-M "P 21/M"
_symmetry_group_IT_number 11
_symmetry_cell_setting 'monoclinic'
loop_
_space_group_symop_operation_xyz
x,y,z
-x,1/2+y,-z
-x,-y,-z
x,1/2-y,z
loop_
_atom_site_type_symbol
_atom_site_label
_atom_site_fract_x
_atom_site_fract_y
_atom_site_fract_z
Si Si1 0.783861 0.444709 0.048679
Si Si2 0.006675 0.951068 0.178802
Si Si3 0.159873 0.054317 0.106844
Si Si4 0.481590 0.052378 0.855655
Si Si5 0.315138 0.552121 0.682223
Si Si6 0.820592 0.052698 0.644373
Si Si7 0.650305 0.452831 0.032695
Si Si8 0.052800 0.052909 0.665705
O O1 0.772990 0.250000 0.017407
O O2 0.710511 0.509312 0.021030
O O3 0.862062 0.471748 0.218951
O O4 0.800236 0.522790 0.955055
O O5 0.006711 0.750000 0.168838
O O6 0.091496 0.014805 0.256393
O O7 0.990422 0.990351 0.280527
O O8 0.929651 0.012357 0.017634
O O9 0.155953 0.250000 0.117822
O O10 0.201559 0.978251 0.262447
O O11 0.476933 0.250000 0.843346
O O12 0.395803 0.982583 0.724228
O O13 0.560140 0.997965 0.896519
O O14 0.500000 0.000000 0.000000
O O15 0.307118 0.750000 0.679887
O O16 0.241612 0.486240 0.520911
O O17 0.324057 0.491296 0.815463
O O18 0.824735 0.250000 0.632867
O O19 0.652090 0.250000 0.036785
O O20 0.063993 0.250000 0.679221
O O21 0.000000 0.000000 0.500000
#
# Coordination Sequence:
#
# PCOD9159002 Si02
#       8
#     4   4   4   4   4   4   4   4
#     4  10  19  33  54  74  95 129 172 207 244 294
#     4   8  17  32  50  69  92 129 171 209 246 286
#     4  10  20  35  50  70 102 131 166 213 256 292
#     4   9  16  30  50  72 101 132 162 195 243 299
#     4   9  18  31  49  76 105 129 161 202 249 299
#     4  10  19  32  53  74  95 130 172 208 245 297
#     4   8  16  30  51  76  99 129 164 198 240 299
#     4  10  20  33  48  70 102 136 167 202 249 293
#
# _framework density 18.319913
#
# number of rings (size 3 to 8) (size 9 to 14) (size 15 to 20)
#    0.000    2.750    0.000    3.375    1.750    0.500 
#    0.000    9.375    0.000    0.750    0.000    0.000 
#    0.000    0.000    0.000    0.000    0.000    0.000 
#
# Total GULP energy -178323.914383 kJ/mol
# GULP energy per Si atom -5572.622324 kJ/mol
# Density = 1.827822 g / cm^3
# Si number density = 18.319913 Si / 1000 Ang^3
#
#
#
# Elastic Constant Matrix: (Units=GPa)
#
#
# Indices 1 2 3 4 5 6 
#
# 1 109.3020 -2.5248 37.0370 0.0000 22.2971 0.0000
# 2 -2.5248 13.7678 3.1405 0.0000 1.1759 0.0000
# 3 37.0370 3.1405 64.6432 0.0000 3.3710 0.0000
# 4 0.0000 0.0000 0.0000 19.2314 0.0000 1.9734
# 5 22.2971 1.1759 3.3710 0.0000 14.4280 0.0000
# 6 0.0000 0.0000 0.0000 1.9734 0.0000 18.5498
#
#
#
# Elastic Compliance Matrix: (Units=1/GPa)
#
#
# Indices 1 2 3 4 5 6 
#
# 1 0.017692 0.007538 -0.009157 0.000000 -0.025817 0.000000
# 2 0.007538 0.077049 -0.007215 0.000000 -0.016244 0.000000
# 3 -0.009157 -0.007215 0.020548 0.000000 0.009938 0.000000
# 4 0.000000 0.000000 0.000000 0.052572 0.000000 -0.005593
# 5 -0.025817 -0.016244 0.009938 0.000000 0.108209 0.000000
# 6 0.000000 0.000000 0.000000 -0.005593 0.000000 0.054504
#
#
# Mechanical properties :
#
#
# Convention : Reuss Voigt Hill
#
# Bulk Modulus (GPa) = 10.24354 29.22425 19.73390
# Shear Modulus (GPa) = 13.13088 20.44589 16.78838
#
# Velocity S-wave (km/s) = 2.68013 3.34435 3.03050
# Velocity P-wave (km/s) = 3.89629 5.55875 4.80004
#
# Compressibility (1/GPa) = 0.09762247
#
# Stress axis : x y z
#
# Youngs Moduli (GPa) = 56.52175 12.97874 48.66641
#
# Poissons Ratio (x) = -0.09784 0.44562
# Poissons Ratio (y) = -0.42607 0.35113
# Poissons Ratio (z) = 0.51755 0.09364
#
# Static dielectric constant tensor:
#      x y z
#    x 1.653480 0.000000 0.018780 
#    y 0.000000 1.667390 0.000000 
#    z 0.018780 0.000000 1.628190 
# 
# From -- ./inp_files/42860.got.cif
#   From: 2010.05.17/outbox.cif.g08.bks.cpg/sg11_22_cif.got.tgz:42860.got - 2010.06.03 12:22:45.
