data_PCOD9159685
_publ_section_title
;
Structure prediction by ZEFSAII (Michael W. Deem and Ramdas Pophale) SiO2 
 PCOD9159685
Probable space group: P 21/M
;
_chemical_formula_sum "Si O2"
_cell_formula_units_Z 22
_cell_length_a 23.084584
_cell_length_b 10.844411
_cell_length_c 11.710388
_cell_angle_alpha 90.000000
_cell_angle_beta 19.091422
_cell_angle_gamma 90.000000
_cell_volume 958.845304
_symmetry_space_group_name_H-M "P 21/M"
_symmetry_group_IT_number 11
_symmetry_cell_setting 'monoclinic'
loop_
_space_group_symop_operation_xyz
x,y,z
-x,1/2+y,-z
-x,-y,-z
x,1/2-y,z
loop_
_atom_site_type_symbol
_atom_site_label
_atom_site_fract_x
_atom_site_fract_y
_atom_site_fract_z
Si Si1 0.958826 0.250000 0.287904
Si Si2 0.350455 0.750000 0.585955
Si Si3 0.236031 0.250000 0.200632
Si Si4 0.397604 0.022817 0.497799
Si Si5 0.704070 0.750000 0.178906
Si Si6 0.193393 0.750000 0.654751
Si Si7 0.236253 0.013315 0.314648
Si Si8 0.787403 0.984038 0.391778
O O1 0.971606 0.250000 0.124646
O O2 0.860335 0.380858 0.495447
O O3 0.122798 0.250000 0.065271
O O4 0.552928 0.750000 0.155441
O O5 0.345717 0.611811 0.644656
O O6 0.184728 0.750000 0.806565
O O7 0.249324 0.250000 0.039801
O O8 0.147148 0.124939 0.411128
O O9 0.396299 0.126950 0.595477
O O10 0.271241 0.058378 0.624318
O O11 0.585912 0.014281 0.085641
O O12 0.292962 0.622845 0.447978
O O13 0.264260 0.070072 0.389901
O O14 0.000000 0.000000 0.000000
#
# Coordination Sequence:
#
# PCOD9159685 Si02
#       8
#     2   2   2   4   2   2   4   4
#     4  10  21  39  59  86 119 156 198 248 305 364
#     4   8  18  36  58  85 116 150 193 245 295 351
#     4  10  24  41  59  87 122 160 207 254 296 356
#     4  10  20  37  61  89 119 160 202 249 306 360
#     4  12  25  40  59  87 124 162 209 255 297 355
#     4   8  16  32  53  79 115 148 185 240 293 348
#     4  10  21  39  62  88 122 159 201 250 306 367
#     4  10  19  33  57  90 126 156 192 245 307 371
#
# _framework density 22.944262999999999
#
# number of rings (size 3 to 8) (size 9 to 14) (size 15 to 20)
#    0.000    2.182    0.000    3.273    0.000    6.545 
#    0.000    5.455    0.000    2.182    0.000    0.000 
#    0.000    0.000    0.000    0.000    0.000    0.000 
#
# Total GULP energy -122475.055828 kJ/mol
# GULP energy per Si atom -5567.047992 kJ/mol
# Density = 2.289204 g / cm^3
# Si number density = 22.944263 Si / 1000 Ang^3
#
#
#
# Elastic Constant Matrix: (Units=GPa)
#
#
# Indices 1 2 3 4 5 6 
#
# 1 107.5775 53.5608 17.4062 0.0000 17.1160 0.0000
# 2 53.5608 165.7012 28.3322 0.0000 28.3896 0.0000
# 3 17.4062 28.3322 42.2469 0.0000 -3.3373 0.0000
# 4 0.0000 0.0000 0.0000 -0.0797 0.0000 -20.4293
# 5 17.1160 28.3896 -3.3373 0.0000 35.7275 0.0000
# 6 0.0000 0.0000 0.0000 -20.4293 0.0000 -8.6320
#
#
#
# Elastic Compliance Matrix: (Units=1/GPa)
#
#
# Indices 1 2 3 4 5 6 
#
# 1 0.011740 -0.002530 -0.003451 0.000000 -0.003936 0.000000
# 2 -0.002530 0.008861 -0.005401 0.000000 -0.006334 0.000000
# 3 -0.003451 -0.005401 0.029400 0.000000 0.008691 0.000000
# 4 0.000000 0.000000 0.000000 0.020717 0.000000 -0.049030
# 5 -0.003936 -0.006334 0.008691 0.000000 0.035720 0.000000
# 6 0.000000 0.000000 0.000000 -0.049030 0.000000 0.000191
#
#
# Mechanical properties :
#
#
# Convention : Reuss Voigt Hill
#
# Bulk Modulus (GPa) = 36.71321 57.12487 46.91904
# Shear Modulus (GPa) = 36.10810 19.81825 27.96318
#
# Velocity S-wave (km/s) = 3.97133 2.94216 3.49484
# Velocity P-wave (km/s) = 6.08805 6.04095 6.06455
#
# Compressibility (1/GPa) = 0.02723816
#
# Stress axis : x y z
#
# Youngs Moduli (GPa) = 85.17835 112.84857 34.01304
#
# Poissons Ratio (x) = 0.28555 0.11738
# Poissons Ratio (y) = 0.21554 0.18369
# Poissons Ratio (z) = 0.29395 0.60944
#
# Static dielectric constant tensor:
#      x y z
#    x 1.902350 0.000000 -0.037900 
#    y 0.000000 2.022400 0.000000 
#    z -0.037900 0.000000 1.864750 
# 
# From -- ./inp_files/44186.got.cif
#   From: 2010.05.17/outbox.cif.g08.bks.cpg/sg11_23_cif.got.tgz:44186.got - 2010.06.03 12:22:45.
