data_PCOD9159082
_publ_section_title
;
Structure prediction by ZEFSAII (Michael W. Deem and Ramdas Pophale) SiO2 
 PCOD9159082
Probable space group: P 21/M
;
_chemical_formula_sum "Si O2"
_cell_formula_units_Z 30
_cell_length_a 16.608111
_cell_length_b 9.518121
_cell_length_c 13.818217
_cell_angle_alpha 90.000000
_cell_angle_beta 36.036357
_cell_angle_gamma 90.000000
_cell_volume 1285.053492
_symmetry_space_group_name_H-M "P 21/M"
_symmetry_group_IT_number 11
_symmetry_cell_setting 'monoclinic'
loop_
_space_group_symop_operation_xyz
x,y,z
-x,1/2+y,-z
-x,-y,-z
x,1/2-y,z
loop_
_atom_site_type_symbol
_atom_site_label
_atom_site_fract_x
_atom_site_fract_y
_atom_site_fract_z
Si Si1 0.505335 0.413689 0.706815
Si Si2 0.250804 0.587167 0.921599
Si Si3 0.453135 0.250000 0.065032
Si Si4 0.022163 0.582297 0.376808
Si Si5 0.679479 0.466668 0.877113
Si Si6 0.038125 0.081078 0.864072
Si Si7 0.771441 0.411397 0.568730
Si Si8 0.292112 0.588676 0.650017
O O1 0.482255 0.250000 0.749001
O O2 0.366300 0.494906 0.858880
O O3 0.635796 0.456273 0.643648
O O4 0.561043 0.428444 0.542777
O O5 0.266192 0.750000 0.932307
O O6 0.285032 0.573722 0.772276
O O7 0.089904 0.550621 0.081575
O O8 0.548372 0.371780 0.025720
O O9 0.365512 0.373901 0.094175
O O10 0.001653 0.750000 0.405556
O O11 0.181313 0.555616 0.197182
O O12 0.000000 0.500000 0.500000
O O13 0.899604 0.514996 0.433590
O O14 0.725344 0.411072 0.725544
O O15 0.042780 0.250000 0.871674
O O16 0.186942 0.017548 0.701010
O O17 0.000000 0.000000 0.000000
O O18 0.806511 0.250000 0.508095
O O19 0.248615 0.750000 0.671505
#
# Coordination Sequence:
#
# PCOD9159082 Si02
#       8
#     4   4   2   4   4   4   4   4
#     4  10  21  35  53  75 106 143 180 221 266 318
#     4   9  18  32  51  78 104 134 177 225 269 318
#     4  10  20  32  58  82 110 136 164 216 256 304
#     4  10  19  32  54  80 102 132 174 216 252 306
#     4  10  19  35  55  83 107 134 175 210 259 307
#     4   9  17  30  51  76 102 130 167 215 267 316
#     4  10  21  36  54  75 107 139 179 222 265 313
#     4   9  18  33  53  77 105 135 180 227 266 314
#
# _framework density 23.345331999999999
#
# number of rings (size 3 to 8) (size 9 to 14) (size 15 to 20)
#    0.000    2.400    1.333    2.800    4.667    3.733 
#    0.000    0.000    5.867    0.000    0.000    0.000 
#    0.000    0.000    0.000    0.000    0.000    0.000 
#
# Total GULP energy -167126.260200 kJ/mol
# GULP energy per Si atom -5570.875340 kJ/mol
# Density = 2.329220 g / cm^3
# Si number density = 23.345332 Si / 1000 Ang^3
#
#
#
# Elastic Constant Matrix: (Units=GPa)
#
#
# Indices 1 2 3 4 5 6 
#
# 1 81.6937 50.2187 32.2479 0.0000 -28.5241 0.0000
# 2 50.2187 176.2258 94.1670 0.0000 -51.0457 0.0000
# 3 32.2479 94.1670 123.1172 0.0000 -27.9420 0.0000
# 4 0.0000 0.0000 0.0000 42.0658 0.0000 -20.3987
# 5 -28.5241 -51.0457 -27.9420 0.0000 55.5034 0.0000
# 6 0.0000 0.0000 0.0000 -20.3987 0.0000 22.1907
#
#
#
# Elastic Compliance Matrix: (Units=1/GPa)
#
#
# Indices 1 2 3 4 5 6 
#
# 1 0.016073 -0.002376 -0.001145 0.000000 0.005499 0.000000
# 2 -0.002376 0.011940 -0.007107 0.000000 0.006182 0.000000
# 3 -0.001145 -0.007107 0.013820 0.000000 -0.000167 0.000000
# 4 0.000000 0.000000 0.000000 0.042892 0.000000 0.039428
# 5 0.005499 0.006182 -0.000167 0.000000 0.026444 0.000000
# 6 0.000000 0.000000 0.000000 0.039428 0.000000 0.081309
#
#
# Mechanical properties :
#
#
# Convention : Reuss Voigt Hill
#
# Bulk Modulus (GPa) = 48.59560 81.58932 65.09246
# Shear Modulus (GPa) = 22.66617 37.57883 30.12250
#
# Velocity S-wave (km/s) = 3.11932 4.01645 3.59597
# Velocity P-wave (km/s) = 5.81676 7.51890 6.72193
#
# Compressibility (1/GPa) = 0.02057800
#
# Stress axis : x y z
#
# Youngs Moduli (GPa) = 62.21531 83.75247 72.35830
#
# Poissons Ratio (x) = 0.19897 0.08285
# Poissons Ratio (y) = 0.14781 0.51425
# Poissons Ratio (z) = 0.07123 0.59523
#
# Static dielectric constant tensor:
#      x y z
#    x 1.998920 0.000000 0.056290 
#    y 0.000000 1.802940 0.000000 
#    z 0.056290 0.000000 1.933320 
# 
# From -- ./inp_files/61388.got.cif
#   From: 2010.05.17/outbox.cif.g08.bks.cpg/sg11_31_cif.got.tgz:61388.got - 2010.06.03 12:22:45.
