data_PCOD9159006
_publ_section_title
;
Structure prediction by ZEFSAII (Michael W. Deem and Ramdas Pophale) SiO2 
 PCOD9159006
Probable space group: P 21/M
;
_chemical_formula_sum "Si O2"
_cell_formula_units_Z 32
_cell_length_a 22.675621
_cell_length_b 8.109172
_cell_length_c 12.547397
_cell_angle_alpha 90.000000
_cell_angle_beta 133.142437
_cell_angle_gamma 90.000000
_cell_volume 1683.478206
_symmetry_space_group_name_H-M "P 21/M"
_symmetry_group_IT_number 11
_symmetry_cell_setting 'monoclinic'
loop_
_space_group_symop_operation_xyz
x,y,z
-x,1/2+y,-z
-x,-y,-z
x,1/2-y,z
loop_
_atom_site_type_symbol
_atom_site_label
_atom_site_fract_x
_atom_site_fract_y
_atom_site_fract_z
Si Si1 0.846452 0.941070 0.423459
Si Si2 0.947464 0.558863 0.836695
Si Si3 0.215916 0.550503 0.262395
Si Si4 0.281015 0.556904 0.898844
Si Si5 0.987397 0.563644 0.297830
Si Si6 0.808404 0.050988 0.011370
Si Si7 0.592486 0.449006 0.113594
Si Si8 0.721668 0.448847 0.444896
O O1 0.835135 0.750000 0.385477
O O2 0.797279 0.042296 0.274535
O O3 0.942069 0.978156 0.545757
O O4 0.799211 0.978807 0.476366
O O5 0.962975 0.750000 0.826968
O O6 0.858706 0.532952 0.770565
O O7 0.971185 0.446604 0.767230
O O8 0.000000 0.500000 0.000000
O O9 0.205599 0.750000 0.247734
O O10 0.284206 0.514180 0.436046
O O11 0.212776 0.495449 0.135308
O O12 0.298078 0.750000 0.936580
O O13 0.255456 0.485417 0.980889
O O14 0.356160 0.487232 0.924712
O O15 0.978151 0.750000 0.324050
O O16 0.898211 0.492307 0.165269
O O17 0.804926 0.250000 0.005465
O O18 0.595779 0.250000 0.115421
O O19 0.643497 0.501785 0.280697
O O20 0.500000 0.500000 0.000000
O O21 0.730117 0.250000 0.446054
#
# Coordination Sequence:
#
# PCOD9159006 Si02
#       8
#     4   4   4   4   4   4   4   4
#     4  11  21  33  52  76 102 137 184 230 271 316
#     4  12  22  32  47  71 102 140 186 234 272 307
#     4  10  19  32  53  76 102 138 178 222 268 313
#     4   9  20  39  57  76 106 139 172 216 269 323
#     4  12  23  34  49  71 104 144 184 230 275 313
#     4  10  21  36  54  75 101 139 186 225 262 317
#     4   9  18  34  58  85 108 133 165 207 263 323
#     4   9  18  33  53  79 110 137 167 214 272 318
#
# _framework density 19.008265999999999
#
# number of rings (size 3 to 8) (size 9 to 14) (size 15 to 20)
#    0.000    1.750    2.500    4.125    0.000    3.000 
#    0.000    0.000    0.000    0.750    0.000    0.000 
#    0.000    0.000    0.000    0.000    0.000    0.500 
#
# Total GULP energy -178363.260536 kJ/mol
# GULP energy per Si atom -5573.851892 kJ/mol
# Density = 1.896500 g / cm^3
# Si number density = 19.008266 Si / 1000 Ang^3
#
#
#
# Elastic Constant Matrix: (Units=GPa)
#
#
# Indices 1 2 3 4 5 6 
#
# 1 108.8457 5.8047 63.6606 0.0000 -0.1602 0.0000
# 2 5.8047 21.4982 1.9986 0.0000 4.2935 0.0000
# 3 63.6606 1.9986 83.2291 0.0000 13.1143 0.0000
# 4 0.0000 0.0000 0.0000 15.0104 0.0000 6.7716
# 5 -0.1602 4.2935 13.1143 0.0000 21.0100 0.0000
# 6 0.0000 0.0000 0.0000 6.7716 0.0000 15.1287
#
#
#
# Elastic Compliance Matrix: (Units=1/GPa)
#
#
# Indices 1 2 3 4 5 6 
#
# 1 0.018985 -0.005909 -0.016184 0.000000 0.011454 0.000000
# 2 -0.005909 0.050348 0.005478 0.000000 -0.013753 0.000000
# 3 -0.016184 0.005478 0.027126 0.000000 -0.018175 0.000000
# 4 0.000000 0.000000 0.000000 0.083476 0.000000 -0.037364
# 5 0.011454 -0.013753 -0.018175 0.000000 0.061839 0.000000
# 6 0.000000 0.000000 0.000000 -0.037364 0.000000 0.082824
#
#
# Mechanical properties :
#
#
# Convention : Reuss Voigt Hill
#
# Bulk Modulus (GPa) = 15.81561 39.61118 27.71340
# Shear Modulus (GPa) = 13.19588 19.70375 16.44981
#
# Velocity S-wave (km/s) = 2.63766 3.22310 2.94496
# Velocity P-wave (km/s) = 4.19700 5.89367 5.11616
#
# Compressibility (1/GPa) = 0.06322868
#
# Stress axis : x y z
#
# Youngs Moduli (GPa) = 52.67324 19.86158 36.86457
#
# Poissons Ratio (x) = 0.11736 0.59662
# Poissons Ratio (y) = 0.31125 -0.20194
# Poissons Ratio (z) = 0.85248 -0.10880
#
# Static dielectric constant tensor:
#      x y z
#    x 1.666440 0.000000 -0.038440 
#    y 0.000000 1.681950 0.000000 
#    z -0.038440 0.000000 1.704180 
# 
# From -- ./inp_files/42953.got.cif
#   From: 2010.05.17/outbox.cif.g08.bks.cpg/sg11_22_cif.got.tgz:42953.got - 2010.06.03 12:22:45.
