data_PCOD9159943
_publ_section_title
;
Structure prediction by ZEFSAII (Michael W. Deem and Ramdas Pophale) SiO2 
 PCOD9159943
Probable space group: P 21/M
;
_chemical_formula_sum "Si O2"
_cell_formula_units_Z 32
_cell_length_a 28.990810
_cell_length_b 7.714129
_cell_length_c 12.075011
_cell_angle_alpha 90.000000
_cell_angle_beta 148.765190
_cell_angle_gamma 90.000000
_cell_volume 1400.304757
_symmetry_space_group_name_H-M "P 21/M"
_symmetry_group_IT_number 11
_symmetry_cell_setting 'monoclinic'
loop_
_space_group_symop_operation_xyz
x,y,z
-x,1/2+y,-z
-x,-y,-z
x,1/2-y,z
loop_
_atom_site_type_symbol
_atom_site_label
_atom_site_fract_x
_atom_site_fract_y
_atom_site_fract_z
Si Si1 0.649056 0.036953 0.087784
Si Si2 0.706426 0.449762 0.437135
Si Si3 0.143651 0.961652 0.846988
Si Si4 0.832057 0.458741 0.352493
Si Si5 0.515033 0.542706 0.401822
Si Si6 0.024605 0.544961 0.791456
Si Si7 0.300076 0.953649 0.329143
Si Si8 0.098633 0.444353 0.165072
O O1 0.649210 0.250000 0.089464
O O2 0.652509 0.975934 0.222264
O O3 0.741011 0.980108 0.219526
O O4 0.566423 0.982052 0.842930
O O5 0.677812 0.250000 0.387467
O O6 0.696230 0.529377 0.538743
O O7 0.811790 0.453121 0.622789
O O8 0.145673 0.750000 0.845076
O O9 0.155818 0.025623 0.747785
O O10 0.054417 0.010549 0.729901
O O11 0.224190 0.021628 0.091101
O O12 0.828075 0.250000 0.341382
O O13 0.921687 0.506905 0.600489
O O14 0.500000 0.500000 0.500000
O O15 0.519557 0.750000 0.402129
O O16 0.606492 0.469445 0.541285
O O17 0.039586 0.750000 0.833815
O O18 0.087110 0.454855 0.008912
O O19 0.277672 0.750000 0.297682
O O20 0.113658 0.250000 0.234267
O O21 0.000000 0.500000 0.000000
#
# Coordination Sequence:
#
# PCOD9159943 Si02
#       8
#     4   4   4   4   4   4   4   4
#     4   9  20  38  61  86 117 155 198 245 300 361
#     4  10  20  39  64  88 119 161 203 242 299 365
#     4   9  18  34  56  81 116 161 201 241 299 363
#     4  10  19  34  56  82 114 156 203 251 303 355
#     4  11  23  41  64  92 122 156 201 249 302 363
#     4  11  21  36  55  82 117 156 201 248 300 359
#     4  10  20  38  63  89 120 161 202 245 301 364
#     4  12  24  38  58  85 119 159 204 251 299 353
#
# _framework density 22.852169
#
# number of rings (size 3 to 8) (size 9 to 14) (size 15 to 20)
#    0.000    1.750    1.250    3.750    0.000    4.000 
#    0.000    5.000    0.000    0.000    0.000    0.000 
#    0.000    0.000    0.000    0.000    0.000    0.000 
#
# Total GULP energy -178847.066936 kJ/mol
# GULP energy per Si atom -5588.970842 kJ/mol
# Density = 2.280016 g / cm^3
# Si number density = 22.852169 Si / 1000 Ang^3
#
#
#
# Elastic Constant Matrix: (Units=GPa)
#
#
# Indices 1 2 3 4 5 6 
#
# 1 88.4459 -12.3485 27.4864 0.0000 -7.0659 0.0000
# 2 -12.3485 41.4667 -16.3114 0.0000 -4.1804 0.0000
# 3 27.4864 -16.3114 122.7077 0.0000 -9.8531 0.0000
# 4 0.0000 0.0000 0.0000 19.0561 0.0000 5.8462
# 5 -7.0659 -4.1804 -9.8531 0.0000 42.7395 0.0000
# 6 0.0000 0.0000 0.0000 5.8462 0.0000 14.7401
#
#
#
# Elastic Compliance Matrix: (Units=1/GPa)
#
#
# Indices 1 2 3 4 5 6 
#
# 1 0.012583 0.003043 -0.002265 0.000000 0.001856 0.000000
# 2 0.003043 0.026656 0.003170 0.000000 0.003841 0.000000
# 3 -0.002265 0.003170 0.009244 0.000000 0.002067 0.000000
# 4 0.000000 0.000000 0.000000 0.059746 0.000000 -0.023696
# 5 0.001856 0.003841 0.002067 0.000000 0.024557 0.000000
# 6 0.000000 0.000000 0.000000 -0.023696 0.000000 0.077240
#
#
# Mechanical properties :
#
#
# Convention : Reuss Voigt Hill
#
# Bulk Modulus (GPa) = 17.73658 27.80814 22.77236
# Shear Modulus (GPa) = 22.63220 32.22672 27.42946
#
# Velocity S-wave (km/s) = 3.15044 3.75937 3.46829
# Velocity P-wave (km/s) = 4.58388 5.57126 5.10151
#
# Compressibility (1/GPa) = 0.05638066
#
# Stress axis : x y z
#
# Youngs Moduli (GPa) = 79.46949 37.51462 108.17612
#
# Poissons Ratio (x) = -0.11417 0.24503
# Poissons Ratio (y) = -0.24185 -0.34293
# Poissons Ratio (z) = 0.18001 -0.11893
#
# Static dielectric constant tensor:
#      x y z
#    x 1.872960 0.000000 -0.031930 
#    y 0.000000 1.847350 0.000000 
#    z -0.031930 0.000000 1.829650 
# 
# From -- ./inp_files/45367.got.cif
#   From: 2010.05.17/outbox.cif.g08.bks.cpg/sg11_23_cif.got.tgz:45367.got - 2010.06.03 12:22:45.
