data_PCOD9159084
_publ_section_title
;
Structure prediction by ZEFSAII (Michael W. Deem and Ramdas Pophale) SiO2 
 PCOD9159084
Probable space group: P 21/M
;
_chemical_formula_sum "Si O2"
_cell_formula_units_Z 32
_cell_length_a 21.350293
_cell_length_b 9.236641
_cell_length_c 10.724901
_cell_angle_alpha 90.000000
_cell_angle_beta 60.514125
_cell_angle_gamma 90.000000
_cell_volume 1841.062486
_symmetry_space_group_name_H-M "P 21/M"
_symmetry_group_IT_number 11
_symmetry_cell_setting 'monoclinic'
loop_
_space_group_symop_operation_xyz
x,y,z
-x,1/2+y,-z
-x,-y,-z
x,1/2-y,z
loop_
_atom_site_type_symbol
_atom_site_label
_atom_site_fract_x
_atom_site_fract_y
_atom_site_fract_z
Si Si1 0.425707 0.575586 0.117351
Si Si2 0.034298 0.585066 0.355597
Si Si3 0.405840 0.577330 0.702429
Si Si4 0.118505 0.584351 0.922339
Si Si5 0.045591 0.408863 0.812259
Si Si6 0.670086 0.921103 0.995185
Si Si7 0.166373 0.081440 0.102498
Si Si8 0.443510 0.577574 0.390448
O O1 0.429267 0.750000 0.095871
O O2 0.366114 0.505093 0.084984
O O3 0.415168 0.549939 0.277250
O O4 0.500000 0.500000 0.000000
O O5 0.053705 0.750000 0.365493
O O6 0.104466 0.504614 0.235267
O O7 0.000000 0.500000 0.500000
O O8 0.970802 0.587831 0.315919
O O9 0.400335 0.750000 0.728541
O O10 0.395963 0.551073 0.562531
O O11 0.485672 0.519477 0.658212
O O12 0.355983 0.492177 0.848899
O O13 0.141205 0.750000 0.904115
O O14 0.103995 0.522678 0.800160
O O15 0.166964 0.487189 0.963566
O O16 0.036348 0.573582 0.055994
O O17 0.069334 0.250000 0.832425
O O18 0.650064 0.750000 0.011776
O O19 0.756294 0.932102 0.909757
O O20 0.146782 0.250000 0.113504
O O21 0.462259 0.750000 0.376273
#
# Coordination Sequence:
#
# PCOD9159084 Si02
#       8
#     4   4   4   4   4   4   4   4
#     4  11  21  34  55  82 111 144 185 234 282 331
#     4  10  20  34  55  81 108 139 178 221 266 320
#     4  10  19  32  54  80 105 140 179 223 278 330
#     4   9  16  27  47  74 100 125 161 206 253 303
#     4   8  15  27  45  72 101 128 157 198 249 301
#     4  11  23  37  54  79 111 146 188 233 279 334
#     4  10  21  36  54  75 105 143 181 222 271 323
#     4   9  19  34  52  78 110 138 175 227 278 330
#
# _framework density 17.381267999999999
#
# number of rings (size 3 to 8) (size 9 to 14) (size 15 to 20)
#    0.000    2.250    1.250    3.000    0.000    6.500 
#    0.000    0.000    2.750    0.000    0.000    0.000 
#    0.000    0.000    0.000    0.000    0.000    0.000 
#
# Total GULP energy -178159.946523 kJ/mol
# GULP energy per Si atom -5567.498329 kJ/mol
# Density = 1.734171 g / cm^3
# Si number density = 17.381268 Si / 1000 Ang^3
#
#
#
# Elastic Constant Matrix: (Units=GPa)
#
#
# Indices 1 2 3 4 5 6 
#
# 1 78.1030 63.5759 38.6127 0.0000 16.5730 0.0000
# 2 63.5759 120.8753 42.1510 0.0000 10.7141 0.0000
# 3 38.6127 42.1510 78.2556 0.0000 20.3955 0.0000
# 4 0.0000 0.0000 0.0000 24.6603 0.0000 4.9053
# 5 16.5730 10.7141 20.3955 0.0000 19.9620 0.0000
# 6 0.0000 0.0000 0.0000 4.9053 0.0000 27.8348
#
#
#
# Elastic Compliance Matrix: (Units=1/GPa)
#
#
# Indices 1 2 3 4 5 6 
#
# 1 0.026730 -0.011681 -0.003745 0.000000 -0.012097 0.000000
# 2 -0.011681 0.015291 -0.003900 0.000000 0.005475 0.000000
# 3 -0.003745 -0.003900 0.020950 0.000000 -0.016203 0.000000
# 4 0.000000 0.000000 0.000000 0.042024 0.000000 -0.007406
# 5 -0.012097 0.005475 -0.016203 0.000000 0.073754 0.000000
# 6 0.000000 0.000000 0.000000 -0.007406 0.000000 0.037231
#
#
# Mechanical properties :
#
#
# Convention : Reuss Voigt Hill
#
# Bulk Modulus (GPa) = 41.11794 62.87925 51.99859
# Shear Modulus (GPa) = 19.03037 23.35103 21.19070
#
# Velocity S-wave (km/s) = 3.31248 3.66930 3.49545
# Velocity P-wave (km/s) = 6.19176 7.36252 6.80237
#
# Compressibility (1/GPa) = 0.02432029
#
# Stress axis : x y z
#
# Youngs Moduli (GPa) = 37.41115 65.39641 47.73350
#
# Poissons Ratio (x) = 0.76389 0.17874
# Poissons Ratio (y) = 0.43700 0.18615
# Poissons Ratio (z) = 0.14009 0.25503
#
# Static dielectric constant tensor:
#      x y z
#    x 1.567020 0.000000 0.021410 
#    y 0.000000 1.556840 0.000000 
#    z 0.021410 0.000000 1.617380 
# 
# From -- ./inp_files/42477.got.cif
#   From: 2010.05.17/outbox.cif.g08.bks.cpg/sg11_22_cif.got.tgz:42477.got - 2010.06.03 12:22:45.
