data_PCOD9159565
_publ_section_title
;
Structure prediction by ZEFSAII (Michael W. Deem and Ramdas Pophale) SiO2 
 PCOD9159565
Probable space group: P 21/M
;
_chemical_formula_sum "Si O2"
_cell_formula_units_Z 32
_cell_length_a 15.551542
_cell_length_b 8.827196
_cell_length_c 24.903169
_cell_angle_alpha 90.000000
_cell_angle_beta 151.449652
_cell_angle_gamma 90.000000
_cell_volume 1633.863935
_symmetry_space_group_name_H-M "P 21/M"
_symmetry_group_IT_number 11
_symmetry_cell_setting 'monoclinic'
loop_
_space_group_symop_operation_xyz
x,y,z
-x,1/2+y,-z
-x,-y,-z
x,1/2-y,z
loop_
_atom_site_type_symbol
_atom_site_label
_atom_site_fract_x
_atom_site_fract_y
_atom_site_fract_z
Si Si1 0.024636 0.418974 0.456015
Si Si2 0.973567 0.069398 0.044360
Si Si3 0.394644 0.069579 0.493051
Si Si4 0.606437 0.418431 0.213191
Si Si5 0.946259 0.431653 0.639762
Si Si6 0.628795 0.930866 0.115753
Si Si7 0.645372 0.568551 0.720233
Si Si8 0.592497 0.429518 0.807802
O O1 0.106329 0.250000 0.506255
O O2 0.818962 0.401191 0.325230
O O3 0.000000 0.500000 0.500000
O O4 0.103718 0.509635 0.448236
O O5 0.988302 0.250000 0.047745
O O6 0.144010 0.023958 0.173487
O O7 0.765740 0.035131 0.941167
O O8 0.000000 0.000000 0.000000
O O9 0.382764 0.250000 0.480945
O O10 0.500000 0.000000 0.500000
O O11 0.196597 0.002469 0.397056
O O12 0.515354 0.021405 0.610087
O O13 0.525438 0.250000 0.172783
O O14 0.553405 0.507747 0.130965
O O15 0.572072 0.513923 0.247731
O O16 0.930503 0.250000 0.631043
O O17 0.155873 0.469286 0.769208
O O18 0.618541 0.750000 0.108750
O O19 0.500000 0.000000 0.000000
O O20 0.623467 0.750000 0.701336
O O21 0.606550 0.520883 0.760307
O O22 0.590750 0.250000 0.796006
#
# Coordination Sequence:
#
# PCOD9159565 Si02
#       8
#     4   4   4   4   4   4   4   4
#     4  10  21  36  57  86 122 161 202 244 295 359
#     4   8  16  31  52  78 110 148 189 234 285 341
#     4  12  26  45  66  90 120 159 207 260 310 366
#     4  10  21  36  54  83 120 157 197 243 293 351
#     4  10  22  42  66  92 123 159 202 253 308 365
#     4  10  21  40  66  92 121 158 199 246 301 362
#     4  10  20  37  60  84 115 156 199 247 304 362
#     4  10  19  33  55  86 121 156 197 244 296 358
#
# _framework density 19.585474999999999
#
# number of rings (size 3 to 8) (size 9 to 14) (size 15 to 20)
#    0.000    2.000    0.000    3.375    1.750    4.000 
#    2.250    0.000    0.000    0.000    0.000    0.000 
#    0.000    0.000    0.000    0.000    0.000    0.000 
#
# Total GULP energy -178333.584662 kJ/mol
# GULP energy per Si atom -5572.924521 kJ/mol
# Density = 1.954090 g / cm^3
# Si number density = 19.585475 Si / 1000 Ang^3
#
#
#
# Elastic Constant Matrix: (Units=GPa)
#
#
# Indices 1 2 3 4 5 6 
#
# 1 99.2633 41.7184 27.1381 0.0000 -1.7095 0.0000
# 2 41.7184 98.9374 35.9792 0.0000 -1.1123 0.0000
# 3 27.1381 35.9792 76.1781 0.0000 -6.6871 0.0000
# 4 0.0000 0.0000 0.0000 29.7133 0.0000 -2.9163
# 5 -1.7095 -1.1123 -6.6871 0.0000 29.0337 0.0000
# 6 0.0000 0.0000 0.0000 -2.9163 0.0000 31.4252
#
#
#
# Elastic Compliance Matrix: (Units=1/GPa)
#
#
# Indices 1 2 3 4 5 6 
#
# 1 0.012594 -0.004442 -0.002387 0.000000 0.000022 0.000000
# 2 -0.004442 0.013792 -0.005009 0.000000 -0.000887 0.000000
# 3 -0.002387 -0.005009 0.016651 0.000000 0.003503 0.000000
# 4 0.000000 0.000000 0.000000 0.033964 0.000000 0.003152
# 5 0.000022 -0.000887 0.003503 0.000000 0.035217 0.000000
# 6 0.000000 0.000000 0.000000 0.003152 0.000000 0.032114
#
#
# Mechanical properties :
#
#
# Convention : Reuss Voigt Hill
#
# Bulk Modulus (GPa) = 51.65160 53.78334 52.71747
# Shear Modulus (GPa) = 28.65945 29.33732 28.99839
#
# Velocity S-wave (km/s) = 3.82946 3.87449 3.85204
# Velocity P-wave (km/s) = 6.78105 6.89463 6.83808
#
# Compressibility (1/GPa) = 0.01936049
#
# Stress axis : x y z
#
# Youngs Moduli (GPa) = 79.40224 72.50402 60.05732
#
# Poissons Ratio (x) = 0.32209 0.14333
# Poissons Ratio (y) = 0.35273 0.30085
# Poissons Ratio (z) = 0.18950 0.36321
#
# Static dielectric constant tensor:
#      x y z
#    x 1.690360 0.000000 0.043430 
#    y 0.000000 1.690750 0.000000 
#    z 0.043430 0.000000 1.743990 
# 
# From -- ./inp_files/69070.got.cif
#   From: 2010.05.17/outbox.cif.g08.bks.cpg/sg11_35_cif.got.tgz:69070.got - 2010.06.03 12:22:45.
