data_PCOD9159813
_publ_section_title
;
Structure prediction by ZEFSAII (Michael W. Deem and Ramdas Pophale) SiO2 
 PCOD9159813
Probable space group: P 21/M
;
_chemical_formula_sum "Si O2"
_cell_formula_units_Z 28
_cell_length_a 14.679538
_cell_length_b 13.308975
_cell_length_c 8.027652
_cell_angle_alpha 90.000000
_cell_angle_beta 53.987574
_cell_angle_gamma 90.000000
_cell_volume 1268.629284
_symmetry_space_group_name_H-M "P 21/M"
_symmetry_group_IT_number 11
_symmetry_cell_setting 'monoclinic'
loop_
_space_group_symop_operation_xyz
x,y,z
-x,1/2+y,-z
-x,-y,-z
x,1/2-y,z
loop_
_atom_site_type_symbol
_atom_site_label
_atom_site_fract_x
_atom_site_fract_y
_atom_site_fract_z
Si Si1 0.478981 0.993971 0.324595
Si Si2 0.728128 0.365998 0.575448
Si Si3 0.703965 0.863279 0.414122
Si Si4 0.832611 0.572101 0.593783
Si Si5 0.955561 0.357385 0.152566
Si Si6 0.048277 0.934387 0.195515
Si Si7 0.731885 0.535879 0.023641
O O1 0.408155 0.094802 0.375615
O O2 0.500000 0.000000 0.500000
O O3 0.392875 0.906122 0.359905
O O4 0.602632 0.986795 0.116077
O O5 0.721410 0.250000 0.646769
O O6 0.782890 0.457330 0.624892
O O7 0.821451 0.363136 0.328303
O O8 0.689641 0.750000 0.377865
O O9 0.793007 0.876370 0.465725
O O10 0.732668 0.922868 0.212987
O O11 0.967352 0.586247 0.437938
O O12 0.781370 0.606542 0.823871
O O13 0.995812 0.250000 0.175119
O O14 0.011909 0.453259 0.176209
O O15 0.976718 0.365023 0.934304
O O16 0.181672 0.942506 0.072842
#
# Coordination Sequence:
#
# PCOD9159813 Si02
#       7
#     4   4   4   4   4   4   4
#     4   9  19  36  57  84 116 148 187 235 282 338
#     4   9  18  35  58  83 112 149 193 241 291 340
#     4  10  22  40  61  87 118 152 192 237 286 342
#     4  10  22  39  60  85 116 152 194 240 284 339
#     4   9  17  32  57  83 109 148 193 236 285 338
#     4  10  19  34  54  81 116 151 189 234 284 338
#     4  11  22  38  59  84 117 155 190 234 289 340
#
# _framework density 22.071064
#
# number of rings (size 3 to 8) (size 9 to 14) (size 15 to 20)
#    0.000    2.286    0.000    4.714    0.000    7.429 
#    0.000    3.571    0.000    6.857    0.000    0.000 
#    0.000    0.000    0.000    0.000    0.000    0.000 
#
# Total GULP energy -155945.513677 kJ/mol
# GULP energy per Si atom -5569.482631 kJ/mol
# Density = 2.202083 g / cm^3
# Si number density = 22.071064 Si / 1000 Ang^3
#
#
#
# Elastic Constant Matrix: (Units=GPa)
#
#
# Indices 1 2 3 4 5 6 
#
# 1 33.2503 -6.4910 23.4109 0.0000 -9.1540 0.0000
# 2 -6.4910 72.8286 -0.6843 0.0000 -7.8321 0.0000
# 3 23.4109 -0.6843 140.8239 0.0000 -15.8910 0.0000
# 4 0.0000 0.0000 0.0000 6.2057 0.0000 -1.9074
# 5 -9.1540 -7.8321 -15.8910 0.0000 42.3514 0.0000
# 6 0.0000 0.0000 0.0000 -1.9074 0.0000 1.0047
#
#
#
# Elastic Compliance Matrix: (Units=1/GPa)
#
#
# Indices 1 2 3 4 5 6 
#
# 1 0.036374 0.003902 -0.005283 0.000000 0.006601 0.000000
# 2 0.003902 0.014447 -0.000190 0.000000 0.003444 0.000000
# 3 -0.005283 -0.000190 0.008192 0.000000 0.001897 0.000000
# 4 0.000000 0.000000 0.000000 0.386948 0.000000 0.734644
# 5 0.006601 0.003444 0.001897 0.000000 0.026388 0.000000
# 6 0.000000 0.000000 0.000000 0.734644 0.000000 2.390125
#
#
# Mechanical properties :
#
#
# Convention : Reuss Voigt Hill
#
# Bulk Modulus (GPa) = 17.89801 31.04155 24.46978
# Shear Modulus (GPa) = 1.73356 25.29015 13.51186
#
# Velocity S-wave (km/s) = 0.88721 3.38871 2.47695
# Velocity P-wave (km/s) = 3.02926 5.42274 4.39218
#
# Compressibility (1/GPa) = 0.05587215
#
# Stress axis : x y z
#
# Youngs Moduli (GPa) = 27.49235 69.21734 122.06354
#
# Poissons Ratio (x) = -0.27010 0.64486
# Poissons Ratio (y) = -0.10728 0.02318
# Poissons Ratio (z) = 0.14524 0.01314
#
# Static dielectric constant tensor:
#      x y z
#    x 1.921790 0.000000 -0.038130 
#    y 0.000000 1.889360 0.000000 
#    z -0.038130 0.000000 1.860640 
# 
# From -- ./inp_files/22106.got.cif
#   From: 2010.05.17/outbox.cif.g08.bks.cpg/sg11_12_cif.got.tgz:22106.got - 2010.06.03 12:22:45.
