data_PCOD9159406
_publ_section_title
;
Structure prediction by ZEFSAII (Michael W. Deem and Ramdas Pophale) SiO2 
 PCOD9159406
Probable space group: P 21/M
;
_chemical_formula_sum "Si O2"
_cell_formula_units_Z 32
_cell_length_a 20.192976
_cell_length_b 8.621525
_cell_length_c 14.621665
_cell_angle_alpha 90.000000
_cell_angle_beta 46.276235
_cell_angle_gamma 90.000000
_cell_volume 1839.617785
_symmetry_space_group_name_H-M "P 21/M"
_symmetry_group_IT_number 11
_symmetry_cell_setting 'monoclinic'
loop_
_space_group_symop_operation_xyz
x,y,z
-x,1/2+y,-z
-x,-y,-z
x,1/2-y,z
loop_
_atom_site_type_symbol
_atom_site_label
_atom_site_fract_x
_atom_site_fract_y
_atom_site_fract_z
Si Si1 0.694768 0.935732 0.752966
Si Si2 0.977461 0.434606 0.622304
Si Si3 0.693385 0.062079 0.470653
Si Si4 0.361178 0.935748 0.866457
Si Si5 0.400133 0.562118 0.621990
Si Si6 0.219972 0.064589 0.135599
Si Si7 0.158259 0.936341 0.531674
Si Si8 0.547148 0.436075 0.766652
O O1 0.699909 0.750000 0.737429
O O2 0.717206 0.974766 0.836062
O O3 0.773590 0.013220 0.615277
O O4 0.598314 0.995715 0.806192
O O5 0.973476 0.250000 0.620754
O O6 0.880866 0.500258 0.748565
O O7 0.000000 0.500000 0.500000
O O8 0.060578 0.487529 0.607818
O O9 0.694383 0.250000 0.469103
O O10 0.669201 0.009867 0.391922
O O11 0.788292 0.013641 0.427248
O O12 0.611595 0.017608 0.618503
O O13 0.364523 0.750000 0.865682
O O14 0.373020 0.987349 0.749832
O O15 0.446482 0.002329 0.842556
O O16 0.268220 0.994426 0.000990
O O17 0.500000 0.500000 0.500000
O O18 0.403157 0.750000 0.618074
O O19 0.215926 0.250000 0.132601
O O20 0.149582 0.750000 0.538820
O O21 0.546297 0.250000 0.773431
#
# Coordination Sequence:
#
# PCOD9159406 Si02
#       8
#     4   4   4   4   4   4   4   4
#     4  10  20  34  53  78 109 144 187 232 273 322
#     4  12  23  37  59  85 113 144 183 230 276 327
#     4   8  16  31  53  81 111 142 179 223 273 324
#     4  11  23  36  54  81 113 148 187 232 279 328
#     4  10  19  34  56  83 111 144 185 229 275 325
#     4  11  24  40  57  78 109 149 188 229 279 332
#     4  10  19  33  56  84 113 145 180 223 277 330
#     4  10  19  33  54  77 109 150 187 224 273 330
#
# _framework density 17.394918000000001
#
# number of rings (size 3 to 8) (size 9 to 14) (size 15 to 20)
#    0.000    1.750    2.500    3.750    0.000    2.500 
#    0.000    0.625    0.000    0.750    0.000    0.000 
#    0.000    0.000    0.000    0.000    0.000    0.000 
#
# Total GULP energy -178685.196199 kJ/mol
# GULP energy per Si atom -5583.912381 kJ/mol
# Density = 1.735533 g / cm^3
# Si number density = 17.394918 Si / 1000 Ang^3
#
#
#
# Elastic Constant Matrix: (Units=GPa)
#
#
# Indices 1 2 3 4 5 6 
#
# 1 117.6332 20.2757 60.3770 0.0000 -1.4221 0.0000
# 2 20.2757 41.1876 22.7943 0.0000 3.2530 0.0000
# 3 60.3770 22.7943 109.4210 0.0000 -1.8848 0.0000
# 4 0.0000 0.0000 0.0000 25.3159 0.0000 -7.2060
# 5 -1.4221 3.2530 -1.8848 0.0000 21.9198 0.0000
# 6 0.0000 0.0000 0.0000 -7.2060 0.0000 24.5742
#
#
#
# Elastic Compliance Matrix: (Units=1/GPa)
#
#
# Indices 1 2 3 4 5 6 
#
# 1 0.012102 -0.002622 -0.006121 0.000000 0.000648 0.000000
# 2 -0.002622 0.028476 -0.004568 0.000000 -0.004789 0.000000
# 3 -0.006121 -0.004568 0.013493 0.000000 0.001441 0.000000
# 4 0.000000 0.000000 0.000000 0.043098 0.000000 0.012638
# 5 0.000648 -0.004789 0.001441 0.000000 0.046497 0.000000
# 6 0.000000 0.000000 0.000000 0.012638 0.000000 0.044399
#
#
# Mechanical properties :
#
#
# Convention : Reuss Voigt Hill
#
# Bulk Modulus (GPa) = 36.42904 52.79286 44.61095
# Shear Modulus (GPa) = 22.33783 25.34829 23.84306
#
# Velocity S-wave (km/s) = 3.58740 3.82150 3.70630
# Velocity P-wave (km/s) = 6.17633 7.06309 6.63455
#
# Compressibility (1/GPa) = 0.02745062
#
# Stress axis : x y z
#
# Youngs Moduli (GPa) = 82.63003 35.11740 74.11445
#
# Poissons Ratio (x) = 0.09206 0.45362
# Poissons Ratio (y) = 0.21662 0.33855
# Poissons Ratio (z) = 0.50574 0.16042
#
# Static dielectric constant tensor:
#      x y z
#    x 1.608450 0.000000 0.012500 
#    y 0.000000 1.584330 0.000000 
#    z 0.012500 0.000000 1.571310 
# 
# From -- ./inp_files/54252.got.cif
#   From: 2010.05.17/outbox.cif.g08.bks.cpg/sg11_28_cif.got.tgz:54252.got - 2010.06.03 12:22:45.
