data_PCOD9159418
_publ_section_title
;
Structure prediction by ZEFSAII (Michael W. Deem and Ramdas Pophale) SiO2 
 PCOD9159418
Probable space group: P 21/M
;
_chemical_formula_sum "Si O2"
_cell_formula_units_Z 32
_cell_length_a 14.669667
_cell_length_b 12.529907
_cell_length_c 14.087457
_cell_angle_alpha 90.000000
_cell_angle_beta 139.090862
_cell_angle_gamma 90.000000
_cell_volume 1695.704095
_symmetry_space_group_name_H-M "P 21/M"
_symmetry_group_IT_number 11
_symmetry_cell_setting 'monoclinic'
loop_
_space_group_symop_operation_xyz
x,y,z
-x,1/2+y,-z
-x,-y,-z
x,1/2-y,z
loop_
_atom_site_type_symbol
_atom_site_label
_atom_site_fract_x
_atom_site_fract_y
_atom_site_fract_z
Si Si1 0.876411 0.519311 0.976336
Si Si2 0.597924 0.000108 0.454208
Si Si3 0.580650 0.967751 0.968390
Si Si4 0.368176 0.625548 0.161527
Si Si5 0.960613 0.376780 0.502982
Si Si6 0.657758 0.627638 0.675161
Si Si7 0.880244 0.627011 0.176862
Si Si8 0.334451 0.631785 0.663346
O O1 0.779871 0.415756 0.916542
O O2 0.767057 0.602751 0.844049
O O3 0.920337 0.561128 0.114475
O O4 0.000000 0.500000 0.000000
O O5 0.488261 0.913435 0.328004
O O6 0.685281 0.949451 0.607489
O O7 0.496602 0.093891 0.412219
O O8 0.682102 0.045361 0.432275
O O9 0.479355 0.889613 0.829799
O O10 0.602963 0.067551 0.915619
O O11 0.732109 0.915959 0.099842
O O12 0.500000 0.000000 0.000000
O O13 0.370748 0.750000 0.152786
O O14 0.002885 0.250000 0.503316
O O15 0.793824 0.376110 0.366022
O O16 0.000000 0.500000 0.500000
O O17 0.010929 0.377740 0.651737
O O18 0.663299 0.750000 0.651990
O O19 0.862902 0.750000 0.135011
O O20 0.333072 0.750000 0.620424
#
# Coordination Sequence:
#
# PCOD9159418 Si02
#       8
#     4   4   4   4   4   4   4   4
#     4  10  22  36  55  80 112 153 196 243 281 345
#     4   9  19  33  53  80 108 140 180 234 279 335
#     4  10  20  35  57  87 113 145 187 244 291 354
#     4   9  19  35  52  78 115 149 185 234 295 348
#     4  10  22  41  63  87 118 156 196 244 300 361
#     4  10  19  33  54  78 108 144 182 227 284 335
#     4  10  21  38  60  84 116 154 195 243 295 355
#     4  10  20  35  58  82 109 145 191 237 284 346
#
# _framework density 18.871217000000001
#
# number of rings (size 3 to 8) (size 9 to 14) (size 15 to 20)
#    0.000    2.250    0.000    3.000    1.750    2.000 
#    0.000    8.750    0.000    0.000    0.000    0.000 
#    0.000    0.000    0.000    0.000    0.000    0.000 
#
# Total GULP energy -178236.869279 kJ/mol
# GULP energy per Si atom -5569.902165 kJ/mol
# Density = 1.882827 g / cm^3
# Si number density = 18.871217 Si / 1000 Ang^3
#
#
#
# Elastic Constant Matrix: (Units=GPa)
#
#
# Indices 1 2 3 4 5 6 
#
# 1 73.1527 18.8069 7.2293 0.0000 9.5689 0.0000
# 2 18.8069 105.6991 13.5221 0.0000 9.9743 0.0000
# 3 7.2293 13.5221 41.9549 0.0000 -3.1513 0.0000
# 4 0.0000 0.0000 0.0000 12.0342 0.0000 0.4262
# 5 9.5689 9.9743 -3.1513 0.0000 22.2069 0.0000
# 6 0.0000 0.0000 0.0000 0.4262 0.0000 16.9390
#
#
#
# Elastic Compliance Matrix: (Units=1/GPa)
#
#
# Indices 1 2 3 4 5 6 
#
# 1 0.015176 -0.001808 -0.002489 0.000000 -0.006081 0.000000
# 2 -0.001808 0.010649 -0.003458 0.000000 -0.004495 0.000000
# 3 -0.002489 -0.003458 0.025851 0.000000 0.006294 0.000000
# 4 0.000000 0.000000 0.000000 0.083171 0.000000 -0.002093
# 5 -0.006081 -0.004495 0.006294 0.000000 0.050563 0.000000
# 6 0.000000 0.000000 0.000000 -0.002093 0.000000 0.059088
#
#
# Mechanical properties :
#
#
# Convention : Reuss Voigt Hill
#
# Bulk Modulus (GPa) = 27.65028 33.32481 30.48755
# Shear Modulus (GPa) = 18.37799 22.31925 20.34862
#
# Velocity S-wave (km/s) = 3.12406 3.44279 3.28729
# Velocity P-wave (km/s) = 5.26279 5.78802 5.53164
#
# Compressibility (1/GPa) = 0.03616599
#
# Stress axis : x y z
#
# Youngs Moduli (GPa) = 65.89254 93.90475 38.68265
#
# Poissons Ratio (x) = 0.16979 0.09628
# Poissons Ratio (y) = 0.11914 0.13377
# Poissons Ratio (z) = 0.16401 0.32475
#
# Static dielectric constant tensor:
#      x y z
#    x 1.616600 0.000000 0.023190 
#    y 0.000000 1.698590 0.000000 
#    z 0.023190 0.000000 1.637310 
# 
# From -- ./inp_files/52271.got.cif
#   From: 2010.05.17/outbox.cif.g08.bks.cpg/sg11_27_cif.got.tgz:52271.got - 2010.06.03 12:22:45.
