data_PCOD9159491
_publ_section_title
;
Structure prediction by ZEFSAII (Michael W. Deem and Ramdas Pophale) SiO2 
 PCOD9159491
Probable space group: P 21/M
;
_chemical_formula_sum "Si O2"
_cell_formula_units_Z 32
_cell_length_a 11.009948
_cell_length_b 16.602126
_cell_length_c 12.952003
_cell_angle_alpha 90.000000
_cell_angle_beta 35.419357
_cell_angle_gamma 90.000000
_cell_volume 1372.087189
_symmetry_space_group_name_H-M "P 21/M"
_symmetry_group_IT_number 11
_symmetry_cell_setting 'monoclinic'
loop_
_space_group_symop_operation_xyz
x,y,z
-x,1/2+y,-z
-x,-y,-z
x,1/2-y,z
loop_
_atom_site_type_symbol
_atom_site_label
_atom_site_fract_x
_atom_site_fract_y
_atom_site_fract_z
Si Si1 0.573948 0.657096 0.110657
Si Si2 0.069721 0.476022 0.064944
Si Si3 0.676304 0.154778 0.525274
Si Si4 0.207091 0.658190 0.779508
Si Si5 0.083969 0.657365 0.380957
Si Si6 0.306934 0.156394 0.192725
Si Si7 0.552771 0.074647 0.202013
Si Si8 0.129282 0.016914 0.595779
O O1 0.645654 0.750000 0.061411
O O2 0.531170 0.641637 0.262992
O O3 0.688409 0.622683 0.927224
O O4 0.324965 0.653331 0.248880
O O5 0.007515 0.383245 0.109372
O O6 0.928395 0.522858 0.244698
O O7 0.000000 0.500000 0.000000
O O8 0.306972 0.497833 0.922605
O O9 0.746085 0.250000 0.492784
O O10 0.644239 0.146457 0.423852
O O11 0.831691 0.079682 0.445496
O O12 0.168186 0.750000 0.822366
O O13 0.304168 0.624823 0.817868
O O14 0.055636 0.750000 0.355548
O O15 0.034628 0.575684 0.349734
O O16 0.909366 0.653202 0.592740
O O17 0.365311 0.250000 0.146092
O O18 0.476777 0.114781 0.149543
O O19 0.349620 0.052520 0.407930
#
# Coordination Sequence:
#
# PCOD9159491 Si02
#       8
#     4   4   4   4   4   4   4   4
#     4   9  17  32  52  72 103 141 173 214 259 301
#     4   9  19  33  50  73 102 133 169 207 249 304
#     4   9  19  35  53  74 102 141 183 213 248 303
#     4   9  18  34  55  76 102 137 174 213 255 306
#     4   9  18  32  51  78 106 133 171 214 262 317
#     4   9  17  30  51  79 106 133 168 213 265 313
#     4  10  19  33  55  79 104 133 167 213 268 314
#     4  10  20  35  55  78 106 138 170 215 265 308
#
# _framework density 23.322132
#
# number of rings (size 3 to 8) (size 9 to 14) (size 15 to 20)
#    0.000    2.750    0.000    1.125    0.000    5.500 
#    0.000    8.125    0.000    9.000    0.000    0.000 
#    0.000    0.000    0.000    0.000    0.000    0.000 
#
# Total GULP energy -178252.014770 kJ/mol
# GULP energy per Si atom -5570.375462 kJ/mol
# Density = 2.326905 g / cm^3
# Si number density = 23.322132 Si / 1000 Ang^3
#
#
#
# Elastic Constant Matrix: (Units=GPa)
#
#
# Indices 1 2 3 4 5 6 
#
# 1 48.2403 5.4401 1.2096 0.0000 14.4064 0.0000
# 2 5.4401 61.6944 -8.1408 0.0000 11.4482 0.0000
# 3 1.2096 -8.1408 93.5134 0.0000 23.8945 0.0000
# 4 0.0000 0.0000 0.0000 31.2434 0.0000 6.5643
# 5 14.4064 11.4482 23.8945 0.0000 38.8282 0.0000
# 6 0.0000 0.0000 0.0000 6.5643 0.0000 18.4606
#
#
#
# Elastic Compliance Matrix: (Units=1/GPa)
#
#
# Indices 1 2 3 4 5 6 
#
# 1 0.023725 0.000121 0.002328 0.000000 -0.010271 0.000000
# 2 0.000121 0.018053 0.003491 0.000000 -0.007516 0.000000
# 3 0.002328 0.003491 0.013588 0.000000 -0.010255 0.000000
# 4 0.000000 0.000000 0.000000 0.034591 0.000000 -0.012300
# 5 -0.010271 -0.007516 -0.010255 0.000000 0.038092 0.000000
# 6 0.000000 0.000000 0.000000 -0.012300 0.000000 0.058543
#
#
# Mechanical properties :
#
#
# Convention : Reuss Voigt Hill
#
# Bulk Modulus (GPa) = 14.87088 22.27399 18.57244
# Shear Modulus (GPa) = 25.36428 31.36906 28.36667
#
# Velocity S-wave (km/s) = 3.30140 3.67145 3.49133
# Velocity P-wave (km/s) = 4.57411 5.24824 4.92273
#
# Compressibility (1/GPa) = 0.06724553
#
# Stress axis : x y z
#
# Youngs Moduli (GPa) = 42.14992 55.39093 73.59607
#
# Poissons Ratio (x) = -0.00671 -0.17134
# Poissons Ratio (y) = -0.00510 -0.25689
# Poissons Ratio (z) = -0.09813 -0.19334
#
# Static dielectric constant tensor:
#      x y z
#    x 1.935290 0.000000 -0.007040 
#    y 0.000000 1.986990 0.000000 
#    z -0.007040 0.000000 1.921130 
# 
# From -- ./inp_files/52570.got.cif
#   From: 2010.05.17/outbox.cif.g08.bks.cpg/sg11_27_cif.got.tgz:52570.got - 2010.06.03 12:22:45.
