data_PCOD9159554
_publ_section_title
;
Structure prediction by ZEFSAII (Michael W. Deem and Ramdas Pophale) SiO2 
 PCOD9159554
Probable space group: P 21/M
;
_chemical_formula_sum "Si O2"
_cell_formula_units_Z 28
_cell_length_a 14.269923
_cell_length_b 9.067690
_cell_length_c 10.329298
_cell_angle_alpha 90.000000
_cell_angle_beta 105.441454
_cell_angle_gamma 90.000000
_cell_volume 1288.316123
_symmetry_space_group_name_H-M "P 21/M"
_symmetry_group_IT_number 11
_symmetry_cell_setting 'monoclinic'
loop_
_space_group_symop_operation_xyz
x,y,z
-x,1/2+y,-z
-x,-y,-z
x,1/2-y,z
loop_
_atom_site_type_symbol
_atom_site_label
_atom_site_fract_x
_atom_site_fract_y
_atom_site_fract_z
Si Si1 0.294451 0.574700 0.749157
Si Si2 0.683367 0.579159 0.986079
Si Si3 0.767832 0.921667 0.727808
Si Si4 0.081149 0.927979 0.622224
Si Si5 0.014612 0.427759 0.145715
Si Si6 0.589752 0.089750 0.584554
Si Si7 0.500152 0.917700 0.167161
O O1 0.310338 0.750000 0.742565
O O2 0.194540 0.532793 0.638922
O O3 0.394074 0.484830 0.759002
O O4 0.275468 0.531941 0.892515
O O5 0.694287 0.750000 0.029461
O O6 0.734387 0.565182 0.865753
O O7 0.569771 0.532547 0.933490
O O8 0.760689 0.750000 0.690100
O O9 0.878484 0.970143 0.763409
O O10 0.692841 0.011821 0.614243
O O11 0.073268 0.750000 0.609263
O O12 0.056734 0.967907 0.762966
O O13 0.000000 0.000000 0.500000
O O14 0.012598 0.250000 0.128443
O O15 0.000000 0.500000 0.000000
O O16 0.593305 0.250000 0.524195
O O17 0.561871 0.100333 0.724514
O O18 0.500000 0.000000 0.500000
O O19 0.507056 0.750000 0.116992
#
# Coordination Sequence:
#
# PCOD9159554 Si02
#       7
#     4   4   4   4   4   4   4
#     4  11  22  36  55  80 111 148 187 231 280 334
#     4  10  19  33  55  84 115 146 180 225 280 340
#     4   9  19  35  56  82 112 144 183 232 284 335
#     4  10  24  43  61  84 118 157 199 246 295 346
#     4  10  21  39  63  91 119 151 194 245 296 349
#     4  10  21  36  55  78 107 142 180 223 275 335
#     4  10  21  36  54  79 109 144 183 224 274 335
#
# _framework density 21.733796999999999
#
# number of rings (size 3 to 8) (size 9 to 14) (size 15 to 20)
#    0.000    2.000    0.000    3.000    0.000    5.714 
#    0.000    4.286    0.000    0.000    0.000    0.000 
#    0.000    0.000    0.000    0.000    0.000    0.000 
#
# Total GULP energy -156295.796155 kJ/mol
# GULP energy per Si atom -5581.992720 kJ/mol
# Density = 2.168433 g / cm^3
# Si number density = 21.733797 Si / 1000 Ang^3
#
#
#
# Elastic Constant Matrix: (Units=GPa)
#
#
# Indices 1 2 3 4 5 6 
#
# 1 127.2553 32.8841 26.5166 0.0000 32.4726 0.0000
# 2 32.8841 78.8690 30.4768 0.0000 22.3724 0.0000
# 3 26.5166 30.4768 71.1827 0.0000 26.3379 0.0000
# 4 0.0000 0.0000 0.0000 35.8232 0.0000 6.2044
# 5 32.4726 22.3724 26.3379 0.0000 43.1989 0.0000
# 6 0.0000 0.0000 0.0000 6.2044 0.0000 23.9048
#
#
#
# Elastic Compliance Matrix: (Units=1/GPa)
#
#
# Indices 1 2 3 4 5 6 
#
# 1 0.010115 -0.002281 -0.000536 0.000000 -0.006095 0.000000
# 2 -0.002281 0.016607 -0.004794 0.000000 -0.003963 0.000000
# 3 -0.000536 -0.004794 0.019670 0.000000 -0.009107 0.000000
# 4 0.000000 0.000000 0.000000 0.029229 0.000000 -0.007586
# 5 -0.006095 -0.003963 -0.009107 0.000000 0.035335 0.000000
# 6 0.000000 0.000000 0.000000 -0.007586 0.000000 0.043802
#
#
# Mechanical properties :
#
#
# Convention : Reuss Voigt Hill
#
# Bulk Modulus (GPa) = 32.08295 50.78466 41.43380
# Shear Modulus (GPa) = 27.72074 33.08067 30.40070
#
# Velocity S-wave (km/s) = 3.57524 3.90562 3.74408
# Velocity P-wave (km/s) = 5.64243 6.61483 6.14788
#
# Compressibility (1/GPa) = 0.03116921
#
# Stress axis : x y z
#
# Youngs Moduli (GPa) = 98.86597 60.21502 50.83809
#
# Poissons Ratio (x) = 0.13736 0.02725
# Poissons Ratio (y) = 0.22553 0.24373
# Poissons Ratio (z) = 0.05299 0.28869
#
# Static dielectric constant tensor:
#      x y z
#    x 1.851380 0.000000 -0.049840 
#    y 0.000000 1.772260 0.000000 
#    z -0.049840 0.000000 1.850700 
# 
# From -- ./inp_files/38391.got.cif
#   From: 2010.05.17/outbox.cif.g08.bks.cpg/sg11_20_cif.got.tgz:38391.got - 2010.06.03 12:22:45.
