data_PCOD9159720
_publ_section_title
;
Structure prediction by ZEFSAII (Michael W. Deem and Ramdas Pophale) SiO2 
 PCOD9159720
Probable space group: P 21/M
;
_chemical_formula_sum "Si O2"
_cell_formula_units_Z 28
_cell_length_a 10.005518
_cell_length_b 15.620408
_cell_length_c 16.010492
_cell_angle_alpha 90.000000
_cell_angle_beta 27.810264
_cell_angle_gamma 90.000000
_cell_volume 1167.428412
_symmetry_space_group_name_H-M "P 21/M"
_symmetry_group_IT_number 11
_symmetry_cell_setting 'monoclinic'
loop_
_space_group_symop_operation_xyz
x,y,z
-x,1/2+y,-z
-x,-y,-z
x,1/2-y,z
loop_
_atom_site_type_symbol
_atom_site_label
_atom_site_fract_x
_atom_site_fract_y
_atom_site_fract_z
Si Si1 0.566149 0.089087 0.510894
Si Si2 0.396175 0.156806 0.850727
Si Si3 0.289449 0.842656 0.743084
Si Si4 0.502787 0.040399 0.232504
Si Si5 0.151492 0.434109 0.276250
Si Si6 0.957393 0.153922 0.880530
Si Si7 0.355498 0.877193 0.108407
O O1 0.660312 0.149148 0.382562
O O2 0.500000 0.000000 0.500000
O O3 0.282808 0.125479 0.710049
O O4 0.830372 0.080742 0.426995
O O5 0.458311 0.250000 0.774866
O O6 0.552975 0.160851 0.854202
O O7 0.050992 0.151322 0.052421
O O8 0.475767 0.061674 0.775468
O O9 0.392547 0.750000 0.715659
O O10 0.456226 0.915712 0.701304
O O11 0.223836 0.069091 0.334262
O O12 0.759439 0.082382 0.034241
O O13 0.362805 0.373752 0.106205
O O14 0.252942 0.527396 0.188691
O O15 0.904859 0.250000 0.942124
O O16 0.887665 0.155449 0.820027
#
# Coordination Sequence:
#
# PCOD9159720 Si02
#       7
#     4   4   4   4   4   4   4
#     4  12  22  39  64  94 128 169 211 272 326 391
#     4  10  19  33  61  94 123 157 214 272 318 376
#     4  11  23  40  62  93 128 171 219 263 321 391
#     4  10  22  42  66  92 129 172 217 267 322 387
#     4   9  18  35  63  91 121 168 221 258 324 388
#     4  11  22  36  61  95 130 168 213 267 323 377
#     4   9  16  34  58  89 124 157 216 271 311 378
#
# _framework density 23.984338999999999
#
# number of rings (size 3 to 8) (size 9 to 14) (size 15 to 20)
#    0.000    1.714    2.857    3.429    0.000    0.000 
#    0.000    2.857    3.143    0.857    0.000    0.000 
#    0.000    0.000    0.000    0.000    0.000    0.000 
#
# Total GULP energy -156636.791468 kJ/mol
# GULP energy per Si atom -5594.171124 kJ/mol
# Density = 2.392975 g / cm^3
# Si number density = 23.984339 Si / 1000 Ang^3
#
#
#
# Elastic Constant Matrix: (Units=GPa)
#
#
# Indices 1 2 3 4 5 6 
#
# 1 183.9076 57.8931 51.6655 0.0000 -22.8596 0.0000
# 2 57.8931 156.2950 20.2416 0.0000 0.2679 0.0000
# 3 51.6655 20.2416 59.1976 0.0000 -13.8222 0.0000
# 4 0.0000 0.0000 0.0000 -17.6051 0.0000 56.1993
# 5 -22.8596 0.2679 -13.8222 0.0000 41.6915 0.0000
# 6 0.0000 0.0000 0.0000 56.1993 0.0000 -90.6549
#
#
#
# Elastic Compliance Matrix: (Units=1/GPa)
#
#
# Indices 1 2 3 4 5 6 
#
# 1 0.008056 -0.002255 -0.005664 0.000000 0.002554 0.000000
# 2 -0.002255 0.007355 -0.000918 0.000000 -0.001588 0.000000
# 3 -0.005664 -0.000918 0.023223 0.000000 0.004600 0.000000
# 4 0.000000 0.000000 0.000000 0.058024 0.000000 0.035971
# 5 0.002554 -0.001588 0.004600 0.000000 0.026921 0.000000
# 6 0.000000 0.000000 0.000000 0.035971 0.000000 0.011268
#
#
# Mechanical properties :
#
#
# Convention : Reuss Voigt Hill
#
# Bulk Modulus (GPa) = 47.70546 73.22228 60.46387
# Shear Modulus (GPa) = 31.34660 4.65962 18.00311
#
# Velocity S-wave (km/s) = 3.61911 1.39535 2.74272
# Velocity P-wave (km/s) = 6.11534 5.76120 5.94091
#
# Compressibility (1/GPa) = 0.02096196
#
# Stress axis : x y z
#
# Youngs Moduli (GPa) = 124.13373 135.96286 43.06019
#
# Poissons Ratio (x) = 0.30658 0.24387
# Poissons Ratio (y) = 0.27990 0.03952
# Poissons Ratio (z) = 0.70303 0.12477
#
# Static dielectric constant tensor:
#      x y z
#    x 1.912680 0.000000 0.023760 
#    y 0.000000 1.969840 0.000000 
#    z 0.023760 0.000000 1.893480 
# 
# From -- ./inp_files/48002.got.cif
#   From: 2010.05.17/outbox.cif.g08.bks.cpg/sg11_25_cif.got.tgz:48002.got - 2010.06.03 12:22:45.
