data_PCOD9159940
_publ_section_title
;
Structure prediction by ZEFSAII (Michael W. Deem and Ramdas Pophale) SiO2 
 PCOD9159940
Probable space group: P 21/M
;
_chemical_formula_sum "Si O2"
_cell_formula_units_Z 24
_cell_length_a 11.631190
_cell_length_b 13.822253
_cell_length_c 20.383418
_cell_angle_alpha 90.000000
_cell_angle_beta 160.104058
_cell_angle_gamma 90.000000
_cell_volume 1115.214682
_symmetry_space_group_name_H-M "P 21/M"
_symmetry_group_IT_number 11
_symmetry_cell_setting 'monoclinic'
loop_
_space_group_symop_operation_xyz
x,y,z
-x,1/2+y,-z
-x,-y,-z
x,1/2-y,z
loop_
_atom_site_type_symbol
_atom_site_label
_atom_site_fract_x
_atom_site_fract_y
_atom_site_fract_z
Si Si1 0.095103 0.471016 0.660173
Si Si2 0.020494 0.363088 0.496177
Si Si3 0.293427 0.425407 0.432973
Si Si4 0.834354 0.103257 0.925424
Si Si5 0.836382 0.074152 0.072508
Si Si6 0.956449 0.148124 0.846063
O O1 0.918900 0.398023 0.514507
O O2 0.168874 0.566854 0.655823
O O3 0.882735 0.510667 0.605912
O O4 0.435632 0.420223 0.865936
O O5 0.968790 0.250000 0.457989
O O6 0.423684 0.387572 0.705225
O O7 0.500000 0.500000 0.500000
O O8 0.564521 0.356859 0.612726
O O9 0.027002 0.384226 0.237809
O O10 0.959348 0.153920 0.926506
O O11 0.930017 0.123145 0.052780
O O12 0.000000 0.000000 0.000000
O O13 0.903924 0.957195 0.101201
O O14 0.106812 0.250000 0.900988
#
# Coordination Sequence:
#
# PCOD9159940 Si02
#       6
#     4   4   4   4   4   4
#     4  10  20  36  59  86 118 157 198 245 294 358
#     4  10  20  35  59  88 118 155 199 248 299 348
#     4  10  20  36  58  82 115 156 194 236 296 357
#     4   9  17  32  55  83 112 147 190 242 287 344
#     4   9  20  35  55  81 115 151 194 236 299 354
#     4  10  19  34  56  82 113 152 198 245 290 345
#
# _framework density 21.520520999999999
#
# number of rings (size 3 to 8) (size 9 to 14) (size 15 to 20)
#    0.000    2.333    1.667    1.000    0.000    0.667 
#    0.000    7.500    0.000    5.000    0.000    0.000 
#    0.000    0.000    0.000    0.000    0.000    0.000 
#
# Total GULP energy -133676.657376 kJ/mol
# GULP energy per Si atom -5569.860724 kJ/mol
# Density = 2.147154 g / cm^3
# Si number density = 21.520521 Si / 1000 Ang^3
#
#
#
# Elastic Constant Matrix: (Units=GPa)
#
#
# Indices 1 2 3 4 5 6 
#
# 1 83.2739 -2.1908 9.0425 0.0000 -12.3772 0.0000
# 2 -2.1908 83.7808 1.8945 0.0000 -11.4860 0.0000
# 3 9.0425 1.8945 52.1488 0.0000 -19.8107 0.0000
# 4 0.0000 0.0000 0.0000 -16.1221 0.0000 17.2019
# 5 -12.3772 -11.4860 -19.8107 0.0000 18.9802 0.0000
# 6 0.0000 0.0000 0.0000 17.2019 0.0000 -1.5615
#
#
#
# Elastic Compliance Matrix: (Units=1/GPa)
#
#
# Indices 1 2 3 4 5 6 
#
# 1 0.013679 0.002031 0.002336 0.000000 0.012588 0.000000
# 2 0.002031 0.013890 0.004705 0.000000 0.014641 0.000000
# 3 0.002336 0.004705 0.033572 0.000000 0.039412 0.000000
# 4 0.000000 0.000000 0.000000 0.005768 0.000000 0.063539
# 5 0.012588 0.014641 0.039412 0.000000 0.110891 0.000000
# 6 0.000000 0.000000 0.000000 0.063539 0.000000 0.059550
#
#
# Mechanical properties :
#
#
# Convention : Reuss Voigt Hill
#
# Bulk Modulus (GPa) = 12.61280 26.29952 19.45616
# Shear Modulus (GPa) = 20.35548 14.28982 17.32265
#
# Velocity S-wave (km/s) = 3.07883 2.57963 2.84022
# Velocity P-wave (km/s) = 4.30261 4.59564 4.45153
#
# Compressibility (1/GPa) = 0.07928454
#
# Stress axis : x y z
#
# Youngs Moduli (GPa) = 73.10354 71.99536 29.78686
#
# Poissons Ratio (x) = -0.14619 -0.06959
# Poissons Ratio (y) = -0.14844 -0.14015
# Poissons Ratio (z) = -0.17078 -0.33875
#
# Static dielectric constant tensor:
#      x y z
#    x 1.750910 0.000000 -0.023970 
#    y 0.000000 1.767920 0.000000 
#    z -0.023970 0.000000 1.844260 
# 
# From -- ./inp_files/64826.got.cif
#   From: 2010.05.17/outbox.cif.g08.bks.cpg/sg11_33_cif.got.tgz:64826.got - 2010.06.03 12:22:45.
