data_PCOD9159355
_publ_section_title
;
Structure prediction by ZEFSAII (Michael W. Deem and Ramdas Pophale) SiO2 
 PCOD9159355
Probable space group: P 21/M
;
_chemical_formula_sum "Si O2"
_cell_formula_units_Z 32
_cell_length_a 24.115714
_cell_length_b 9.044421
_cell_length_c 15.134462
_cell_angle_alpha 90.000000
_cell_angle_beta 29.869216
_cell_angle_gamma 90.000000
_cell_volume 1643.979214
_symmetry_space_group_name_H-M "P 21/M"
_symmetry_group_IT_number 11
_symmetry_cell_setting 'monoclinic'
loop_
_space_group_symop_operation_xyz
x,y,z
-x,1/2+y,-z
-x,-y,-z
x,1/2-y,z
loop_
_atom_site_type_symbol
_atom_site_label
_atom_site_fract_x
_atom_site_fract_y
_atom_site_fract_z
Si Si1 0.796200 0.914448 0.113800
Si Si2 0.283574 0.430010 0.435386
Si Si3 0.275063 0.071830 0.073967
Si Si4 0.516783 0.571689 0.719066
Si Si5 0.825688 0.572341 0.596211
Si Si6 0.063766 0.424584 0.244187
Si Si7 0.411580 0.923265 0.559570
Si Si8 0.110193 0.416013 0.820791
O O1 0.752943 0.750000 0.146600
O O2 0.824536 0.906990 0.177369
O O3 0.705295 0.040646 0.232506
O O4 0.901611 0.943521 0.906089
O O5 0.281936 0.250000 0.439292
O O6 0.405410 0.470736 0.304366
O O7 0.245847 0.478070 0.390172
O O8 0.189655 0.481115 0.635432
O O9 0.290362 0.250000 0.045148
O O10 0.234806 0.035559 0.228626
O O11 0.173020 0.030351 0.149649
O O12 0.392169 0.992646 0.894111
O O13 0.514145 0.750000 0.715920
O O14 0.577295 0.503427 0.549999
O O15 0.834253 0.750000 0.579913
O O16 0.950151 0.507734 0.422404
O O17 0.046551 0.250000 0.284832
O O18 0.430036 0.750000 0.524267
O O19 0.500000 0.000000 0.500000
O O20 0.079848 0.250000 0.833907
O O21 0.000000 0.500000 0.000000
#
# Coordination Sequence:
#
# PCOD9159355 Si02
#       8
#     4   4   4   4   4   4   4   4
#     4  10  20  36  56  81 115 155 192 235 292 348
#     4   9  19  37  58  82 117 157 195 245 301 352
#     4  10  22  39  58  86 120 156 199 253 311 357
#     4  11  22  40  63  86 118 159 202 246 301 361
#     4  10  21  38  61  85 116 157 201 250 305 364
#     4  10  21  37  58  85 120 153 192 249 304 357
#     4  12  24  38  59  87 119 155 196 240 287 350
#     4  10  19  33  53  78 112 149 190 238 290 350
#
# _framework density 19.464967999999999
#
# number of rings (size 3 to 8) (size 9 to 14) (size 15 to 20)
#    0.000    1.750    1.250    3.375    0.000    3.500 
#    0.000    1.250    0.000    0.000    0.000    0.000 
#    0.000    0.000    0.000    0.000    0.000    0.000 
#
# Total GULP energy -178586.594307 kJ/mol
# GULP energy per Si atom -5580.831072 kJ/mol
# Density = 1.942066 g / cm^3
# Si number density = 19.464968 Si / 1000 Ang^3
#
#
#
# Elastic Constant Matrix: (Units=GPa)
#
#
# Indices 1 2 3 4 5 6 
#
# 1 75.7369 16.3643 18.1718 0.0000 -1.9316 0.0000
# 2 16.3643 50.9877 33.0190 0.0000 -7.0874 0.0000
# 3 18.1718 33.0190 83.3206 0.0000 -5.5898 0.0000
# 4 0.0000 0.0000 0.0000 33.0486 0.0000 -3.0977
# 5 -1.9316 -7.0874 -5.5898 0.0000 35.4183 0.0000
# 6 0.0000 0.0000 0.0000 -3.0977 0.0000 10.6365
#
#
#
# Elastic Compliance Matrix: (Units=1/GPa)
#
#
# Indices 1 2 3 4 5 6 
#
# 1 0.014378 -0.003501 -0.001761 0.000000 -0.000194 0.000000
# 2 -0.003501 0.027716 -0.009966 0.000000 0.003782 0.000000
# 3 -0.001761 -0.009966 0.016369 0.000000 0.000493 0.000000
# 4 0.000000 0.000000 0.000000 0.031108 0.000000 0.009060
# 5 -0.000194 0.003782 0.000493 0.000000 0.029058 0.000000
# 6 0.000000 0.000000 0.000000 0.009060 0.000000 0.096654
#
#
# Mechanical properties :
#
#
# Convention : Reuss Voigt Hill
#
# Bulk Modulus (GPa) = 35.70764 38.35060 37.02912
# Shear Modulus (GPa) = 19.60215 25.32003 22.46109
#
# Velocity S-wave (km/s) = 3.17684 3.61057 3.40063
# Velocity P-wave (km/s) = 5.64277 6.09318 5.87229
#
# Compressibility (1/GPa) = 0.02800521
#
# Stress axis : x y z
#
# Youngs Moduli (GPa) = 69.55222 36.08044 61.09275
#
# Poissons Ratio (x) = 0.12631 0.10761
# Poissons Ratio (y) = 0.24349 0.60886
# Poissons Ratio (z) = 0.12251 0.35959
#
# Static dielectric constant tensor:
#      x y z
#    x 1.678530 0.000000 -0.038590 
#    y 0.000000 1.687330 0.000000 
#    z -0.038590 0.000000 1.676120 
# 
# From -- ./inp_files/51725.got.cif
#   From: 2010.05.17/outbox.cif.g08.bks.cpg/sg11_26_cif.got.tgz:51725.got - 2010.06.03 12:22:45.
