data_PCOD9159975
_publ_section_title
;
Structure prediction by ZEFSAII (Michael W. Deem and Ramdas Pophale) SiO2 
 PCOD9159975
Probable space group: P 21/M
;
_chemical_formula_sum "Si O2"
_cell_formula_units_Z 24
_cell_length_a 12.069302
_cell_length_b 11.166071
_cell_length_c 17.206689
_cell_angle_alpha 90.000000
_cell_angle_beta 34.326456
_cell_angle_gamma 90.000000
_cell_volume 1307.638411
_symmetry_space_group_name_H-M "P 21/M"
_symmetry_group_IT_number 11
_symmetry_cell_setting 'monoclinic'
loop_
_space_group_symop_operation_xyz
x,y,z
-x,1/2+y,-z
-x,-y,-z
x,1/2-y,z
loop_
_atom_site_type_symbol
_atom_site_label
_atom_site_fract_x
_atom_site_fract_y
_atom_site_fract_z
Si Si1 0.195456 0.625434 0.825659
Si Si2 0.288512 0.948433 0.601548
Si Si3 0.203692 0.250000 0.169720
Si Si4 0.565444 0.250000 0.768802
Si Si5 0.129092 0.524086 0.151522
Si Si6 0.754253 0.948927 0.078075
Si Si7 0.658376 0.250000 0.895065
Si Si8 0.790324 0.250000 0.478406
O O1 0.271850 0.750000 0.813258
O O2 0.229155 0.620545 0.714664
O O3 0.292581 0.518330 0.816001
O O4 0.961082 0.617193 0.973528
O O5 0.285509 0.863571 0.528047
O O6 0.500000 0.000000 0.500000
O O7 0.104908 0.039302 0.700299
O O8 0.171713 0.381329 0.146238
O O9 0.027965 0.250000 0.334263
O O10 0.433254 0.250000 0.056257
O O11 0.421084 0.363169 0.843790
O O12 0.653399 0.250000 0.804061
O O13 0.713803 0.250000 0.610329
O O14 0.240621 0.626660 0.134642
O O15 0.192522 0.535375 0.024813
#
# Coordination Sequence:
#
# PCOD9159975 Si02
#       8
#     4   4   2   2   4   4   2   2
#     4  10  19  34  56  88 121 155 195 245 301 364
#     4  10  20  38  60  86 125 164 196 242 315 378
#     4  10  20  42  64  82 117 163 210 244 311 362
#     4  12  22  38  62  87 120 156 215 247 308 351
#     4  10  22  39  63  93 118 163 210 257 298 371
#     4  10  20  34  58  88 121 150 200 254 300 359
#     4  12  24  39  67  91 123 157 219 265 300 340
#     4  10  22  37  61  86 116 166 208 242 305 391
#
# _framework density 18.353698000000001
#
# number of rings (size 3 to 8) (size 9 to 14) (size 15 to 20)
#    0.000    1.667    3.333    1.500    3.500    0.667 
#    0.000    3.333    3.667    0.000    0.000    0.000 
#    0.000    0.000    0.000    0.000    0.000    0.000 
#
# Total GULP energy -133644.445954 kJ/mol
# GULP energy per Si atom -5568.518581 kJ/mol
# Density = 1.831192 g / cm^3
# Si number density = 18.353698 Si / 1000 Ang^3
#
#
#
# Elastic Constant Matrix: (Units=GPa)
#
#
# Indices 1 2 3 4 5 6 
#
# 1 102.5989 50.6736 42.2430 0.0000 -3.5661 0.0000
# 2 50.6736 78.4782 29.2962 0.0000 -6.7002 0.0000
# 3 42.2430 29.2962 111.0622 0.0000 -13.4788 0.0000
# 4 0.0000 0.0000 0.0000 9.0526 0.0000 -11.6832
# 5 -3.5661 -6.7002 -13.4788 0.0000 38.6366 0.0000
# 6 0.0000 0.0000 0.0000 -11.6832 0.0000 29.3926
#
#
#
# Elastic Compliance Matrix: (Units=1/GPa)
#
#
# Indices 1 2 3 4 5 6 
#
# 1 0.015589 -0.008773 -0.003786 0.000000 -0.001403 0.000000
# 2 -0.008773 0.019125 -0.001466 0.000000 0.001995 0.000000
# 3 -0.003786 -0.001466 0.011233 0.000000 0.003315 0.000000
# 4 0.000000 0.000000 0.000000 0.226825 0.000000 0.090160
# 5 -0.001403 0.001995 0.003315 0.000000 0.027255 0.000000
# 6 0.000000 0.000000 0.000000 0.090160 0.000000 0.069860
#
#
# Mechanical properties :
#
#
# Convention : Reuss Voigt Hill
#
# Bulk Modulus (GPa) = 55.87104 59.61832 57.74468
# Shear Modulus (GPa) = 12.37924 26.74480 19.56202
#
# Velocity S-wave (km/s) = 2.59990 3.82146 3.26826
# Velocity P-wave (km/s) = 6.28649 7.21283 6.76553
#
# Compressibility (1/GPa) = 0.01789836
#
# Stress axis : x y z
#
# Youngs Moduli (GPa) = 64.14587 52.28893 89.02456
#
# Poissons Ratio (x) = 0.45872 0.33702
# Poissons Ratio (y) = 0.56273 0.13049
# Poissons Ratio (z) = 0.24284 0.07664
#
# Static dielectric constant tensor:
#      x y z
#    x 1.622860 0.000000 -0.009170 
#    y 0.000000 1.680190 0.000000 
#    z -0.009170 0.000000 1.643920 
# 
# From -- ./inp_files/41305.got.cif
#   From: 2010.05.17/outbox.cif.g08.bks.cpg/sg11_21_cif.got.tgz:41305.got - 2010.06.03 12:22:45.
