data_PCOD9159861
_publ_section_title
;
Structure prediction by ZEFSAII (Michael W. Deem and Ramdas Pophale) SiO2 
 PCOD9159861
Probable space group: P 21/M
;
_chemical_formula_sum "Si O2"
_cell_formula_units_Z 24
_cell_length_a 21.740430
_cell_length_b 11.171512
_cell_length_c 16.067505
_cell_angle_alpha 90.000000
_cell_angle_beta 162.106017
_cell_angle_gamma 90.000000
_cell_volume 1199.029498
_symmetry_space_group_name_H-M "P 21/M"
_symmetry_group_IT_number 11
_symmetry_cell_setting 'monoclinic'
loop_
_space_group_symop_operation_xyz
x,y,z
-x,1/2+y,-z
-x,-y,-z
x,1/2-y,z
loop_
_atom_site_type_symbol
_atom_site_label
_atom_site_fract_x
_atom_site_fract_y
_atom_site_fract_z
Si Si1 0.784895 0.384857 0.164016
Si Si2 0.959876 0.885710 0.889225
Si Si3 0.780535 0.541350 0.321410
Si Si4 0.610441 0.114017 0.601785
Si Si5 0.425154 0.523295 0.630671
Si Si6 0.353520 0.878345 0.715756
O O1 0.710821 0.250000 0.065641
O O2 0.776185 0.435547 0.246684
O O3 0.013526 0.391302 0.428609
O O4 0.644562 0.469638 0.928061
O O5 0.966003 0.750000 0.932968
O O6 0.736271 0.915198 0.572208
O O7 0.150084 0.890511 0.072129
O O8 0.000000 0.000000 0.000000
O O9 0.765647 0.483992 0.393079
O O10 0.578173 0.613754 0.042478
O O11 0.540646 0.250000 0.533452
O O12 0.500000 0.000000 0.500000
O O13 0.589471 0.092828 0.475202
O O14 0.372444 0.604575 0.641828
O O15 0.262728 0.750000 0.618644
#
# Coordination Sequence:
#
# PCOD9159861 Si02
#       6
#     4   4   4   4   4   4
#     4  10  19  34  55  80 114 146 180 226 272 321
#     4   9  19  37  59  82 109 141 178 223 276 333
#     4   9  20  34  52  81 108 146 189 221 269 323
#     4  10  22  40  60  83 112 145 183 228 281 338
#     4  10  21  36  57  85 109 140 184 228 278 332
#     4  10  19  35  56  77 109 146 185 229 271 320
#
# _framework density 20.016186999999999
#
# number of rings (size 3 to 8) (size 9 to 14) (size 15 to 20)
#    0.000    2.333    0.000    2.000    0.000    5.333 
#    0.000    8.333    0.000    0.000    0.000    0.000 
#    0.000    0.000    0.000    0.000    0.000    0.000 
#
# Total GULP energy -133711.215098 kJ/mol
# GULP energy per Si atom -5571.300629 kJ/mol
# Density = 1.997063 g / cm^3
# Si number density = 20.016187 Si / 1000 Ang^3
#
#
#
# Elastic Constant Matrix: (Units=GPa)
#
#
# Indices 1 2 3 4 5 6 
#
# 1 64.8219 27.3296 4.4670 0.0000 -3.5936 0.0000
# 2 27.3296 128.3560 4.7653 0.0000 4.2256 0.0000
# 3 4.4670 4.7653 43.5653 0.0000 4.9684 0.0000
# 4 0.0000 0.0000 0.0000 13.9388 0.0000 6.4176
# 5 -3.5936 4.2256 4.9684 0.0000 23.1246 0.0000
# 6 0.0000 0.0000 0.0000 6.4176 0.0000 10.6829
#
#
#
# Elastic Compliance Matrix: (Units=1/GPa)
#
#
# Indices 1 2 3 4 5 6 
#
# 1 0.017340 -0.003749 -0.001797 0.000000 0.003766 0.000000
# 2 -0.003749 0.008670 -0.000325 0.000000 -0.002097 0.000000
# 3 -0.001797 -0.000325 0.023782 0.000000 -0.005330 0.000000
# 4 0.000000 0.000000 0.000000 0.099173 0.000000 -0.059577
# 5 0.003766 -0.002097 -0.005330 0.000000 0.045358 0.000000
# 6 0.000000 0.000000 0.000000 -0.059577 0.000000 0.129398
#
#
# Mechanical properties :
#
#
# Convention : Reuss Voigt Hill
#
# Bulk Modulus (GPa) = 26.28174 34.42967 30.35571
# Shear Modulus (GPa) = 14.36178 22.89466 18.62822
#
# Velocity S-wave (km/s) = 2.68154 3.38569 3.05398
# Velocity P-wave (km/s) = 4.76931 5.70282 5.25683
#
# Compressibility (1/GPa) = 0.03804923
#
# Stress axis : x y z
#
# Youngs Moduli (GPa) = 57.66912 115.33700 42.04916
#
# Poissons Ratio (x) = 0.43244 0.07558
# Poissons Ratio (y) = 0.21622 0.01366
# Poissons Ratio (z) = 0.10365 0.03746
#
# Static dielectric constant tensor:
#      x y z
#    x 1.696430 0.000000 -0.006890 
#    y 0.000000 1.688990 0.000000 
#    z -0.006890 0.000000 1.733930 
# 
# From -- ./inp_files/16929.got.cif
#   From: 2010.05.17/outbox.cif.g08.bks.cpg/sg11_9_cif.got.tgz:16929.got - 2010.06.03 12:22:45.
