data_PCOD9159454
_publ_section_title
;
Structure prediction by ZEFSAII (Michael W. Deem and Ramdas Pophale) SiO2 
 PCOD9159454
Probable space group: P 21/M
;
_chemical_formula_sum "Si O2"
_cell_formula_units_Z 32
_cell_length_a 8.000882
_cell_length_b 12.372863
_cell_length_c 18.738693
_cell_angle_alpha 90.000000
_cell_angle_beta 127.910817
_cell_angle_gamma 90.000000
_cell_volume 1463.547455
_symmetry_space_group_name_H-M "P 21/M"
_symmetry_group_IT_number 11
_symmetry_cell_setting 'monoclinic'
loop_
_space_group_symop_operation_xyz
x,y,z
-x,1/2+y,-z
-x,-y,-z
x,1/2-y,z
loop_
_atom_site_type_symbol
_atom_site_label
_atom_site_fract_x
_atom_site_fract_y
_atom_site_fract_z
Si Si1 0.849856 0.635069 0.203389
Si Si2 0.064928 0.633178 0.024530
Si Si3 0.924514 0.628237 0.595142
Si Si4 0.485929 0.374635 0.604092
Si Si5 0.277393 0.039807 0.690116
Si Si6 0.287928 0.058287 0.155600
Si Si7 0.155614 0.047368 0.273335
Si Si8 0.430865 0.624024 0.008459
O O1 0.951197 0.750000 0.210551
O O2 0.841677 0.616358 0.285639
O O3 0.610731 0.638743 0.114709
O O4 0.959214 0.528909 0.201598
O O5 0.111171 0.750000 0.065605
O O6 0.151025 0.549744 0.104495
O O7 0.205351 0.616269 0.989584
O O8 0.819238 0.626765 0.935886
O O9 0.978276 0.750000 0.587593
O O10 0.697337 0.602056 0.501388
O O11 0.907740 0.620518 0.676721
O O12 0.105213 0.545986 0.618057
O O13 0.552571 0.250000 0.612671
O O14 0.382082 0.393430 0.654404
O O15 0.673183 0.461333 0.651749
O O16 0.465848 0.973756 0.780099
O O17 0.240719 0.100211 0.223055
O O18 0.428538 0.750000 0.971775
O O19 0.500000 0.500000 0.000000
#
# Coordination Sequence:
#
# PCOD9159454 Si02
#       8
#     4   4   4   4   4   4   4   4
#     4  10  19  33  54  81 113 148 192 242 294 347
#     4  10  21  37  58  81 113 151 192 247 301 349
#     4  10  22  39  58  83 118 158 192 234 290 357
#     4  10  20  36  60  89 116 147 192 239 298 352
#     4  10  20  36  59  84 115 151 192 245 287 348
#     4  10  21  37  57  82 112 146 196 242 287 353
#     4  10  21  36  58  84 117 150 193 243 289 348
#     4  10  20  36  57  82 116 154 195 242 299 356
#
# _framework density 21.864681999999998
#
# number of rings (size 3 to 8) (size 9 to 14) (size 15 to 20)
#    0.000    2.000    1.250    2.250    0.000    3.500 
#    0.000    9.375    0.000   10.500    0.000    0.000 
#    0.000    0.000    0.000    0.000    0.000    0.000 
#
# Total GULP energy -178216.199609 kJ/mol
# GULP energy per Si atom -5569.256238 kJ/mol
# Density = 2.181492 g / cm^3
# Si number density = 21.864682 Si / 1000 Ang^3
#
#
#
# Elastic Constant Matrix: (Units=GPa)
#
#
# Indices 1 2 3 4 5 6 
#
# 1 31.2575 -2.5034 -2.2209 0.0000 -0.8305 0.0000
# 2 -2.5034 80.2556 8.7366 0.0000 2.4245 0.0000
# 3 -2.2209 8.7366 63.0230 0.0000 23.9042 0.0000
# 4 0.0000 0.0000 0.0000 -14.7455 0.0000 -0.0052
# 5 -0.8305 2.4245 23.9042 0.0000 31.7705 0.0000
# 6 0.0000 0.0000 0.0000 -0.0052 0.0000 12.0277
#
#
#
# Elastic Compliance Matrix: (Units=1/GPa)
#
#
# Indices 1 2 3 4 5 6 
#
# 1 0.032135 0.000893 0.001002 0.000000 0.000018 0.000000
# 2 0.000893 0.012681 -0.001915 0.000000 0.000496 0.000000
# 3 0.001002 -0.001915 0.022533 0.000000 -0.016782 0.000000
# 4 0.000000 0.000000 0.000000 -0.067817 0.000000 -0.000029
# 5 0.000018 0.000496 -0.016782 0.000000 0.044065 0.000000
# 6 0.000000 0.000000 0.000000 -0.000029 0.000000 0.083141
#
#
# Mechanical properties :
#
#
# Convention : Reuss Voigt Hill
#
# Bulk Modulus (GPa) = 14.85667 20.28453 17.57060
# Shear Modulus (GPa) = 33.50856 17.17880 25.34368
#
# Velocity S-wave (km/s) = 3.91902 2.80605 3.40827
# Velocity P-wave (km/s) = 5.22378 4.44927 4.85200
#
# Compressibility (1/GPa) = 0.06730982
#
# Stress axis : x y z
#
# Youngs Moduli (GPa) = 31.11825 78.85507 44.37914
#
# Poissons Ratio (x) = -0.07040 -0.04446
# Poissons Ratio (y) = -0.02778 0.08497
# Poissons Ratio (z) = -0.03118 0.15099
#
# Static dielectric constant tensor:
#      x y z
#    x 1.799510 0.000000 0.007050 
#    y 0.000000 1.871230 0.000000 
#    z 0.007050 0.000000 1.776580 
# 
# From -- ./inp_files/63656.got.cif
#   From: 2010.05.17/outbox.cif.g08.bks.cpg/sg11_32_cif.got.tgz:63656.got - 2010.06.03 12:22:45.
