data_PCOD9159075
_publ_section_title
;
Structure prediction by ZEFSAII (Michael W. Deem and Ramdas Pophale) SiO2 
 PCOD9159075
Probable space group: P 21/M
;
_chemical_formula_sum "Si O2"
_cell_formula_units_Z 32
_cell_length_a 25.947900
_cell_length_b 8.748208
_cell_length_c 21.157888
_cell_angle_alpha 90.000000
_cell_angle_beta 22.445357
_cell_angle_gamma 90.000000
_cell_volume 1833.715704
_symmetry_space_group_name_H-M "P 21/M"
_symmetry_group_IT_number 11
_symmetry_cell_setting 'monoclinic'
loop_
_space_group_symop_operation_xyz
x,y,z
-x,1/2+y,-z
-x,-y,-z
x,1/2-y,z
loop_
_atom_site_type_symbol
_atom_site_label
_atom_site_fract_x
_atom_site_fract_y
_atom_site_fract_z
Si Si1 0.854817 0.433312 0.095503
Si Si2 0.160151 0.067786 0.747825
Si Si3 0.565697 0.936155 0.110877
Si Si4 0.855087 0.933743 0.736292
Si Si5 0.143202 0.068150 0.414982
Si Si6 0.413932 0.933197 0.155564
Si Si7 0.431721 0.566668 0.393673
Si Si8 0.576651 0.067036 0.352191
O O1 0.852148 0.250000 0.110118
O O2 0.826708 0.515173 0.194060
O O3 0.735016 0.468969 0.182934
O O4 0.006698 0.473255 0.902432
O O5 0.175653 0.250000 0.726741
O O6 0.277997 0.989021 0.574916
O O7 0.566161 0.750000 0.110256
O O8 0.479741 0.984004 0.147125
O O9 0.499308 0.985867 0.251625
O O10 0.720906 0.983672 0.925049
O O11 0.869147 0.750000 0.725438
O O12 0.835807 0.968621 0.683469
O O13 0.993375 0.011419 0.601133
O O14 0.153492 0.250000 0.410199
O O15 0.260891 0.988030 0.320662
O O16 0.420779 0.750000 0.144942
O O17 0.500000 0.000000 0.000000
O O18 0.434516 0.750000 0.392915
O O19 0.513736 0.502113 0.360413
O O20 0.560277 0.250000 0.370065
O O21 0.500000 0.000000 0.500000
#
# Coordination Sequence:
#
# PCOD9159075 Si02
#       8
#     4   4   4   4   4   4   4   4
#     4   9  19  34  54  79 107 139 177 222 271 320
#     4  10  19  33  54  80 109 141 177 221 272 322
#     4   9  20  38  57  77 108 148 186 222 268 328
#     4   9  17  34  55  77 108 145 183 224 270 323
#     4  10  19  32  53  84 113 139 178 228 277 327
#     4  11  20  35  57  83 110 142 184 232 278 324
#     4  11  22  37  56  79 110 148 185 223 268 323
#     4  11  21  35  56  83 111 140 180 227 272 321
#
# _framework density 17.450906
#
# number of rings (size 3 to 8) (size 9 to 14) (size 15 to 20)
#    0.000    2.000    2.500    1.875    0.000    1.500 
#    0.000    5.000    0.000    4.500    0.000    0.000 
#    0.000    0.000    0.000    0.000    0.000    0.000 
#
# Total GULP energy -178602.938586 kJ/mol
# GULP energy per Si atom -5581.341831 kJ/mol
# Density = 1.741119 g / cm^3
# Si number density = 17.450906 Si / 1000 Ang^3
#
#
#
# Elastic Constant Matrix: (Units=GPa)
#
#
# Indices 1 2 3 4 5 6 
#
# 1 110.2531 35.3881 87.1844 0.0000 -2.6813 0.0000
# 2 35.3881 39.9080 45.6176 0.0000 -4.2305 0.0000
# 3 87.1844 45.6176 171.0766 0.0000 -5.9476 0.0000
# 4 0.0000 0.0000 0.0000 28.7827 0.0000 -4.3912
# 5 -2.6813 -4.2305 -5.9476 0.0000 28.6963 0.0000
# 6 0.0000 0.0000 0.0000 -4.3912 0.0000 22.4960
#
#
#
# Elastic Compliance Matrix: (Units=1/GPa)
#
#
# Indices 1 2 3 4 5 6 
#
# 1 0.016548 -0.007325 -0.006511 0.000000 -0.000883 0.000000
# 2 -0.007325 0.039608 -0.006697 0.000000 0.003767 0.000000
# 3 -0.006511 -0.006697 0.010973 0.000000 0.000679 0.000000
# 4 0.000000 0.000000 0.000000 0.035810 0.000000 0.006990
# 5 -0.000883 0.003767 0.000679 0.000000 0.035461 0.000000
# 6 0.000000 0.000000 0.000000 0.006990 0.000000 0.045817
#
#
# Mechanical properties :
#
#
# Convention : Reuss Voigt Hill
#
# Bulk Modulus (GPa) = 38.36975 73.06866 55.71921
# Shear Modulus (GPa) = 21.37014 26.19818 23.78416
#
# Velocity S-wave (km/s) = 3.50321 3.87880 3.69578
# Velocity P-wave (km/s) = 6.19663 7.87541 7.08591
#
# Compressibility (1/GPa) = 0.02606219
#
# Stress axis : x y z
#
# Youngs Moduli (GPa) = 60.42920 25.24727 91.13427
#
# Poissons Ratio (x) = 0.18495 0.59335
# Poissons Ratio (y) = 0.44267 0.61036
# Poissons Ratio (z) = 0.39344 0.16909
#
# Static dielectric constant tensor:
#      x y z
#    x 1.569690 0.000000 -0.018620 
#    y 0.000000 1.586950 0.000000 
#    z -0.018620 0.000000 1.599520 
# 
# From -- ./inp_files/67012.got.cif
#   From: 2010.05.17/outbox.cif.g08.bks.cpg/sg11_34_cif.got.tgz:67012.got - 2010.06.03 12:22:45.
