data_PCOD9159539
_publ_section_title
;
Structure prediction by ZEFSAII (Michael W. Deem and Ramdas Pophale) SiO2 
 PCOD9159539
Probable space group: P 21/M
;
_chemical_formula_sum "Si O2"
_cell_formula_units_Z 32
_cell_length_a 30.742622
_cell_length_b 7.586247
_cell_length_c 12.682410
_cell_angle_alpha 90.000000
_cell_angle_beta 151.599376
_cell_angle_gamma 90.000000
_cell_volume 1406.832435
_symmetry_space_group_name_H-M "P 21/M"
_symmetry_group_IT_number 11
_symmetry_cell_setting 'monoclinic'
loop_
_space_group_symop_operation_xyz
x,y,z
-x,1/2+y,-z
-x,-y,-z
x,1/2-y,z
loop_
_atom_site_type_symbol
_atom_site_label
_atom_site_fract_x
_atom_site_fract_y
_atom_site_fract_z
Si Si1 0.875860 0.034605 0.985807
Si Si2 0.749115 0.544790 0.096977
Si Si3 0.731154 0.464153 0.298292
Si Si4 0.606789 0.460691 0.225714
Si Si5 0.105904 0.960428 0.211916
Si Si6 0.417683 0.946192 0.399898
Si Si7 0.678312 0.033185 0.604792
Si Si8 0.043831 0.461171 0.480303
O O1 0.878808 0.250000 0.992329
O O2 0.866177 0.975511 0.844425
O O3 0.783789 0.982519 0.850630
O O4 0.970465 0.971908 0.238371
O O5 0.749306 0.750000 0.065853
O O6 0.719694 0.531768 0.156129
O O7 0.852476 0.472081 0.307837
O O8 0.674974 0.451684 0.865918
O O9 0.729278 0.250000 0.287830
O O10 0.656463 0.523445 0.225240
O O11 0.828525 0.523779 0.555005
O O12 0.620204 0.250000 0.254388
O O13 0.650385 0.524938 0.428214
O O14 0.500000 0.500000 0.000000
O O15 0.117845 0.750000 0.235605
O O16 0.000000 0.000000 0.000000
O O17 0.443158 0.750000 0.485441
O O18 0.390499 0.035570 0.452451
O O19 0.500000 0.000000 0.500000
O O20 0.677167 0.250000 0.603155
O O21 0.049656 0.250000 0.479009
O O22 0.000000 0.500000 0.500000
#
# Coordination Sequence:
#
# PCOD9159539 Si02
#       8
#     4   4   4   4   4   4   4   4
#     4   9  16  32  57  82 109 147 189 231 284 348
#     4  11  24  41  60  88 125 162 202 250 302 362
#     4  10  21  38  60  87 121 159 200 246 296 358
#     4  10  21  38  60  89 117 151 197 246 300 359
#     4  10  19  33  55  82 115 152 191 234 282 343
#     4  11  24  42  65  91 119 157 202 251 304 360
#     4   9  18  36  62  87 114 149 195 242 292 357
#     4  10  21  36  58  86 116 154 200 248 299 356
#
# _framework density 22.746133
#
# number of rings (size 3 to 8) (size 9 to 14) (size 15 to 20)
#    0.000    2.000    1.250    2.250    1.750    4.000 
#    0.000    1.250    0.000    2.250    0.000    0.000 
#    0.000    0.000    0.000    0.000    0.000    0.000 
#
# Total GULP energy -178800.621659 kJ/mol
# GULP energy per Si atom -5587.519427 kJ/mol
# Density = 2.269436 g / cm^3
# Si number density = 22.746133 Si / 1000 Ang^3
#
#
#
# Elastic Constant Matrix: (Units=GPa)
#
#
# Indices 1 2 3 4 5 6 
#
# 1 139.9502 -7.6725 18.9314 0.0000 17.1602 0.0000
# 2 -7.6725 48.2747 -12.4389 0.0000 4.5302 0.0000
# 3 18.9314 -12.4389 66.7496 0.0000 16.8557 0.0000
# 4 0.0000 0.0000 0.0000 14.8066 0.0000 5.4764
# 5 17.1602 4.5302 16.8557 0.0000 44.3632 0.0000
# 6 0.0000 0.0000 0.0000 5.4764 0.0000 20.0284
#
#
#
# Elastic Compliance Matrix: (Units=1/GPa)
#
#
# Indices 1 2 3 4 5 6 
#
# 1 0.007704 0.001128 -0.001320 0.000000 -0.002594 0.000000
# 2 0.001128 0.022642 0.005081 0.000000 -0.004679 0.000000
# 3 -0.001320 0.005081 0.018035 0.000000 -0.006861 0.000000
# 4 0.000000 0.000000 0.000000 0.075136 0.000000 -0.020544
# 5 -0.002594 -0.004679 -0.006861 0.000000 0.026629 0.000000
# 6 0.000000 0.000000 0.000000 -0.020544 0.000000 0.055547
#
#
# Mechanical properties :
#
#
# Convention : Reuss Voigt Hill
#
# Bulk Modulus (GPa) = 17.19419 28.06826 22.63122
# Shear Modulus (GPa) = 23.22328 32.91660 28.06994
#
# Velocity S-wave (km/s) = 3.19874 3.80824 3.51672
# Velocity P-wave (km/s) = 4.60632 5.63059 5.14401
#
# Compressibility (1/GPa) = 0.05815920
#
# Stress axis : x y z
#
# Youngs Moduli (GPa) = 129.80641 44.16503 55.44756
#
# Poissons Ratio (x) = -0.04981 0.07318
# Poissons Ratio (y) = -0.14638 -0.28174
# Poissons Ratio (z) = 0.17132 -0.22441
#
# Static dielectric constant tensor:
#      x y z
#    x 1.886810 0.000000 0.034970 
#    y 0.000000 1.839660 0.000000 
#    z 0.034970 0.000000 1.839510 
# 
# From -- ./inp_files/45240.got.cif
#   From: 2010.05.17/outbox.cif.g08.bks.cpg/sg11_23_cif.got.tgz:45240.got - 2010.06.03 12:22:45.
