data_PCOD9159365
_publ_section_title
;
Structure prediction by ZEFSAII (Michael W. Deem and Ramdas Pophale) SiO2 
 PCOD9159365
Probable space group: P 21/M
;
_chemical_formula_sum "Si O2"
_cell_formula_units_Z 28
_cell_length_a 9.872643
_cell_length_b 7.937522
_cell_length_c 26.111646
_cell_angle_alpha 90.000000
_cell_angle_beta 139.902619
_cell_angle_gamma 90.000000
_cell_volume 1317.948015
_symmetry_space_group_name_H-M "P 21/M"
_symmetry_group_IT_number 11
_symmetry_cell_setting 'monoclinic'
loop_
_space_group_symop_operation_xyz
x,y,z
-x,1/2+y,-z
-x,-y,-z
x,1/2-y,z
loop_
_atom_site_type_symbol
_atom_site_label
_atom_site_fract_x
_atom_site_fract_y
_atom_site_fract_z
Si Si1 0.849787 0.546202 0.004281
Si Si2 0.941392 0.043802 0.318843
Si Si3 0.369122 0.952247 0.856234
Si Si4 0.567142 0.546261 0.681783
Si Si5 0.875771 0.047062 0.412661
Si Si6 0.388765 0.451701 0.415896
Si Si7 0.038905 0.049757 0.849403
O O1 0.846176 0.750000 0.004571
O O2 0.927889 0.485883 0.082805
O O3 0.608142 0.485062 0.929199
O O4 0.000000 0.500000 0.000000
O O5 0.937143 0.250000 0.318453
O O6 0.742769 0.986767 0.228332
O O7 0.964192 0.985966 0.383922
O O8 0.148629 0.990258 0.348627
O O9 0.381488 0.750000 0.856484
O O10 0.215054 0.987870 0.859855
O O11 0.569329 0.750000 0.683543
O O12 0.367802 0.489975 0.656854
O O13 0.514279 0.486740 0.608824
O O14 0.800700 0.491886 0.764022
O O15 0.877046 0.250000 0.411883
O O16 0.000000 0.000000 0.500000
O O17 0.500000 0.500000 0.500000
O O18 0.388265 0.250000 0.413599
O O19 0.061553 0.250000 0.856927
#
# Coordination Sequence:
#
# PCOD9159365 Si02
#       7
#     4   4   4   4   4   4   4
#     4  10  24  41  63  93 123 155 193 238 292 352
#     4   9  18  34  56  81 109 144 192 237 275 337
#     4  10  20  40  65  87 115 157 200 238 288 354
#     4  10  21  37  58  83 113 156 201 234 280 357
#     4  10  21  36  56  82 113 151 196 242 292 348
#     4  10  19  33  53  79 110 144 189 238 281 336
#     4  11  23  39  59  91 125 152 191 246 298 344
#
# _framework density 21.245149000000001
#
# number of rings (size 3 to 8) (size 9 to 14) (size 15 to 20)
#    0.000    2.000    1.429    1.714    2.000    2.857 
#    0.000    0.714    0.000    0.000    0.000    0.000 
#    0.000    0.000    0.000    0.000    0.000    0.000 
#
# Total GULP energy -156254.373720 kJ/mol
# GULP energy per Si atom -5580.513347 kJ/mol
# Density = 2.119679 g / cm^3
# Si number density = 21.245149 Si / 1000 Ang^3
#
#
#
# Elastic Constant Matrix: (Units=GPa)
#
#
# Indices 1 2 3 4 5 6 
#
# 1 93.2160 2.0616 20.5230 0.0000 -6.6181 0.0000
# 2 2.0616 15.1299 -1.4978 0.0000 0.6139 0.0000
# 3 20.5230 -1.4978 107.6221 0.0000 -7.0746 0.0000
# 4 0.0000 0.0000 0.0000 22.3447 0.0000 -1.6448
# 5 -6.6181 0.6139 -7.0746 0.0000 39.8661 0.0000
# 6 0.0000 0.0000 0.0000 -1.6448 0.0000 21.6438
#
#
#
# Elastic Compliance Matrix: (Units=1/GPa)
#
#
# Indices 1 2 3 4 5 6 
#
# 1 0.011336 -0.001814 -0.002086 0.000000 0.001540 0.000000
# 2 -0.001814 0.066505 0.001198 0.000000 -0.001113 0.000000
# 3 -0.002086 0.001198 0.009797 0.000000 0.001374 0.000000
# 4 0.000000 0.000000 0.000000 0.045005 0.000000 0.003420
# 5 0.001540 -0.001113 0.001374 0.000000 0.025601 0.000000
# 6 0.000000 0.000000 0.000000 0.003420 0.000000 0.046463
#
#
# Mechanical properties :
#
#
# Convention : Reuss Voigt Hill
#
# Bulk Modulus (GPa) = 12.16016 28.68241 20.42128
# Shear Modulus (GPa) = 21.05080 29.76299 25.40690
#
# Velocity S-wave (km/s) = 3.15120 3.74696 3.46192
# Velocity P-wave (km/s) = 4.35617 5.67888 5.06092
#
# Compressibility (1/GPa) = 0.08223579
#
# Stress axis : x y z
#
# Youngs Moduli (GPa) = 88.21121 15.03640 102.07719
#
# Poissons Ratio (x) = 0.02727 0.21292
# Poissons Ratio (y) = 0.15999 -0.12232
# Poissons Ratio (z) = 0.18399 -0.01802
#
# Static dielectric constant tensor:
#      x y z
#    x 1.762560 0.000000 -0.011860 
#    y 0.000000 1.772690 0.000000 
#    z -0.011860 0.000000 1.779480 
# 
# From -- ./inp_files/28562.got.cif
#   From: 2010.05.17/outbox.cif.g08.bks.cpg/sg11_15_cif.got.tgz:28562.got - 2010.06.03 12:22:45.
