data_PCOD9159255
_publ_section_title
;
Structure prediction by ZEFSAII (Michael W. Deem and Ramdas Pophale) SiO2 
 PCOD9159255
Probable space group: P 21/M
;
_chemical_formula_sum "Si O2"
_cell_formula_units_Z 28
_cell_length_a 22.977843
_cell_length_b 8.454682
_cell_length_c 18.496358
_cell_angle_alpha 90.000000
_cell_angle_beta 18.452283
_cell_angle_gamma 90.000000
_cell_volume 1137.330620
_symmetry_space_group_name_H-M "P 21/M"
_symmetry_group_IT_number 11
_symmetry_cell_setting 'monoclinic'
loop_
_space_group_symop_operation_xyz
x,y,z
-x,1/2+y,-z
-x,-y,-z
x,1/2-y,z
loop_
_atom_site_type_symbol
_atom_site_label
_atom_site_fract_x
_atom_site_fract_y
_atom_site_fract_z
Si Si1 0.108798 0.060005 0.941313
Si Si2 0.442421 0.059487 0.462214
Si Si3 0.755979 0.563738 0.758925
Si Si4 0.860390 0.061261 0.944518
Si Si5 0.410449 0.063627 0.341246
Si Si6 0.181723 0.063763 0.159283
Si Si7 0.685586 0.431961 0.690016
O O1 0.105268 0.250000 0.947918
O O2 0.315855 0.001048 0.676348
O O3 0.044610 0.995447 0.094100
O O4 0.000000 0.000000 0.000000
O O5 0.452542 0.250000 0.457454
O O6 0.650041 0.002668 0.207176
O O7 0.345824 0.025944 0.498471
O O8 0.798093 0.750000 0.702195
O O9 0.783330 0.481347 0.649486
O O10 0.846364 0.496224 0.726274
O O11 0.534227 0.553141 0.034082
O O12 0.864815 0.250000 0.936666
O O13 0.908031 0.001007 0.808327
O O14 0.456359 0.250000 0.286463
O O15 0.600062 0.967914 0.108769
O O16 0.288674 0.029044 0.414279
O O17 0.148814 0.250000 0.201947
O O18 0.725623 0.250000 0.627142
#
# Coordination Sequence:
#
# PCOD9159255 Si02
#       7
#     4   4   4   4   4   4   4
#     4  11  22  37  53  72  98 126 157 196 240 286
#     4   8  17  32  51  72  95 124 160 199 238 283
#     4   8  14  22  32  49  78 116 153 185 223 271
#     4  10  19  33  52  74  96 124 160 196 239 287
#     4   9  15  25  40  59  84 116 153 192 233 277
#     4   9  16  26  40  61  87 117 153 193 233 273
#     4   9  15  21  31  51  80 115 152 188 228 272
#
# _framework density 24.619050999999999
#
# number of rings (size 3 to 8) (size 9 to 14) (size 15 to 20)
#    0.000    2.857    0.000    4.286    0.000    4.000 
#    0.000    7.857    0.000    0.000    0.000    0.000 
#    0.000    1.143    0.000    3.429    0.000   10.000 
#
# Total GULP energy -156434.327070 kJ/mol
# GULP energy per Si atom -5586.940253 kJ/mol
# Density = 2.456302 g / cm^3
# Si number density = 24.619051 Si / 1000 Ang^3
#
#
#
# Elastic Constant Matrix: (Units=GPa)
#
#
# Indices 1 2 3 4 5 6 
#
# 1 208.9472 40.4848 39.7252 0.0000 16.2096 0.0000
# 2 40.4848 46.7859 5.2592 0.0000 16.7547 0.0000
# 3 39.7252 5.2592 82.5703 0.0000 19.5418 0.0000
# 4 0.0000 0.0000 0.0000 6.4300 0.0000 1.7992
# 5 16.2096 16.7547 19.5418 0.0000 55.7875 0.0000
# 6 0.0000 0.0000 0.0000 1.7992 0.0000 43.7126
#
#
#
# Elastic Compliance Matrix: (Units=1/GPa)
#
#
# Indices 1 2 3 4 5 6 
#
# 1 0.006326 -0.005438 -0.002888 0.000000 0.000807 0.000000
# 2 -0.005438 0.028628 0.002676 0.000000 -0.007955 0.000000
# 3 -0.002888 0.002676 0.014526 0.000000 -0.005053 0.000000
# 4 0.000000 0.000000 0.000000 0.157332 0.000000 -0.006476
# 5 0.000807 -0.007955 -0.005053 0.000000 0.021850 0.000000
# 6 0.000000 0.000000 0.000000 -0.006476 0.000000 0.023143
#
#
# Mechanical properties :
#
#
# Convention : Reuss Voigt Hill
#
# Bulk Modulus (GPa) = 26.19299 56.58243 41.38771
# Shear Modulus (GPa) = 18.12697 38.04165 28.08431
#
# Velocity S-wave (km/s) = 2.71643 3.93518 3.38117
# Velocity P-wave (km/s) = 4.52781 6.60913 5.66488
#
# Compressibility (1/GPa) = 0.03817815
#
# Stress axis : x y z
#
# Youngs Moduli (GPa) = 158.07478 34.93097 68.84323
#
# Poissons Ratio (x) = 0.18997 0.19883
# Poissons Ratio (y) = 0.85968 -0.18421
# Poissons Ratio (z) = 0.45654 -0.09347
#
# Static dielectric constant tensor:
#      x y z
#    x 1.969320 0.000000 0.053450 
#    y 0.000000 1.817070 0.000000 
#    z 0.053450 0.000000 1.508040 
# 
# From -- ./inp_files/61258.got.cif
#   From: 2010.05.17/outbox.cif.g08.bks.cpg/sg11_31_cif.got.tgz:61258.got - 2010.06.03 12:22:45.
