data_PCOD9159331
_publ_section_title
;
Structure prediction by ZEFSAII (Michael W. Deem and Ramdas Pophale) SiO2 
 PCOD9159331
Probable space group: P 21/M
;
_chemical_formula_sum "Si O2"
_cell_formula_units_Z 28
_cell_length_a 4.936002
_cell_length_b 33.294813
_cell_length_c 8.331269
_cell_angle_alpha 90.000000
_cell_angle_beta 81.843142
_cell_angle_gamma 90.000000
_cell_volume 1355.336336
_symmetry_space_group_name_H-M "P 21/M"
_symmetry_group_IT_number 11
_symmetry_cell_setting 'monoclinic'
loop_
_space_group_symop_operation_xyz
x,y,z
-x,1/2+y,-z
-x,-y,-z
x,1/2-y,z
loop_
_atom_site_type_symbol
_atom_site_label
_atom_site_fract_x
_atom_site_fract_y
_atom_site_fract_z
Si Si1 0.871335 0.292761 0.918513
Si Si2 0.606102 0.043078 0.560957
Si Si3 0.234022 0.942007 0.779079
Si Si4 0.715578 0.508628 0.840746
Si Si5 0.747054 0.122579 0.950367
Si Si6 0.300759 0.117645 0.719088
Si Si7 0.574050 0.794567 0.306798
O O1 0.804112 0.250000 0.999982
O O2 0.191729 0.294339 0.851284
O O3 0.769620 0.332148 0.013900
O O4 0.716381 0.294469 0.759197
O O5 0.805564 0.061250 0.408872
O O6 0.387009 0.077654 0.617755
O O7 0.500000 0.000000 0.500000
O O8 0.733838 0.029117 0.719670
O O9 0.550217 0.955355 0.768386
O O10 0.016593 0.975696 0.851952
O O11 0.202887 0.906369 0.905676
O O12 0.500000 0.500000 0.000000
O O13 0.469425 0.116502 0.873900
O O14 0.985926 0.118084 0.797396
O O15 0.380507 0.160390 0.627001
O O16 0.601767 0.750000 0.385754
#
# Coordination Sequence:
#
# PCOD9159331 Si02
#       7
#     4   4   4   4   4   4   4
#     4   8  14  25  44  71  99 123 153 198 247 290
#     4  10  23  38  52  73 103 136 170 209 257 302
#     4  11  22  35  51  73 100 129 161 204 250 293
#     4  11  22  37  55  72  93 127 169 210 247 291
#     4  10  19  33  53  76  99 129 169 208 245 295
#     4  10  20  34  53  75 101 132 170 207 246 299
#     4   8  14  26  46  72  97 122 157 204 248 286
#
# _framework density 20.659075999999999
#
# number of rings (size 3 to 8) (size 9 to 14) (size 15 to 20)
#    0.000    2.286    0.000    3.429    0.000    5.714 
#    0.000    0.000    0.000    0.857    0.000    0.000 
#    0.000   24.000    0.000    0.000    0.000    3.429 
#
# Total GULP energy -155874.939615 kJ/mol
# GULP energy per Si atom -5566.962129 kJ/mol
# Density = 2.061206 g / cm^3
# Si number density = 20.659076 Si / 1000 Ang^3
#
#
#
# Elastic Constant Matrix: (Units=GPa)
#
#
# Indices 1 2 3 4 5 6 
#
# 1 74.5630 0.7583 -0.9914 0.0000 -6.0345 0.0000
# 2 0.7583 141.3744 22.5441 0.0000 2.5216 0.0000
# 3 -0.9914 22.5441 61.4318 0.0000 -5.4907 0.0000
# 4 0.0000 0.0000 0.0000 3.4187 0.0000 1.2708
# 5 -6.0345 2.5216 -5.4907 0.0000 11.6795 0.0000
# 6 0.0000 0.0000 0.0000 1.2708 0.0000 26.6117
#
#
#
# Elastic Compliance Matrix: (Units=1/GPa)
#
#
# Indices 1 2 3 4 5 6 
#
# 1 0.014065 -0.000386 0.001071 0.000000 0.007854 0.000000
# 2 -0.000386 0.007629 -0.003101 0.000000 -0.003305 0.000000
# 3 0.001071 -0.003101 0.018312 0.000000 0.009832 0.000000
# 4 0.000000 0.000000 0.000000 0.297791 0.000000 -0.014220
# 5 0.007854 -0.003305 0.009832 0.000000 0.095013 0.000000
# 6 0.000000 0.000000 0.000000 -0.014220 0.000000 0.038256
#
#
# Mechanical properties :
#
#
# Convention : Reuss Voigt Hill
#
# Bulk Modulus (GPa) = 28.43097 35.77680 32.10388
# Shear Modulus (GPa) = 10.25378 25.34587 17.79982
#
# Velocity S-wave (km/s) = 2.23027 3.50646 2.93848
# Velocity P-wave (km/s) = 4.51929 5.80939 5.20447
#
# Compressibility (1/GPa) = 0.03517292
#
# Stress axis : x y z
#
# Youngs Moduli (GPa) = 71.09709 131.07930 54.60805
#
# Poissons Ratio (x) = 0.05063 -0.05847
# Poissons Ratio (y) = 0.02746 0.16935
# Poissons Ratio (z) = -0.07612 0.40651
#
# Static dielectric constant tensor:
#      x y z
#    x 1.755430 0.000000 0.063670 
#    y 0.000000 1.872970 0.000000 
#    z 0.063670 0.000000 1.816670 
# 
# From -- ./inp_files/3214.got.cif
#   From: 2010.05.17/outbox.cif.g08.bks.cpg/sg11_2_cif.got.tgz:3214.got - 2010.06.03 12:22:45.
