data_PCOD9159815
_publ_section_title
;
Structure prediction by ZEFSAII (Michael W. Deem and Ramdas Pophale) SiO2 
 PCOD9159815
Probable space group: P 21/M
;
_chemical_formula_sum "Si O2"
_cell_formula_units_Z 28
_cell_length_a 12.458287
_cell_length_b 15.930675
_cell_length_c 8.466066
_cell_angle_alpha 90.000000
_cell_angle_beta 109.954985
_cell_angle_gamma 90.000000
_cell_volume 1579.370468
_symmetry_space_group_name_H-M "P 21/M"
_symmetry_group_IT_number 11
_symmetry_cell_setting 'monoclinic'
loop_
_space_group_symop_operation_xyz
x,y,z
-x,1/2+y,-z
-x,-y,-z
x,1/2-y,z
loop_
_atom_site_type_symbol
_atom_site_label
_atom_site_fract_x
_atom_site_fract_y
_atom_site_fract_z
Si Si1 0.122773 0.023294 0.491638
Si Si2 0.731513 0.093775 0.654592
Si Si3 0.339592 0.062756 0.183464
Si Si4 0.119730 0.150823 0.210042
Si Si5 0.717008 0.472549 0.159446
Si Si6 0.425724 0.653829 0.698082
Si Si7 0.860746 0.345681 0.022948
O O1 0.118037 0.105150 0.379237
O O2 0.170541 0.949335 0.402831
O O3 0.214797 0.027782 0.678685
O O4 0.000000 0.000000 0.500000
O O5 0.649310 0.145061 0.498534
O O6 0.661101 0.017780 0.700816
O O7 0.792103 0.143582 0.825760
O O8 0.220381 0.109268 0.159324
O O9 0.445755 0.123065 0.267356
O O10 0.339891 0.028064 0.005290
O O11 0.137955 0.250000 0.234407
O O12 0.995156 0.136640 0.070978
O O13 0.629796 0.411478 0.206207
O O14 0.807869 0.411827 0.118119
O O15 0.422658 0.750000 0.752198
O O16 0.849288 0.250000 0.075488
#
# Coordination Sequence:
#
# PCOD9159815 Si02
#       7
#     4   4   4   4   4   4   4
#     4  10  19  34  55  79 110 145 178 216 275 328
#     4   9  21  34  56  81 106 143 187 223 266 327
#     4  10  21  37  59  77 110 148 188 219 269 328
#     4  10  21  36  55  82 113 146 180 224 274 323
#     4  10  21  35  57  82 108 145 186 224 269 328
#     4  11  21  37  56  81 111 141 183 232 277 316
#     4  10  19  34  54  83 114 139 178 228 275 319
#
# _framework density 17.728581999999999
#
# number of rings (size 3 to 8) (size 9 to 14) (size 15 to 20)
#    0.000    2.000    1.429    2.143    2.000    1.714 
#    0.000    2.143    0.000    0.000    0.000    0.000 
#    0.000    0.000    0.000    0.000    0.000    0.000 
#
# Total GULP energy -156256.912507 kJ/mol
# GULP energy per Si atom -5580.604018 kJ/mol
# Density = 1.768823 g / cm^3
# Si number density = 17.728582 Si / 1000 Ang^3
#
#
#
# Elastic Constant Matrix: (Units=GPa)
#
#
# Indices 1 2 3 4 5 6 
#
# 1 79.7902 23.4540 32.8956 0.0000 11.9093 0.0000
# 2 23.4540 67.2031 32.0463 0.0000 12.7162 0.0000
# 3 32.8956 32.0463 88.0649 0.0000 -0.1749 0.0000
# 4 0.0000 0.0000 0.0000 11.1652 0.0000 6.0591
# 5 11.9093 12.7162 -0.1749 0.0000 20.7051 0.0000
# 6 0.0000 0.0000 0.0000 6.0591 0.0000 21.0341
#
#
#
# Elastic Compliance Matrix: (Units=1/GPa)
#
#
# Indices 1 2 3 4 5 6 
#
# 1 0.016604 -0.001426 -0.005701 0.000000 -0.008723 0.000000
# 2 -0.001426 0.021107 -0.007172 0.000000 -0.012204 0.000000
# 3 -0.005701 -0.007172 0.016110 0.000000 0.007820 0.000000
# 4 0.000000 0.000000 0.000000 0.106159 0.000000 -0.030580
# 5 -0.008723 -0.012204 0.007820 0.000000 0.060876 0.000000
# 6 0.000000 0.000000 0.000000 -0.030580 0.000000 0.056351
#
#
# Mechanical properties :
#
#
# Convention : Reuss Voigt Hill
#
# Bulk Modulus (GPa) = 39.64541 45.76111 42.70326
# Shear Modulus (GPa) = 15.91280 20.35838 18.13559
#
# Velocity S-wave (km/s) = 2.99921 3.39239 3.20184
# Velocity P-wave (km/s) = 5.86555 6.41970 6.14887
#
# Compressibility (1/GPa) = 0.02522360
#
# Stress axis : x y z
#
# Youngs Moduli (GPa) = 60.22551 47.37703 62.07230
#
# Poissons Ratio (x) = 0.06756 0.35386
# Poissons Ratio (y) = 0.08588 0.44521
# Poissons Ratio (z) = 0.34333 0.33981
#
# Static dielectric constant tensor:
#      x y z
#    x 1.592310 0.000000 0.001280 
#    y 0.000000 1.580590 0.000000 
#    z 0.001280 0.000000 1.599060 
# 
# From -- ./inp_files/17677.got.cif
#   From: 2010.05.17/outbox.cif.g08.bks.cpg/sg11_9_cif.got.tgz:17677.got - 2010.06.03 12:22:45.
