data_PCOD9159957
_publ_section_title
;
Structure prediction by ZEFSAII (Michael W. Deem and Ramdas Pophale) SiO2 
 PCOD9159957
Probable space group: P 21/M
;
_chemical_formula_sum "Si O2"
_cell_formula_units_Z 24
_cell_length_a 15.152466
_cell_length_b 8.409826
_cell_length_c 15.067606
_cell_angle_alpha 90.000000
_cell_angle_beta 38.852069
_cell_angle_gamma 90.000000
_cell_volume 1204.475687
_symmetry_space_group_name_H-M "P 21/M"
_symmetry_group_IT_number 11
_symmetry_cell_setting 'monoclinic'
loop_
_space_group_symop_operation_xyz
x,y,z
-x,1/2+y,-z
-x,-y,-z
x,1/2-y,z
loop_
_atom_site_type_symbol
_atom_site_label
_atom_site_fract_x
_atom_site_fract_y
_atom_site_fract_z
Si Si1 0.089572 0.557799 0.014158
Si Si2 0.135766 0.939406 0.448203
Si Si3 0.600608 0.443574 0.186379
Si Si4 0.559660 0.941124 0.859820
Si Si5 0.104652 0.057444 0.674563
Si Si6 0.596395 0.559267 0.502996
O O1 0.087778 0.750000 0.011903
O O2 0.023005 0.510849 0.161419
O O3 0.250797 0.501204 0.891016
O O4 0.000000 0.500000 0.000000
O O5 0.139464 0.750000 0.441027
O O6 0.283826 0.002052 0.291358
O O7 0.115035 0.992329 0.566951
O O8 0.000000 0.000000 0.500000
O O9 0.606706 0.250000 0.180882
O O10 0.553533 0.494483 0.125921
O O11 0.476131 0.492103 0.349144
O O12 0.564089 0.750000 0.856462
O O13 0.500000 0.000000 0.000000
O O14 0.104570 0.250000 0.667182
O O15 0.243404 0.005637 0.620232
O O16 0.500000 0.500000 0.500000
O O17 0.597123 0.750000 0.499629
#
# Coordination Sequence:
#
# PCOD9159957 Si02
#       6
#     4   4   4   4   4   4
#     4  10  21  37  59  88 123 165 206 251 308 368
#     4  12  26  44  67  95 126 165 210 264 324 387
#     4   9  19  37  59  83 120 162 198 244 306 366
#     4  11  23  43  67  96 129 165 210 260 317 383
#     4  10  21  39  61  87 124 163 204 257 313 372
#     4  10  19  34  56  83 116 157 200 251 307 362
#
# _framework density 19.925681000000001
#
# number of rings (size 3 to 8) (size 9 to 14) (size 15 to 20)
#    0.000    1.667    1.667    3.000    2.333    1.333 
#    0.000    1.667    0.000    0.000    0.000    0.000 
#    0.000    0.000    0.000    0.000    0.000    0.000 
#
# Total GULP energy -133984.438917 kJ/mol
# GULP energy per Si atom -5582.684955 kJ/mol
# Density = 1.988033 g / cm^3
# Si number density = 19.925681 Si / 1000 Ang^3
#
#
#
# Elastic Constant Matrix: (Units=GPa)
#
#
# Indices 1 2 3 4 5 6 
#
# 1 92.4657 9.7740 -3.7664 0.0000 0.7718 0.0000
# 2 9.7740 42.9487 14.8587 0.0000 -0.1318 0.0000
# 3 -3.7664 14.8587 56.1048 0.0000 -2.5076 0.0000
# 4 0.0000 0.0000 0.0000 25.6261 0.0000 4.9748
# 5 0.7718 -0.1318 -2.5076 0.0000 43.0083 0.0000
# 6 0.0000 0.0000 0.0000 4.9748 0.0000 34.8500
#
#
#
# Elastic Compliance Matrix: (Units=1/GPa)
#
#
# Indices 1 2 3 4 5 6 
#
# 1 0.011206 -0.003092 0.001566 0.000000 -0.000119 0.000000
# 2 -0.003092 0.026490 -0.007236 0.000000 -0.000285 0.000000
# 3 0.001566 -0.007236 0.019895 0.000000 0.001110 0.000000
# 4 0.000000 0.000000 0.000000 0.040135 0.000000 -0.005729
# 5 -0.000119 -0.000285 0.001110 0.000000 0.023317 0.000000
# 6 0.000000 0.000000 0.000000 -0.005729 0.000000 0.029512
#
#
# Mechanical properties :
#
#
# Convention : Reuss Voigt Hill
#
# Bulk Modulus (GPa) = 24.95851 25.91686 25.43768
# Shear Modulus (GPa) = 27.55796 32.07374 29.81585
#
# Velocity S-wave (km/s) = 3.72296 4.01642 3.87247
# Velocity P-wave (km/s) = 5.57077 5.87740 5.72614
#
# Compressibility (1/GPa) = 0.04006650
#
# Stress axis : x y z
#
# Youngs Moduli (GPa) = 89.23407 37.75030 50.26428
#
# Poissons Ratio (x) = 0.11674 -0.07871
# Poissons Ratio (y) = 0.27595 0.36371
# Poissons Ratio (z) = -0.13974 0.27316
#
# Static dielectric constant tensor:
#      x y z
#    x 1.630610 0.000000 -0.071250 
#    y 0.000000 1.695880 0.000000 
#    z -0.071250 0.000000 1.617900 
# 
# From -- ./inp_files/51511.got.cif
#   From: 2010.05.17/outbox.cif.g08.bks.cpg/sg11_26_cif.got.tgz:51511.got - 2010.06.03 12:22:45.
