data_PCOD9159971
_publ_section_title
;
Structure prediction by ZEFSAII (Michael W. Deem and Ramdas Pophale) SiO2 
 PCOD9159971
Probable space group: P 21/M
;
_chemical_formula_sum "Si O2"
_cell_formula_units_Z 32
_cell_length_a 20.780242
_cell_length_b 8.886267
_cell_length_c 14.468114
_cell_angle_alpha 90.000000
_cell_angle_beta 43.489431
_cell_angle_gamma 90.000000
_cell_volume 1838.694805
_symmetry_space_group_name_H-M "P 21/M"
_symmetry_group_IT_number 11
_symmetry_cell_setting 'monoclinic'
loop_
_space_group_symop_operation_xyz
x,y,z
-x,1/2+y,-z
-x,-y,-z
x,1/2-y,z
loop_
_atom_site_type_symbol
_atom_site_label
_atom_site_fract_x
_atom_site_fract_y
_atom_site_fract_z
Si Si1 0.141528 0.071876 0.073081
Si Si2 0.962137 0.925515 0.347404
Si Si3 0.101049 0.570370 0.917612
Si Si4 0.728628 0.430565 0.918498
Si Si5 0.483965 0.930155 0.915763
Si Si6 0.821287 0.428686 0.628834
Si Si7 0.802719 0.573068 0.355511
Si Si8 0.338059 0.571065 0.359554
O O1 0.140812 0.250000 0.060436
O O2 0.231737 0.016573 0.034915
O O3 0.052330 0.021101 0.227033
O O4 0.132380 0.989628 0.984482
O O5 0.987425 0.750000 0.329848
O O6 0.888578 0.941346 0.339155
O O7 0.907578 0.982557 0.494684
O O8 0.093745 0.750000 0.926098
O O9 0.169788 0.514451 0.765399
O O10 0.000000 0.500000 0.000000
O O11 0.737076 0.250000 0.922666
O O12 0.790503 0.470852 0.763838
O O13 0.620821 0.464640 0.008722
O O14 0.493105 0.750000 0.912008
O O15 0.563205 0.997360 0.766962
O O16 0.500000 0.000000 0.000000
O O17 0.841490 0.250000 0.605442
O O18 0.731810 0.453938 0.655000
O O19 0.790363 0.750000 0.349820
O O20 0.713419 0.503752 0.499952
O O21 0.346829 0.750000 0.362580
#
# Coordination Sequence:
#
# PCOD9159971 Si02
#       8
#     4   4   4   4   4   4   4   4
#     4  12  25  39  57  82 113 152 194 238 285 341
#     4  10  20  34  54  80 113 151 190 233 279 334
#     4  12  23  38  61  87 115 150 189 236 285 338
#     4  10  22  40  57  79 114 154 193 237 287 339
#     4  11  21  36  59  86 115 151 193 240 290 341
#     4   9  18  34  54  78 112 152 192 232 277 334
#     4  10  20  35  57  87 117 149 188 234 283 337
#     4  10  19  34  56  86 118 150 188 236 286 338
#
# _framework density 17.403649999999999
#
# number of rings (size 3 to 8) (size 9 to 14) (size 15 to 20)
#    0.000    1.500    2.500    3.750    0.000    3.500 
#    0.000    0.000    0.000    0.750    0.000    0.000 
#    0.000    0.000    0.000    0.000    0.000    0.000 
#
# Total GULP energy -178861.130636 kJ/mol
# GULP energy per Si atom -5589.410332 kJ/mol
# Density = 1.736404 g / cm^3
# Si number density = 17.403650 Si / 1000 Ang^3
#
#
#
# Elastic Constant Matrix: (Units=GPa)
#
#
# Indices 1 2 3 4 5 6 
#
# 1 91.9093 70.0325 60.0387 0.0000 7.9595 0.0000
# 2 70.0325 121.5669 68.4032 0.0000 2.2490 0.0000
# 3 60.0387 68.4032 126.7581 0.0000 5.1052 0.0000
# 4 0.0000 0.0000 0.0000 35.4641 0.0000 0.9975
# 5 7.9595 2.2490 5.1052 0.0000 19.7414 0.0000
# 6 0.0000 0.0000 0.0000 0.9975 0.0000 25.2071
#
#
#
# Elastic Compliance Matrix: (Units=1/GPa)
#
#
# Indices 1 2 3 4 5 6 
#
# 1 0.022203 -0.009910 -0.004905 0.000000 -0.006555 0.000000
# 2 -0.009910 0.016237 -0.004199 0.000000 0.003231 0.000000
# 3 -0.004905 -0.004199 0.012509 0.000000 -0.000779 0.000000
# 4 0.000000 0.000000 0.000000 0.028229 0.000000 -0.001117
# 5 -0.006555 0.003231 -0.000779 0.000000 0.053131 0.000000
# 6 0.000000 0.000000 0.000000 -0.001117 0.000000 0.039716
#
#
# Mechanical properties :
#
#
# Convention : Reuss Voigt Hill
#
# Bulk Modulus (GPa) = 77.37938 81.90920 79.64429
# Shear Modulus (GPa) = 23.32535 25.53317 24.42926
#
# Velocity S-wave (km/s) = 3.66492 3.83445 3.75064
# Velocity P-wave (km/s) = 7.90361 8.17133 8.03858
#
# Compressibility (1/GPa) = 0.01292334
#
# Stress axis : x y z
#
# Youngs Moduli (GPa) = 45.03956 61.58609 79.94005
#
# Poissons Ratio (x) = 0.61029 0.39209
# Poissons Ratio (y) = 0.44632 0.33565
# Poissons Ratio (z) = 0.22091 0.25859
#
# Static dielectric constant tensor:
#      x y z
#    x 1.582190 0.000000 -0.000300 
#    y 0.000000 1.577680 0.000000 
#    z -0.000300 0.000000 1.578040 
# 
# From -- ./inp_files/54285.got.cif
#   From: 2010.05.17/outbox.cif.g08.bks.cpg/sg11_28_cif.got.tgz:54285.got - 2010.06.03 12:22:45.
