data_PCOD9159583
_publ_section_title
;
Structure prediction by ZEFSAII (Michael W. Deem and Ramdas Pophale) SiO2 
 PCOD9159583
Probable space group: P 21/M
;
_chemical_formula_sum "Si O2"
_cell_formula_units_Z 28
_cell_length_a 9.378591
_cell_length_b 8.905398
_cell_length_c 29.732464
_cell_angle_alpha 90.000000
_cell_angle_beta 38.857350
_cell_angle_gamma 90.000000
_cell_volume 1557.955236
_symmetry_space_group_name_H-M "P 21/M"
_symmetry_group_IT_number 11
_symmetry_cell_setting 'monoclinic'
loop_
_space_group_symop_operation_xyz
x,y,z
-x,1/2+y,-z
-x,-y,-z
x,1/2-y,z
loop_
_atom_site_type_symbol
_atom_site_label
_atom_site_fract_x
_atom_site_fract_y
_atom_site_fract_z
Si Si1 0.452650 0.577085 0.788263
Si Si2 0.493629 0.928152 0.369033
Si Si3 0.820049 0.430069 0.639683
Si Si4 0.067962 0.070414 0.935851
Si Si5 0.868199 0.422511 0.222049
Si Si6 0.749502 0.568473 0.936916
Si Si7 0.653808 0.929937 0.501054
O O1 0.476107 0.750000 0.796501
O O2 0.687972 0.508532 0.713003
O O3 0.318215 0.482806 0.858546
O O4 0.290026 0.574059 0.783908
O O5 0.485491 0.750000 0.378035
O O6 0.313242 0.967598 0.373851
O O7 0.740172 0.976403 0.289662
O O8 0.429223 0.011786 0.430317
O O9 0.803327 0.250000 0.649327
O O10 0.082498 0.472985 0.571125
O O11 0.055156 0.250000 0.939882
O O12 0.895107 0.003297 0.941404
O O13 0.000000 0.000000 0.000000
O O14 0.875289 0.250000 0.236093
O O15 0.114890 0.467568 0.142697
O O16 0.748063 0.750000 0.941436
O O17 0.500000 0.500000 0.000000
O O18 0.640088 0.750000 0.503032
O O19 0.500000 0.000000 0.500000
#
# Coordination Sequence:
#
# PCOD9159583 Si02
#       7
#     4   4   4   4   4   4   4
#     4   9  17  31  53  80 107 136 173 218 266 315
#     4  10  19  33  56  82 104 131 173 218 261 309
#     4   9  19  35  56  81 105 134 174 218 261 310
#     4  11  21  35  55  79 110 145 181 223 269 320
#     4   8  16  31  51  76 106 137 171 213 260 309
#     4  10  20  35  55  81 111 144 182 223 269 320
#     4  11  23  38  54  75 108 143 174 211 260 315
#
# _framework density 17.972273999999999
#
# number of rings (size 3 to 8) (size 9 to 14) (size 15 to 20)
#    0.000    2.286    0.000    4.286    0.000    5.714 
#    0.000    1.429    0.000    6.857    0.000    0.000 
#    0.000    0.000    0.000    0.000    0.000    0.000 
#
# Total GULP energy -156233.255386 kJ/mol
# GULP energy per Si atom -5579.759121 kJ/mol
# Density = 1.793137 g / cm^3
# Si number density = 17.972274 Si / 1000 Ang^3
#
#
#
# Elastic Constant Matrix: (Units=GPa)
#
#
# Indices 1 2 3 4 5 6 
#
# 1 56.8025 44.6516 69.2675 0.0000 -6.1811 0.0000
# 2 44.6516 98.8990 87.2237 0.0000 0.9928 0.0000
# 3 69.2675 87.2237 191.7324 0.0000 -9.8186 0.0000
# 4 0.0000 0.0000 0.0000 37.4157 0.0000 1.4709
# 5 -6.1811 0.9928 -9.8186 0.0000 23.9496 0.0000
# 6 0.0000 0.0000 0.0000 1.4709 0.0000 24.4941
#
#
#
# Elastic Compliance Matrix: (Units=1/GPa)
#
#
# Indices 1 2 3 4 5 6 
#
# 1 0.035439 -0.008411 -0.008672 0.000000 0.005940 0.000000
# 2 -0.008411 0.019253 -0.005998 0.000000 -0.005428 0.000000
# 3 -0.008672 -0.005998 0.011211 0.000000 0.002606 0.000000
# 4 0.000000 0.000000 0.000000 0.026790 0.000000 -0.001609
# 5 0.005940 -0.005428 0.002606 0.000000 0.044581 0.000000
# 6 0.000000 0.000000 0.000000 -0.001609 0.000000 0.040923
#
#
# Mechanical properties :
#
#
# Convention : Reuss Voigt Hill
#
# Bulk Modulus (GPa) = 50.65960 83.30217 66.98088
# Shear Modulus (GPa) = 21.65072 26.92461 24.28766
#
# Velocity S-wave (km/s) = 3.47461 3.87475 3.68012
# Velocity P-wave (km/s) = 6.65928 8.15287 7.44363
#
# Compressibility (1/GPa) = 0.01973960
#
# Stress axis : x y z
#
# Youngs Moduli (GPa) = 28.21787 51.93914 89.19946
#
# Poissons Ratio (x) = 0.43687 0.77357
# Poissons Ratio (y) = 0.23734 0.53502
# Poissons Ratio (z) = 0.24472 0.31153
#
# Static dielectric constant tensor:
#      x y z
#    x 1.608220 0.000000 -0.014970 
#    y 0.000000 1.603520 0.000000 
#    z -0.014970 0.000000 1.616280 
# 
# From -- ./inp_files/70827.got.cif
#   From: 2010.05.17/outbox.cif.g08.bks.cpg/sg11_36_cif.got.tgz:70827.got - 2010.06.03 12:22:45.
