data_PCOD9159541
_publ_section_title
;
Structure prediction by ZEFSAII (Michael W. Deem and Ramdas Pophale) SiO2 
 PCOD9159541
Probable space group: P 21/M
;
_chemical_formula_sum "Si O2"
_cell_formula_units_Z 32
_cell_length_a 7.770227
_cell_length_b 23.740637
_cell_length_c 11.669800
_cell_angle_alpha 90.000000
_cell_angle_beta 124.960081
_cell_angle_gamma 90.000000
_cell_volume 1764.272720
_symmetry_space_group_name_H-M "P 21/M"
_symmetry_group_IT_number 11
_symmetry_cell_setting 'monoclinic'
loop_
_space_group_symop_operation_xyz
x,y,z
-x,1/2+y,-z
-x,-y,-z
x,1/2-y,z
loop_
_atom_site_type_symbol
_atom_site_label
_atom_site_fract_x
_atom_site_fract_y
_atom_site_fract_z
Si Si1 0.750760 0.492302 0.395316
Si Si2 0.258557 0.815791 0.536859
Si Si3 0.505982 0.608263 0.313551
Si Si4 0.169574 0.582142 0.372572
Si Si5 0.828454 0.182946 0.226815
Si Si6 0.395698 0.907277 0.013664
Si Si7 0.227250 0.008605 0.849359
Si Si8 0.306809 0.183238 0.427907
O O1 0.642503 0.551769 0.372922
O O2 0.697454 0.449597 0.476839
O O3 0.706524 0.478051 0.245854
O O4 0.000000 0.500000 0.500000
O O5 0.216182 0.750000 0.494693
O O6 0.109489 0.859307 0.411906
O O7 0.227813 0.823938 0.660366
O O8 0.497809 0.828015 0.584026
O O9 0.303404 0.597883 0.313877
O O10 0.440430 0.615714 0.157565
O O11 0.634110 0.656469 0.427490
O O12 0.985564 0.541194 0.261054
O O13 0.808608 0.250000 0.192514
O O14 0.072769 0.164897 0.302272
O O15 0.679873 0.143313 0.094884
O O16 0.604652 0.942528 0.058503
O O17 0.226067 0.958674 0.941335
O O18 0.294087 0.250000 0.435687
#
# Coordination Sequence:
#
# PCOD9159541 Si02
#       8
#     4   4   4   4   4   4   4   4
#     4   9  18  31  53  77 104 138 178 226 265 316
#     4   9  19  36  57  84 110 135 180 234 274 320
#     4  10  21  34  53  82 111 140 180 226 275 325
#     4  10  19  33  55  83 106 139 184 225 276 323
#     4  10  21  37  61  83 106 148 187 223 272 327
#     4  10  21  37  51  76 114 145 181 217 270 333
#     4   9  20  35  53  74 108 149 177 220 273 324
#     4   9  20  37  58  83 110 138 181 233 275 319
#
# _framework density 18.137785999999998
#
# number of rings (size 3 to 8) (size 9 to 14) (size 15 to 20)
#    0.000    2.500    0.000    1.125    8.750    1.000 
#    2.250    0.625    0.000    0.000    0.000    0.000 
#    0.000    0.000    0.000    0.000    0.000    0.000 
#
# Total GULP energy -178216.973029 kJ/mol
# GULP energy per Si atom -5569.280407 kJ/mol
# Density = 1.809650 g / cm^3
# Si number density = 18.137786 Si / 1000 Ang^3
#
#
#
# Elastic Constant Matrix: (Units=GPa)
#
#
# Indices 1 2 3 4 5 6 
#
# 1 17.2450 12.4420 7.2085 0.0000 -2.2240 0.0000
# 2 12.4420 50.7197 32.3194 0.0000 5.2213 0.0000
# 3 7.2085 32.3194 74.4555 0.0000 9.3656 0.0000
# 4 0.0000 0.0000 0.0000 43.1641 0.0000 0.8787
# 5 -2.2240 5.2213 9.3656 0.0000 14.1104 0.0000
# 6 0.0000 0.0000 0.0000 0.8787 0.0000 21.1964
#
#
#
# Elastic Compliance Matrix: (Units=1/GPa)
#
#
# Indices 1 2 3 4 5 6 
#
# 1 0.075335 -0.019752 -0.001236 0.000000 0.020003 0.000000
# 2 -0.019752 0.032511 -0.011233 0.000000 -0.007687 0.000000
# 3 -0.001236 -0.011233 0.019561 0.000000 -0.009022 0.000000
# 4 0.000000 0.000000 0.000000 0.023187 0.000000 -0.000961
# 5 0.020003 -0.007687 -0.009022 0.000000 0.082855 0.000000
# 6 0.000000 0.000000 0.000000 -0.000961 0.000000 0.047218
#
#
# Mechanical properties :
#
#
# Convention : Reuss Voigt Hill
#
# Bulk Modulus (GPa) = 15.88175 27.37334 21.62755
# Shear Modulus (GPa) = 13.65760 21.72420 17.69090
#
# Velocity S-wave (km/s) = 2.74705 3.46458 3.12647
# Velocity P-wave (km/s) = 4.34015 5.57934 4.99830
#
# Compressibility (1/GPa) = 0.06296536
#
# Stress axis : x y z
#
# Youngs Moduli (GPa) = 13.27406 30.75908 51.12150
#
# Poissons Ratio (x) = 0.60756 0.06318
# Poissons Ratio (y) = 0.26219 0.57424
# Poissons Ratio (z) = 0.01640 0.34551
#
# Static dielectric constant tensor:
#      x y z
#    x 1.645020 0.000000 0.000090 
#    y 0.000000 1.638350 0.000000 
#    z 0.000090 0.000000 1.634960 
# 
# From -- ./inp_files/32844.got.cif
#   From: 2010.05.17/outbox.cif.g08.bks.cpg/sg11_17_cif.got.tgz:32844.got - 2010.06.03 12:22:45.
