data_PCOD9159008
_publ_section_title
;
Structure prediction by ZEFSAII (Michael W. Deem and Ramdas Pophale) SiO2 
 PCOD9159008
Probable space group: P 21/M
;
_chemical_formula_sum "Si O2"
_cell_formula_units_Z 28
_cell_length_a 14.721556
_cell_length_b 7.481447
_cell_length_c 17.348663
_cell_angle_alpha 90.000000
_cell_angle_beta 38.810023
_cell_angle_gamma 90.000000
_cell_volume 1197.547743
_symmetry_space_group_name_H-M "P 21/M"
_symmetry_group_IT_number 11
_symmetry_cell_setting 'monoclinic'
loop_
_space_group_symop_operation_xyz
x,y,z
-x,1/2+y,-z
-x,-y,-z
x,1/2-y,z
loop_
_atom_site_type_symbol
_atom_site_label
_atom_site_fract_x
_atom_site_fract_y
_atom_site_fract_z
Si Si1 0.311912 0.546398 0.668057
Si Si2 0.954221 0.534714 0.742415
Si Si3 0.294261 0.966640 0.511566
Si Si4 0.853099 0.964977 0.645349
Si Si5 0.422243 0.453587 0.263777
Si Si6 0.304696 0.970894 0.840032
Si Si7 0.019398 0.544530 0.105711
O O1 0.362100 0.750000 0.634405
O O2 0.348429 0.469745 0.559863
O O3 0.351866 0.464461 0.723905
O O4 0.135243 0.550248 0.787970
O O5 0.944056 0.750000 0.752473
O O6 0.871877 0.471515 0.720621
O O7 0.912214 0.463385 0.853750
O O8 0.123761 0.489246 0.619670
O O9 0.306536 0.750000 0.500667
O O10 0.366348 0.047207 0.388882
O O11 0.841461 0.750000 0.655003
O O12 0.708152 0.035485 0.699588
O O13 0.000000 0.000000 0.500000
O O14 0.441478 0.250000 0.223765
O O15 0.582251 0.532162 0.169578
O O16 0.305226 0.750000 0.838696
O O17 0.141347 0.026179 0.967512
O O18 0.988549 0.750000 0.107332
#
# Coordination Sequence:
#
# PCOD9159008 Si02
#       7
#     4   4   4   4   4   4   4
#     4   9  18  34  54  72  99 135 166 201 252 302
#     4   9  18  33  51  73 103 133 162 202 255 300
#     4   9  17  30  48  72 101 131 163 201 249 295
#     4  10  19  32  53  77 100 131 166 203 245 297
#     4  10  20  33  51  74 101 133 168 202 244 299
#     4   9  19  35  51  71 102 137 166 202 251 296
#     4  10  19  32  53  77  99 126 170 216 245 282
#
# _framework density 23.381112999999999
#
# number of rings (size 3 to 8) (size 9 to 14) (size 15 to 20)
#    0.000    2.571    1.429    1.714    0.000    3.429 
#    0.000    3.571    0.000    0.000    0.000    0.000 
#    0.000    0.000    0.000    0.000    0.000    0.000 
#
# Total GULP energy -156385.287010 kJ/mol
# GULP energy per Si atom -5585.188822 kJ/mol
# Density = 2.332790 g / cm^3
# Si number density = 23.381113 Si / 1000 Ang^3
#
#
#
# Elastic Constant Matrix: (Units=GPa)
#
#
# Indices 1 2 3 4 5 6 
#
# 1 161.4140 11.4025 7.7391 0.0000 -2.1047 0.0000
# 2 11.4025 76.0210 6.2443 0.0000 -4.7670 0.0000
# 3 7.7391 6.2443 53.0060 0.0000 -1.1028 0.0000
# 4 0.0000 0.0000 0.0000 11.0017 0.0000 2.4733
# 5 -2.1047 -4.7670 -1.1028 0.0000 33.8789 0.0000
# 6 0.0000 0.0000 0.0000 2.4733 0.0000 13.4243
#
#
#
# Elastic Compliance Matrix: (Units=1/GPa)
#
#
# Indices 1 2 3 4 5 6 
#
# 1 0.006298 -0.000863 -0.000813 0.000000 0.000243 0.000000
# 2 -0.000863 0.013514 -0.001429 0.000000 0.001801 0.000000
# 3 -0.000813 -0.001429 0.019161 0.000000 0.000372 0.000000
# 4 0.000000 0.000000 0.000000 0.094823 0.000000 -0.017470
# 5 0.000243 0.001801 0.000372 0.000000 0.029798 0.000000
# 6 0.000000 0.000000 0.000000 -0.017470 0.000000 0.077710
#
#
# Mechanical properties :
#
#
# Convention : Reuss Voigt Hill
#
# Bulk Modulus (GPa) = 30.52079 37.91253 34.21666
# Shear Modulus (GPa) = 19.34736 29.33132 24.33934
#
# Velocity S-wave (km/s) = 2.87971 3.54572 3.22993
# Velocity P-wave (km/s) = 4.91314 5.74570 5.34565
#
# Compressibility (1/GPa) = 0.03276455
#
# Stress axis : x y z
#
# Youngs Moduli (GPa) = 158.77202 73.99757 52.19070
#
# Poissons Ratio (x) = 0.06383 0.04243
# Poissons Ratio (y) = 0.13697 0.07456
# Poissons Ratio (z) = 0.12907 0.10571
#
# Static dielectric constant tensor:
#      x y z
#    x 1.928760 0.000000 -0.017600 
#    y 0.000000 1.887610 0.000000 
#    z -0.017600 0.000000 1.864780 
# 
# From -- ./inp_files/42626.got.cif
#   From: 2010.05.17/outbox.cif.g08.bks.cpg/sg11_22_cif.got.tgz:42626.got - 2010.06.03 12:22:45.
