data_PCOD9159846
_publ_section_title
;
Structure prediction by ZEFSAII (Michael W. Deem and Ramdas Pophale) SiO2 
 PCOD9159846
Probable space group: P 21/M
;
_chemical_formula_sum "Si O2"
_cell_formula_units_Z 28
_cell_length_a 14.975672
_cell_length_b 7.699782
_cell_length_c 19.482472
_cell_angle_alpha 90.000000
_cell_angle_beta 145.897441
_cell_angle_gamma 90.000000
_cell_volume 1259.565506
_symmetry_space_group_name_H-M "P 21/M"
_symmetry_group_IT_number 11
_symmetry_cell_setting 'monoclinic'
loop_
_space_group_symop_operation_xyz
x,y,z
-x,1/2+y,-z
-x,-y,-z
x,1/2-y,z
loop_
_atom_site_type_symbol
_atom_site_label
_atom_site_fract_x
_atom_site_fract_y
_atom_site_fract_z
Si Si1 0.976114 0.049209 0.292041
Si Si2 0.933119 0.050427 0.794579
Si Si3 0.527396 0.040938 0.214108
Si Si4 0.647973 0.463082 0.695862
Si Si5 0.353043 0.540787 0.856881
Si Si6 0.677713 0.543631 0.455781
Si Si7 0.803225 0.047290 0.938112
O O1 0.979249 0.250000 0.316880
O O2 0.146284 0.969669 0.421687
O O3 0.814236 0.972409 0.219641
O O4 0.979944 0.044305 0.212092
O O5 0.916110 0.250000 0.762894
O O6 0.759342 0.979172 0.704287
O O7 0.044395 0.042960 0.932460
O O8 0.522605 0.250000 0.211124
O O9 0.607996 0.979450 0.195183
O O10 0.620114 0.981587 0.341133
O O11 0.346899 0.975189 0.106662
O O12 0.647812 0.250000 0.695406
O O13 0.466280 0.524092 0.587801
O O14 0.737592 0.517164 0.823245
O O15 0.342765 0.750000 0.847562
O O16 0.500000 0.500000 0.000000
O O17 0.686312 0.750000 0.474980
O O18 0.841071 0.250000 0.955211
#
# Coordination Sequence:
#
# PCOD9159846 Si02
#       7
#     4   4   4   4   4   4   4
#     4  10  22  39  56  76 106 143 182 219 259 316
#     4  11  21  33  51  78 110 141 177 223 270 310
#     4  10  20  35  56  82 110 138 173 221 270 311
#     4   8  17  33  53  77 106 139 175 217 264 316
#     4  10  22  38  56  80 109 140 173 214 264 317
#     4   9  19  38  59  78 104 141 181 217 259 316
#     4  10  19  34  55  79 108 142 179 216 263 322
#
# _framework density 22.229887999999999
#
# number of rings (size 3 to 8) (size 9 to 14) (size 15 to 20)
#    0.000    2.286    0.000    3.429    0.000    5.714 
#    0.000    6.429    0.000    0.000    0.000    0.000 
#    0.000    0.000    0.000    0.000    0.000    0.000 
#
# Total GULP energy -156400.098503 kJ/mol
# GULP energy per Si atom -5585.717804 kJ/mol
# Density = 2.217929 g / cm^3
# Si number density = 22.229888 Si / 1000 Ang^3
#
#
#
# Elastic Constant Matrix: (Units=GPa)
#
#
# Indices 1 2 3 4 5 6 
#
# 1 116.8443 -2.0111 34.6718 0.0000 46.5960 0.0000
# 2 -2.0111 41.6202 0.1092 0.0000 6.5832 0.0000
# 3 34.6718 0.1092 114.9774 0.0000 31.3984 0.0000
# 4 0.0000 0.0000 0.0000 13.5434 0.0000 -13.1330
# 5 46.5960 6.5832 31.3984 0.0000 28.8485 0.0000
# 6 0.0000 0.0000 0.0000 -13.1330 0.0000 -6.6612
#
#
#
# Elastic Compliance Matrix: (Units=1/GPa)
#
#
# Indices 1 2 3 4 5 6 
#
# 1 0.029937 0.010644 0.006873 0.000000 -0.058264 0.000000
# 2 0.010644 0.029100 0.004654 0.000000 -0.028899 0.000000
# 3 0.006873 0.004654 0.014147 0.000000 -0.027561 0.000000
# 4 0.000000 0.000000 0.000000 0.025357 0.000000 -0.049994
# 5 -0.058264 -0.028899 -0.027561 0.000000 0.165363 0.000000
# 6 0.000000 0.000000 0.000000 -0.049994 0.000000 -0.051557
#
#
# Mechanical properties :
#
#
# Convention : Reuss Voigt Hill
#
# Bulk Modulus (GPa) = 8.50869 37.66462 23.08666
# Shear Modulus (GPa) = 24.13370 23.19095 23.66233
#
# Velocity S-wave (km/s) = 3.29848 3.23342 3.26611
# Velocity P-wave (km/s) = 4.28282 5.56057 4.96299
#
# Compressibility (1/GPa) = 0.11752688
#
# Stress axis : x y z
#
# Youngs Moduli (GPa) = 33.40358 34.36436 70.68798
#
# Poissons Ratio (x) = -0.36578 -0.48585
# Poissons Ratio (y) = -0.35556 -0.32900
# Poissons Ratio (z) = -0.22959 -0.15994
#
# Static dielectric constant tensor:
#      x y z
#    x 1.832840 0.000000 0.012070 
#    y 0.000000 1.827930 0.000000 
#    z 0.012070 0.000000 1.820860 
# 
# From -- ./inp_files/37800.got.cif
#   From: 2010.05.17/outbox.cif.g08.bks.cpg/sg11_19_cif.got.tgz:37800.got - 2010.06.03 12:22:45.
