data_PCOD9159268
_publ_section_title
;
Structure prediction by ZEFSAII (Michael W. Deem and Ramdas Pophale) SiO2 
 PCOD9159268
Probable space group: P 21/M
;
_chemical_formula_sum "Si O2"
_cell_formula_units_Z 32
_cell_length_a 12.417748
_cell_length_b 8.477538
_cell_length_c 22.384596
_cell_angle_alpha 90.000000
_cell_angle_beta 133.866694
_cell_angle_gamma 90.000000
_cell_volume 1698.906360
_symmetry_space_group_name_H-M "P 21/M"
_symmetry_group_IT_number 11
_symmetry_cell_setting 'monoclinic'
loop_
_space_group_symop_operation_xyz
x,y,z
-x,1/2+y,-z
-x,-y,-z
x,1/2-y,z
loop_
_atom_site_type_symbol
_atom_site_label
_atom_site_fract_x
_atom_site_fract_y
_atom_site_fract_z
Si Si1 0.392676 0.561859 0.406591
Si Si2 0.918796 0.440196 0.528033
Si Si3 0.559911 0.438431 0.225416
Si Si4 0.025025 0.559425 0.103982
Si Si5 0.416074 0.940983 0.626817
Si Si6 0.860222 0.940613 0.281989
Si Si7 0.937844 0.057247 0.745732
Si Si8 0.763839 0.438887 0.922497
O O1 0.500000 0.500000 0.500000
O O2 0.391691 0.750000 0.410438
O O3 0.458929 0.511191 0.368137
O O4 0.220618 0.507024 0.343392
O O5 0.918496 0.250000 0.527217
O O6 0.746378 0.490179 0.460651
O O7 0.000000 0.500000 0.500000
O O8 0.015557 0.491760 0.621778
O O9 0.562234 0.250000 0.226837
O O10 0.572670 0.491705 0.299751
O O11 0.700810 0.497620 0.241832
O O12 0.403112 0.497429 0.139592
O O13 0.023241 0.750000 0.103392
O O14 0.049825 0.504549 0.181058
O O15 0.156122 0.508865 0.108781
O O16 0.870880 0.499888 0.016172
O O17 0.425167 0.750000 0.628174
O O18 0.854334 0.750000 0.280432
O O19 0.923534 0.991758 0.242170
O O20 0.936509 0.250000 0.745626
O O21 0.761589 0.250000 0.922569
#
# Coordination Sequence:
#
# PCOD9159268 Si02
#       8
#     4   4   4   4   4   4   4   4
#     4  11  22  37  57  82 114 149 187 229 276 330
#     4  10  19  33  52  75 107 145 185 230 275 324
#     4  11  22  36  55  81 113 145 181 230 279 325
#     4   9  18  36  61  86 110 141 180 222 274 332
#     4  10  21  36  54  79 112 145 183 233 282 328
#     4  10  20  35  56  78 106 146 188 229 274 328
#     4   9  19  37  59  80 108 147 186 226 274 328
#     4  10  20  35  58  87 116 141 175 224 276 335
#
# _framework density 18.835647000000002
#
# number of rings (size 3 to 8) (size 9 to 14) (size 15 to 20)
#    0.000    2.000    1.250    2.625    0.000    5.000 
#    0.000    5.000    0.000    0.000    0.000    0.000 
#    0.000    0.000    0.000    0.000    0.000    0.000 
#
# Total GULP energy -178705.395416 kJ/mol
# GULP energy per Si atom -5584.543607 kJ/mol
# Density = 1.879278 g / cm^3
# Si number density = 18.835647 Si / 1000 Ang^3
#
#
#
# Elastic Constant Matrix: (Units=GPa)
#
#
# Indices 1 2 3 4 5 6 
#
# 1 128.2224 18.4916 68.7564 0.0000 8.9571 0.0000
# 2 18.4916 12.9294 18.5870 0.0000 1.0106 0.0000
# 3 68.7564 18.5870 115.0424 0.0000 4.1110 0.0000
# 4 0.0000 0.0000 0.0000 21.0279 0.0000 -1.7780
# 5 8.9571 1.0106 4.1110 0.0000 35.2470 0.0000
# 6 0.0000 0.0000 0.0000 -1.7780 0.0000 23.7244
#
#
#
# Elastic Compliance Matrix: (Units=1/GPa)
#
#
# Indices 1 2 3 4 5 6 
#
# 1 0.012418 -0.009159 -0.005863 0.000000 -0.002209 0.000000
# 2 -0.009159 0.107532 -0.011922 0.000000 0.000635 0.000000
# 3 -0.005863 -0.011922 0.014116 0.000000 0.000185 0.000000
# 4 0.000000 0.000000 0.000000 0.047859 0.000000 0.003587
# 5 -0.002209 0.000635 0.000185 0.000000 0.028893 0.000000
# 6 0.000000 0.000000 0.000000 0.003587 0.000000 0.042420
#
#
# Mechanical properties :
#
#
# Convention : Reuss Voigt Hill
#
# Bulk Modulus (GPa) = 12.47230 51.98491 32.22860
# Shear Modulus (GPa) = 14.97666 26.02379 20.50023
#
# Velocity S-wave (km/s) = 2.82285 3.72105 3.30263
# Velocity P-wave (km/s) = 4.15460 6.79123 5.62945
#
# Compressibility (1/GPa) = 0.08017770
#
# Stress axis : x y z
#
# Youngs Moduli (GPa) = 80.52754 9.29954 70.84060
#
# Poissons Ratio (x) = 0.08518 0.41534
# Poissons Ratio (y) = 0.73756 0.84458
# Poissons Ratio (z) = 0.47214 0.11087
#
# Static dielectric constant tensor:
#      x y z
#    x 1.642440 0.000000 -0.005380 
#    y 0.000000 1.644280 0.000000 
#    z -0.005380 0.000000 1.643870 
# 
# From -- ./inp_files/64455.got.cif
#   From: 2010.05.17/outbox.cif.g08.bks.cpg/sg11_33_cif.got.tgz:64455.got - 2010.06.03 12:22:45.
