data_PCOD9159517
_publ_section_title
;
Structure prediction by ZEFSAII (Michael W. Deem and Ramdas Pophale) SiO2 
 PCOD9159517
Probable space group: P 21/M
;
_chemical_formula_sum "Si O2"
_cell_formula_units_Z 32
_cell_length_a 11.559368
_cell_length_b 8.282591
_cell_length_c 32.895134
_cell_angle_alpha 90.000000
_cell_angle_beta 150.146206
_cell_angle_gamma 90.000000
_cell_volume 1567.749967
_symmetry_space_group_name_H-M "P 21/M"
_symmetry_group_IT_number 11
_symmetry_cell_setting 'monoclinic'
loop_
_space_group_symop_operation_xyz
x,y,z
-x,1/2+y,-z
-x,-y,-z
x,1/2-y,z
loop_
_atom_site_type_symbol
_atom_site_label
_atom_site_fract_x
_atom_site_fract_y
_atom_site_fract_z
Si Si1 0.625657 0.438538 0.872931
Si Si2 0.594902 0.944758 0.416833
Si Si3 0.935955 0.559248 0.838552
Si Si4 0.401951 0.944460 0.671680
Si Si5 0.063449 0.939950 0.248698
Si Si6 0.906453 0.559677 0.031175
Si Si7 0.128846 0.937792 0.728233
Si Si8 0.023928 0.052273 0.403053
O O1 0.575376 0.250000 0.850890
O O2 0.395606 0.540906 0.796290
O O3 0.839726 0.487815 0.909260
O O4 0.719137 0.466164 0.947167
O O5 0.600984 0.750000 0.418820
O O6 0.326614 0.996527 0.339102
O O7 0.761092 0.001220 0.503694
O O8 0.673991 0.003279 0.396580
O O9 0.935859 0.750000 0.846238
O O10 0.667044 0.498148 0.759237
O O11 0.013854 0.525970 0.816226
O O12 0.087968 0.476346 0.919555
O O13 0.407937 0.750000 0.674521
O O14 0.213778 0.000240 0.647092
O O15 0.072229 0.750000 0.242672
O O16 0.911839 0.971925 0.242088
O O17 0.876134 0.750000 0.014207
O O18 0.077352 0.750000 0.719362
O O19 0.976796 0.000155 0.643976
O O20 0.022194 0.250000 0.401979
#
# Coordination Sequence:
#
# PCOD9159517 Si02
#       8
#     4   4   4   4   4   4   4   4
#     4  10  21  37  57  83 115 145 173 211 260 313
#     4   9  18  33  52  74 103 139 177 219 267 316
#     4  10  19  33  55  81 108 142 182 219 262 316
#     4   9  17  30  50  77 108 138 171 215 265 317
#     4  10  21  37  54  74 104 141 182 228 272 314
#     4  10  20  35  58  87 115 142 173 210 257 313
#     4  11  22  37  56  76 103 141 183 224 268 318
#     4   9  18  32  51  76 105 138 175 218 269 320
#
# _framework density 20.411418000000001
#
# number of rings (size 3 to 8) (size 9 to 14) (size 15 to 20)
#    0.000    2.250    0.000    3.000    0.000    4.000 
#    0.000    3.125    0.000    0.000    0.000    0.000 
#    0.000    0.000    0.000    0.000    0.000    0.000 
#
# Total GULP energy -178699.621358 kJ/mol
# GULP energy per Si atom -5584.363167 kJ/mol
# Density = 2.036496 g / cm^3
# Si number density = 20.411418 Si / 1000 Ang^3
#
#
#
# Elastic Constant Matrix: (Units=GPa)
#
#
# Indices 1 2 3 4 5 6 
#
# 1 37.0378 -0.7455 9.8241 0.0000 -14.6919 0.0000
# 2 -0.7455 15.4668 -3.2172 0.0000 0.7688 0.0000
# 3 9.8241 -3.2172 61.4220 0.0000 -29.8712 0.0000
# 4 0.0000 0.0000 0.0000 20.8652 0.0000 -3.3894
# 5 -14.6919 0.7688 -29.8712 0.0000 25.0224 0.0000
# 6 0.0000 0.0000 0.0000 -3.3894 0.0000 21.2902
#
#
#
# Elastic Compliance Matrix: (Units=1/GPa)
#
#
# Indices 1 2 3 4 5 6 
#
# 1 0.038406 0.002477 0.011722 0.000000 0.036467 0.000000
# 2 0.002477 0.065785 0.006613 0.000000 0.007328 0.000000
# 3 0.011722 0.006613 0.042917 0.000000 0.057912 0.000000
# 4 0.000000 0.000000 0.000000 0.049199 0.000000 0.007832
# 5 0.036467 0.007328 0.057912 0.000000 0.130284 0.000000
# 6 0.000000 0.000000 0.000000 0.007832 0.000000 0.048217
#
#
# Mechanical properties :
#
#
# Convention : Reuss Voigt Hill
#
# Bulk Modulus (GPa) = 5.29853 13.96104 9.62978
# Shear Modulus (GPa) = 12.62326 20.63991 16.63159
#
# Velocity S-wave (km/s) = 2.48955 3.18338 2.85760
# Velocity P-wave (km/s) = 3.29625 4.51293 3.95170
#
# Compressibility (1/GPa) = 0.18873162
#
# Stress axis : x y z
#
# Youngs Moduli (GPa) = 26.03788 15.20092 23.30104
#
# Poissons Ratio (x) = -0.03765 -0.27313
# Poissons Ratio (y) = -0.06449 -0.15410
# Poissons Ratio (z) = -0.30521 -0.10053
#
# Static dielectric constant tensor:
#      x y z
#    x 1.718350 0.000000 0.000740 
#    y 0.000000 1.687180 0.000000 
#    z 0.000740 0.000000 1.727850 
# 
# From -- ./inp_files/73193.got.cif
#   From: 2010.05.17/outbox.cif.g08.bks.cpg/sg11_37_cif.got.tgz:73193.got - 2010.06.03 12:22:45.
