data_PCOD9159948
_publ_section_title
;
Structure prediction by ZEFSAII (Michael W. Deem and Ramdas Pophale) SiO2 
 PCOD9159948
Probable space group: P 21/M
;
_chemical_formula_sum "Si O2"
_cell_formula_units_Z 28
_cell_length_a 18.183682
_cell_length_b 13.159769
_cell_length_c 6.861844
_cell_angle_alpha 90.000000
_cell_angle_beta 115.433361
_cell_angle_gamma 90.000000
_cell_volume 1482.858632
_symmetry_space_group_name_H-M "P 21/M"
_symmetry_group_IT_number 11
_symmetry_cell_setting 'monoclinic'
loop_
_space_group_symop_operation_xyz
x,y,z
-x,1/2+y,-z
-x,-y,-z
x,1/2-y,z
loop_
_atom_site_type_symbol
_atom_site_label
_atom_site_fract_x
_atom_site_fract_y
_atom_site_fract_z
Si Si1 0.307326 0.038717 0.362296
Si Si2 0.136099 0.634924 0.710636
Si Si3 0.033163 0.867686 0.230432
Si Si4 0.559672 0.866521 0.231725
Si Si5 0.305051 0.632802 0.672487
Si Si6 0.590536 0.000558 0.907060
Si Si7 0.127299 0.020137 0.053234
O O1 0.356531 0.115016 0.557396
O O2 0.308916 0.931233 0.478906
O O3 0.354342 0.028125 0.212361
O O4 0.213128 0.064543 0.220170
O O5 0.134316 0.750000 0.789900
O O6 0.057475 0.620076 0.484355
O O7 0.214175 0.628702 0.657778
O O8 0.142330 0.551674 0.883869
O O9 0.050053 0.750000 0.198910
O O10 0.088145 0.945965 0.170816
O O11 0.940453 0.897122 0.079373
O O12 0.534573 0.750000 0.213759
O O13 0.492318 0.942108 0.245598
O O14 0.569964 0.904571 0.020985
O O15 0.327545 0.750000 0.669629
O O16 0.362439 0.578360 0.895956
#
# Coordination Sequence:
#
# PCOD9159948 Si02
#       7
#     4   4   4   4   4   4   4
#     4  11  22  37  60  89 117 150 194 239 289 345
#     4  10  19  34  56  83 112 145 189 236 287 339
#     4  10  22  38  55  82 114 150 194 238 286 345
#     4  10  23  41  60  86 120 155 192 236 286 346
#     4  10  20  33  56  88 118 146 189 243 289 339
#     4  10  21  41  62  85 118 154 195 239 287 342
#     4  11  21  36  60  81 116 154 186 239 292 340
#
# _framework density 18.882449000000001
#
# number of rings (size 3 to 8) (size 9 to 14) (size 15 to 20)
#    0.000    1.714    2.857    1.714    0.000    2.857 
#    0.000    0.000    0.000    0.000    0.000    0.000 
#    0.000    0.000    0.000    0.000    0.000    0.000 
#
# Total GULP energy -156360.258606 kJ/mol
# GULP energy per Si atom -5584.294950 kJ/mol
# Density = 1.883947 g / cm^3
# Si number density = 18.882449 Si / 1000 Ang^3
#
#
#
# Elastic Constant Matrix: (Units=GPa)
#
#
# Indices 1 2 3 4 5 6 
#
# 1 75.4908 1.4213 20.0357 0.0000 12.7080 0.0000
# 2 1.4213 31.3761 5.7451 0.0000 6.6326 0.0000
# 3 20.0357 5.7451 57.1605 0.0000 22.8010 0.0000
# 4 0.0000 0.0000 0.0000 17.8008 0.0000 -2.2327
# 5 12.7080 6.6326 22.8010 0.0000 40.8332 0.0000
# 6 0.0000 0.0000 0.0000 -2.2327 0.0000 26.1948
#
#
#
# Elastic Compliance Matrix: (Units=1/GPa)
#
#
# Indices 1 2 3 4 5 6 
#
# 1 0.014767 0.000605 -0.004329 0.000000 -0.002277 0.000000
# 2 0.000605 0.033132 -0.001699 0.000000 -0.004622 0.000000
# 3 -0.004329 -0.001699 0.023847 0.000000 -0.011693 0.000000
# 4 0.000000 0.000000 0.000000 0.056784 0.000000 0.004840
# 5 -0.002277 -0.004622 -0.011693 0.000000 0.032478 0.000000
# 6 0.000000 0.000000 0.000000 0.004840 0.000000 0.038588
#
#
# Mechanical properties :
#
#
# Convention : Reuss Voigt Hill
#
# Bulk Modulus (GPa) = 16.41996 24.27018 20.34507
# Shear Modulus (GPa) = 21.66919 26.08743 23.87831
#
# Velocity S-wave (km/s) = 3.39128 3.72098 3.55995
# Velocity P-wave (km/s) = 4.90399 5.59840 5.26266
#
# Compressibility (1/GPa) = 0.06090151
#
# Stress axis : x y z
#
# Youngs Moduli (GPa) = 67.71654 30.18230 41.93428
#
# Poissons Ratio (x) = -0.01826 0.18152
# Poissons Ratio (y) = -0.04097 0.07123
# Poissons Ratio (z) = 0.29313 0.05127
#
# Static dielectric constant tensor:
#      x y z
#    x 1.658950 0.000000 0.028990 
#    y 0.000000 1.617150 0.000000 
#    z 0.028990 0.000000 1.660650 
# 
# From -- ./inp_files/7981.got.cif
#   From: 2010.05.17/outbox.cif.g08.bks.cpg/sg11_4_cif.got.tgz:7981.got - 2010.06.03 12:22:45.
