data_PCOD9159427
_publ_section_title
;
Structure prediction by ZEFSAII (Michael W. Deem and Ramdas Pophale) SiO2 
 PCOD9159427
Probable space group: P 21/M
;
_chemical_formula_sum "Si O2"
_cell_formula_units_Z 32
_cell_length_a 9.173874
_cell_length_b 11.729314
_cell_length_c 29.369716
_cell_angle_alpha 90.000000
_cell_angle_beta 29.855973
_cell_angle_gamma 90.000000
_cell_volume 1573.253623
_symmetry_space_group_name_H-M "P 21/M"
_symmetry_group_IT_number 11
_symmetry_cell_setting 'monoclinic'
loop_
_space_group_symop_operation_xyz
x,y,z
-x,1/2+y,-z
-x,-y,-z
x,1/2-y,z
loop_
_atom_site_type_symbol
_atom_site_label
_atom_site_fract_x
_atom_site_fract_y
_atom_site_fract_z
Si Si1 0.931381 0.988829 0.785157
Si Si2 0.058682 0.024301 0.651152
Si Si3 0.451954 0.880138 0.265624
Si Si4 0.482697 0.119868 0.034455
Si Si5 0.353807 0.121391 0.923370
Si Si6 0.694897 0.118002 0.498257
Si Si7 0.050013 0.020747 0.918346
Si Si8 0.461861 0.614407 0.363249
O O1 0.795144 0.897076 0.856626
O O2 0.672152 0.082574 0.853102
O O3 0.980695 0.956832 0.718619
O O4 0.234067 0.045305 0.718742
O O5 0.348425 0.097729 0.582964
O O6 0.790268 0.100814 0.707160
O O7 0.134991 0.946710 0.587272
O O8 0.562492 0.750000 0.233325
O O9 0.325335 0.897895 0.350360
O O10 0.722164 0.964818 0.183908
O O11 0.478730 0.250000 0.015625
O O12 0.781926 0.108137 0.983003
O O13 0.500000 0.000000 0.000000
O O14 0.355620 0.250000 0.908598
O O15 0.240513 0.048693 0.911335
O O16 0.117111 0.096855 0.027136
O O17 0.768915 0.250000 0.475340
O O18 0.729361 0.079013 0.541315
O O19 0.525508 0.750000 0.352329
#
# Coordination Sequence:
#
# PCOD9159427 Si02
#       8
#     4   4   4   4   4   4   4   4
#     4  10  20  35  57  84 110 147 193 240 282 342
#     4  10  20  34  57  85 107 137 186 226 284 341
#     4  11  20  33  54  80 111 145 186 234 281 338
#     4  11  24  40  58  82 118 162 204 243 292 346
#     4  10  19  33  54  79 113 149 188 238 287 337
#     4   9  19  37  56  78 110 141 177 228 282 343
#     4  10  21  34  51  81 113 147 190 238 287 333
#     4   9  19  34  55  82 112 148 186 230 286 345
#
# _framework density 20.340012999999999
#
# number of rings (size 3 to 8) (size 9 to 14) (size 15 to 20)
#    0.000    2.000    1.250    2.625    0.000    5.500 
#    0.000    0.625    0.000    0.750    0.000    0.000 
#    0.000    0.000    0.000    0.000    0.000    0.000 
#
# Total GULP energy -178294.439474 kJ/mol
# GULP energy per Si atom -5571.701234 kJ/mol
# Density = 2.029372 g / cm^3
# Si number density = 20.340013 Si / 1000 Ang^3
#
#
#
# Elastic Constant Matrix: (Units=GPa)
#
#
# Indices 1 2 3 4 5 6 
#
# 1 65.9456 13.1471 5.8907 0.0000 21.5783 0.0000
# 2 13.1471 39.6191 11.1703 0.0000 8.9262 0.0000
# 3 5.8907 11.1703 72.2331 0.0000 26.7105 0.0000
# 4 0.0000 0.0000 0.0000 12.2469 0.0000 8.2879
# 5 21.5783 8.9262 26.7105 0.0000 35.2151 0.0000
# 6 0.0000 0.0000 0.0000 8.2879 0.0000 20.3688
#
#
#
# Elastic Compliance Matrix: (Units=1/GPa)
#
#
# Indices 1 2 3 4 5 6 
#
# 1 0.020564 -0.004762 0.004548 0.000000 -0.014844 0.000000
# 2 -0.004762 0.028141 -0.003342 0.000000 -0.001680 0.000000
# 3 0.004548 -0.003342 0.020440 0.000000 -0.017444 0.000000
# 4 0.000000 0.000000 0.000000 0.112681 0.000000 -0.045849
# 5 -0.014844 -0.001680 -0.017444 0.000000 0.051149 0.000000
# 6 0.000000 0.000000 0.000000 -0.045849 0.000000 0.067750
#
#
# Mechanical properties :
#
#
# Convention : Reuss Voigt Hill
#
# Bulk Modulus (GPa) = 16.12017 26.46820 21.29419
# Shear Modulus (GPa) = 15.21995 23.40547 19.31271
#
# Velocity S-wave (km/s) = 2.73843 3.39589 3.08473
# Velocity P-wave (km/s) = 4.23571 5.33078 4.81448
#
# Compressibility (1/GPa) = 0.06203408
#
# Stress axis : x y z
#
# Youngs Moduli (GPa) = 48.62842 35.53479 48.92276
#
# Poissons Ratio (x) = 0.16922 -0.22251
# Poissons Ratio (y) = 0.23157 0.16351
# Poissons Ratio (z) = -0.22118 0.11876
#
# Static dielectric constant tensor:
#      x y z
#    x 1.785180 0.000000 0.057780 
#    y 0.000000 1.714450 0.000000 
#    z 0.057780 0.000000 1.745920 
# 
# From -- ./inp_files/21536.got.cif
#   From: 2010.05.17/outbox.cif.g08.bks.cpg/sg11_11_cif.got.tgz:21536.got - 2010.06.03 12:22:45.
