data_PCOD9159880
_publ_section_title
;
Structure prediction by ZEFSAII (Michael W. Deem and Ramdas Pophale) SiO2 
 PCOD9159880
Probable space group: P 21/M
;
_chemical_formula_sum "Si O2"
_cell_formula_units_Z 32
_cell_length_a 22.436368
_cell_length_b 8.846050
_cell_length_c 28.850403
_cell_angle_alpha 90.000000
_cell_angle_beta 18.723516
_cell_angle_gamma 90.000000
_cell_volume 1838.066414
_symmetry_space_group_name_H-M "P 21/M"
_symmetry_group_IT_number 11
_symmetry_cell_setting 'monoclinic'
loop_
_space_group_symop_operation_xyz
x,y,z
-x,1/2+y,-z
-x,-y,-z
x,1/2-y,z
loop_
_atom_site_type_symbol
_atom_site_label
_atom_site_fract_x
_atom_site_fract_y
_atom_site_fract_z
Si Si1 0.080974 0.931442 0.597339
Si Si2 0.552544 0.432226 0.412017
Si Si3 0.632277 0.931442 0.546036
Si Si4 0.305700 0.067774 0.158861
Si Si5 0.381319 0.931129 0.296605
Si Si6 0.031608 0.931411 0.925913
Si Si7 0.669621 0.431129 0.152454
Si Si8 0.201524 0.431411 0.340955
O O1 0.081183 0.750000 0.601388
O O2 0.208913 0.968125 0.458221
O O3 0.871363 0.982415 0.741505
O O4 0.185124 0.000000 0.564876
O O5 0.500000 0.500000 0.500000
O O6 0.541825 0.250000 0.422171
O O7 0.419891 0.482415 0.467241
O O8 0.763602 0.471802 0.242851
O O9 0.649101 0.750000 0.533470
O O10 0.459624 0.968124 0.707510
O O11 0.314159 0.250000 0.149837
O O12 0.262209 0.028198 0.244244
O O13 0.500000 0.000000 0.000000
O O14 0.393860 0.750000 0.284276
O O15 0.561648 1.000000 0.188352
O O16 0.339296 0.002854 0.278024
O O17 0.019116 0.750000 0.937635
O O18 0.000000 0.000000 0.000000
O O19 0.870015 0.997146 0.012665
O O20 0.681314 0.250000 0.140550
O O21 0.192112 0.250000 0.351137
O O22 0.000000 0.500000 0.500000
#
# Coordination Sequence:
#
# PCOD9159880 Si02
#       8
#     4   4   4   4   4   4   4   4
#     4   9  18  34  54  80 111 141 180 229 274 329
#     4  10  22  39  56  81 115 148 188 233 278 334
#     4   9  18  34  54  80 111 141 180 229 274 329
#     4  10  22  39  56  81 115 148 188 233 278 334
#     4  10  19  34  55  84 116 146 185 234 285 336
#     4  11  21  36  57  83 114 147 187 234 281 334
#     4  10  19  34  55  84 116 146 185 234 285 336
#     4  11  21  36  57  83 114 147 187 234 281 334
#
# _framework density 17.409599
#
# number of rings (size 3 to 8) (size 9 to 14) (size 15 to 20)
#    0.000    2.000    2.500    1.500    0.000    4.000 
#    0.000    1.250    0.000    3.000    0.000    0.000 
#    0.000    0.000    0.000    0.000    0.000    0.000 
#
# Total GULP energy -178626.827311 kJ/mol
# GULP energy per Si atom -5582.088353 kJ/mol
# Density = 1.736997 g / cm^3
# Si number density = 17.409599 Si / 1000 Ang^3
#
#
#
# Elastic Constant Matrix: (Units=GPa)
#
#
# Indices 1 2 3 4 5 6 
#
# 1 177.9530 50.7506 91.7426 0.0000 -20.9351 0.0000
# 2 50.7506 39.6094 45.3569 0.0000 -3.7593 0.0000
# 3 91.7426 45.3569 125.7172 0.0000 -15.4737 0.0000
# 4 0.0000 0.0000 0.0000 28.5953 0.0000 -4.2846
# 5 -20.9351 -3.7593 -15.4737 0.0000 31.8937 0.0000
# 6 0.0000 0.0000 0.0000 -4.2846 0.0000 34.7425
#
#
#
# Elastic Compliance Matrix: (Units=1/GPa)
#
#
# Indices 1 2 3 4 5 6 
#
# 1 0.010692 -0.008429 -0.004275 0.000000 0.003951 0.000000
# 2 -0.008429 0.049870 -0.012548 0.000000 -0.005743 0.000000
# 3 -0.004275 -0.012548 0.016031 0.000000 0.003492 0.000000
# 4 0.000000 0.000000 0.000000 0.035629 0.000000 0.004394
# 5 0.003951 -0.005743 0.003492 0.000000 0.034965 0.000000
# 6 0.000000 0.000000 0.000000 0.004394 0.000000 0.029325
#
#
# Mechanical properties :
#
#
# Convention : Reuss Voigt Hill
#
# Bulk Modulus (GPa) = 38.33054 79.88664 59.10859
# Shear Modulus (GPa) = 21.21208 29.40827 25.31017
#
# Velocity S-wave (km/s) = 3.49436 4.11445 3.81702
# Velocity P-wave (km/s) = 6.19237 8.27996 7.31106
#
# Compressibility (1/GPa) = 0.02608886
#
# Stress axis : x y z
#
# Youngs Moduli (GPa) = 93.52560 20.05196 62.37752
#
# Poissons Ratio (x) = 0.16902 0.26669
# Poissons Ratio (y) = 0.78833 0.78273
# Poissons Ratio (z) = 0.39986 0.25162
#
# Static dielectric constant tensor:
#      x y z
#    x 1.597910 0.000000 -0.017150 
#    y 0.000000 1.582410 0.000000 
#    z -0.017150 0.000000 1.573310 
# 
# From -- ./inp_files/72015.got.cif
#   From: 2010.05.17/outbox.cif.g08.bks.cpg/sg11_37_cif.got.tgz:72015.got - 2010.06.03 12:22:45.
