data_PCOD9159682
_publ_section_title
;
Structure prediction by ZEFSAII (Michael W. Deem and Ramdas Pophale) SiO2 
 PCOD9159682
Probable space group: P 21/M
;
_chemical_formula_sum "Si O2"
_cell_formula_units_Z 32
_cell_length_a 21.183117
_cell_length_b 9.017569
_cell_length_c 14.551900
_cell_angle_alpha 90.000000
_cell_angle_beta 143.943106
_cell_angle_gamma 90.000000
_cell_volume 1636.103110
_symmetry_space_group_name_H-M "P 21/M"
_symmetry_group_IT_number 11
_symmetry_cell_setting 'monoclinic'
loop_
_space_group_symop_operation_xyz
x,y,z
-x,1/2+y,-z
-x,-y,-z
x,1/2-y,z
loop_
_atom_site_type_symbol
_atom_site_label
_atom_site_fract_x
_atom_site_fract_y
_atom_site_fract_z
Si Si1 0.415747 0.072274 0.178051
Si Si2 0.834991 0.072851 0.443714
Si Si3 0.278869 0.928873 0.866662
Si Si4 0.834578 0.072079 0.657947
Si Si5 0.055242 0.921681 0.698205
Si Si6 0.279114 0.426172 0.194295
Si Si7 0.371417 0.426245 0.493330
Si Si8 0.056867 0.578058 0.922308
O O1 0.421455 0.250000 0.181594
O O2 0.330183 0.029466 0.157059
O O3 0.528901 0.005882 0.341987
O O4 0.373718 0.007420 0.032713
O O5 0.840660 0.250000 0.446394
O O6 0.741856 0.027346 0.263539
O O7 0.820768 0.032088 0.533372
O O8 0.949819 0.011337 0.546799
O O9 0.291350 0.750000 0.887652
O O10 0.167270 0.970209 0.786370
O O11 0.829460 0.250000 0.661476
O O12 0.738859 0.992274 0.597546
O O13 0.951211 0.012938 0.825606
O O14 0.039424 0.750000 0.654104
O O15 0.062619 0.930628 0.817556
O O16 0.256070 0.250000 0.164201
O O17 0.364594 0.452114 0.375759
O O18 0.169202 0.510652 0.086645
O O19 0.376788 0.250000 0.515329
O O20 0.046264 0.750000 0.936386
#
# Coordination Sequence:
#
# PCOD9159682 Si02
#       8
#     4   4   4   4   4   4   4   4
#     4  11  23  39  60  87 116 146 184 234 287 339
#     4   9  19  33  54  81 113 151 188 228 277 330
#     4  10  19  34  54  82 116 150 186 227 278 335
#     4  10  21  39  59  83 117 153 193 238 279 328
#     4   9  17  29  49  80 117 150 183 224 274 332
#     4  10  22  39  60  87 116 145 184 232 287 344
#     4  11  24  42  62  82 108 149 194 237 285 339
#     4  10  19  33  57  88 119 153 187 228 281 336
#
# _framework density 19.558669999999999
#
# number of rings (size 3 to 8) (size 9 to 14) (size 15 to 20)
#    0.000    2.000    1.250    2.250    0.000    4.000 
#    0.000    0.625    0.000    0.000    0.000    0.000 
#    0.000    0.000    0.000    0.000    0.000    0.000 
#
# Total GULP energy -178745.472929 kJ/mol
# GULP energy per Si atom -5585.796029 kJ/mol
# Density = 1.951415 g / cm^3
# Si number density = 19.558670 Si / 1000 Ang^3
#
#
#
# Elastic Constant Matrix: (Units=GPa)
#
#
# Indices 1 2 3 4 5 6 
#
# 1 31.5612 14.7726 15.6047 0.0000 5.6672 0.0000
# 2 14.7726 35.3180 43.6404 0.0000 1.3555 0.0000
# 3 15.6047 43.6404 132.0376 0.0000 4.8061 0.0000
# 4 0.0000 0.0000 0.0000 29.9273 0.0000 8.7895
# 5 5.6672 1.3555 4.8061 0.0000 23.3346 0.0000
# 6 0.0000 0.0000 0.0000 8.7895 0.0000 22.3151
#
#
#
# Elastic Compliance Matrix: (Units=1/GPa)
#
#
# Indices 1 2 3 4 5 6 
#
# 1 0.041456 -0.019181 0.001779 0.000000 -0.009321 0.000000
# 2 -0.019181 0.056740 -0.016661 0.000000 0.004794 0.000000
# 3 0.001779 -0.016661 0.012948 0.000000 -0.002131 0.000000
# 4 0.000000 0.000000 0.000000 0.037785 0.000000 -0.014883
# 5 -0.009321 0.004794 -0.002131 0.000000 0.045279 0.000000
# 6 0.000000 0.000000 0.000000 -0.014883 0.000000 0.050675
#
#
# Mechanical properties :
#
#
# Convention : Reuss Voigt Hill
#
# Bulk Modulus (GPa) = 23.24571 38.55024 30.89797
# Shear Modulus (GPa) = 15.27423 23.44200 19.35812
#
# Velocity S-wave (km/s) = 2.79757 3.46576 3.14944
# Velocity P-wave (km/s) = 4.72717 5.98065 5.39047
#
# Compressibility (1/GPa) = 0.04301870
#
# Stress axis : x y z
#
# Youngs Moduli (GPa) = 24.12180 17.62412 77.23413
#
# Poissons Ratio (x) = 0.33805 -0.13743
# Poissons Ratio (y) = 0.46268 1.28681
# Poissons Ratio (z) = -0.04292 0.29364
#
# Static dielectric constant tensor:
#      x y z
#    x 1.694530 0.000000 -0.041260 
#    y 0.000000 1.651320 0.000000 
#    z -0.041260 0.000000 1.684960 
# 
# From -- ./inp_files/55746.got.cif
#   From: 2010.05.17/outbox.cif.g08.bks.cpg/sg11_28_cif.got.tgz:55746.got - 2010.06.03 12:22:45.
