data_PCOD9159803
_publ_section_title
;
Structure prediction by ZEFSAII (Michael W. Deem and Ramdas Pophale) SiO2 
 PCOD9159803
Probable space group: P 21/M
;
_chemical_formula_sum "Si O2"
_cell_formula_units_Z 24
_cell_length_a 14.265040
_cell_length_b 13.740579
_cell_length_c 14.265019
_cell_angle_alpha 90.000000
_cell_angle_beta 148.956551
_cell_angle_gamma 90.000000
_cell_volume 1441.907356
_symmetry_space_group_name_H-M "P 21/M"
_symmetry_group_IT_number 11
_symmetry_cell_setting 'monoclinic'
loop_
_space_group_symop_operation_xyz
x,y,z
-x,1/2+y,-z
-x,-y,-z
x,1/2-y,z
loop_
_atom_site_type_symbol
_atom_site_label
_atom_site_fract_x
_atom_site_fract_y
_atom_site_fract_z
Si Si1 0.682622 0.863812 0.906267
Si Si2 0.640006 0.635417 0.359996
Si Si3 0.398316 0.520312 0.009946
Si Si4 0.009945 0.479688 0.398316
Si Si5 0.093732 0.636188 0.317376
Si Si6 0.556591 0.476835 0.443411
O O1 0.636206 0.750000 0.870624
O O2 0.596385 0.914426 0.741867
O O3 0.900940 0.873089 0.099058
O O4 0.605148 0.922913 0.929105
O O5 0.631960 0.750000 0.368042
O O6 0.839355 0.600354 0.497529
O O7 0.590012 0.573770 0.409990
O O8 0.502472 0.600354 0.160646
O O9 0.190008 0.547056 0.809992
O O10 0.500000 0.500000 0.000000
O O11 0.070895 0.577088 0.394852
O O12 0.000000 0.500000 0.500000
O O13 0.129375 0.750000 0.363792
O O14 0.258130 0.585574 0.403612
O O15 0.500000 0.500000 0.500000
#
# Coordination Sequence:
#
# PCOD9159803 Si02
#       6
#     4   4   4   4   4   4
#     4   9  19  35  55  80 108 138 176 221 267 320
#     4  10  22  37  52  77 112 146 183 222 263 319
#     4  10  19  34  54  78 112 145 179 218 264 316
#     4  10  19  34  54  78 112 145 179 218 264 316
#     4   9  19  35  55  80 108 138 176 221 267 320
#     4  10  21  37  58  79 105 140 179 228 276 315
#
# _framework density 16.64462
#
# number of rings (size 3 to 8) (size 9 to 14) (size 15 to 20)
#    0.000    2.333    1.667    0.500    0.000    4.000 
#    0.000    0.000    0.000    0.000    0.000    0.000 
#    0.000    0.000    0.000    0.000    0.000    0.000 
#
# Total GULP energy -133882.298989 kJ/mol
# GULP energy per Si atom -5578.429125 kJ/mol
# Density = 1.660674 g / cm^3
# Si number density = 16.644620 Si / 1000 Ang^3
#
#
#
# Elastic Constant Matrix: (Units=GPa)
#
#
# Indices 1 2 3 4 5 6 
#
# 1 136.5795 60.3384 69.9368 0.0000 -6.6564 0.0000
# 2 60.3384 151.6571 74.1766 0.0000 3.9953 0.0000
# 3 69.9368 74.1766 108.5137 0.0000 -1.4442 0.0000
# 4 0.0000 0.0000 0.0000 22.1150 0.0000 4.1930
# 5 -6.6564 3.9953 -1.4442 0.0000 23.2954 0.0000
# 6 0.0000 0.0000 0.0000 4.1930 0.0000 7.5912
#
#
#
# Elastic Compliance Matrix: (Units=1/GPa)
#
#
# Indices 1 2 3 4 5 6 
#
# 1 0.011338 -0.001562 -0.006198 0.000000 0.003123 0.000000
# 2 -0.001562 0.010227 -0.006018 0.000000 -0.002573 0.000000
# 3 -0.006198 -0.006018 0.017329 0.000000 0.000335 0.000000
# 4 0.000000 0.000000 0.000000 0.050508 0.000000 -0.027898
# 5 0.003123 -0.002573 0.000335 0.000000 0.044282 0.000000
# 6 0.000000 0.000000 0.000000 -0.027898 0.000000 0.147141
#
#
# Mechanical properties :
#
#
# Convention : Reuss Voigt Hill
#
# Bulk Modulus (GPa) = 88.20937 89.51709 88.86323
# Shear Modulus (GPa) = 16.01753 23.42020 19.71886
#
# Velocity S-wave (km/s) = 3.10550 3.75517 3.44568
# Velocity P-wave (km/s) = 8.12217 8.52642 8.32675
#
# Compressibility (1/GPa) = 0.01133666
#
# Stress axis : x y z
#
# Youngs Moduli (GPa) = 88.20215 97.78501 57.70837
#
# Poissons Ratio (x) = 0.15270 0.35768
# Poissons Ratio (y) = 0.13773 0.34731
# Poissons Ratio (z) = 0.54668 0.58851
#
# Static dielectric constant tensor:
#      x y z
#    x 1.522210 0.000000 0.014840 
#    y 0.000000 1.536340 0.000000 
#    z 0.014840 0.000000 1.573620 
# 
# From -- ./inp_files/26476.got.cif
#   From: 2010.05.17/outbox.cif.g08.bks.cpg/sg11_14_cif.got.tgz:26476.got - 2010.06.03 12:22:45.
