data_PCOD9159621
_publ_section_title
;
Structure prediction by ZEFSAII (Michael W. Deem and Ramdas Pophale) SiO2 
 PCOD9159621
Probable space group: P 21/M
;
_chemical_formula_sum "Si O2"
_cell_formula_units_Z 28
_cell_length_a 10.489977
_cell_length_b 8.969429
_cell_length_c 30.884390
_cell_angle_alpha 90.000000
_cell_angle_beta 146.425686
_cell_angle_gamma 90.000000
_cell_volume 1607.006742
_symmetry_space_group_name_H-M "P 21/M"
_symmetry_group_IT_number 11
_symmetry_cell_setting 'monoclinic'
loop_
_space_group_symop_operation_xyz
x,y,z
-x,1/2+y,-z
-x,-y,-z
x,1/2-y,z
loop_
_atom_site_type_symbol
_atom_site_label
_atom_site_fract_x
_atom_site_fract_y
_atom_site_fract_z
Si Si1 0.897363 0.429699 0.256529
Si Si2 0.813988 0.929496 0.325952
Si Si3 0.429468 0.928364 0.914022
Si Si4 0.872835 0.070712 0.505154
Si Si5 0.357168 0.429510 0.335349
Si Si6 0.146382 0.927256 0.921685
Si Si7 0.328244 0.571418 0.232066
O O1 0.895054 0.250000 0.259159
O O2 0.862164 0.499561 0.293311
O O3 0.696451 0.472663 0.165816
O O4 0.140904 0.473074 0.303775
O O5 0.823816 0.750000 0.325127
O O6 0.560992 0.969649 0.272401
O O7 0.000274 0.976519 0.414922
O O8 0.468287 0.750000 0.924664
O O9 0.256119 0.958988 0.905155
O O10 0.666705 0.011124 0.991609
O O11 0.894472 0.250000 0.508172
O O12 0.602579 0.033603 0.426325
O O13 0.000000 0.000000 0.500000
O O14 0.345691 0.250000 0.325850
O O15 0.342707 0.505645 0.284516
O O16 0.121206 0.750000 0.918522
O O17 0.900462 0.005942 0.854581
O O18 0.314424 0.750000 0.230318
#
# Coordination Sequence:
#
# PCOD9159621 Si02
#       7
#     4   4   4   4   4   4   4
#     4  10  21  38  57  82 114 150 187 227 279 336
#     4  10  23  39  54  81 117 150 186 231 280 333
#     4   9  18  34  54  81 115 144 180 231 279 328
#     4  10  20  36  58  83 114 146 185 235 280 326
#     4  10  20  36  59  84 111 145 188 235 278 328
#     4  10  19  33  56  85 113 142 185 232 278 330
#     4  11  21  35  56  83 114 147 187 232 278 329
#
# _framework density 17.423698999999999
#
# number of rings (size 3 to 8) (size 9 to 14) (size 15 to 20)
#    0.000    2.000    2.857    0.857    0.000    4.000 
#    0.000    0.714    0.000    0.000    0.000    0.000 
#    0.000    0.000    0.000    0.000    0.000    0.000 
#
# Total GULP energy -156316.265141 kJ/mol
# GULP energy per Si atom -5582.723755 kJ/mol
# Density = 1.738404 g / cm^3
# Si number density = 17.423699 Si / 1000 Ang^3
#
#
#
# Elastic Constant Matrix: (Units=GPa)
#
#
# Indices 1 2 3 4 5 6 
#
# 1 143.8151 45.7318 101.6703 0.0000 -3.8116 0.0000
# 2 45.7318 25.0519 52.5994 0.0000 5.0539 0.0000
# 3 101.6703 52.5994 186.7291 0.0000 3.1059 0.0000
# 4 0.0000 0.0000 0.0000 29.3073 0.0000 -4.5981
# 5 -3.8116 5.0539 3.1059 0.0000 31.3581 0.0000
# 6 0.0000 0.0000 0.0000 -4.5981 0.0000 30.1350
#
#
#
# Elastic Compliance Matrix: (Units=1/GPa)
#
#
# Indices 1 2 3 4 5 6 
#
# 1 0.018298 -0.033707 -0.000596 0.000000 0.007716 0.000000
# 2 -0.033707 0.165426 -0.027780 0.000000 -0.028007 0.000000
# 3 -0.000596 -0.027780 0.013454 0.000000 0.003072 0.000000
# 4 0.000000 0.000000 0.000000 0.034958 0.000000 0.005334
# 5 0.007716 -0.028007 0.003072 0.000000 0.037037 0.000000
# 6 0.000000 0.000000 0.000000 0.005334 0.000000 0.033998
#
#
# Mechanical properties :
#
#
# Convention : Reuss Voigt Hill
#
# Bulk Modulus (GPa) = 13.69647 83.95546 48.82597
# Shear Modulus (GPa) = 11.06992 28.53306 19.80149
#
# Velocity S-wave (km/s) = 2.52332 4.05112 3.37481
# Velocity P-wave (km/s) = 4.04567 8.37683 6.57795
#
# Compressibility (1/GPa) = 0.07301149
#
# Stress axis : x y z
#
# Youngs Moduli (GPa) = 54.65091 6.04501 74.32627
#
# Poissons Ratio (x) = 0.20376 0.04432
# Poissons Ratio (y) = 1.84212 2.06477
# Poissons Ratio (z) = 0.03259 0.16793
#
# Static dielectric constant tensor:
#      x y z
#    x 1.555800 0.000000 0.011760 
#    y 0.000000 1.603740 0.000000 
#    z 0.011760 0.000000 1.593180 
# 
# From -- ./inp_files/70890.got.cif
#   From: 2010.05.17/outbox.cif.g08.bks.cpg/sg11_36_cif.got.tgz:70890.got - 2010.06.03 12:22:45.
