data_PCOD9159089
_publ_section_title
;
Structure prediction by ZEFSAII (Michael W. Deem and Ramdas Pophale) SiO2 
 PCOD9159089
Probable space group: P 21/M
;
_chemical_formula_sum "Si O2"
_cell_formula_units_Z 32
_cell_length_a 21.205303
_cell_length_b 8.541036
_cell_length_c 12.635293
_cell_angle_alpha 90.000000
_cell_angle_beta 128.008181
_cell_angle_gamma 90.000000
_cell_volume 1803.117552
_symmetry_space_group_name_H-M "P 21/M"
_symmetry_group_IT_number 11
_symmetry_cell_setting 'monoclinic'
loop_
_space_group_symop_operation_xyz
x,y,z
-x,1/2+y,-z
-x,-y,-z
x,1/2-y,z
loop_
_atom_site_type_symbol
_atom_site_label
_atom_site_fract_x
_atom_site_fract_y
_atom_site_fract_z
Si Si1 0.260685 0.436318 0.848876
Si Si2 0.473879 0.562134 0.587912
Si Si3 0.879833 0.062094 0.146090
Si Si4 0.376130 0.937810 0.139531
Si Si5 0.212896 0.939743 0.576941
Si Si6 0.028980 0.562765 0.416525
Si Si7 0.234172 0.559949 0.153594
Si Si8 0.709171 0.441129 0.562896
O O1 0.255265 0.250000 0.848543
O O2 0.183973 0.508757 0.830762
O O3 0.257607 0.493615 0.725477
O O4 0.338080 0.494655 0.993289
O O5 0.500000 0.500000 0.500000
O O6 0.475410 0.750000 0.586607
O O7 0.537749 0.501299 0.738948
O O8 0.383387 0.511793 0.520499
O O9 0.883071 0.250000 0.151241
O O10 0.841687 0.009351 0.994816
O O11 0.965755 0.994994 0.264356
O O12 0.377336 0.750000 0.135191
O O13 0.313370 0.982807 0.168167
O O14 0.215729 0.750000 0.584698
O O15 0.119797 0.987861 0.487906
O O16 0.251982 0.991419 0.507051
O O17 0.027587 0.750000 0.418728
O O18 0.000000 0.500000 0.500000
O O19 0.232266 0.750000 0.153524
O O20 0.243314 0.505353 0.283137
O O21 0.710626 0.250000 0.565056
#
# Coordination Sequence:
#
# PCOD9159089 Si02
#       8
#     4   4   4   4   4   4   4   4
#     4  11  21  34  54  81 112 142 179 227 278 326
#     4  11  20  33  56  85 113 143 184 231 276 322
#     4  10  19  32  54  81 110 142 181 224 273 327
#     4  10  19  34  56  82 112 142 180 226 273 326
#     4  10  21  37  57  78 106 147 188 225 272 330
#     4  11  21  33  53  80 109 141 184 233 277 321
#     4   8  15  30  53  79 105 139 177 218 266 318
#     4   9  18  35  57  80 108 145 186 224 270 328
#
# _framework density 17.747039999999998
#
# number of rings (size 3 to 8) (size 9 to 14) (size 15 to 20)
#    0.000    2.000    2.500    3.375    0.000    0.500 
#    0.000    2.500    0.000    0.000    0.000    0.000 
#    0.000    0.000    0.000    0.000    0.000    0.000 
#
# Total GULP energy -178601.074840 kJ/mol
# GULP energy per Si atom -5581.283589 kJ/mol
# Density = 1.770665 g / cm^3
# Si number density = 17.747040 Si / 1000 Ang^3
#
#
#
# Elastic Constant Matrix: (Units=GPa)
#
#
# Indices 1 2 3 4 5 6 
#
# 1 114.7096 26.1040 87.1689 0.0000 -9.1399 0.0000
# 2 26.1040 40.6899 30.9982 0.0000 0.5811 0.0000
# 3 87.1689 30.9982 188.6937 0.0000 -8.2408 0.0000
# 4 0.0000 0.0000 0.0000 29.7765 0.0000 5.4734
# 5 -9.1399 0.5811 -8.2408 0.0000 26.8519 0.0000
# 6 0.0000 0.0000 0.0000 5.4734 0.0000 14.1138
#
#
#
# Elastic Compliance Matrix: (Units=1/GPa)
#
#
# Indices 1 2 3 4 5 6 
#
# 1 0.014453 -0.004962 -0.005719 0.000000 0.003272 0.000000
# 2 -0.004962 0.029908 -0.002760 0.000000 -0.003183 0.000000
# 3 -0.005719 -0.002760 0.008425 0.000000 0.000699 0.000000
# 4 0.000000 0.000000 0.000000 0.036161 0.000000 -0.014024
# 5 0.003272 -0.003183 0.000699 0.000000 0.038638 0.000000
# 6 0.000000 0.000000 0.000000 -0.014024 0.000000 0.076291
#
#
# Mechanical properties :
#
#
# Convention : Reuss Voigt Hill
#
# Bulk Modulus (GPa) = 38.60349 70.29282 54.44816
# Shear Modulus (GPa) = 20.88608 27.46992 24.17800
#
# Velocity S-wave (km/s) = 3.43429 3.93855 3.69503
# Velocity P-wave (km/s) = 6.12577 7.77027 6.99650
#
# Compressibility (1/GPa) = 0.02590439
#
# Stress axis : x y z
#
# Youngs Moduli (GPa) = 69.18790 33.43641 118.68981
#
# Poissons Ratio (x) = 0.16593 0.67876
# Poissons Ratio (y) = 0.34334 0.32755
# Poissons Ratio (z) = 0.39567 0.09228
#
# Static dielectric constant tensor:
#      x y z
#    x 1.582240 0.000000 0.000980 
#    y 0.000000 1.601910 0.000000 
#    z 0.000980 0.000000 1.617150 
# 
# From -- ./inp_files/42886.got.cif
#   From: 2010.05.17/outbox.cif.g08.bks.cpg/sg11_22_cif.got.tgz:42886.got - 2010.06.03 12:22:45.
