data_PCOD9159131
_publ_section_title
;
Structure prediction by ZEFSAII (Michael W. Deem and Ramdas Pophale) SiO2 
 PCOD9159131
Probable space group: P 21/M
;
_chemical_formula_sum "Si O2"
_cell_formula_units_Z 28
_cell_length_a 31.919876
_cell_length_b 8.597007
_cell_length_c 10.548692
_cell_angle_alpha 90.000000
_cell_angle_beta 32.548486
_cell_angle_gamma 90.000000
_cell_volume 1557.399248
_symmetry_space_group_name_H-M "P 21/M"
_symmetry_group_IT_number 11
_symmetry_cell_setting 'monoclinic'
loop_
_space_group_symop_operation_xyz
x,y,z
-x,1/2+y,-z
-x,-y,-z
x,1/2-y,z
loop_
_atom_site_type_symbol
_atom_site_label
_atom_site_fract_x
_atom_site_fract_y
_atom_site_fract_z
Si Si1 0.921263 0.435591 0.041171
Si Si2 0.504596 0.438010 0.845344
Si Si3 0.912123 0.437456 0.360953
Si Si4 0.325770 0.561983 0.677391
Si Si5 0.338813 0.062172 0.162791
Si Si6 0.233845 0.064039 0.671349
Si Si7 0.256977 0.562001 0.121148
O O1 0.916283 0.250000 0.046013
O O2 0.008516 0.490697 0.788372
O O3 0.906511 0.481836 0.226260
O O4 0.854168 0.509827 0.127529
O O5 0.504322 0.250000 0.851000
O O6 0.585526 0.489084 0.575635
O O7 0.500000 0.500000 0.000000
O O8 0.427260 0.486853 0.967113
O O9 0.918246 0.250000 0.350612
O O10 0.832950 0.486999 0.631582
O O11 0.325098 0.750000 0.678899
O O12 0.272054 0.504446 0.699873
O O13 0.293566 0.508734 0.895290
O O14 0.336602 0.250000 0.162769
O O15 0.284808 0.012648 0.419100
O O16 0.305390 0.996209 0.118054
O O17 0.237244 0.250000 0.668495
O O18 0.257730 0.750000 0.120979
#
# Coordination Sequence:
#
# PCOD9159131 Si02
#       7
#     4   4   4   4   4   4   4
#     4  10  19  32  55  84 110 140 184 229 274 323
#     4  10  20  36  56  82 112 144 185 231 275 320
#     4   9  18  33  53  79 112 143 177 225 277 326
#     4  10  22  38  58  81 112 148 185 229 276 328
#     4  10  21  35  55  82 112 145 184 229 272 325
#     4  11  21  35  56  83 113 145 186 228 273 327
#     4  10  21  38  57  82 113 148 184 223 277 334
#
# _framework density 17.978691999999999
#
# number of rings (size 3 to 8) (size 9 to 14) (size 15 to 20)
#    0.000    2.000    2.857    0.857    0.000    3.429 
#    0.000    0.714    0.000    0.000    0.000    0.000 
#    0.000    0.000    0.000    0.000    0.000    0.000 
#
# Total GULP energy -156320.843466 kJ/mol
# GULP energy per Si atom -5582.887267 kJ/mol
# Density = 1.793777 g / cm^3
# Si number density = 17.978692 Si / 1000 Ang^3
#
#
#
# Elastic Constant Matrix: (Units=GPa)
#
#
# Indices 1 2 3 4 5 6 
#
# 1 151.5301 21.0142 104.1454 0.0000 -9.7174 0.0000
# 2 21.0142 6.0519 26.5604 0.0000 -0.8417 0.0000
# 3 104.1454 26.5604 170.6408 0.0000 -8.1462 0.0000
# 4 0.0000 0.0000 0.0000 16.3450 0.0000 -0.9056
# 5 -9.7174 -0.8417 -8.1462 0.0000 35.4009 0.0000
# 6 0.0000 0.0000 0.0000 -0.9056 0.0000 31.6437
#
#
#
# Elastic Compliance Matrix: (Units=1/GPa)
#
#
# Indices 1 2 3 4 5 6 
#
# 1 0.013339 -0.033908 -0.002757 0.000000 0.002221 0.000000
# 2 -0.033908 0.609065 -0.074680 0.000000 -0.012011 0.000000
# 3 -0.002757 -0.074680 0.019258 0.000000 0.001899 0.000000
# 4 0.000000 0.000000 0.000000 0.061278 0.000000 0.001754
# 5 0.002221 -0.012011 0.001899 0.000000 0.029009 0.000000
# 6 0.000000 0.000000 0.000000 0.001754 0.000000 0.031652
#
#
# Mechanical properties :
#
#
# Convention : Reuss Voigt Hill
#
# Bulk Modulus (GPa) = 2.38680 70.18475 36.28578
# Shear Modulus (GPa) = 4.44070 28.44479 16.44274
#
# Velocity S-wave (km/s) = 1.57332 3.98193 3.02746
# Velocity P-wave (km/s) = 2.15196 7.76295 5.69624
#
# Compressibility (1/GPa) = 0.41897025
#
# Stress axis : x y z
#
# Youngs Moduli (GPa) = 74.96683 1.64186 51.92690
#
# Poissons Ratio (x) = 0.05567 0.14318
# Poissons Ratio (y) = 2.54198 3.87791
# Poissons Ratio (z) = 0.20671 0.12261
#
# Static dielectric constant tensor:
#      x y z
#    x 1.575490 0.000000 -0.010650 
#    y 0.000000 1.606670 0.000000 
#    z -0.010650 0.000000 1.620870 
# 
# From -- ./inp_files/28312.got.cif
#   From: 2010.05.17/outbox.cif.g08.bks.cpg/sg11_15_cif.got.tgz:28312.got - 2010.06.03 12:22:45.
