data_PCOD9159247
_publ_section_title
;
Structure prediction by ZEFSAII (Michael W. Deem and Ramdas Pophale) SiO2 
 PCOD9159247
Probable space group: P 21/M
;
_chemical_formula_sum "Si O2"
_cell_formula_units_Z 28
_cell_length_a 19.637620
_cell_length_b 9.073562
_cell_length_c 14.858108
_cell_angle_alpha 90.000000
_cell_angle_beta 139.168699
_cell_angle_gamma 90.000000
_cell_volume 1731.002568
_symmetry_space_group_name_H-M "P 21/M"
_symmetry_group_IT_number 11
_symmetry_cell_setting 'monoclinic'
loop_
_space_group_symop_operation_xyz
x,y,z
-x,1/2+y,-z
-x,-y,-z
x,1/2-y,z
loop_
_atom_site_type_symbol
_atom_site_label
_atom_site_fract_x
_atom_site_fract_y
_atom_site_fract_z
Si Si1 0.295164 0.572157 0.081220
Si Si2 0.877499 0.925193 0.973177
Si Si3 0.500048 0.427035 0.597755
Si Si4 0.377600 0.073163 0.784931
Si Si5 0.704759 0.572159 0.490837
Si Si6 0.622402 0.073163 0.029737
Si Si7 0.877426 0.425193 0.781810
O O1 0.284030 0.750000 0.073641
O O2 0.195685 0.495021 0.024726
O O3 0.396988 0.533388 0.242444
O O4 0.316929 0.529541 0.999695
O O5 0.861375 0.750000 0.950677
O O6 0.851443 0.999994 0.851478
O O7 0.000043 0.952377 0.113156
O O8 0.500000 0.500000 0.500000
O O9 0.500058 0.250000 0.587650
O O10 0.397112 0.466583 0.551695
O O11 0.371787 0.250000 0.787199
O O12 0.316936 0.029543 0.634160
O O13 0.341393 1.000000 0.841390
O O14 0.500001 0.034997 0.894905
O O15 0.715912 0.750000 0.505552
O O16 0.804199 0.495004 0.633323
O O17 0.628216 0.250000 0.043631
O O18 0.861307 0.250000 0.772087
#
# Coordination Sequence:
#
# PCOD9159247 Si02
#       7
#     4   4   4   4   4   4   4
#     4  10  19  33  52  73 102 135 166 204 250 298
#     4  10  21  36  53  74 100 131 170 213 252 294
#     4  10  20  32  45  68 102 134 161 196 243 294
#     4   9  17  31  50  73 102 134 166 203 247 296
#     4  10  19  33  52  73 102 135 166 204 250 298
#     4   9  17  31  50  73 102 134 166 203 247 296
#     4  10  21  36  53  74 100 131 170 213 252 294
#
# _framework density 16.175595999999999
#
# number of rings (size 3 to 8) (size 9 to 14) (size 15 to 20)
#    0.000    2.286    1.429    1.714    0.000    6.286 
#    0.000    0.000    0.000    0.857    0.000    0.000 
#    0.000    0.000    0.000    0.000    0.000    0.000 
#
# Total GULP energy -156229.793994 kJ/mol
# GULP energy per Si atom -5579.635500 kJ/mol
# Density = 1.613878 g / cm^3
# Si number density = 16.175596 Si / 1000 Ang^3
#
#
#
# Elastic Constant Matrix: (Units=GPa)
#
#
# Indices 1 2 3 4 5 6 
#
# 1 143.2117 53.5546 81.2926 0.0000 -27.8843 0.0000
# 2 53.5546 33.6022 48.8280 0.0000 -8.2826 0.0000
# 3 81.2926 48.8280 112.0241 0.0000 -27.0752 0.0000
# 4 0.0000 0.0000 0.0000 29.1259 0.0000 -3.0826
# 5 -27.8843 -8.2826 -27.0752 0.0000 24.3771 0.0000
# 6 0.0000 0.0000 0.0000 -3.0826 0.0000 30.8468
#
#
#
# Elastic Compliance Matrix: (Units=1/GPa)
#
#
# Indices 1 2 3 4 5 6 
#
# 1 0.021334 -0.036238 0.004423 0.000000 0.017004 0.000000
# 2 -0.036238 0.147574 -0.049109 0.000000 -0.045855 0.000000
# 3 0.004423 -0.049109 0.033233 0.000000 0.025286 0.000000
# 4 0.000000 0.000000 0.000000 0.034701 0.000000 0.003468
# 5 0.017004 -0.045855 0.025286 0.000000 0.072976 0.000000
# 6 0.000000 0.000000 0.000000 0.003468 0.000000 0.032765
#
#
# Mechanical properties :
#
#
# Convention : Reuss Voigt Hill
#
# Bulk Modulus (GPa) = 24.81778 72.90984 48.86381
# Shear Modulus (GPa) = 9.65507 23.88079 16.76793
#
# Velocity S-wave (km/s) = 2.44579 3.84649 3.22315
# Velocity P-wave (km/s) = 4.83238 8.05600 6.64270
#
# Compressibility (1/GPa) = 0.04029369
#
# Stress axis : x y z
#
# Youngs Moduli (GPa) = 46.87375 6.77624 30.09019
#
# Poissons Ratio (x) = 0.24556 -0.13310
# Poissons Ratio (y) = 1.69861 1.47771
# Poissons Ratio (z) = -0.20734 0.33278
#
# Static dielectric constant tensor:
#      x y z
#    x 1.526450 0.000000 0.001510 
#    y 0.000000 1.538260 0.000000 
#    z 0.001510 0.000000 1.527260 
# 
# From -- ./inp_files/53199.got.cif
#   From: 2010.05.17/outbox.cif.g08.bks.cpg/sg11_27_cif.got.tgz:53199.got - 2010.06.03 12:22:45.
