data_PCOD9159895
_publ_section_title
;
Structure prediction by ZEFSAII (Michael W. Deem and Ramdas Pophale) SiO2 
 PCOD9159895
Probable space group: P 21/M
;
_chemical_formula_sum "Si O2"
_cell_formula_units_Z 20
_cell_length_a 23.117538
_cell_length_b 7.838547
_cell_length_c 5.354200
_cell_angle_alpha 90.000000
_cell_angle_beta 96.650520
_cell_angle_gamma 90.000000
_cell_volume 963.694782
_symmetry_space_group_name_H-M "P 21/M"
_symmetry_group_IT_number 11
_symmetry_cell_setting 'monoclinic'
loop_
_space_group_symop_operation_xyz
x,y,z
-x,1/2+y,-z
-x,-y,-z
x,1/2-y,z
loop_
_atom_site_type_symbol
_atom_site_label
_atom_site_fract_x
_atom_site_fract_y
_atom_site_fract_z
Si Si1 0.368881 0.044756 0.934907
Si Si2 0.832622 0.040417 0.666547
Si Si3 0.567836 0.955779 0.533448
Si Si4 0.034521 0.952200 0.267262
Si Si5 0.233291 0.955539 0.866407
O O1 0.374662 0.250000 0.937852
O O2 0.400432 0.979895 0.700672
O O3 0.300796 0.003717 0.900417
O O4 0.400286 0.979897 0.200954
O O5 0.832668 0.250000 0.666575
O O6 0.899397 0.979785 0.699736
O O7 0.799088 0.984444 0.400390
O O8 0.799160 0.984447 0.899378
O O9 0.572638 0.750000 0.535795
O O10 0.500000 0.000000 0.500000
O O11 0.039830 0.750000 0.269926
O O12 0.000000 0.000000 0.500000
O O13 0.000000 0.000000 0.000000
O O14 0.229832 0.750000 0.864660
#
# Coordination Sequence:
#
# PCOD9159895 Si02
#       5
#     4   4   4   4   4
#     4  10  21  36  52  76 108 137 164 211 271 313
#     4   9  19  35  55  78 108 143 180 225 275 321
#     4  10  21  36  54  75 103 136 171 209 257 311
#     4  11  22  39  61  86 118 155 194 241 293 346
#     4  10  19  34  56  79 101 137 184 220 258 321
#
# _framework density 20.753457999999998
#
# number of rings (size 3 to 8) (size 9 to 14) (size 15 to 20)
#    0.000    2.000    0.000    3.600    0.000    4.800 
#    0.000    6.000    0.000    0.000    0.000    0.000 
#    0.000    0.000    0.000    0.000    0.000    0.000 
#
# Total GULP energy -111791.729612 kJ/mol
# GULP energy per Si atom -5589.586481 kJ/mol
# Density = 2.070622 g / cm^3
# Si number density = 20.753458 Si / 1000 Ang^3
#
#
#
# Elastic Constant Matrix: (Units=GPa)
#
#
# Indices 1 2 3 4 5 6 
#
# 1 245.1584 -0.2405 162.4454 0.0000 -2.8632 0.0000
# 2 -0.2405 22.8561 14.0454 0.0000 -2.5624 0.0000
# 3 162.4454 14.0454 270.7859 0.0000 -1.9509 0.0000
# 4 0.0000 0.0000 0.0000 6.4816 0.0000 4.5384
# 5 -2.8632 -2.5624 -1.9509 0.0000 48.8797 0.0000
# 6 0.0000 0.0000 0.0000 4.5384 0.0000 31.7303
#
#
#
# Elastic Compliance Matrix: (Units=1/GPa)
#
#
# Indices 1 2 3 4 5 6 
#
# 1 0.006936 0.002759 -0.004302 0.000000 0.000379 0.000000
# 2 0.002759 0.046544 -0.004052 0.000000 0.002440 0.000000
# 3 -0.004302 -0.004052 0.006482 0.000000 -0.000206 0.000000
# 4 0.000000 0.000000 0.000000 0.171455 0.000000 -0.024523
# 5 0.000379 0.002440 -0.000206 0.000000 0.020600 0.000000
# 6 0.000000 0.000000 0.000000 -0.024523 0.000000 0.035023
#
#
# Mechanical properties :
#
#
# Convention : Reuss Voigt Hill
#
# Bulk Modulus (GPa) = 20.50266 99.03344 59.76805
# Shear Modulus (GPa) = 15.89884 41.58830 28.74357
#
# Velocity S-wave (km/s) = 2.77082 4.48137 3.72560
# Velocity P-wave (km/s) = 4.48745 8.63710 6.88247
#
# Compressibility (1/GPa) = 0.04877416
#
# Stress axis : x y z
#
# Youngs Moduli (GPa) = 144.16733 21.48489 154.27028
#
# Poissons Ratio (x) = -0.05927 0.66360
# Poissons Ratio (y) = -0.39774 0.62505
# Poissons Ratio (z) = 0.62014 0.08705
#
# Static dielectric constant tensor:
#      x y z
#    x 1.693720 0.000000 -0.004470 
#    y 0.000000 1.753410 0.000000 
#    z -0.004470 0.000000 1.718770 
# 
# From -- ./inp_files/7498.got.cif
#   From: 2010.05.17/outbox.cif.g08.bks.cpg/sg11_4_cif.got.tgz:7498.got - 2010.06.03 12:22:45.
