data_PCOD9159441
_publ_section_title
;
Structure prediction by ZEFSAII (Michael W. Deem and Ramdas Pophale) SiO2 
 PCOD9159441
Probable space group: P 21/M
;
_chemical_formula_sum "Si O2"
_cell_formula_units_Z 20
_cell_length_a 10.396125
_cell_length_b 8.758801
_cell_length_c 12.963670
_cell_angle_alpha 90.000000
_cell_angle_beta 76.699010
_cell_angle_gamma 90.000000
_cell_volume 1148.775110
_symmetry_space_group_name_H-M "P 21/M"
_symmetry_group_IT_number 11
_symmetry_cell_setting 'monoclinic'
loop_
_space_group_symop_operation_xyz
x,y,z
-x,1/2+y,-z
-x,-y,-z
x,1/2-y,z
loop_
_atom_site_type_symbol
_atom_site_label
_atom_site_fract_x
_atom_site_fract_y
_atom_site_fract_z
Si Si1 0.143872 0.067666 0.951967
Si Si2 0.361192 0.931468 0.064673
Si Si3 0.291795 0.567898 0.731245
Si Si4 0.353285 0.067026 0.511178
Si Si5 0.397887 0.432027 0.276043
O O1 0.140916 0.250000 0.955553
O O2 0.198838 0.011072 0.831728
O O3 0.245401 0.004574 0.018553
O O4 0.000000 0.000000 0.000000
O O5 0.362034 0.750000 0.050233
O O6 0.349007 0.975891 0.186752
O O7 0.500000 0.000000 0.000000
O O8 0.274884 0.750000 0.736476
O O9 0.270867 0.505384 0.619401
O O10 0.445345 0.536453 0.734705
O O11 0.357016 0.250000 0.521213
O O12 0.322985 0.032266 0.397131
O O13 0.500000 0.000000 0.500000
O O14 0.386540 0.250000 0.258814
#
# Coordination Sequence:
#
# PCOD9159441 Si02
#       5
#     4   4   4   4   4
#     4  12  25  41  60  82 113 151 191 234 284 341
#     4  12  23  36  57  84 115 150 190 234 284 335
#     4  10  19  33  54  80 113 147 187 231 278 335
#     4   9  17  29  48  76 111 146 184 229 280 331
#     4   9  18  32  52  80 114 147 185 231 279 331
#
# _framework density 17.409849000000001
#
# number of rings (size 3 to 8) (size 9 to 14) (size 15 to 20)
#    0.000    1.600    2.000    6.000    0.000    4.000 
#    0.000    0.000    0.000    1.200    0.000    0.000 
#    0.000    0.000    0.000    0.000    0.000    0.000 
#
# Total GULP energy -111656.840072 kJ/mol
# GULP energy per Si atom -5582.842004 kJ/mol
# Density = 1.737022 g / cm^3
# Si number density = 17.409849 Si / 1000 Ang^3
#
#
#
# Elastic Constant Matrix: (Units=GPa)
#
#
# Indices 1 2 3 4 5 6 
#
# 1 89.1245 56.5506 64.6787 0.0000 -4.2724 0.0000
# 2 56.5506 135.0637 94.5001 0.0000 -4.0022 0.0000
# 3 64.6787 94.5001 178.2224 0.0000 -2.3287 0.0000
# 4 0.0000 0.0000 0.0000 36.6982 0.0000 -0.0245
# 5 -4.2724 -4.0022 -2.3287 0.0000 15.4407 0.0000
# 6 0.0000 0.0000 0.0000 -0.0245 0.0000 22.7748
#
#
#
# Elastic Compliance Matrix: (Units=1/GPa)
#
#
# Indices 1 2 3 4 5 6 
#
# 1 0.016851 -0.004317 -0.003787 0.000000 0.002972 0.000000
# 2 -0.004317 0.012946 -0.005280 0.000000 0.001365 0.000000
# 3 -0.003787 -0.005280 0.009773 0.000000 -0.000943 0.000000
# 4 0.000000 0.000000 0.000000 0.027249 0.000000 0.000029
# 5 0.002972 0.001365 -0.000943 0.000000 0.065798 0.000000
# 6 0.000000 0.000000 0.000000 0.000029 0.000000 0.043908
#
#
# Mechanical properties :
#
#
# Convention : Reuss Voigt Hill
#
# Bulk Modulus (GPa) = 78.12197 92.65216 85.38706
# Shear Modulus (GPa) = 24.08936 27.42816 25.75876
#
# Velocity S-wave (km/s) = 3.72380 3.97349 3.85067
# Velocity P-wave (km/s) = 7.96609 8.62469 8.30192
#
# Compressibility (1/GPa) = 0.01280050
#
# Stress axis : x y z
#
# Youngs Moduli (GPa) = 59.34506 77.24253 102.32645
#
# Poissons Ratio (x) = 0.33349 0.38753
# Poissons Ratio (y) = 0.25622 0.54027
# Poissons Ratio (z) = 0.22475 0.40783
#
# Static dielectric constant tensor:
#      x y z
#    x 1.561420 0.000000 0.001600 
#    y 0.000000 1.577350 0.000000 
#    z 0.001600 0.000000 1.625050 
# 
# From -- ./inp_files/15964.got.cif
#   From: 2010.05.17/outbox.cif.g08.bks.cpg/sg11_8_cif.got.tgz:15964.got - 2010.06.03 12:22:45.
