data_PCOD9159736
_publ_section_title
;
Structure prediction by ZEFSAII (Michael W. Deem and Ramdas Pophale) SiO2 
 PCOD9159736
Probable space group: P 21/M
;
_chemical_formula_sum "Si O2"
_cell_formula_units_Z 28
_cell_length_a 13.236314
_cell_length_b 8.068157
_cell_length_c 19.960588
_cell_angle_alpha 90.000000
_cell_angle_beta 131.538818
_cell_angle_gamma 90.000000
_cell_volume 1595.549858
_symmetry_space_group_name_H-M "P 21/M"
_symmetry_group_IT_number 11
_symmetry_cell_setting 'monoclinic'
loop_
_space_group_symop_operation_xyz
x,y,z
-x,1/2+y,-z
-x,-y,-z
x,1/2-y,z
loop_
_atom_site_type_symbol
_atom_site_label
_atom_site_fract_x
_atom_site_fract_y
_atom_site_fract_z
Si Si1 0.019067 0.949741 0.402411
Si Si2 0.785756 0.550259 0.402413
Si Si3 0.783923 0.049681 0.898044
Si Si4 0.088226 0.449573 0.785178
Si Si5 0.603522 0.447041 0.103515
Si Si6 0.482125 0.050424 0.785181
Si Si7 0.987839 0.950319 0.101957
O O1 0.013603 0.750000 0.399061
O O2 0.895370 0.008582 0.395371
O O3 0.992481 0.010760 0.315653
O O4 0.155780 0.999997 0.500000
O O5 0.784522 0.750000 0.399066
O O6 0.638825 0.489246 0.315653
O O7 0.780717 0.250000 0.894212
O O8 0.630852 0.987246 0.832173
O O9 0.877439 0.991549 0.877441
O O10 0.862392 0.000001 0.000001
O O11 0.075911 0.250000 0.780710
O O12 0.246084 0.488933 0.845653
O O13 0.033486 0.512757 0.832170
O O14 0.607745 0.250000 0.107728
O O15 0.554788 0.511041 0.154348
O O16 0.500000 0.500000 0.000000
O O17 0.485500 0.250000 0.780722
O O18 0.992297 0.750000 0.105788
#
# Coordination Sequence:
#
# PCOD9159736 Si02
#       7
#     4   4   4   4   4   4   4
#     4   9  17  30  48  69  95 126 160 198 240 288
#     4   9  17  30  48  69  95 126 160 198 240 288
#     4   9  18  32  51  73  96 126 164 202 240 285
#     4  10  19  34  52  71  99 130 162 201 245 289
#     4  12  24  34  47  70 101 132 163 196 240 294
#     4  10  19  34  52  71  99 130 162 201 245 289
#     4   9  18  32  51  73  96 126 164 202 240 285
#
# _framework density 17.548808999999999
#
# number of rings (size 3 to 8) (size 9 to 14) (size 15 to 20)
#    0.000    2.286    1.429    2.143    0.000    4.571 
#    0.000    0.000    0.000    0.857    0.000    0.000 
#    0.000    0.000    0.000    0.000    0.000    0.000 
#
# Total GULP energy -156194.711078 kJ/mol
# GULP energy per Si atom -5578.382538 kJ/mol
# Density = 1.750887 g / cm^3
# Si number density = 17.548809 Si / 1000 Ang^3
#
#
#
# Elastic Constant Matrix: (Units=GPa)
#
#
# Indices 1 2 3 4 5 6 
#
# 1 125.1883 5.6661 107.7158 0.0000 -0.7231 0.0000
# 2 5.6661 8.1863 5.1714 0.0000 0.0169 0.0000
# 3 107.7158 5.1714 189.5351 0.0000 -2.5777 0.0000
# 4 0.0000 0.0000 0.0000 25.1120 0.0000 -1.2794
# 5 -0.7231 0.0169 -2.5777 0.0000 15.7819 0.0000
# 6 0.0000 0.0000 0.0000 -1.2794 0.0000 -0.0742
#
#
#
# Elastic Compliance Matrix: (Units=1/GPa)
#
#
# Indices 1 2 3 4 5 6 
#
# 1 0.015869 -0.005371 -0.008882 0.000000 -0.000718 0.000000
# 2 -0.005371 0.126124 -0.000395 0.000000 -0.000446 0.000000
# 3 -0.008882 -0.000395 0.010352 0.000000 0.001284 0.000000
# 4 0.000000 0.000000 0.000000 0.021202 0.000000 -0.365464
# 5 -0.000718 -0.000446 0.001284 0.000000 0.063541 0.000000
# 6 0.000000 0.000000 0.000000 -0.365464 0.000000 -7.173338
#
#
# Mechanical properties :
#
#
# Convention : Reuss Voigt Hill
#
# Bulk Modulus (GPa) = 8.12684 62.22406 35.17545
# Shear Modulus (GPa) = -0.72823 21.78768 10.52972
#
# Velocity S-wave (km/s) = -0.64488 3.52738 2.45220
# Velocity P-wave (km/s) = 2.02152 7.21974 5.30147
#
# Compressibility (1/GPa) = 0.12304899
#
# Stress axis : x y z
#
# Youngs Moduli (GPa) = 63.01501 7.92872 96.59923
#
# Poissons Ratio (x) = 0.04259 0.85799
# Poissons Ratio (y) = 0.33848 0.03812
# Poissons Ratio (z) = 0.55970 0.00313
#
# Static dielectric constant tensor:
#      x y z
#    x 1.602050 0.000000 0.000780 
#    y 0.000000 1.621380 0.000000 
#    z 0.000780 0.000000 1.586330 
# 
# From -- ./inp_files/64265.got.cif
#   From: 2010.05.17/outbox.cif.g08.bks.cpg/sg11_33_cif.got.tgz:64265.got - 2010.06.03 12:22:45.
