data_PCOD9159066
_publ_section_title
;
Structure prediction by ZEFSAII (Michael W. Deem and Ramdas Pophale) SiO2 
 PCOD9159066
Probable space group: P 21/M
;
_chemical_formula_sum "Si O2"
_cell_formula_units_Z 32
_cell_length_a 29.650934
_cell_length_b 8.803328
_cell_length_c 12.561721
_cell_angle_alpha 90.000000
_cell_angle_beta 146.027023
_cell_angle_gamma 90.000000
_cell_volume 1832.281630
_symmetry_space_group_name_H-M "P 21/M"
_symmetry_group_IT_number 11
_symmetry_cell_setting 'monoclinic'
loop_
_space_group_symop_operation_xyz
x,y,z
-x,1/2+y,-z
-x,-y,-z
x,1/2-y,z
loop_
_atom_site_type_symbol
_atom_site_label
_atom_site_fract_x
_atom_site_fract_y
_atom_site_fract_z
Si Si1 0.380247 0.568688 0.989478
Si Si2 0.257623 0.931953 0.928344
Si Si3 0.242117 0.431285 0.569180
Si Si4 0.880815 0.569431 0.489441
Si Si5 0.472127 0.568220 0.832638
Si Si6 0.285517 0.933258 0.435065
Si Si7 0.204394 0.567169 0.054457
Si Si8 0.028968 0.069355 0.669194
O O1 0.387784 0.750000 0.994668
O O2 0.465393 0.491875 0.132821
O O3 0.338371 0.531415 0.020413
O O4 0.316860 0.509986 0.776635
O O5 0.244286 0.750000 0.890594
O O6 0.183841 0.016409 0.725986
O O7 0.256168 0.968720 0.049994
O O8 0.254484 0.250000 0.595171
O O9 0.162507 0.465087 0.483123
O O10 0.240422 0.492258 0.446543
O O11 0.893066 0.750000 0.505241
O O12 0.963712 0.484447 0.628359
O O13 0.476561 0.750000 0.847373
O O14 0.379927 0.524552 0.628160
O O15 0.500000 0.500000 0.000000
O O16 0.280574 0.750000 0.434545
O O17 0.247694 0.978567 0.248233
O O18 0.193874 0.750000 0.036055
O O19 0.117294 0.491920 0.869987
O O20 0.029478 0.250000 0.661467
O O21 0.000000 0.000000 0.500000
#
# Coordination Sequence:
#
# PCOD9159066 Si02
#       8
#     4   4   4   4   4   4   4   4
#     4  10  19  32  53  82 111 142 183 231 278 328
#     4   9  18  33  55  80 109 145 183 225 278 329
#     4  10  20  34  55  82 112 145 184 230 278 327
#     4  10  20  34  55  84 113 142 181 231 279 325
#     4  11  21  34  54  82 111 146 186 232 279 327
#     4  10  22  38  57  80 112 150 188 228 280 337
#     4  10  21  39  59  81 111 149 187 230 279 330
#     4  12  23  36  57  86 114 145 185 230 274 327
#
# _framework density 17.464565
#
# number of rings (size 3 to 8) (size 9 to 14) (size 15 to 20)
#    0.000    1.750    2.500    2.625    0.000    3.000 
#    0.000    1.250    0.000    0.000    0.000    0.000 
#    0.000    0.000    0.000    0.000    0.000    0.000 
#
# Total GULP energy -178680.332038 kJ/mol
# GULP energy per Si atom -5583.760376 kJ/mol
# Density = 1.742481 g / cm^3
# Si number density = 17.464565 Si / 1000 Ang^3
#
#
#
# Elastic Constant Matrix: (Units=GPa)
#
#
# Indices 1 2 3 4 5 6 
#
# 1 160.5749 55.2820 80.3540 0.0000 -9.1144 0.0000
# 2 55.2820 49.5320 44.5760 0.0000 -2.3683 0.0000
# 3 80.3540 44.5760 111.2204 0.0000 -8.6092 0.0000
# 4 0.0000 0.0000 0.0000 22.2053 0.0000 5.6562
# 5 -9.1144 -2.3683 -8.6092 0.0000 26.5526 0.0000
# 6 0.0000 0.0000 0.0000 5.6562 0.0000 29.3272
#
#
#
# Elastic Compliance Matrix: (Units=1/GPa)
#
#
# Indices 1 2 3 4 5 6 
#
# 1 0.011740 -0.008613 -0.004900 0.000000 0.001673 0.000000
# 2 -0.008613 0.037943 -0.009182 0.000000 -0.002549 0.000000
# 3 -0.004900 -0.009182 0.016430 0.000000 0.002826 0.000000
# 4 0.000000 0.000000 0.000000 0.047361 0.000000 -0.009134
# 5 0.001673 -0.002549 0.002826 0.000000 0.038924 0.000000
# 6 0.000000 0.000000 0.000000 -0.009134 0.000000 0.035860
#
#
# Mechanical properties :
#
#
# Convention : Reuss Voigt Hill
#
# Bulk Modulus (GPa) = 48.25561 75.75014 62.00288
# Shear Modulus (GPa) = 20.78512 25.02468 22.90490
#
# Velocity S-wave (km/s) = 3.45357 3.78945 3.62540
# Velocity P-wave (km/s) = 6.60253 7.91292 7.28724
#
# Compressibility (1/GPa) = 0.02072298
#
# Stress axis : x y z
#
# Youngs Moduli (GPa) = 85.17892 26.35534 60.86258
#
# Poissons Ratio (x) = 0.22699 0.29826
# Poissons Ratio (y) = 0.73362 0.55884
# Poissons Ratio (z) = 0.41742 0.24200
#
# Static dielectric constant tensor:
#      x y z
#    x 1.617780 0.000000 0.002130 
#    y 0.000000 1.585190 0.000000 
#    z 0.002130 0.000000 1.554920 
# 
# From -- ./inp_files/45382.got.cif
#   From: 2010.05.17/outbox.cif.g08.bks.cpg/sg11_23_cif.got.tgz:45382.got - 2010.06.03 12:22:45.
