data_PCOD9159398
_publ_section_title
;
Structure prediction by ZEFSAII (Michael W. Deem and Ramdas Pophale) SiO2 
 PCOD9159398
Probable space group: P 21/M
;
_chemical_formula_sum "Si O2"
_cell_formula_units_Z 32
_cell_length_a 19.207222
_cell_length_b 9.257028
_cell_length_c 21.718348
_cell_angle_alpha 90.000000
_cell_angle_beta 21.598961
_cell_angle_gamma 90.000000
_cell_volume 1421.470378
_symmetry_space_group_name_H-M "P 21/M"
_symmetry_group_IT_number 11
_symmetry_cell_setting 'monoclinic'
loop_
_space_group_symop_operation_xyz
x,y,z
-x,1/2+y,-z
-x,-y,-z
x,1/2-y,z
loop_
_atom_site_type_symbol
_atom_site_label
_atom_site_fract_x
_atom_site_fract_y
_atom_site_fract_z
Si Si1 0.654625 0.587520 0.130129
Si Si2 0.707535 0.423330 0.763211
Si Si3 0.711297 0.415758 0.268584
Si Si4 0.057629 0.080064 0.678043
Si Si5 0.613462 0.418772 0.530388
Si Si6 0.030391 0.914306 0.068494
Si Si7 0.664675 0.581587 0.984306
Si Si8 0.077435 0.079864 0.522630
O O1 0.735487 0.750000 0.070361
O O2 0.503539 0.571065 0.308754
O O3 0.824594 0.476380 0.001018
O O4 0.574437 0.577236 0.127422
O O5 0.694417 0.250000 0.770880
O O6 0.854302 0.458248 0.697076
O O7 0.811739 0.484582 0.617201
O O8 0.491837 0.475803 0.934704
O O9 0.664560 0.250000 0.321095
O O10 0.525601 0.507326 0.404645
O O11 0.847314 0.488321 0.206928
O O12 0.842715 0.415790 0.098646
O O13 0.043257 0.250000 0.702703
O O14 0.141321 0.062828 0.540044
O O15 0.853905 0.008055 0.837626
O O16 0.192838 0.001994 0.615397
O O17 0.643916 0.250000 0.492157
O O18 0.974745 0.750000 0.126481
O O19 0.710653 0.750000 0.932925
O O20 0.097469 0.250000 0.490049
#
# Coordination Sequence:
#
# PCOD9159398 Si02
#       8
#     4   4   4   4   4   4   4   4
#     4   9  18  32  51  75 101 131 170 216 261 304
#     4   9  18  35  58  81 104 133 171 213 257 306
#     4   9  16  27  45  72 105 135 165 208 258 303
#     4  11  23  36  50  73 106 140 173 211 257 307
#     4  10  19  33  54  77 101 133 174 216 258 306
#     4   9  16  26  44  72 103 134 168 207 253 305
#     4  10  21  36  53  74 102 137 176 215 255 303
#     4   9  19  35  55  80 108 135 167 211 259 307
#
# _framework density 22.511903
#
# number of rings (size 3 to 8) (size 9 to 14) (size 15 to 20)
#    0.000    2.500    0.000    2.250    0.000    7.000 
#    0.000    0.000    0.000    0.750    0.000    0.000 
#    0.000    0.000    0.000    0.000    0.000    0.000 
#
# Total GULP energy -178823.859876 kJ/mol
# GULP energy per Si atom -5588.245621 kJ/mol
# Density = 2.246066 g / cm^3
# Si number density = 22.511903 Si / 1000 Ang^3
#
#
#
# Elastic Constant Matrix: (Units=GPa)
#
#
# Indices 1 2 3 4 5 6 
#
# 1 91.7976 33.7134 25.1270 0.0000 -29.0696 0.0000
# 2 33.7134 104.0706 57.1640 0.0000 -40.2807 0.0000
# 3 25.1270 57.1640 104.6132 0.0000 -38.9369 0.0000
# 4 0.0000 0.0000 0.0000 29.7990 0.0000 -10.5273
# 5 -29.0696 -40.2807 -38.9369 0.0000 50.0116 0.0000
# 6 0.0000 0.0000 0.0000 -10.5273 0.0000 19.1871
#
#
#
# Elastic Compliance Matrix: (Units=1/GPa)
#
#
# Indices 1 2 3 4 5 6 
#
# 1 0.013625 -0.002051 0.000255 0.000000 0.006466 0.000000
# 2 -0.002051 0.016266 -0.005580 0.000000 0.007565 0.000000
# 3 0.000255 -0.005580 0.015389 0.000000 0.007635 0.000000
# 4 0.000000 0.000000 0.000000 0.041627 0.000000 0.022839
# 5 0.006466 0.007565 0.007635 0.000000 0.035790 0.000000
# 6 0.000000 0.000000 0.000000 0.022839 0.000000 0.064649
#
#
# Mechanical properties :
#
#
# Convention : Reuss Voigt Hill
#
# Bulk Modulus (GPa) = 32.75826 59.16556 45.96191
# Shear Modulus (GPa) = 23.55443 32.09800 27.82621
#
# Velocity S-wave (km/s) = 3.23818 3.78010 3.51959
# Velocity P-wave (km/s) = 5.34455 6.73730 6.08093
#
# Compressibility (1/GPa) = 0.03052665
#
# Stress axis : x y z
#
# Youngs Moduli (GPa) = 73.39685 61.47676 64.98308
#
# Poissons Ratio (x) = 0.12609 -0.01656
# Poissons Ratio (y) = 0.15054 0.36262
# Poissons Ratio (z) = -0.01870 0.34306
#
# Static dielectric constant tensor:
#      x y z
#    x 1.846530 0.000000 0.039730 
#    y 0.000000 1.770190 0.000000 
#    z 0.039730 0.000000 1.839490 
# 
# From -- ./inp_files/71993.got.cif
#   From: 2010.05.17/outbox.cif.g08.bks.cpg/sg11_36_cif.got.tgz:71993.got - 2010.06.03 12:22:45.
