data_PCOD9159537
_publ_section_title
;
Structure prediction by ZEFSAII (Michael W. Deem and Ramdas Pophale) SiO2 
 PCOD9159537
Probable space group: P 21/M
;
_chemical_formula_sum "Si O2"
_cell_formula_units_Z 32
_cell_length_a 15.408585
_cell_length_b 11.712462
_cell_length_c 18.557094
_cell_angle_alpha 90.000000
_cell_angle_beta 153.097129
_cell_angle_gamma 90.000000
_cell_volume 1515.373640
_symmetry_space_group_name_H-M "P 21/M"
_symmetry_group_IT_number 11
_symmetry_cell_setting 'monoclinic'
loop_
_space_group_symop_operation_xyz
x,y,z
-x,1/2+y,-z
-x,-y,-z
x,1/2-y,z
loop_
_atom_site_type_symbol
_atom_site_label
_atom_site_fract_x
_atom_site_fract_y
_atom_site_fract_z
Si Si1 0.689685 0.379074 0.073081
Si Si2 0.728288 0.878352 0.313445
Si Si3 0.159809 0.384813 0.753940
Si Si4 0.222172 0.454035 0.286770
Si Si5 0.200916 0.623086 0.406384
Si Si6 0.554564 0.984908 0.318068
Si Si7 0.184707 0.622566 0.990107
Si Si8 0.448614 0.629097 0.376309
O O1 0.713430 0.250000 0.124298
O O2 0.722880 0.498648 0.139261
O O3 0.829265 0.382713 0.106893
O O4 0.476146 0.380806 0.880649
O O5 0.756161 0.750000 0.362278
O O6 0.877675 0.897863 0.359506
O O7 0.699040 0.959945 0.359537
O O8 0.234794 0.250000 0.817080
O O9 0.979839 0.388599 0.674128
O O10 0.191323 0.539980 0.331385
O O11 0.299362 0.527402 0.277461
O O12 0.398966 0.378380 0.445813
O O13 0.021446 0.392999 0.127325
O O14 0.209384 0.750000 0.384163
O O15 0.382856 0.595644 0.591835
O O16 0.563130 0.889581 0.387169
O O17 0.340136 0.970930 0.129085
O O18 0.261879 0.750000 0.062962
O O19 0.348847 0.750000 0.302287
#
# Coordination Sequence:
#
# PCOD9159537 Si02
#       8
#     4   4   4   4   4   4   4   4
#     4   9  17  32  53  82 115 146 187 236 280 330
#     4   9  18  33  54  79 112 149 185 232 284 333
#     4  10  19  33  55  82 112 151 191 230 284 340
#     4  10  20  35  58  83 110 141 185 229 280 337
#     4  10  21  38  55  77 114 150 187 234 283 339
#     4  10  21  37  55  77 111 148 188 229 281 331
#     4  10  19  35  58  84 114 145 184 235 283 332
#     4  10  20  35  56  82 109 143 184 228 276 333
#
# _framework density 21.116903000000001
#
# number of rings (size 3 to 8) (size 9 to 14) (size 15 to 20)
#    0.000    2.250    1.250    3.000    0.000    1.000 
#    0.000    6.250    0.000    0.000    0.000    0.000 
#    0.000    0.000    0.000    0.000    0.000    0.000 
#
# Total GULP energy -178182.622185 kJ/mol
# GULP energy per Si atom -5568.206943 kJ/mol
# Density = 2.106884 g / cm^3
# Si number density = 21.116903 Si / 1000 Ang^3
#
#
#
# Elastic Constant Matrix: (Units=GPa)
#
#
# Indices 1 2 3 4 5 6 
#
# 1 87.8153 23.7455 1.2330 0.0000 1.7116 0.0000
# 2 23.7455 97.6169 14.1795 0.0000 -7.0524 0.0000
# 3 1.2330 14.1795 19.9704 0.0000 3.3626 0.0000
# 4 0.0000 0.0000 0.0000 16.1335 0.0000 3.8458
# 5 1.7116 -7.0524 3.3626 0.0000 27.1965 0.0000
# 6 0.0000 0.0000 0.0000 3.8458 0.0000 20.3836
#
#
#
# Elastic Compliance Matrix: (Units=1/GPa)
#
#
# Indices 1 2 3 4 5 6 
#
# 1 0.012323 -0.003425 0.001993 0.000000 -0.001910 0.000000
# 2 -0.003425 0.012828 -0.009695 0.000000 0.004741 0.000000
# 3 0.001993 -0.009695 0.058497 0.000000 -0.009872 0.000000
# 4 0.000000 0.000000 0.000000 0.064902 0.000000 -0.012245
# 5 -0.001910 0.004741 -0.009872 0.000000 0.039340 0.000000
# 6 0.000000 0.000000 0.000000 -0.012245 0.000000 0.051369
#
#
# Mechanical properties :
#
#
# Convention : Reuss Voigt Hill
#
# Bulk Modulus (GPa) = 16.28843 31.52429 23.90636
# Shear Modulus (GPa) = 17.73187 23.82570 20.77879
#
# Velocity S-wave (km/s) = 2.90090 3.36263 3.14026
# Velocity P-wave (km/s) = 4.35322 5.48062 4.94913
#
# Compressibility (1/GPa) = 0.06139328
#
# Stress axis : x y z
#
# Youngs Moduli (GPa) = 81.14966 77.95426 17.09483
#
# Poissons Ratio (x) = 0.26699 -0.03406
# Poissons Ratio (y) = 0.27794 0.16574
# Poissons Ratio (z) = -0.16170 0.75577
#
# Static dielectric constant tensor:
#      x y z
#    x 1.802730 0.000000 0.016220 
#    y 0.000000 1.797150 0.000000 
#    z 0.016220 0.000000 1.776620 
# 
# From -- ./inp_files/47200.got.cif
#   From: 2010.05.17/outbox.cif.g08.bks.cpg/sg11_24_cif.got.tgz:47200.got - 2010.06.03 12:22:45.
