data_PCOD9159048
_publ_section_title
;
Structure prediction by ZEFSAII (Michael W. Deem and Ramdas Pophale) SiO2 
 PCOD9159048
Probable space group: P 21/M
;
_chemical_formula_sum "Si O2"
_cell_formula_units_Z 28
_cell_length_a 10.041014
_cell_length_b 8.205388
_cell_length_c 33.161965
_cell_angle_alpha 90.000000
_cell_angle_beta 34.588710
_cell_angle_gamma 90.000000
_cell_volume 1551.035438
_symmetry_space_group_name_H-M "P 21/M"
_symmetry_group_IT_number 11
_symmetry_cell_setting 'monoclinic'
loop_
_space_group_symop_operation_xyz
x,y,z
-x,1/2+y,-z
-x,-y,-z
x,1/2-y,z
loop_
_atom_site_type_symbol
_atom_site_label
_atom_site_fract_x
_atom_site_fract_y
_atom_site_fract_z
Si Si1 0.375738 0.554501 0.300567
Si Si2 0.252715 0.054770 0.420319
Si Si3 0.121302 0.445661 0.599914
Si Si4 0.212163 0.447837 0.857355
Si Si5 0.728644 0.553786 0.068560
Si Si6 0.489136 0.053704 0.440668
Si Si7 0.670317 0.555475 0.994070
O O1 0.381773 0.750000 0.294740
O O2 0.325842 0.515379 0.359336
O O3 0.616727 0.494343 0.220965
O O4 0.142698 0.492026 0.335960
O O5 0.250261 0.250000 0.418241
O O6 0.435215 0.001655 0.409095
O O7 0.000000 0.000000 0.500000
O O8 0.113384 0.250000 0.598841
O O9 0.267675 0.492933 0.602388
O O10 0.279275 0.504903 0.522647
O O11 0.198382 0.250000 0.860757
O O12 0.332878 0.497024 0.870227
O O13 0.944784 0.508692 0.919532
O O14 0.713156 0.750000 0.071595
O O15 0.616064 0.495517 0.054013
O O16 0.000000 0.500000 0.000000
O O17 0.486252 0.250000 0.442931
O O18 0.654481 0.750000 0.998760
O O19 0.500000 0.500000 0.000000
#
# Coordination Sequence:
#
# PCOD9159048 Si02
#       7
#     4   4   4   4   4   4   4
#     4  10  20  35  53  76 104 133 170 217 267 318
#     4  11  21  34  52  74 102 136 176 220 263 314
#     4   9  17  31  49  70  96 126 163 207 256 307
#     4   9  18  34  55  76 103 136 172 216 263 308
#     4   8  15  29  50  75  99 130 168 206 245 295
#     4   9  18  32  48  69  96 124 163 213 256 301
#     4  10  19  32  53  80 111 141 175 212 252 305
#
# _framework density 18.052457
#
# number of rings (size 3 to 8) (size 9 to 14) (size 15 to 20)
#    0.000    2.571    1.429    0.857    0.000    2.857 
#    0.000    1.429    0.000    3.429    0.000    0.000 
#    0.000    0.000    0.000    0.000    0.000    0.000 
#
# Total GULP energy -155872.719950 kJ/mol
# GULP energy per Si atom -5566.882855 kJ/mol
# Density = 1.801137 g / cm^3
# Si number density = 18.052457 Si / 1000 Ang^3
#
#
#
# Elastic Constant Matrix: (Units=GPa)
#
#
# Indices 1 2 3 4 5 6 
#
# 1 155.3262 10.6696 62.0100 0.0000 3.2310 0.0000
# 2 10.6696 7.0128 7.5384 0.0000 -2.5425 0.0000
# 3 62.0100 7.5384 97.9698 0.0000 8.0653 0.0000
# 4 0.0000 0.0000 0.0000 17.9131 0.0000 0.1524
# 5 3.2310 -2.5425 8.0653 0.0000 20.6492 0.0000
# 6 0.0000 0.0000 0.0000 0.1524 0.0000 26.7464
#
#
#
# Elastic Compliance Matrix: (Units=1/GPa)
#
#
# Indices 1 2 3 4 5 6 
#
# 1 0.009041 -0.008537 -0.005024 0.000000 -0.000503 0.000000
# 2 -0.008537 0.176636 -0.010424 0.000000 0.027156 0.000000
# 3 -0.005024 -0.010424 0.014703 0.000000 -0.006240 0.000000
# 4 0.000000 0.000000 0.000000 0.055828 0.000000 -0.000318
# 5 -0.000503 0.027156 -0.006240 0.000000 0.054288 0.000000
# 6 0.000000 0.000000 0.000000 -0.000318 0.000000 0.037390
#
#
# Mechanical properties :
#
#
# Convention : Reuss Voigt Hill
#
# Bulk Modulus (GPa) = 6.56123 46.74943 26.65533
# Shear Modulus (GPa) = 11.19427 25.06779 18.13103
#
# Velocity S-wave (km/s) = 2.49288 3.73045 3.17259
# Velocity P-wave (km/s) = 3.45374 6.67140 5.31206
#
# Compressibility (1/GPa) = 0.15241036
#
# Stress axis : x y z
#
# Youngs Moduli (GPa) = 110.61181 5.66137 68.01374
#
# Poissons Ratio (x) = 0.04833 0.34170
# Poissons Ratio (y) = 0.94428 0.70895
# Poissons Ratio (z) = 0.55571 0.05901
#
# Static dielectric constant tensor:
#      x y z
#    x 1.655410 0.000000 0.052680 
#    y 0.000000 1.639120 0.000000 
#    z 0.052680 0.000000 1.681540 
# 
# From -- ./inp_files/28975.got.cif
#   From: 2010.05.17/outbox.cif.g08.bks.cpg/sg11_15_cif.got.tgz:28975.got - 2010.06.03 12:22:45.
