data_PCOD9159984
_publ_section_title
;
Structure prediction by ZEFSAII (Michael W. Deem and Ramdas Pophale) SiO2 
 PCOD9159984
Probable space group: P 21/M
;
_chemical_formula_sum "Si O2"
_cell_formula_units_Z 28
_cell_length_a 15.927278
_cell_length_b 7.760882
_cell_length_c 18.871833
_cell_angle_alpha 90.000000
_cell_angle_beta 35.852374
_cell_angle_gamma 90.000000
_cell_volume 1366.284296
_symmetry_space_group_name_H-M "P 21/M"
_symmetry_group_IT_number 11
_symmetry_cell_setting 'monoclinic'
loop_
_space_group_symop_operation_xyz
x,y,z
-x,1/2+y,-z
-x,-y,-z
x,1/2-y,z
loop_
_atom_site_type_symbol
_atom_site_label
_atom_site_fract_x
_atom_site_fract_y
_atom_site_fract_z
Si Si1 0.976163 0.957803 0.434018
Si Si2 0.710117 0.539389 0.522193
Si Si3 0.724311 0.456448 0.824778
Si Si4 0.592207 0.040968 0.205353
Si Si5 0.155373 0.449332 0.863976
Si Si6 0.460324 0.957806 0.916974
Si Si7 0.669654 0.541884 0.391048
O O1 0.973393 0.750000 0.431472
O O2 0.116825 0.022641 0.296556
O O3 0.832622 0.019926 0.492985
O O4 0.000000 0.000000 0.500000
O O5 0.712547 0.750000 0.521223
O O6 0.553271 0.486337 0.656042
O O7 0.725837 0.484157 0.429805
O O8 0.732523 0.250000 0.826298
O O9 0.621530 0.495076 0.828721
O O10 0.643009 0.524219 0.949933
O O11 0.596327 0.250000 0.203079
O O12 0.583616 0.981611 0.130201
O O13 0.729735 0.976247 0.152583
O O14 0.140216 0.250000 0.857283
O O15 0.231884 0.527273 0.741004
O O16 0.000000 0.500000 0.000000
O O17 0.452973 0.750000 0.921829
O O18 0.500000 0.500000 0.500000
O O19 0.676099 0.750000 0.385934
#
# Coordination Sequence:
#
# PCOD9159984 Si02
#       7
#     4   4   4   4   4   4   4
#     4  10  20  34  52  76 108 142 179 224 273 323
#     4   9  18  33  56  82 107 142 182 223 276 336
#     4   9  18  32  50  75 107 142 179 227 276 321
#     4  10  19  34  57  81 107 141 182 228 277 336
#     4  11  24  39  58  85 115 149 185 231 287 340
#     4   9  18  32  53  78 104 142 185 221 270 335
#     4  10  20  37  61  85 111 146 188 233 283 338
#
# _framework density 20.493538999999998
#
# number of rings (size 3 to 8) (size 9 to 14) (size 15 to 20)
#    0.000    2.286    1.429    1.286    0.000    4.000 
#    0.000    5.714    0.000    1.714    0.000    0.000 
#    0.000    0.000    0.000    0.000    0.000    0.000 
#
# Total GULP energy -156253.570269 kJ/mol
# GULP energy per Si atom -5580.484652 kJ/mol
# Density = 2.044689 g / cm^3
# Si number density = 20.493539 Si / 1000 Ang^3
#
#
#
# Elastic Constant Matrix: (Units=GPa)
#
#
# Indices 1 2 3 4 5 6 
#
# 1 156.0368 -1.2917 101.7451 0.0000 -6.4280 0.0000
# 2 -1.2917 27.5438 11.6963 0.0000 -0.3903 0.0000
# 3 101.7451 11.6963 157.7904 0.0000 -17.3490 0.0000
# 4 0.0000 0.0000 0.0000 18.1644 0.0000 -5.2033
# 5 -6.4280 -0.3903 -17.3490 0.0000 39.4433 0.0000
# 6 0.0000 0.0000 0.0000 -5.2033 0.0000 18.7429
#
#
#
# Elastic Compliance Matrix: (Units=1/GPa)
#
#
# Indices 1 2 3 4 5 6 
#
# 1 0.011518 0.003866 -0.007884 0.000000 -0.001552 0.000000
# 2 0.003866 0.038814 -0.005526 0.000000 -0.001416 0.000000
# 3 -0.007884 -0.005526 0.012277 0.000000 0.004061 0.000000
# 4 0.000000 0.000000 0.000000 0.059809 0.000000 0.016604
# 5 -0.001552 -0.001416 0.004061 0.000000 0.026872 0.000000
# 6 0.000000 0.000000 0.000000 0.016604 0.000000 0.057963
#
#
# Mechanical properties :
#
#
# Convention : Reuss Voigt Hill
#
# Bulk Modulus (GPa) = 22.97733 62.85227 42.91480
# Shear Modulus (GPa) = 20.76011 30.55153 25.65582
#
# Velocity S-wave (km/s) = 3.18623 3.86526 3.54206
# Velocity P-wave (km/s) = 4.97719 7.11732 6.14120
#
# Compressibility (1/GPa) = 0.04352116
#
# Stress axis : x y z
#
# Youngs Moduli (GPa) = 86.82378 25.76423 81.45164
#
# Poissons Ratio (x) = -0.09960 0.64216
# Poissons Ratio (y) = -0.33566 0.45007
# Poissons Ratio (z) = 0.68451 0.14236
#
# Static dielectric constant tensor:
#      x y z
#    x 1.696390 0.000000 0.023260 
#    y 0.000000 1.770750 0.000000 
#    z 0.023260 0.000000 1.756710 
# 
# From -- ./inp_files/53204.got.cif
#   From: 2010.05.17/outbox.cif.g08.bks.cpg/sg11_27_cif.got.tgz:53204.got - 2010.06.03 12:22:45.
