data_PCOD9159578
_publ_section_title
;
Structure prediction by ZEFSAII (Michael W. Deem and Ramdas Pophale) SiO2 
 PCOD9159578
Probable space group: P 21/M
;
_chemical_formula_sum "Si O2"
_cell_formula_units_Z 28
_cell_length_a 14.981026
_cell_length_b 7.461080
_cell_length_c 12.471893
_cell_angle_alpha 90.000000
_cell_angle_beta 129.217138
_cell_angle_gamma 90.000000
_cell_volume 1080.041008
_symmetry_space_group_name_H-M "P 21/M"
_symmetry_group_IT_number 11
_symmetry_cell_setting 'monoclinic'
loop_
_space_group_symop_operation_xyz
x,y,z
-x,1/2+y,-z
-x,-y,-z
x,1/2-y,z
loop_
_atom_site_type_symbol
_atom_site_label
_atom_site_fract_x
_atom_site_fract_y
_atom_site_fract_z
Si Si1 0.582426 0.035087 0.662122
Si Si2 0.342443 0.034107 0.982535
Si Si3 0.191324 0.954014 0.078325
Si Si4 0.138917 0.537940 0.686018
Si Si5 0.995214 0.463334 0.209263
Si Si6 0.191259 0.533898 0.498553
Si Si7 0.563285 0.453159 0.244874
O O1 0.587280 0.250000 0.681529
O O2 0.715768 0.969961 0.766894
O O3 0.500000 0.000000 0.500000
O O4 0.518460 0.947488 0.713202
O O5 0.344437 0.250000 0.994462
O O6 0.472769 0.962976 0.092598
O O7 0.265218 0.957575 0.022328
O O8 0.272440 0.989529 0.822085
O O9 0.168835 0.750000 0.095823
O O10 0.070189 0.036074 0.945475
O O11 0.118113 0.750000 0.667711
O O12 0.067656 0.460101 0.731562
O O13 0.122687 0.469200 0.553204
O O14 0.974639 0.250000 0.190180
O O15 0.128175 0.486334 0.340506
O O16 0.194967 0.750000 0.502114
O O17 0.319389 0.465344 0.619903
O O18 0.589518 0.250000 0.230044
#
# Coordination Sequence:
#
# PCOD9159578 Si02
#       7
#     4   4   4   4   4   4   4
#     4  10  19  33  56  81 101 121 147 184 233 288
#     4   9  16  27  45  67  91 121 159 201 237 275
#     4   8  16  31  49  70  96 124 151 186 236 282
#     4   9  18  31  45  64  93 128 165 205 246 280
#     4   9  17  30  47  67  93 125 164 203 233 271
#     4  10  20  32  46  65  94 132 166 199 240 280
#     4   9  19  34  48  68  99 128 156 193 239 287
#
# _framework density 25.924941
#
# number of rings (size 3 to 8) (size 9 to 14) (size 15 to 20)
#    0.000    2.857    0.000    2.143    0.000    5.143 
#    0.000    0.000    0.000    0.857    0.000    0.000 
#    0.000    0.000    0.000    0.000    0.000    0.000 
#
# Total GULP energy -156212.130770 kJ/mol
# GULP energy per Si atom -5579.004670 kJ/mol
# Density = 2.586593 g / cm^3
# Si number density = 25.924941 Si / 1000 Ang^3
#
#
#
# Elastic Constant Matrix: (Units=GPa)
#
#
# Indices 1 2 3 4 5 6 
#
# 1 54.5295 -1.6405 30.5593 0.0000 5.4625 0.0000
# 2 -1.6405 112.4284 -3.8403 0.0000 2.4156 0.0000
# 3 30.5593 -3.8403 242.2964 0.0000 21.1255 0.0000
# 4 0.0000 0.0000 0.0000 26.8625 0.0000 3.7647
# 5 5.4625 2.4156 21.1255 0.0000 32.0372 0.0000
# 6 0.0000 0.0000 0.0000 3.7647 0.0000 9.4369
#
#
#
# Elastic Compliance Matrix: (Units=1/GPa)
#
#
# Indices 1 2 3 4 5 6 
#
# 1 0.019842 0.000250 -0.002336 0.000000 -0.001861 0.000000
# 2 0.000250 0.008922 0.000183 0.000000 -0.000836 0.000000
# 3 -0.002336 0.000183 0.004659 0.000000 -0.002688 0.000000
# 4 0.000000 0.000000 0.000000 0.039431 0.000000 -0.015731
# 5 -0.001861 -0.000836 -0.002688 0.000000 0.033366 0.000000
# 6 0.000000 0.000000 0.000000 -0.015731 0.000000 0.112243
#
#
# Mechanical properties :
#
#
# Convention : Reuss Voigt Hill
#
# Bulk Modulus (GPa) = 33.76564 51.04569 42.40566
# Shear Modulus (GPa) = 21.53842 39.27903 30.40872
#
# Velocity S-wave (km/s) = 2.88549 3.89666 3.42855
# Velocity P-wave (km/s) = 4.91467 6.32280 5.66268
#
# Compressibility (1/GPa) = 0.02961591
#
# Stress axis : x y z
#
# Youngs Moduli (GPa) = 50.39818 112.07753 214.63522
#
# Poissons Ratio (x) = -0.02799 0.50145
# Poissons Ratio (y) = -0.01259 -0.03923
# Poissons Ratio (z) = 0.11774 -0.02049
#
# Static dielectric constant tensor:
#      x y z
#    x 2.079700 0.000000 0.072360 
#    y 0.000000 2.035820 0.000000 
#    z 0.072360 0.000000 2.174770 
# 
# From -- ./inp_files/37112.got.cif
#   From: 2010.05.17/outbox.cif.g08.bks.cpg/sg11_19_cif.got.tgz:37112.got - 2010.06.03 12:22:45.
