data_PCOD9159216
_publ_section_title
;
Structure prediction by ZEFSAII (Michael W. Deem and Ramdas Pophale) SiO2 
 PCOD9159216
Probable space group: P 21/M
;
_chemical_formula_sum "Si O2"
_cell_formula_units_Z 32
_cell_length_a 21.848823
_cell_length_b 8.639154
_cell_length_c 15.973960
_cell_angle_alpha 90.000000
_cell_angle_beta 138.307751
_cell_angle_gamma 90.000000
_cell_volume 2005.478278
_symmetry_space_group_name_H-M "P 21/M"
_symmetry_group_IT_number 11
_symmetry_cell_setting 'monoclinic'
loop_
_space_group_symop_operation_xyz
x,y,z
-x,1/2+y,-z
-x,-y,-z
x,1/2-y,z
loop_
_atom_site_type_symbol
_atom_site_label
_atom_site_fract_x
_atom_site_fract_y
_atom_site_fract_z
Si Si1 0.207351 0.063800 0.559365
Si Si2 0.907552 0.937687 0.719459
Si Si3 0.102654 0.935081 0.614296
Si Si4 0.597803 0.064836 0.999245
Si Si5 0.601336 0.435088 0.200829
Si Si6 0.895888 0.936073 0.891265
Si Si7 0.121774 0.935876 0.951805
Si Si8 0.782746 0.934477 0.113324
O O1 0.202628 0.250000 0.560056
O O2 0.149944 0.010773 0.419434
O O3 0.161721 0.992180 0.595531
O O4 0.312812 0.010249 0.664461
O O5 0.909046 0.750000 0.718965
O O6 0.864078 0.980861 0.765123
O O7 0.014924 0.986267 0.826995
O O8 0.101081 0.750000 0.615042
O O9 0.149786 0.996908 0.746789
O O10 0.000000 0.000000 0.500000
O O11 0.599761 0.250000 0.992946
O O12 0.497586 0.000351 0.873499
O O13 0.611956 0.027410 0.112430
O O14 0.680575 0.991075 0.032052
O O15 0.603139 0.250000 0.211024
O O16 0.896406 0.750000 0.897813
O O17 0.850047 0.006298 0.926995
O O18 0.000000 0.000000 0.000000
O O19 0.123839 0.750000 0.951834
O O20 0.183920 0.004192 0.942163
O O21 0.787043 0.750000 0.120376
#
# Coordination Sequence:
#
# PCOD9159216 Si02
#       8
#     4   4   4   4   4   4   4   4
#     4  11  20  33  52  74 100 135 173 208 252 302
#     4   8  17  31  49  72 100 134 169 208 249 294
#     4  12  24  37  49  68 100 139 176 211 247 293
#     4  10  20  35  54  73  98 130 166 211 258 301
#     4  10  20  34  52  74 100 129 166 212 258 300
#     4   9  16  30  49  71  99 131 170 213 257 299
#     4  10  19  33  51  73 103 136 172 213 254 299
#     4  12  23  35  52  75 101 134 171 209 254 305
#
# _framework density 15.956295000000001
#
# number of rings (size 3 to 8) (size 9 to 14) (size 15 to 20)
#    0.000    1.750    1.250    5.625    0.000    2.000 
#    0.000    6.875    0.000    0.000    0.000    0.875 
#    0.000    0.000    0.000    0.000    0.000    0.000 
#
# Total GULP energy -178609.424003 kJ/mol
# GULP energy per Si atom -5581.544500 kJ/mol
# Density = 1.591998 g / cm^3
# Si number density = 15.956295 Si / 1000 Ang^3
#
#
#
# Elastic Constant Matrix: (Units=GPa)
#
#
# Indices 1 2 3 4 5 6 
#
# 1 129.8281 47.9779 48.2216 0.0000 -3.2363 0.0000
# 2 47.9779 82.3417 21.4929 0.0000 0.9222 0.0000
# 3 48.2216 21.4929 27.5097 0.0000 6.9767 0.0000
# 4 0.0000 0.0000 0.0000 22.0876 0.0000 2.9279
# 5 -3.2363 0.9222 6.9767 0.0000 27.4735 0.0000
# 6 0.0000 0.0000 0.0000 2.9279 0.0000 26.7406
#
#
#
# Elastic Compliance Matrix: (Units=1/GPa)
#
#
# Indices 1 2 3 4 5 6 
#
# 1 0.028483 -0.003334 -0.051521 0.000000 0.016550 0.000000
# 2 -0.003334 0.015834 -0.006726 0.000000 0.000784 0.000000
# 3 -0.051521 -0.006726 0.142580 0.000000 -0.042050 0.000000
# 4 0.000000 0.000000 0.000000 0.045941 0.000000 -0.005030
# 5 0.016550 0.000784 -0.042050 0.000000 0.049000 0.000000
# 6 0.000000 0.000000 0.000000 -0.005030 0.000000 0.037947
#
#
# Mechanical properties :
#
#
# Convention : Reuss Voigt Hill
#
# Bulk Modulus (GPa) = 15.68963 52.78491 34.23727
# Shear Modulus (GPa) = 10.77143 23.39281 17.08212
#
# Velocity S-wave (km/s) = 2.60101 3.83306 3.27549
# Velocity P-wave (km/s) = 4.34448 7.26241 5.98403
#
# Compressibility (1/GPa) = 0.06373636
#
# Stress axis : x y z
#
# Youngs Moduli (GPa) = 35.10861 63.15624 7.01361
#
# Poissons Ratio (x) = 0.21053 0.36134
# Poissons Ratio (y) = 0.11704 0.04717
# Poissons Ratio (z) = 1.80881 0.42480
#
# Static dielectric constant tensor:
#      x y z
#    x 1.522020 0.000000 -0.014380 
#    y 0.000000 1.532480 0.000000 
#    z -0.014380 0.000000 1.526320 
# 
# From -- ./inp_files/54239.got.cif
#   From: 2010.05.17/outbox.cif.g08.bks.cpg/sg11_28_cif.got.tgz:54239.got - 2010.06.03 12:22:45.
