data_PCOD9159882
_publ_section_title
;
Structure prediction by ZEFSAII (Michael W. Deem and Ramdas Pophale) SiO2 
 PCOD9159882
Probable space group: P 21/M
;
_chemical_formula_sum "Si O2"
_cell_formula_units_Z 24
_cell_length_a 10.193087
_cell_length_b 22.747107
_cell_length_c 8.925681
_cell_angle_alpha 90.000000
_cell_angle_beta 138.157389
_cell_angle_gamma 90.000000
_cell_volume 1380.560818
_symmetry_space_group_name_H-M "P 21/M"
_symmetry_group_IT_number 11
_symmetry_cell_setting 'monoclinic'
loop_
_space_group_symop_operation_xyz
x,y,z
-x,1/2+y,-z
-x,-y,-z
x,1/2-y,z
loop_
_atom_site_type_symbol
_atom_site_label
_atom_site_fract_x
_atom_site_fract_y
_atom_site_fract_z
Si Si1 0.300525 0.123889 0.101563
Si Si2 0.898803 0.104453 0.626473
Si Si3 0.546708 0.431067 0.545886
Si Si4 0.624922 0.181916 0.192436
Si Si5 0.765721 0.971985 0.189952
Si Si6 0.559842 0.083131 0.903848
O O1 0.072086 0.133946 0.873148
O O2 0.340891 0.064662 0.036706
O O3 0.367138 0.106839 0.323737
O O4 0.439323 0.172678 0.146472
O O5 0.729882 0.081627 0.592314
O O6 0.804486 0.149571 0.429598
O O7 0.012107 0.050942 0.638240
O O8 0.500000 0.500000 0.500000
O O9 0.589115 0.413835 0.752319
O O10 0.661968 0.250000 0.196619
O O11 0.575134 0.145074 0.001003
O O12 0.650519 0.947543 0.236027
O O13 0.718013 0.038940 0.114029
#
# Coordination Sequence:
#
# PCOD9159882 Si02
#       6
#     4   4   4   4   4   4
#     4   8  18  37  55  80 109 148 186 221 278 337
#     4   9  20  38  55  84 109 151 190 223 278 347
#     4  11  19  33  56  86 123 146 174 226 292 345
#     4  10  21  38  59  78 107 150 196 240 276 329
#     4   8  17  35  53  81 115 142 186 224 276 340
#     4  10  19  34  55  87 115 147 180 234 290 331
#
# _framework density 17.384239999999998
#
# number of rings (size 3 to 8) (size 9 to 14) (size 15 to 20)
#    1.000    1.667    1.667    0.000    2.333    4.000 
#    3.000    3.333    0.000    0.000    0.000    0.000 
#    0.000    0.000    0.000    0.000    0.000    0.000 
#
# Total GULP energy -133623.731231 kJ/mol
# GULP energy per Si atom -5567.655468 kJ/mol
# Density = 1.734467 g / cm^3
# Si number density = 17.384240 Si / 1000 Ang^3
#
#
#
# Elastic Constant Matrix: (Units=GPa)
#
#
# Indices 1 2 3 4 5 6 
#
# 1 58.7995 30.8976 37.3625 0.0000 -5.8022 0.0000
# 2 30.8976 102.5999 32.6222 0.0000 -12.5389 0.0000
# 3 37.3625 32.6222 84.9640 0.0000 3.0501 0.0000
# 4 0.0000 0.0000 0.0000 13.7302 0.0000 0.0593
# 5 -5.8022 -12.5389 3.0501 0.0000 29.7463 0.0000
# 6 0.0000 0.0000 0.0000 0.0593 0.0000 14.4602
#
#
#
# Elastic Compliance Matrix: (Units=1/GPa)
#
#
# Indices 1 2 3 4 5 6 
#
# 1 0.025939 -0.004104 -0.009987 0.000000 0.004354 0.000000
# 2 -0.004104 0.012592 -0.003204 0.000000 0.004836 0.000000
# 3 -0.009987 -0.003204 0.017575 0.000000 -0.005101 0.000000
# 4 0.000000 0.000000 0.000000 0.072833 0.000000 -0.000299
# 5 0.004354 0.004836 -0.005101 0.000000 0.037028 0.000000
# 6 0.000000 0.000000 0.000000 -0.000299 0.000000 0.069157
#
#
# Mechanical properties :
#
#
# Convention : Reuss Voigt Hill
#
# Bulk Modulus (GPa) = 46.47638 49.79201 48.13419
# Shear Modulus (GPa) = 18.05798 21.28608 19.67203
#
# Velocity S-wave (km/s) = 3.22647 3.50301 3.36758
# Velocity P-wave (km/s) = 6.37754 6.71309 6.54746
#
# Compressibility (1/GPa) = 0.02151631
#
# Stress axis : x y z
#
# Youngs Moduli (GPa) = 38.55173 79.41469 56.89999
#
# Poissons Ratio (x) = 0.32591 0.56827
# Poissons Ratio (y) = 0.15821 0.18229
# Poissons Ratio (z) = 0.38502 0.25442
#
# Static dielectric constant tensor:
#      x y z
#    x 1.596390 0.000000 0.016370 
#    y 0.000000 1.576120 0.000000 
#    z 0.016370 0.000000 1.616650 
# 
# From -- ./inp_files/13838.got.cif
#   From: 2010.05.17/outbox.cif.g08.bks.cpg/sg11_7_cif.got.tgz:13838.got - 2010.06.03 12:22:45.
