data_PCOD9159102
_publ_section_title
;
Structure prediction by ZEFSAII (Michael W. Deem and Ramdas Pophale) SiO2 
 PCOD9159102
Probable space group: P 21/M
;
_chemical_formula_sum "Si O2"
_cell_formula_units_Z 32
_cell_length_a 14.626741
_cell_length_b 8.697474
_cell_length_c 21.125922
_cell_angle_alpha 90.000000
_cell_angle_beta 136.656621
_cell_angle_gamma 90.000000
_cell_volume 1844.650706
_symmetry_space_group_name_H-M "P 21/M"
_symmetry_group_IT_number 11
_symmetry_cell_setting 'monoclinic'
loop_
_space_group_symop_operation_xyz
x,y,z
-x,1/2+y,-z
-x,-y,-z
x,1/2-y,z
loop_
_atom_site_type_symbol
_atom_site_label
_atom_site_fract_x
_atom_site_fract_y
_atom_site_fract_z
Si Si1 0.091512 0.066814 0.727310
Si Si2 0.638868 0.065666 0.948114
Si Si3 0.353672 0.066465 0.664046
Si Si4 0.916713 0.434488 0.517146
Si Si5 0.641012 0.433291 0.190856
Si Si6 0.924351 0.064919 0.147612
Si Si7 0.635029 0.565392 0.804484
Si Si8 0.920201 0.935183 0.899870
O O1 0.110108 0.250000 0.735269
O O2 0.993452 0.024881 0.620271
O O3 0.233445 0.986753 0.786488
O O4 0.037498 0.013349 0.767665
O O5 0.628058 0.250000 0.937500
O O6 0.500362 0.998510 0.904031
O O7 0.656691 0.996261 0.886768
O O8 0.770173 0.028183 0.054015
O O9 0.350575 0.250000 0.665668
O O10 0.230645 0.003419 0.561953
O O11 0.339743 0.000404 0.728501
O O12 0.496789 0.007900 0.712235
O O13 0.910837 0.250000 0.509085
O O14 0.000000 0.500000 0.500000
O O15 0.634859 0.250000 0.190990
O O16 0.934715 0.250000 0.158737
O O17 0.012590 0.015173 0.131942
O O18 0.621979 0.750000 0.799981
O O19 0.765142 0.523592 0.829644
O O20 0.929873 0.750000 0.907337
O O21 0.000000 0.000000 0.000000
#
# Coordination Sequence:
#
# PCOD9159102 Si02
#       8
#     4   4   4   4   4   4   4   4
#     4  11  24  39  56  80 110 145 186 229 276 331
#     4  10  19  33  53  77 111 148 186 227 268 323
#     4  11  21  34  55  83 114 144 180 227 276 329
#     4  11  22  37  59  84 110 143 184 230 280 329
#     4  11  21  34  54  78 110 148 186 226 271 325
#     4  10  22  38  55  79 112 150 187 227 278 329
#     4  10  19  32  54  83 113 144 182 228 277 325
#     4  10  20  35  57  84 112 146 187 231 276 326
#
# _framework density 17.347456999999999
#
# number of rings (size 3 to 8) (size 9 to 14) (size 15 to 20)
#    0.000    1.500    2.500    5.250    0.000    4.000 
#    0.000    0.000    0.000    0.750    0.000    0.000 
#    0.000    0.000    0.000    0.000    0.000    0.000 
#
# Total GULP energy -178779.765354 kJ/mol
# GULP energy per Si atom -5586.867667 kJ/mol
# Density = 1.730797 g / cm^3
# Si number density = 17.347457 Si / 1000 Ang^3
#
#
#
# Elastic Constant Matrix: (Units=GPa)
#
#
# Indices 1 2 3 4 5 6 
#
# 1 120.2952 38.7475 70.3689 0.0000 4.4901 0.0000
# 2 38.7475 70.8438 47.3067 0.0000 2.6379 0.0000
# 3 70.3689 47.3067 111.0892 0.0000 5.2658 0.0000
# 4 0.0000 0.0000 0.0000 25.7337 0.0000 -0.3608
# 5 4.4901 2.6379 5.2658 0.0000 25.5341 0.0000
# 6 0.0000 0.0000 0.0000 -0.3608 0.0000 25.1291
#
#
#
# Elastic Compliance Matrix: (Units=1/GPa)
#
#
# Indices 1 2 3 4 5 6 
#
# 1 0.013486 -0.002331 -0.007522 0.000000 -0.000579 0.000000
# 2 -0.002331 0.020130 -0.007086 0.000000 -0.000208 0.000000
# 3 -0.007522 -0.007086 0.016851 0.000000 -0.001420 0.000000
# 4 0.000000 0.000000 0.000000 0.038867 0.000000 0.000558
# 5 -0.000579 -0.000208 -0.001420 0.000000 0.039580 0.000000
# 6 0.000000 0.000000 0.000000 0.000558 0.000000 0.039803
#
#
# Mechanical properties :
#
#
# Convention : Reuss Voigt Hill
#
# Bulk Modulus (GPa) = 60.28170 68.34159 64.31165
# Shear Modulus (GPa) = 24.02412 24.99972 24.51192
#
# Velocity S-wave (km/s) = 3.72543 3.80032 3.76306
# Velocity P-wave (km/s) = 7.30275 7.66406 7.48559
#
# Compressibility (1/GPa) = 0.01658878
#
# Stress axis : x y z
#
# Youngs Moduli (GPa) = 74.15274 49.67743 59.34237
#
# Poissons Ratio (x) = 0.11581 0.44639
# Poissons Ratio (y) = 0.17287 0.42047
# Poissons Ratio (z) = 0.55779 0.35199
#
# Static dielectric constant tensor:
#      x y z
#    x 1.594020 0.000000 0.014200 
#    y 0.000000 1.580910 0.000000 
#    z 0.014200 0.000000 1.582290 
# 
# From -- ./inp_files/65255.got.cif
#   From: 2010.05.17/outbox.cif.g08.bks.cpg/sg11_33_cif.got.tgz:65255.got - 2010.06.03 12:22:45.
