data_PCOD9159182
_publ_section_title
;
Structure prediction by ZEFSAII (Michael W. Deem and Ramdas Pophale) SiO2 
 PCOD9159182
Probable space group: P 21/M
;
_chemical_formula_sum "Si O2"
_cell_formula_units_Z 20
_cell_length_a 4.944015
_cell_length_b 16.045349
_cell_length_c 10.707565
_cell_angle_alpha 90.000000
_cell_angle_beta 100.347976
_cell_angle_gamma 90.000000
_cell_volume 835.598745
_symmetry_space_group_name_H-M "P 21/M"
_symmetry_group_IT_number 11
_symmetry_cell_setting 'monoclinic'
loop_
_space_group_symop_operation_xyz
x,y,z
-x,1/2+y,-z
-x,-y,-z
x,1/2-y,z
loop_
_atom_site_type_symbol
_atom_site_label
_atom_site_fract_x
_atom_site_fract_y
_atom_site_fract_z
Si Si1 0.955100 0.074547 0.675794
Si Si2 0.937286 0.875499 0.707835
Si Si3 0.243426 0.941718 0.080807
Si Si4 0.424070 0.156058 0.559003
Si Si5 0.493966 0.888115 0.859095
O O1 0.883293 0.103255 0.810329
O O2 0.704418 0.104766 0.567664
O O3 0.233870 0.111311 0.645482
O O4 0.948887 0.974936 0.684076
O O5 0.759917 0.841344 0.580417
O O6 0.777044 0.856748 0.824060
O O7 0.252488 0.852549 0.752956
O O8 0.466825 0.010690 0.144660
O O9 0.390100 0.882225 0.992622
O O10 0.000000 0.000000 0.000000
O O11 0.494177 0.250000 0.601844
#
# Coordination Sequence:
#
# PCOD9159182 Si02
#       5
#     4   4   4   4   4
#     4  11  22  38  65  92 118 154 206 254 296 360
#     4  11  21  38  62  92 121 151 206 251 294 352
#     4  10  19  34  60  95 127 142 187 253 313 343
#     4  12  26  42  59  85 126 168 199 246 309 361
#     4  10  19  32  59  93 123 149 185 250 305 348
#
# _framework density 23.934933000000001
#
# number of rings (size 3 to 8) (size 9 to 14) (size 15 to 20)
#    0.000    1.200    4.000    5.400    2.800    0.000 
#    0.000    0.000    0.000    7.200    0.000    0.000 
#    0.000    0.000    0.000    0.000    0.000    0.000 
#
# Total GULP energy -111801.924943 kJ/mol
# GULP energy per Si atom -5590.096247 kJ/mol
# Density = 2.388046 g / cm^3
# Si number density = 23.934933 Si / 1000 Ang^3
#
#
#
# Elastic Constant Matrix: (Units=GPa)
#
#
# Indices 1 2 3 4 5 6 
#
# 1 111.0046 13.6535 -5.4940 0.0000 8.9812 0.0000
# 2 13.6535 67.2224 -2.7815 0.0000 0.2993 0.0000
# 3 -5.4940 -2.7815 70.4265 0.0000 -5.4995 0.0000
# 4 0.0000 0.0000 0.0000 -25.1263 0.0000 -3.5823
# 5 8.9812 0.2993 -5.4995 0.0000 51.7822 0.0000
# 6 0.0000 0.0000 0.0000 -3.5823 0.0000 -7.1821
#
#
#
# Elastic Compliance Matrix: (Units=1/GPa)
#
#
# Indices 1 2 3 4 5 6 
#
# 1 0.009393 -0.001879 0.000537 0.000000 -0.001561 0.000000
# 2 -0.001879 0.015276 0.000479 0.000000 0.000288 0.000000
# 3 0.000537 0.000479 0.014372 0.000000 0.001431 0.000000
# 4 0.000000 0.000000 0.000000 -0.042846 0.000000 0.021370
# 5 -0.001561 0.000288 0.001431 0.000000 0.019733 0.000000
# 6 0.000000 0.000000 0.000000 0.021370 0.000000 -0.149894
#
#
# Mechanical properties :
#
#
# Convention : Reuss Voigt Hill
#
# Bulk Modulus (GPa) = 26.79881 28.82328 27.81105
# Shear Modulus (GPa) = -41.73505 20.11313 -10.81096
#
# Velocity S-wave (km/s) = -4.18028 2.90198 -2.12758
# Velocity P-wave (km/s) = 3.47546 4.82671 2.36837
#
# Compressibility (1/GPa) = 0.03731508
#
# Stress axis : x y z
#
# Youngs Moduli (GPa) = 106.46712 65.46172 69.58120
#
# Poissons Ratio (x) = 0.12297 -0.03734
# Poissons Ratio (y) = 0.20001 -0.03335
# Poissons Ratio (z) = -0.05713 -0.03138
#
# Static dielectric constant tensor:
#      x y z
#    x 1.901980 0.000000 0.005460 
#    y 0.000000 1.900940 0.000000 
#    z 0.005460 0.000000 1.991790 
# 
# From -- ./inp_files/29682.got.cif
#   From: 2010.05.17/outbox.cif.g08.bks.cpg/sg11_15_cif.got.tgz:29682.got - 2010.06.03 12:22:45.
