data_PCOD9159683
_publ_section_title
;
Structure prediction by ZEFSAII (Michael W. Deem and Ramdas Pophale) SiO2 
 PCOD9159683
Probable space group: P 21/M
;
_chemical_formula_sum "Si O2"
_cell_formula_units_Z 28
_cell_length_a 10.388331
_cell_length_b 8.835773
_cell_length_c 31.460193
_cell_angle_alpha 90.000000
_cell_angle_beta 32.703465
_cell_angle_gamma 90.000000
_cell_volume 1560.197630
_symmetry_space_group_name_H-M "P 21/M"
_symmetry_group_IT_number 11
_symmetry_cell_setting 'monoclinic'
loop_
_space_group_symop_operation_xyz
x,y,z
-x,1/2+y,-z
-x,-y,-z
x,1/2-y,z
loop_
_atom_site_type_symbol
_atom_site_label
_atom_site_fract_x
_atom_site_fract_y
_atom_site_fract_z
Si Si1 0.104483 0.931962 0.258301
Si Si2 0.961959 0.930136 0.079005
Si Si3 0.154455 0.931067 0.344057
Si Si4 0.637614 0.931470 0.086970
Si Si5 0.847690 0.069321 0.503483
Si Si6 0.342366 0.930202 0.665676
Si Si7 0.653864 0.069804 0.235322
O O1 0.079078 0.750000 0.260949
O O2 0.109576 0.966098 0.307138
O O3 0.362092 0.974671 0.167533
O O4 0.889065 0.013852 0.294912
O O5 0.963412 0.750000 0.084404
O O6 0.771359 0.966327 0.094377
O O7 0.871784 0.010824 0.146417
O O8 0.213744 0.987572 0.991177
O O9 0.144620 0.750000 0.352220
O O10 0.415224 0.988813 0.285014
O O11 0.964913 0.009240 0.427613
O O12 0.652901 0.750000 0.077064
O O13 0.861496 0.250000 0.501516
O O14 0.577867 0.013475 0.583454
O O15 0.000000 0.000000 0.500000
O O16 0.373770 0.750000 0.652125
O O17 0.316451 0.963285 0.723083
O O18 0.627207 0.250000 0.237634
#
# Coordination Sequence:
#
# PCOD9159683 Si02
#       7
#     4   4   4   4   4   4   4
#     4  10  22  41  62  88 122 160 198 243 303 359
#     4  10  19  33  57  89 119 152 197 247 297 351
#     4  11  22  39  64  91 120 155 199 249 296 355
#     4   9  18  35  56  85 121 154 193 244 298 354
#     4  12  24  40  63  91 121 157 199 247 300 351
#     4  11  25  42  61  88 121 159 202 247 298 358
#     4  11  22  37  59  88 120 156 200 248 296 353
#
# _framework density 17.946444
#
# number of rings (size 3 to 8) (size 9 to 14) (size 15 to 20)
#    0.000    1.429    2.857    3.000    0.000    4.571 
#    0.000    0.714    0.000    0.000    0.000    0.000 
#    0.000    0.000    0.000    0.000    0.000    0.000 
#
# Total GULP energy -156498.179135 kJ/mol
# GULP energy per Si atom -5589.220683 kJ/mol
# Density = 1.790560 g / cm^3
# Si number density = 17.946444 Si / 1000 Ang^3
#
#
#
# Elastic Constant Matrix: (Units=GPa)
#
#
# Indices 1 2 3 4 5 6 
#
# 1 113.3280 68.0359 73.7984 0.0000 -5.3868 0.0000
# 2 68.0359 85.6424 77.7828 0.0000 5.8522 0.0000
# 3 73.7984 77.7828 175.3300 0.0000 1.5981 0.0000
# 4 0.0000 0.0000 0.0000 37.0940 0.0000 -1.8437
# 5 -5.3868 5.8522 1.5981 0.0000 26.8871 0.0000
# 6 0.0000 0.0000 0.0000 -1.8437 0.0000 28.8534
#
#
#
# Elastic Compliance Matrix: (Units=1/GPa)
#
#
# Indices 1 2 3 4 5 6 
#
# 1 0.018383 -0.013363 -0.001870 0.000000 0.006703 0.000000
# 2 -0.013363 0.029654 -0.007452 0.000000 -0.008689 0.000000
# 3 -0.001870 -0.007452 0.009791 0.000000 0.000665 0.000000
# 4 0.000000 0.000000 0.000000 0.027044 0.000000 0.001728
# 5 0.006703 -0.008689 0.000665 0.000000 0.040387 0.000000
# 6 0.000000 0.000000 0.000000 0.001728 0.000000 0.034768
#
#
# Mechanical properties :
#
#
# Convention : Reuss Voigt Hill
#
# Bulk Modulus (GPa) = 80.27492 90.39274 85.33383
# Shear Modulus (GPa) = 23.86066 28.87911 26.36988
#
# Velocity S-wave (km/s) = 3.65025 4.01581 3.83739
# Velocity P-wave (km/s) = 7.91158 8.48409 8.20283
#
# Compressibility (1/GPa) = 0.01245719
#
# Stress axis : x y z
#
# Youngs Moduli (GPa) = 54.39825 33.72240 102.13932
#
# Poissons Ratio (x) = 0.45064 0.19103
# Poissons Ratio (y) = 0.72693 0.76111
# Poissons Ratio (z) = 0.10174 0.25129
#
# Static dielectric constant tensor:
#      x y z
#    x 1.583450 0.000000 0.004390 
#    y 0.000000 1.598960 0.000000 
#    z 0.004390 0.000000 1.602680 
# 
# From -- ./inp_files/70823.got.cif
#   From: 2010.05.17/outbox.cif.g08.bks.cpg/sg11_36_cif.got.tgz:70823.got - 2010.06.03 12:22:45.
