data_PCOD9159120
_publ_section_title
;
Structure prediction by ZEFSAII (Michael W. Deem and Ramdas Pophale) SiO2 
 PCOD9159120
Probable space group: P 21/M
;
_chemical_formula_sum "Si O2"
_cell_formula_units_Z 28
_cell_length_a 29.020928
_cell_length_b 8.046139
_cell_length_c 10.179333
_cell_angle_alpha 90.000000
_cell_angle_beta 37.884963
_cell_angle_gamma 90.000000
_cell_volume 1459.626532
_symmetry_space_group_name_H-M "P 21/M"
_symmetry_group_IT_number 11
_symmetry_cell_setting 'monoclinic'
loop_
_space_group_symop_operation_xyz
x,y,z
-x,1/2+y,-z
-x,-y,-z
x,1/2-y,z
loop_
_atom_site_type_symbol
_atom_site_label
_atom_site_fract_x
_atom_site_fract_y
_atom_site_fract_z
Si Si1 0.201314 0.050739 0.324071
Si Si2 0.047204 0.552403 0.769203
Si Si3 0.371001 0.451006 0.943873
Si Si4 0.045384 0.049217 0.269192
Si Si5 0.370463 0.046795 0.643190
Si Si6 0.497473 0.447121 0.158003
Si Si7 0.800415 0.952715 0.971265
O O1 0.204675 0.250000 0.312723
O O2 0.285620 0.992921 0.165701
O O3 0.183249 0.994075 0.215748
O O4 0.133449 0.002868 0.570488
O O5 0.047767 0.750000 0.758865
O O6 0.001657 0.482801 0.747033
O O7 0.000000 0.500000 0.000000
O O8 0.372118 0.250000 0.941133
O O9 0.389245 0.504103 0.751853
O O10 0.428673 0.509723 0.923945
O O11 0.047814 0.250000 0.255411
O O12 0.131419 0.990785 0.090619
O O13 0.000000 0.000000 0.500000
O O14 0.371796 0.250000 0.640856
O O15 0.428258 0.986065 0.402789
O O16 0.284647 0.995665 0.806651
O O17 0.489338 0.250000 0.174312
O O18 0.500000 0.500000 0.000000
O O19 0.800293 0.750000 0.972787
#
# Coordination Sequence:
#
# PCOD9159120 Si02
#       7
#     4   4   4   4   4   4   4
#     4   9  17  33  58  81 104 137 176 221 273 325
#     4  11  23  36  51  77 112 148 185 223 266 320
#     4   9  18  35  60  85 104 132 179 224 269 328
#     4  10  19  32  55  81 105 137 179 223 267 318
#     4   8  16  32  56  82 105 135 178 222 264 318
#     4  11  22  36  54  79 113 147 179 218 268 320
#     4   8  14  29  54  81 104 129 171 224 269 313
#
# _framework density 19.18299
#
# number of rings (size 3 to 8) (size 9 to 14) (size 15 to 20)
#    0.000    2.571    1.429    3.000    0.000    1.143 
#    2.571    0.714    0.000    3.429    0.000    0.000 
#    0.000    0.000    0.000    0.000    0.000    0.000 
#
# Total GULP energy -156105.974504 kJ/mol
# GULP energy per Si atom -5575.213375 kJ/mol
# Density = 1.913933 g / cm^3
# Si number density = 19.182990 Si / 1000 Ang^3
#
#
#
# Elastic Constant Matrix: (Units=GPa)
#
#
# Indices 1 2 3 4 5 6 
#
# 1 126.8565 8.1889 93.5318 0.0000 -4.9287 0.0000
# 2 8.1889 13.0374 9.8756 0.0000 -0.3005 0.0000
# 3 93.5318 9.8756 176.7443 0.0000 -4.2830 0.0000
# 4 0.0000 0.0000 0.0000 22.0988 0.0000 -2.0208
# 5 -4.9287 -0.3005 -4.2830 0.0000 27.5606 0.0000
# 6 0.0000 0.0000 0.0000 -2.0208 0.0000 19.6636
#
#
#
# Elastic Compliance Matrix: (Units=1/GPa)
#
#
# Indices 1 2 3 4 5 6 
#
# 1 0.013089 -0.003100 -0.006723 0.000000 0.001262 0.000000
# 2 -0.003100 0.080827 -0.002879 0.000000 -0.000120 0.000000
# 3 -0.006723 -0.002879 0.009382 0.000000 0.000224 0.000000
# 4 0.000000 0.000000 0.000000 0.045681 0.000000 0.004695
# 5 0.001262 -0.000120 0.000224 0.000000 0.036543 0.000000
# 6 0.000000 0.000000 0.000000 0.004695 0.000000 0.051338
#
#
# Mechanical properties :
#
#
# Convention : Reuss Voigt Hill
#
# Bulk Modulus (GPa) = 12.83778 59.98118 36.40948
# Shear Modulus (GPa) = 17.34749 27.53406 22.44077
#
# Velocity S-wave (km/s) = 3.01045 3.79269 3.42398
# Velocity P-wave (km/s) = 4.33480 7.10740 5.88667
#
# Compressibility (1/GPa) = 0.07789511
#
# Stress axis : x y z
#
# Youngs Moduli (GPa) = 76.40178 12.37211 106.58981
#
# Poissons Ratio (x) = 0.03835 0.71657
# Poissons Ratio (y) = 0.23682 0.30685
# Poissons Ratio (z) = 0.51362 0.03562
#
# Static dielectric constant tensor:
#      x y z
#    x 1.723000 0.000000 0.038370 
#    y 0.000000 1.688540 0.000000 
#    z 0.038370 0.000000 1.729450 
# 
# From -- ./inp_files/28385.got.cif
#   From: 2010.05.17/outbox.cif.g08.bks.cpg/sg11_15_cif.got.tgz:28385.got - 2010.06.03 12:22:45.
