data_PCOD9159697
_publ_section_title
;
Structure prediction by ZEFSAII (Michael W. Deem and Ramdas Pophale) SiO2 
 PCOD9159697
Probable space group: P 21/M
;
_chemical_formula_sum "Si O2"
_cell_formula_units_Z 28
_cell_length_a 14.335972
_cell_length_b 9.633766
_cell_length_c 20.560215
_cell_angle_alpha 90.000000
_cell_angle_beta 31.047604
_cell_angle_gamma 90.000000
_cell_volume 1464.502732
_symmetry_space_group_name_H-M "P 21/M"
_symmetry_group_IT_number 11
_symmetry_cell_setting 'monoclinic'
loop_
_space_group_symop_operation_xyz
x,y,z
-x,1/2+y,-z
-x,-y,-z
x,1/2-y,z
loop_
_atom_site_type_symbol
_atom_site_label
_atom_site_fract_x
_atom_site_fract_y
_atom_site_fract_z
Si Si1 0.123113 0.085407 0.876894
Si Si2 0.506327 0.419108 0.331690
Si Si3 0.334815 0.596587 0.080953
Si Si4 0.195187 0.591130 0.585418
Si Si5 0.931104 0.028177 0.645091
Si Si6 0.014346 0.588198 0.186932
Si Si7 0.268653 0.095927 0.355415
O O1 0.146111 0.250000 0.879607
O O2 0.028616 0.080078 0.862920
O O3 0.310731 0.001135 0.763456
O O4 0.000000 0.000000 0.000000
O O5 0.516954 0.250000 0.331961
O O6 0.354960 0.488590 0.467892
O O7 0.434412 0.451003 0.301385
O O8 0.407925 0.750000 0.027689
O O9 0.187196 0.597547 0.227673
O O10 0.219758 0.556853 0.085926
O O11 0.500000 0.500000 0.000000
O O12 0.253321 0.750000 0.560788
O O13 0.107428 0.520150 0.700811
O O14 0.043161 0.587226 0.618902
O O15 0.793213 0.987757 0.670411
O O16 0.095212 0.100733 0.508004
O O17 0.980433 0.750000 0.227732
O O18 0.309758 0.250000 0.307935
#
# Coordination Sequence:
#
# PCOD9159697 Si02
#       7
#     4   4   4   4   4   4   4
#     4  11  24  43  63  82 108 144 187 232 277 327
#     4  10  21  37  57  83 115 151 188 227 275 330
#     4  10  21  37  56  80 111 146 184 223 267 324
#     4  10  19  33  58  89 116 142 181 234 281 324
#     4   9  18  32  51  79 114 149 183 224 273 325
#     4   9  21  41  61  80 108 148 185 223 278 337
#     4   9  17  31  53  79 110 148 184 220 270 329
#
# _framework density 19.119116999999999
#
# number of rings (size 3 to 8) (size 9 to 14) (size 15 to 20)
#    0.000    2.286    0.000    2.143    0.000    9.143 
#    0.000    6.429    0.000    0.000    0.000    0.000 
#    0.000    0.000    0.000    0.000    0.000    0.000 
#
# Total GULP energy -155972.106729 kJ/mol
# GULP energy per Si atom -5570.432383 kJ/mol
# Density = 1.907560 g / cm^3
# Si number density = 19.119117 Si / 1000 Ang^3
#
#
#
# Elastic Constant Matrix: (Units=GPa)
#
#
# Indices 1 2 3 4 5 6 
#
# 1 131.0474 64.7862 45.8845 0.0000 -12.4740 0.0000
# 2 64.7862 123.4743 48.3059 0.0000 -8.4071 0.0000
# 3 45.8845 48.3059 52.6308 0.0000 -13.4527 0.0000
# 4 0.0000 0.0000 0.0000 20.1687 0.0000 -6.3813
# 5 -12.4740 -8.4071 -13.4527 0.0000 29.5610 0.0000
# 6 0.0000 0.0000 0.0000 -6.3813 0.0000 18.6220
#
#
#
# Elastic Compliance Matrix: (Units=1/GPa)
#
#
# Indices 1 2 3 4 5 6 
#
# 1 0.011846 -0.003437 -0.006955 0.000000 0.000856 0.000000
# 2 -0.003437 0.013729 -0.010159 0.000000 -0.002169 0.000000
# 3 -0.006955 -0.010159 0.037230 0.000000 0.011119 0.000000
# 4 0.000000 0.000000 0.000000 0.055611 0.000000 0.019056
# 5 0.000856 -0.002169 0.011119 0.000000 0.038633 0.000000
# 6 0.000000 0.000000 0.000000 0.019056 0.000000 0.060230
#
#
# Mechanical properties :
#
#
# Convention : Reuss Voigt Hill
#
# Bulk Modulus (GPa) = 46.07390 69.45620 57.76505
# Shear Modulus (GPa) = 18.82430 23.54874 21.18652
#
# Velocity S-wave (km/s) = 3.14121 3.51335 3.33247
# Velocity P-wave (km/s) = 6.10794 7.27084 6.71461
#
# Compressibility (1/GPa) = 0.02170426
#
# Stress axis : x y z
#
# Youngs Moduli (GPa) = 84.41358 72.84021 26.86028
#
# Poissons Ratio (x) = 0.25032 0.18681
# Poissons Ratio (y) = 0.29009 0.27287
# Poissons Ratio (z) = 0.58709 0.73997
#
# Static dielectric constant tensor:
#      x y z
#    x 1.677700 0.000000 -0.008720 
#    y 0.000000 1.662000 0.000000 
#    z -0.008720 0.000000 1.678160 
# 
# From -- ./inp_files/65352.got.cif
#   From: 2010.05.17/outbox.cif.g08.bks.cpg/sg11_33_cif.got.tgz:65352.got - 2010.06.03 12:22:45.
