data_PCOD9159927
_publ_section_title
;
Structure prediction by ZEFSAII (Michael W. Deem and Ramdas Pophale) SiO2 
 PCOD9159927
Probable space group: P 21/M
;
_chemical_formula_sum "Si O2"
_cell_formula_units_Z 32
_cell_length_a 25.124692
_cell_length_b 14.292585
_cell_length_c 9.163207
_cell_angle_alpha 90.000000
_cell_angle_beta 31.879265
_cell_angle_gamma 90.000000
_cell_volume 1737.803787
_symmetry_space_group_name_H-M "P 21/M"
_symmetry_group_IT_number 11
_symmetry_cell_setting 'monoclinic'
loop_
_space_group_symop_operation_xyz
x,y,z
-x,1/2+y,-z
-x,-y,-z
x,1/2-y,z
loop_
_atom_site_type_symbol
_atom_site_label
_atom_site_fract_x
_atom_site_fract_y
_atom_site_fract_z
Si Si1 0.617858 0.139912 0.412030
Si Si2 0.317761 0.141980 0.484082
Si Si3 0.504154 0.525810 0.819951
Si Si4 0.281324 0.515811 0.337117
Si Si5 0.179198 0.148722 0.070016
Si Si6 0.224286 0.960793 0.146625
Si Si7 0.045010 0.897210 0.390923
Si Si8 0.799219 0.356527 0.224591
O O1 0.590251 0.250000 0.458104
O O2 0.700664 0.135337 0.350096
O O3 0.532380 0.066073 0.660083
O O4 0.677100 0.095628 0.136924
O O5 0.339335 0.250000 0.400694
O O6 0.404913 0.100043 0.387582
O O7 0.304391 0.081129 0.368832
O O8 0.217631 0.134517 0.815453
O O9 0.500000 0.500000 0.000000
O O10 0.391940 0.560010 0.047857
O O11 0.227116 0.512450 0.308714
O O12 0.218596 0.576006 0.598946
O O13 0.221670 0.250000 0.021048
O O14 0.058743 0.156908 0.354072
O O15 0.214070 0.057957 0.079716
O O16 0.129506 0.895610 0.320425
O O17 0.106190 0.878644 0.099817
O O18 0.000000 0.000000 0.500000
O O19 0.807161 0.250000 0.256177
#
# Coordination Sequence:
#
# PCOD9159927 Si02
#       8
#     4   4   4   4   4   4   4   4
#     4  10  19  36  58  79 110 152 199 240 276 333
#     4  10  20  37  59  82 112 151 202 241 276 343
#     4  10  19  35  57  82 110 150 197 232 282 335
#     4  11  22  36  56  83 121 153 184 240 298 346
#     4  10  19  37  63  84 110 151 200 242 283 345
#     4  10  21  37  57  84 121 148 187 243 300 341
#     4   9  18  35  60  82 107 147 194 235 285 342
#     4  10  19  34  56  81 112 150 195 237 279 338
#
# _framework density 18.414048000000001
#
# number of rings (size 3 to 8) (size 9 to 14) (size 15 to 20)
#    0.000    2.000    3.750    1.875    0.000    4.500 
#    0.000    5.625    0.000    3.000    0.000    0.000 
#    0.000    0.000    0.000    0.000    0.000    0.000 
#
# Total GULP energy -178172.032493 kJ/mol
# GULP energy per Si atom -5567.876015 kJ/mol
# Density = 1.837214 g / cm^3
# Si number density = 18.414048 Si / 1000 Ang^3
#
#
#
# Elastic Constant Matrix: (Units=GPa)
#
#
# Indices 1 2 3 4 5 6 
#
# 1 63.2844 25.6851 29.5050 0.0000 19.8740 0.0000
# 2 25.6851 115.7149 29.8259 0.0000 17.0921 0.0000
# 3 29.5050 29.8259 101.8496 0.0000 -3.5789 0.0000
# 4 0.0000 0.0000 0.0000 -103.2039 0.0000 6.4429
# 5 19.8740 17.0921 -3.5789 0.0000 19.4318 0.0000
# 6 0.0000 0.0000 0.0000 6.4429 0.0000 7.4268
#
#
#
# Elastic Compliance Matrix: (Units=1/GPa)
#
#
# Indices 1 2 3 4 5 6 
#
# 1 0.031237 0.000904 -0.010533 0.000000 -0.034683 0.000000
# 2 0.000904 0.011145 -0.003928 0.000000 -0.011451 0.000000
# 3 -0.010533 -0.003928 0.014614 0.000000 0.016919 0.000000
# 4 0.000000 0.000000 0.000000 -0.009192 0.000000 0.007974
# 5 -0.034683 -0.011451 0.016919 0.000000 0.100123 0.000000
# 6 0.000000 0.000000 0.000000 0.007974 0.000000 0.127730
#
#
# Mechanical properties :
#
#
# Convention : Reuss Voigt Hill
#
# Bulk Modulus (GPa) = 33.46304 50.09789 41.78046
# Shear Modulus (GPa) = 15.98803 -2.21354 6.88725
#
# Velocity S-wave (km/s) = 2.94981 -1.09759 1.93606
# Velocity P-wave (km/s) = 5.46020 5.06548 5.26654
#
# Compressibility (1/GPa) = 0.02988372
#
# Stress axis : x y z
#
# Youngs Moduli (GPa) = 32.01287 89.72483 68.42527
#
# Poissons Ratio (x) = -0.08113 0.72071
# Poissons Ratio (y) = -0.02894 0.26878
# Poissons Ratio (z) = 0.33718 0.35245
#
# Static dielectric constant tensor:
#      x y z
#    x 1.630650 0.000000 -0.047570 
#    y 0.000000 1.679560 0.000000 
#    z -0.047570 0.000000 1.666260 
# 
# From -- ./inp_files/22188.got.cif
#   From: 2010.05.17/outbox.cif.g08.bks.cpg/sg11_12_cif.got.tgz:22188.got - 2010.06.03 12:22:45.
