data_PCOD9159273
_publ_section_title
;
Structure prediction by ZEFSAII (Michael W. Deem and Ramdas Pophale) SiO2 
 PCOD9159273
Probable space group: P 21/M
;
_chemical_formula_sum "Si O2"
_cell_formula_units_Z 32
_cell_length_a 12.830083
_cell_length_b 7.573284
_cell_length_c 15.006872
_cell_angle_alpha 90.000000
_cell_angle_beta 87.667599
_cell_angle_gamma 90.000000
_cell_volume 1456.947636
_symmetry_space_group_name_H-M "P 21/M"
_symmetry_group_IT_number 11
_symmetry_cell_setting 'monoclinic'
loop_
_space_group_symop_operation_xyz
x,y,z
-x,1/2+y,-z
-x,-y,-z
x,1/2-y,z
loop_
_atom_site_type_symbol
_atom_site_label
_atom_site_fract_x
_atom_site_fract_y
_atom_site_fract_z
Si Si1 0.101145 0.959908 0.325375
Si Si2 0.722625 0.955338 0.139682
Si Si3 0.116102 0.460984 0.718136
Si Si4 0.546660 0.464409 0.275557
Si Si5 0.167167 0.537333 0.509787
Si Si6 0.323707 0.037261 0.231515
Si Si7 0.620489 0.537080 0.969868
Si Si8 0.613282 0.460699 0.459898
O O1 0.084430 0.750000 0.332867
O O2 0.102183 0.030980 0.427405
O O3 0.003087 0.028552 0.272266
O O4 0.213433 0.984329 0.276436
O O5 0.750503 0.750000 0.126358
O O6 0.804477 0.032736 0.209217
O O7 0.608902 0.967138 0.189124
O O8 0.700388 0.032087 0.042685
O O9 0.118830 0.250000 0.729749
O O10 0.143452 0.492466 0.613015
O O11 0.548751 0.250000 0.272736
O O12 0.426352 0.520659 0.282907
O O13 0.610493 0.527309 0.358968
O O14 0.162718 0.750000 0.504913
O O15 0.286579 0.473533 0.491115
O O16 0.324570 0.250000 0.230930
O O17 0.346551 0.975599 0.129716
O O18 0.628266 0.750000 0.968438
O O19 0.500000 0.500000 0.000000
O O20 0.500000 0.500000 0.500000
O O21 0.623778 0.250000 0.456044
#
# Coordination Sequence:
#
# PCOD9159273 Si02
#       8
#     4   4   4   4   4   4   4   4
#     4  10  22  38  55  78 110 146 185 228 271 317
#     4  10  20  34  55  82 108 138 176 218 267 321
#     4  10  21  37  56  80 110 145 185 227 269 317
#     4  10  19  33  52  76 108 140 172 216 268 320
#     4  10  20  35  55  79 106 141 186 230 269 317
#     4  10  21  36  55  80 110 142 178 223 273 326
#     4  10  20  35  57  84 111 140 176 220 270 327
#     4  10  20  31  46  72 106 140 175 216 263 317
#
# _framework density 21.963726999999999
#
# number of rings (size 3 to 8) (size 9 to 14) (size 15 to 20)
#    0.000    2.000    2.500    1.125    0.000    3.000 
#    0.000    0.625    0.000    0.000    0.000    0.000 
#    0.000    0.000    0.000    0.000    0.000    0.000 
#
# Total GULP energy -178543.618089 kJ/mol
# GULP energy per Si atom -5579.488065 kJ/mol
# Density = 2.191374 g / cm^3
# Si number density = 21.963727 Si / 1000 Ang^3
#
#
#
# Elastic Constant Matrix: (Units=GPa)
#
#
# Indices 1 2 3 4 5 6 
#
# 1 136.3819 1.1499 42.9875 0.0000 31.6386 0.0000
# 2 1.1499 50.4271 2.4890 0.0000 9.7054 0.0000
# 3 42.9875 2.4890 96.6619 0.0000 27.0688 0.0000
# 4 0.0000 0.0000 0.0000 8.3181 0.0000 -0.2742
# 5 31.6386 9.7054 27.0688 0.0000 36.1545 0.0000
# 6 0.0000 0.0000 0.0000 -0.2742 0.0000 9.9427
#
#
#
# Elastic Compliance Matrix: (Units=1/GPa)
#
#
# Indices 1 2 3 4 5 6 
#
# 1 0.009706 0.001253 -0.002374 0.000000 -0.007053 0.000000
# 2 0.001253 0.021204 0.001009 0.000000 -0.007545 0.000000
# 3 -0.002374 0.001009 0.013753 0.000000 -0.008490 0.000000
# 4 0.000000 0.000000 0.000000 0.120329 0.000000 0.003318
# 5 -0.007053 -0.007545 -0.008490 0.000000 0.042213 0.000000
# 6 0.000000 0.000000 0.000000 0.003318 0.000000 0.100668
#
#
# Mechanical properties :
#
#
# Convention : Reuss Voigt Hill
#
# Bulk Modulus (GPa) = 22.50174 41.85819 32.17997
# Shear Modulus (GPa) = 15.48426 26.67269 21.07848
#
# Velocity S-wave (km/s) = 2.65805 3.48860 3.10126
# Velocity P-wave (km/s) = 4.43706 5.94360 5.24471
#
# Compressibility (1/GPa) = 0.04444101
#
# Stress axis : x y z
#
# Youngs Moduli (GPa) = 103.02722 47.16034 72.71369
#
# Poissons Ratio (x) = -0.05911 0.17260
# Poissons Ratio (y) = -0.12912 -0.07340
# Poissons Ratio (z) = 0.24455 -0.04760
#
# Static dielectric constant tensor:
#      x y z
#    x 1.785860 0.000000 0.021940 
#    y 0.000000 1.819210 0.000000 
#    z 0.021940 0.000000 1.844820 
# 
# From -- ./inp_files/38138.got.cif
#   From: 2010.05.17/outbox.cif.g08.bks.cpg/sg11_20_cif.got.tgz:38138.got - 2010.06.03 12:22:45.
