data_PCOD9159125
_publ_section_title
;
Structure prediction by ZEFSAII (Michael W. Deem and Ramdas Pophale) SiO2 
 PCOD9159125
Probable space group: P 21/M
;
_chemical_formula_sum "Si O2"
_cell_formula_units_Z 32
_cell_length_a 17.043683
_cell_length_b 20.065451
_cell_length_c 9.077557
_cell_angle_alpha 90.000000
_cell_angle_beta 143.026111
_cell_angle_gamma 90.000000
_cell_volume 1867.160334
_symmetry_space_group_name_H-M "P 21/M"
_symmetry_group_IT_number 11
_symmetry_cell_setting 'monoclinic'
loop_
_space_group_symop_operation_xyz
x,y,z
-x,1/2+y,-z
-x,-y,-z
x,1/2-y,z
loop_
_atom_site_type_symbol
_atom_site_label
_atom_site_fract_x
_atom_site_fract_y
_atom_site_fract_z
Si Si1 0.172746 0.438783 0.683645
Si Si2 0.090216 0.908049 0.210402
Si Si3 0.552183 0.925809 0.402045
Si Si4 0.654627 0.172145 0.054987
Si Si5 0.447818 0.425809 0.245500
Si Si6 0.827254 0.561217 0.665407
Si Si7 0.345372 0.672145 0.591103
Si Si8 0.909784 0.408049 0.439756
O O1 0.185071 0.428914 0.527607
O O2 0.148326 0.517842 0.674073
O O3 0.044229 0.402858 0.553374
O O4 0.304385 0.417974 0.962351
O O5 0.201880 0.855639 0.336961
O O6 0.063623 0.902828 0.345434
O O7 0.148328 0.982158 0.270907
O O8 0.955771 0.902859 0.920687
O O9 0.557203 0.920390 0.585804
O O10 0.695616 0.917974 0.549197
O O11 0.500001 0.000000 0.285968
O O12 0.453105 0.872188 0.186885
O O13 0.642254 0.250000 0.001721
O O14 0.640543 0.163601 0.210815
O O15 0.798119 0.144360 0.231321
O O16 0.546896 0.372188 0.327572
O O17 0.357748 0.750000 0.574960
#
# Coordination Sequence:
#
# PCOD9159125 Si02
#       8
#     4   4   4   4   4   4   4   4
#     4  10  19  32  55  82 109 142 183 230 277 324
#     4   9  18  33  53  80 111 141 178 227 279 331
#     4  11  22  35  55  83 114 148 188 233 279 329
#     4  10  21  38  59  82 111 148 186 227 282 342
#     4  11  22  35  55  83 114 148 188 233 279 329
#     4  10  19  32  55  82 109 142 183 230 277 324
#     4  10  21  38  59  82 111 148 186 227 282 342
#     4   9  18  33  53  80 111 141 178 227 279 331
#
# _framework density 17.138323
#
# number of rings (size 3 to 8) (size 9 to 14) (size 15 to 20)
#    0.000    2.000    2.500    1.500    0.000    3.500 
#    0.000    1.250    0.000    4.500    0.000    0.000 
#    0.000    0.000    0.000    0.000    0.000    0.000 
#
# Total GULP energy -178649.898967 kJ/mol
# GULP energy per Si atom -5582.809343 kJ/mol
# Density = 1.709932 g / cm^3
# Si number density = 17.138323 Si / 1000 Ang^3
#
#
#
# Elastic Constant Matrix: (Units=GPa)
#
#
# Indices 1 2 3 4 5 6 
#
# 1 106.0364 68.5541 63.6850 0.0000 34.1468 0.0000
# 2 68.5541 106.4192 77.7248 0.0000 11.5888 0.0000
# 3 63.6850 77.7248 151.6533 0.0000 23.4995 0.0000
# 4 0.0000 0.0000 0.0000 22.8336 0.0000 3.9353
# 5 34.1468 11.5888 23.4995 0.0000 21.2310 0.0000
# 6 0.0000 0.0000 0.0000 3.9353 0.0000 19.7196
#
#
#
# Elastic Compliance Matrix: (Units=1/GPa)
#
#
# Indices 1 2 3 4 5 6 
#
# 1 0.038876 -0.021340 0.003012 0.000000 -0.054211 0.000000
# 2 -0.021340 0.026735 -0.009412 0.000000 0.030146 0.000000
# 3 0.003012 -0.009412 0.012200 0.000000 -0.013210 0.000000
# 4 0.000000 0.000000 0.000000 0.045355 0.000000 -0.009051
# 5 -0.054211 0.030146 -0.013210 0.000000 0.132457 0.000000
# 6 0.000000 0.000000 0.000000 -0.009051 0.000000 0.052517
#
#
# Mechanical properties :
#
#
# Convention : Reuss Voigt Hill
#
# Bulk Modulus (GPa) = 44.78088 87.11520 65.94804
# Shear Modulus (GPa) = 13.47477 23.03318 18.25397
#
# Velocity S-wave (km/s) = 2.80703 3.66998 3.26712
# Velocity P-wave (km/s) = 6.05737 8.30056 7.26605
#
# Compressibility (1/GPa) = 0.02233096
#
# Stress axis : x y z
#
# Youngs Moduli (GPa) = 25.72301 37.40424 81.96685
#
# Poissons Ratio (x) = 0.79819 -0.24687
# Poissons Ratio (y) = 0.54892 0.77148
# Poissons Ratio (z) = -0.07747 0.35205
#
# Static dielectric constant tensor:
#      x y z
#    x 1.564420 0.000000 -0.005590 
#    y 0.000000 1.565060 0.000000 
#    z -0.005590 0.000000 1.559990 
# 
# From -- ./inp_files/23103.got.cif
#   From: 2010.05.17/outbox.cif.g08.bks.cpg/sg11_12_cif.got.tgz:23103.got - 2010.06.03 12:22:45.
