data_PCOD9159430
_publ_section_title
;
Structure prediction by ZEFSAII (Michael W. Deem and Ramdas Pophale) SiO2 
 PCOD9159430
Probable space group: P 21/M
;
_chemical_formula_sum "Si O2"
_cell_formula_units_Z 32
_cell_length_a 21.099755
_cell_length_b 8.956363
_cell_length_c 15.079129
_cell_angle_alpha 90.000000
_cell_angle_beta 136.993524
_cell_angle_gamma 90.000000
_cell_volume 1943.664579
_symmetry_space_group_name_H-M "P 21/M"
_symmetry_group_IT_number 11
_symmetry_cell_setting 'monoclinic'
loop_
_space_group_symop_operation_xyz
x,y,z
-x,1/2+y,-z
-x,-y,-z
x,1/2-y,z
loop_
_atom_site_type_symbol
_atom_site_label
_atom_site_fract_x
_atom_site_fract_y
_atom_site_fract_z
Si Si1 0.518528 0.073143 0.115479
Si Si2 0.172628 0.080074 0.972935
Si Si3 0.979962 0.427376 0.073705
Si Si4 0.195217 0.926355 0.714573
Si Si5 0.710121 0.572488 0.357962
Si Si6 0.679995 0.571893 0.008573
Si Si7 0.892176 0.570892 0.630511
Si Si8 0.959197 0.578320 0.337365
O O1 0.530004 0.250000 0.113758
O O2 0.428533 0.048873 0.085278
O O3 0.611039 0.006691 0.253703
O O4 0.500000 0.000000 0.000000
O O5 0.172973 0.250000 0.006895
O O6 0.275014 0.040448 0.041512
O O7 0.110230 0.077723 0.819231
O O8 0.119164 0.977433 0.987470
O O9 0.982928 0.250000 0.068861
O O10 0.057468 0.472774 0.226496
O O11 0.000000 0.500000 0.000000
O O12 0.195269 0.750000 0.697789
O O13 0.235236 0.017693 0.673256
O O14 0.094509 0.982742 0.643956
O O15 0.265534 0.969432 0.865939
O O16 0.696352 0.750000 0.340047
O O17 0.782876 0.537146 0.511084
O O18 0.699192 0.750000 0.046119
O O19 0.903455 0.750000 0.631327
O O20 0.947653 0.491182 0.607638
O O21 0.971248 0.750000 0.377468
#
# Coordination Sequence:
#
# PCOD9159430 Si02
#       8
#     4   4   4   4   4   4   4   4
#     4  11  21  33  50  72  97 131 174 218 256 294
#     4   8  15  29  48  72  98 127 158 194 241 291
#     4  10  19  33  54  80 104 127 155 191 239 299
#     4  11  20  29  45  67  92 127 171 210 247 292
#     4  11  22  35  48  65  95 131 169 213 252 288
#     4   9  18  32  49  68  97 131 167 211 255 290
#     4   9  20  36  51  69  96 129 164 201 242 294
#     4   9  17  30  48  67  93 127 163 203 246 290
#
# _framework density 16.463746
#
# number of rings (size 3 to 8) (size 9 to 14) (size 15 to 20)
#    0.000    2.250    1.250    3.375    0.000    5.500 
#    0.000    0.000    0.000    0.000    0.000    0.875 
#    0.000    0.000    0.000    0.000    0.000    0.000 
#
# Total GULP energy -178482.502540 kJ/mol
# GULP energy per Si atom -5577.578204 kJ/mol
# Density = 1.642627 g / cm^3
# Si number density = 16.463746 Si / 1000 Ang^3
#
#
#
# Elastic Constant Matrix: (Units=GPa)
#
#
# Indices 1 2 3 4 5 6 
#
# 1 107.4765 43.2898 56.5471 0.0000 16.0374 0.0000
# 2 43.2898 57.0555 38.5010 0.0000 9.7577 0.0000
# 3 56.5471 38.5010 74.8382 0.0000 22.7122 0.0000
# 4 0.0000 0.0000 0.0000 18.1184 0.0000 4.7838
# 5 16.0374 9.7577 22.7122 0.0000 29.6384 0.0000
# 6 0.0000 0.0000 0.0000 4.7838 0.0000 28.2613
#
#
#
# Elastic Compliance Matrix: (Units=1/GPa)
#
#
# Indices 1 2 3 4 5 6 
#
# 1 0.016855 -0.006410 -0.009526 0.000000 0.000290 0.000000
# 2 -0.006410 0.029403 -0.010943 0.000000 0.002174 0.000000
# 3 -0.009526 -0.010943 0.030663 0.000000 -0.014740 0.000000
# 4 0.000000 0.000000 0.000000 0.057775 0.000000 -0.009780
# 5 0.000290 0.002174 -0.014740 0.000000 0.044163 0.000000
# 6 0.000000 0.000000 0.000000 -0.009780 0.000000 0.037040
#
#
# Mechanical properties :
#
#
# Convention : Reuss Voigt Hill
#
# Bulk Modulus (GPa) = 43.17187 57.33845 50.25516
# Shear Modulus (GPa) = 18.02613 21.93909 19.98261
#
# Velocity S-wave (km/s) = 3.31251 3.65440 3.48765
# Velocity P-wave (km/s) = 6.39606 7.26009 6.84173
#
# Compressibility (1/GPa) = 0.02316323
#
# Stress axis : x y z
#
# Youngs Moduli (GPa) = 59.33078 34.01049 32.61292
#
# Poissons Ratio (x) = 0.21800 0.31066
# Poissons Ratio (y) = 0.38030 0.35688
# Poissons Ratio (z) = 0.56516 0.37218
#
# Static dielectric constant tensor:
#      x y z
#    x 1.549890 0.000000 0.020750 
#    y 0.000000 1.557120 0.000000 
#    z 0.020750 0.000000 1.586640 
# 
# From -- ./inp_files/54293.got.cif
#   From: 2010.05.17/outbox.cif.g08.bks.cpg/sg11_28_cif.got.tgz:54293.got - 2010.06.03 12:22:45.
