data_PCOD9159282
_publ_section_title
;
Structure prediction by ZEFSAII (Michael W. Deem and Ramdas Pophale) SiO2 
 PCOD9159282
Probable space group: P 21/M
;
_chemical_formula_sum "Si O2"
_cell_formula_units_Z 28
_cell_length_a 7.097918
_cell_length_b 12.295485
_cell_length_c 14.875135
_cell_angle_alpha 90.000000
_cell_angle_beta 64.801758
_cell_angle_gamma 90.000000
_cell_volume 1174.652493
_symmetry_space_group_name_H-M "P 21/M"
_symmetry_group_IT_number 11
_symmetry_cell_setting 'monoclinic'
loop_
_space_group_symop_operation_xyz
x,y,z
-x,1/2+y,-z
-x,-y,-z
x,1/2-y,z
loop_
_atom_site_type_symbol
_atom_site_label
_atom_site_fract_x
_atom_site_fract_y
_atom_site_fract_z
Si Si1 0.956886 0.121632 0.561053
Si Si2 0.734793 0.122986 0.773346
Si Si3 0.056625 0.864583 0.940148
Si Si4 0.328030 0.090419 0.625131
Si Si5 0.918505 0.573385 0.161485
Si Si6 0.747999 0.128574 0.435698
Si Si7 0.568593 0.623863 0.016377
O O1 0.915533 0.250000 0.552387
O O2 0.772292 0.083374 0.665395
O O3 0.933940 0.082471 0.462311
O O4 0.164288 0.121750 0.579605
O O5 0.803443 0.250000 0.762718
O O6 0.511494 0.122080 0.864575
O O7 0.894144 0.058225 0.804920
O O8 0.150273 0.750000 0.895343
O O9 0.816040 0.871781 0.958393
O O10 0.032083 0.870673 0.053226
O O11 0.164060 0.964767 0.870016
O O12 0.548811 0.126852 0.542811
O O13 0.253248 0.126961 0.738556
O O14 0.308104 0.959000 0.628269
O O15 0.786952 0.250000 0.393788
O O16 0.499712 0.750000 0.998281
O O17 0.500000 0.500000 0.000000
#
# Coordination Sequence:
#
# PCOD9159282 Si02
#       7
#     4   4   4   4   4   4   4
#     4   9  18  33  55  82 108 139 178 226 274 326
#     4   9  17  30  50  75 104 137 176 222 273 323
#     4  10  21  34  52  78 107 141 184 228 275 331
#     4  10  21  36  56  81 109 145 180 228 277 332
#     4  10  20  35  52  75 106 140 180 223 275 329
#     4  10  21  36  56  82 109 141 183 226 280 335
#     4  10  19  33  52  77 109 145 185 233 281 333
#
# _framework density 23.836836999999999
#
# number of rings (size 3 to 8) (size 9 to 14) (size 15 to 20)
#    0.000    2.286    1.429    1.286    2.000    2.286 
#    0.000    0.000    0.000    0.000    0.000    0.000 
#    0.000    0.000    0.000    0.000    0.000    0.000 
#
# Total GULP energy -155884.668289 kJ/mol
# GULP energy per Si atom -5567.309582 kJ/mol
# Density = 2.378258 g / cm^3
# Si number density = 23.836837 Si / 1000 Ang^3
#
#
#
# Elastic Constant Matrix: (Units=GPa)
#
#
# Indices 1 2 3 4 5 6 
#
# 1 47.3158 10.5683 8.4415 0.0000 1.7743 0.0000
# 2 10.5683 132.3639 24.2722 0.0000 17.5111 0.0000
# 3 8.4415 24.2722 91.3708 0.0000 4.0162 0.0000
# 4 0.0000 0.0000 0.0000 4.8543 0.0000 5.3851
# 5 1.7743 17.5111 4.0162 0.0000 35.8383 0.0000
# 6 0.0000 0.0000 0.0000 5.3851 0.0000 14.4250
#
#
#
# Elastic Compliance Matrix: (Units=1/GPa)
#
#
# Indices 1 2 3 4 5 6 
#
# 1 0.021747 -0.001411 -0.001625 0.000000 -0.000205 0.000000
# 2 -0.001411 0.008542 -0.001968 0.000000 -0.003883 0.000000
# 3 -0.001625 -0.001968 0.011629 0.000000 -0.000261 0.000000
# 4 0.000000 0.000000 0.000000 0.351627 0.000000 -0.131268
# 5 -0.000205 -0.003883 -0.000261 0.000000 0.029840 0.000000
# 6 0.000000 0.000000 0.000000 -0.131268 0.000000 0.118329
#
#
# Mechanical properties :
#
#
# Convention : Reuss Voigt Hill
#
# Bulk Modulus (GPa) = 31.33880 39.73492 35.53686
# Shear Modulus (GPa) = 8.89109 26.20808 17.54959
#
# Velocity S-wave (km/s) = 1.93341 3.31944 2.71631
# Velocity P-wave (km/s) = 4.26144 5.60333 4.97781
#
# Compressibility (1/GPa) = 0.03190933
#
# Stress axis : x y z
#
# Youngs Moduli (GPa) = 45.98238 117.06481 85.99286
#
# Poissons Ratio (x) = 0.16520 0.13976
# Poissons Ratio (y) = 0.06489 0.16925
# Poissons Ratio (z) = 0.07473 0.23040
#
# Static dielectric constant tensor:
#      x y z
#    x 1.966740 0.000000 0.033480 
#    y 0.000000 2.027470 0.000000 
#    z 0.033480 0.000000 1.901920 
# 
# From -- ./inp_files/46935.got.cif
#   From: 2010.05.17/outbox.cif.g08.bks.cpg/sg11_24_cif.got.tgz:46935.got - 2010.06.03 12:22:45.
