data_PCOD9159076
_publ_section_title
;
Structure prediction by ZEFSAII (Michael W. Deem and Ramdas Pophale) SiO2 
 PCOD9159076
Probable space group: P 21/M
;
_chemical_formula_sum "Si O2"
_cell_formula_units_Z 32
_cell_length_a 18.807560
_cell_length_b 11.475792
_cell_length_c 19.275679
_cell_angle_alpha 90.000000
_cell_angle_beta 157.876100
_cell_angle_gamma 90.000000
_cell_volume 1566.814144
_symmetry_space_group_name_H-M "P 21/M"
_symmetry_group_IT_number 11
_symmetry_cell_setting 'monoclinic'
loop_
_space_group_symop_operation_xyz
x,y,z
-x,1/2+y,-z
-x,-y,-z
x,1/2-y,z
loop_
_atom_site_type_symbol
_atom_site_label
_atom_site_fract_x
_atom_site_fract_y
_atom_site_fract_z
Si Si1 0.931942 0.379076 0.023651
Si Si2 0.996023 0.114265 0.734628
Si Si3 0.136229 0.614223 0.533965
Si Si4 0.329576 0.964392 0.099252
Si Si5 0.188838 0.612413 0.239937
Si Si6 0.503529 0.540597 0.111601
Si Si7 0.412124 0.883647 0.565866
Si Si8 0.268925 0.376297 0.805028
O O1 0.029242 0.250000 0.109053
O O2 0.794475 0.379962 0.965427
O O3 0.811641 0.388606 0.843848
O O4 0.058316 0.498134 0.139751
O O5 0.039569 0.250000 0.767432
O O6 0.937268 0.067783 0.606222
O O7 0.805470 0.104716 0.606815
O O8 0.174937 0.052639 0.928501
O O9 0.183493 0.750000 0.568244
O O10 0.325105 0.550458 0.725000
O O11 0.949937 0.607120 0.413130
O O12 0.438554 0.919025 0.129087
O O13 0.465760 0.031758 0.276159
O O14 0.126696 0.750000 0.201113
O O15 0.385569 0.596875 0.459405
O O16 0.595508 0.625926 0.138750
O O17 0.338781 0.474653 0.920776
O O18 0.474681 0.750000 0.634290
O O19 0.279331 0.250000 0.849817
#
# Coordination Sequence:
#
# PCOD9159076 Si02
#       8
#     4   4   4   4   4   4   4   4
#     4  10  22  39  61  89 126 167 202 246 304 363
#     4  10  19  32  53  86 121 146 184 246 306 354
#     4  10  19  34  57  81 110 143 184 243 299 345
#     4  12  22  34  58  86 120 157 193 237 303 368
#     4   9  19  40  65  90 121 159 209 258 297 350
#     4  11  22  35  55  82 110 147 190 236 284 355
#     4  10  20  34  58  91 120 149 195 253 303 354
#     4  10  22  38  55  77 109 148 189 240 295 343
#
# _framework density 20.423611000000001
#
# number of rings (size 3 to 8) (size 9 to 14) (size 15 to 20)
#    0.000    1.750    3.750    1.125    0.000    2.500 
#    0.000    0.625    0.000    0.750    0.000    0.000 
#    0.000    0.000    0.000    0.000    0.000    0.000 
#
# Total GULP energy -178180.275097 kJ/mol
# GULP energy per Si atom -5568.133597 kJ/mol
# Density = 2.037713 g / cm^3
# Si number density = 20.423611 Si / 1000 Ang^3
#
#
#
# Elastic Constant Matrix: (Units=GPa)
#
#
# Indices 1 2 3 4 5 6 
#
# 1 71.4533 31.3538 3.2067 0.0000 -4.3914 0.0000
# 2 31.3538 75.0955 23.7528 0.0000 -9.0234 0.0000
# 3 3.2067 23.7528 68.2690 0.0000 -11.7468 0.0000
# 4 0.0000 0.0000 0.0000 19.7288 0.0000 -7.3151
# 5 -4.3914 -9.0234 -11.7468 0.0000 28.4436 0.0000
# 6 0.0000 0.0000 0.0000 -7.3151 0.0000 19.8259
#
#
#
# Elastic Compliance Matrix: (Units=1/GPa)
#
#
# Indices 1 2 3 4 5 6 
#
# 1 0.017385 -0.007787 0.002077 0.000000 0.001072 0.000000
# 2 -0.007787 0.018660 -0.005722 0.000000 0.002355 0.000000
# 3 0.002077 -0.005722 0.017530 0.000000 0.005745 0.000000
# 4 0.000000 0.000000 0.000000 0.058721 0.000000 0.021666
# 5 0.001072 0.002355 0.005745 0.000000 0.038442 0.000000
# 6 0.000000 0.000000 0.000000 0.021666 0.000000 0.058433
#
#
# Mechanical properties :
#
#
# Convention : Reuss Voigt Hill
#
# Bulk Modulus (GPa) = 32.56054 36.82717 34.69385
# Shear Modulus (GPa) = 20.63815 24.03328 22.33572
#
# Velocity S-wave (km/s) = 3.18229 3.43409 3.31058
# Velocity P-wave (km/s) = 5.42954 5.81332 5.62470
#
# Compressibility (1/GPa) = 0.03071202
#
# Stress axis : x y z
#
# Youngs Moduli (GPa) = 57.52225 53.59032 57.04639
#
# Poissons Ratio (x) = 0.41729 -0.11848
# Poissons Ratio (y) = 0.44790 0.32639
# Poissons Ratio (z) = -0.11947 0.30662
#
# Static dielectric constant tensor:
#      x y z
#    x 1.834350 0.000000 0.004990 
#    y 0.000000 1.728320 0.000000 
#    z 0.004990 0.000000 1.702820 
# 
# From -- ./inp_files/66589.got.cif
#   From: 2010.05.17/outbox.cif.g08.bks.cpg/sg11_34_cif.got.tgz:66589.got - 2010.06.03 12:22:45.
