data_PCOD9159320
_publ_section_title
;
Structure prediction by ZEFSAII (Michael W. Deem and Ramdas Pophale) SiO2 
 PCOD9159320
Probable space group: P 21/M
;
_chemical_formula_sum "Si O2"
_cell_formula_units_Z 24
_cell_length_a 17.131113
_cell_length_b 8.748468
_cell_length_c 14.394612
_cell_angle_alpha 90.000000
_cell_angle_beta 152.738249
_cell_angle_gamma 90.000000
_cell_volume 988.180664
_symmetry_space_group_name_H-M "P 21/M"
_symmetry_group_IT_number 11
_symmetry_cell_setting 'monoclinic'
loop_
_space_group_symop_operation_xyz
x,y,z
-x,1/2+y,-z
-x,-y,-z
x,1/2-y,z
loop_
_atom_site_type_symbol
_atom_site_label
_atom_site_fract_x
_atom_site_fract_y
_atom_site_fract_z
Si Si1 0.071899 0.072799 0.797140
Si Si2 0.623023 0.573698 0.393319
Si Si3 0.700345 0.075676 0.810518
Si Si4 0.400501 0.425727 0.004332
Si Si5 0.147061 0.064864 0.588144
Si Si6 0.829628 0.931277 0.776869
O O1 0.039241 0.250000 0.785692
O O2 0.233487 0.072243 0.896167
O O3 0.912697 0.997966 0.574713
O O4 0.142449 0.977648 0.958407
O O5 0.665372 0.750000 0.417981
O O6 0.463280 0.570765 0.296308
O O7 0.769269 0.503112 0.613706
O O8 0.546938 0.504967 0.219058
O O9 0.725392 0.250000 0.806013
O O10 0.693860 0.968316 0.714245
O O11 0.448687 0.250000 0.040637
O O12 0.320795 0.487701 0.823500
O O13 0.144510 0.250000 0.585820
O O14 0.000000 0.000000 0.500000
O O15 0.844472 0.750000 0.782489
O O16 0.000000 0.000000 0.000000
#
# Coordination Sequence:
#
# PCOD9159320 Si02
#       6
#     4   4   4   4   4   4
#     4   9  16  26  41  65  96 130 163 199 240 287
#     4   9  19  33  51  74 100 129 165 205 247 293
#     4  10  19  33  53  76 100 130 164 204 250 295
#     4   8  15  25  40  64  95 128 162 198 240 285
#     4   9  15  23  36  60  94 130 163 198 239 286
#     4  11  23  38  53  73  99 129 165 206 249 298
#
# _framework density 24.287057999999998
#
# number of rings (size 3 to 8) (size 9 to 14) (size 15 to 20)
#    0.000    2.667    0.000    3.500    0.000    6.667 
#    0.000    0.000    0.000    0.000    0.000    1.167 
#    0.000    0.000    0.000    0.000    0.000    0.000 
#
# Total GULP energy -134205.909002 kJ/mol
# GULP energy per Si atom -5591.912875 kJ/mol
# Density = 2.423178 g / cm^3
# Si number density = 24.287058 Si / 1000 Ang^3
#
#
#
# Elastic Constant Matrix: (Units=GPa)
#
#
# Indices 1 2 3 4 5 6 
#
# 1 94.5264 2.1022 34.1798 0.0000 -27.0682 0.0000
# 2 2.1022 73.0494 56.6246 0.0000 -14.3756 0.0000
# 3 34.1798 56.6246 229.3309 0.0000 -33.0976 0.0000
# 4 0.0000 0.0000 0.0000 35.1730 0.0000 -8.7554
# 5 -27.0682 -14.3756 -33.0976 0.0000 55.3825 0.0000
# 6 0.0000 0.0000 0.0000 -8.7554 0.0000 21.8792
#
#
#
# Elastic Compliance Matrix: (Units=1/GPa)
#
#
# Indices 1 2 3 4 5 6 
#
# 1 0.012764 0.001981 -0.001551 0.000000 0.005826 0.000000
# 2 0.001981 0.017458 -0.004172 0.000000 0.003007 0.000000
# 3 -0.001551 -0.004172 0.005862 0.000000 0.001662 0.000000
# 4 0.000000 0.000000 0.000000 0.031576 0.000000 0.012636
# 5 0.005826 0.003007 0.001662 0.000000 0.022677 0.000000
# 6 0.000000 0.000000 0.000000 0.012636 0.000000 0.050762
#
#
# Mechanical properties :
#
#
# Convention : Reuss Voigt Hill
#
# Bulk Modulus (GPa) = 34.96416 64.74666 49.85541
# Shear Modulus (GPa) = 31.62239 42.75360 37.18800
#
# Velocity S-wave (km/s) = 3.61227 4.20020 3.91728
# Velocity P-wave (km/s) = 5.64141 7.08795 6.40564
#
# Compressibility (1/GPa) = 0.02860071
#
# Stress axis : x y z
#
# Youngs Moduli (GPa) = 78.34523 57.28056 170.60100
#
# Poissons Ratio (x) = -0.11349 0.26456
# Poissons Ratio (y) = -0.15522 0.71174
# Poissons Ratio (z) = 0.12149 0.23897
#
# Static dielectric constant tensor:
#      x y z
#    x 2.083490 0.000000 0.064170 
#    y 0.000000 1.757100 0.000000 
#    z 0.064170 0.000000 1.962590 
# 
# From -- ./inp_files/20528.got.cif
#   From: 2010.05.17/outbox.cif.g08.bks.cpg/sg11_11_cif.got.tgz:20528.got - 2010.06.03 12:22:45.
