data_PCOD9159256
_publ_section_title
;
Structure prediction by ZEFSAII (Michael W. Deem and Ramdas Pophale) SiO2 
 PCOD9159256
Probable space group: P 21/M
;
_chemical_formula_sum "Si O2"
_cell_formula_units_Z 32
_cell_length_a 22.937977
_cell_length_b 7.784910
_cell_length_c 14.741983
_cell_angle_alpha 90.000000
_cell_angle_beta 142.621729
_cell_angle_gamma 90.000000
_cell_volume 1598.109821
_symmetry_space_group_name_H-M "P 21/M"
_symmetry_group_IT_number 11
_symmetry_cell_setting 'monoclinic'
loop_
_space_group_symop_operation_xyz
x,y,z
-x,1/2+y,-z
-x,-y,-z
x,1/2-y,z
loop_
_atom_site_type_symbol
_atom_site_label
_atom_site_fract_x
_atom_site_fract_y
_atom_site_fract_z
Si Si1 0.083938 0.544987 0.957743
Si Si2 0.320446 0.452040 0.929027
Si Si3 0.875429 0.549618 0.653942
Si Si4 0.388442 0.045515 0.364475
Si Si5 0.475846 0.454346 0.865877
Si Si6 0.749779 0.541792 0.967247
Si Si7 0.726824 0.961500 0.331754
Si Si8 0.777260 0.453188 0.710775
O O1 0.077375 0.750000 0.963630
O O2 0.977089 0.473792 0.811740
O O3 0.149059 0.511081 0.950390
O O4 0.145155 0.478205 0.119209
O O5 0.298583 0.250000 0.898561
O O6 0.288560 0.521432 0.790956
O O7 0.435834 0.470059 0.080804
O O8 0.270481 0.524041 0.956803
O O9 0.894090 0.750000 0.657547
O O10 0.822940 0.478196 0.500068
O O11 0.800899 0.537484 0.644547
O O12 0.380735 0.250000 0.355696
O O13 0.331550 0.981379 0.204712
O O14 0.500000 0.000000 0.500000
O O15 0.327425 0.981646 0.375366
O O16 0.478696 0.250000 0.857400
O O17 0.365977 0.513745 0.722743
O O18 0.500000 0.500000 0.000000
O O19 0.745927 0.750000 0.964510
O O20 0.725601 0.750000 0.329044
O O21 0.791090 0.250000 0.716844
#
# Coordination Sequence:
#
# PCOD9159256 Si02
#       8
#     4   4   4   4   4   4   4   4
#     4   9  19  34  52  72  97 127 163 204 247 293
#     4   9  17  32  51  71  95 128 164 199 237 285
#     4  10  19  33  52  74  98 128 163 204 250 293
#     4  10  20  35  53  76 104 133 162 199 242 288
#     4   9  16  28  46  68  93 125 159 194 234 281
#     4   9  19  34  53  73  97 130 167 201 240 288
#     4   8  16  30  48  70  98 127 159 196 241 289
#     4  10  20  34  51  74 100 130 165 201 242 293
#
# _framework density 20.023655999999999
#
# number of rings (size 3 to 8) (size 9 to 14) (size 15 to 20)
#    0.000    2.750    0.000    2.250    0.000    3.000 
#    0.000    6.250    0.000    0.000    0.000    0.000 
#    0.000    0.000    0.000    0.000    0.000    0.000 
#
# Total GULP energy -178385.085030 kJ/mol
# GULP energy per Si atom -5574.533907 kJ/mol
# Density = 1.997808 g / cm^3
# Si number density = 20.023656 Si / 1000 Ang^3
#
#
#
# Elastic Constant Matrix: (Units=GPa)
#
#
# Indices 1 2 3 4 5 6 
#
# 1 79.5212 -11.5111 35.8569 0.0000 -3.7832 0.0000
# 2 -11.5111 24.3648 -0.3101 0.0000 -2.8068 0.0000
# 3 35.8569 -0.3101 86.6215 0.0000 17.4154 0.0000
# 4 0.0000 0.0000 0.0000 10.2956 0.0000 3.8221
# 5 -3.7832 -2.8068 17.4154 0.0000 21.3013 0.0000
# 6 0.0000 0.0000 0.0000 3.8221 0.0000 20.2806
#
#
#
# Elastic Compliance Matrix: (Units=1/GPa)
#
#
# Indices 1 2 3 4 5 6 
#
# 1 0.019706 0.010764 -0.010899 0.000000 0.013829 0.000000
# 2 0.010764 0.047650 -0.007099 0.000000 0.013994 0.000000
# 3 -0.010899 -0.007099 0.019875 0.000000 -0.019120 0.000000
# 4 0.000000 0.000000 0.000000 0.104435 0.000000 -0.019682
# 5 0.013829 0.013994 -0.019120 0.000000 0.066878 0.000000
# 6 0.000000 0.000000 0.000000 -0.019682 0.000000 0.053018
#
#
# Mechanical properties :
#
#
# Convention : Reuss Voigt Hill
#
# Bulk Modulus (GPa) = 13.74311 26.50878 20.12595
# Shear Modulus (GPa) = 14.27415 21.47362 17.87389
#
# Velocity S-wave (km/s) = 2.67285 3.27832 2.99095
# Velocity P-wave (km/s) = 4.05016 5.25332 4.69048
#
# Compressibility (1/GPa) = 0.07276372
#
# Stress axis : x y z
#
# Youngs Moduli (GPa) = 50.74631 20.98630 50.31475
#
# Poissons Ratio (x) = -0.22590 0.54838
# Poissons Ratio (y) = -0.54625 0.35718
# Poissons Ratio (z) = 0.55309 0.14898
#
# Static dielectric constant tensor:
#      x y z
#    x 1.699640 0.000000 0.004730 
#    y 0.000000 1.727890 0.000000 
#    z 0.004730 0.000000 1.746350 
# 
# From -- ./inp_files/42761.got.cif
#   From: 2010.05.17/outbox.cif.g08.bks.cpg/sg11_22_cif.got.tgz:42761.got - 2010.06.03 12:22:45.
