data_PCOD9159701
_publ_section_title
;
Structure prediction by ZEFSAII (Michael W. Deem and Ramdas Pophale) SiO2 
 PCOD9159701
Probable space group: P 21/M
;
_chemical_formula_sum "Si O2"
_cell_formula_units_Z 28
_cell_length_a 30.661540
_cell_length_b 8.729606
_cell_length_c 10.436733
_cell_angle_alpha 90.000000
_cell_angle_beta 33.556838
_cell_angle_gamma 90.000000
_cell_volume 1544.162072
_symmetry_space_group_name_H-M "P 21/M"
_symmetry_group_IT_number 11
_symmetry_cell_setting 'monoclinic'
loop_
_space_group_symop_operation_xyz
x,y,z
-x,1/2+y,-z
-x,-y,-z
x,1/2-y,z
loop_
_atom_site_type_symbol
_atom_site_label
_atom_site_fract_x
_atom_site_fract_y
_atom_site_fract_z
Si Si1 0.238327 0.566702 0.910564
Si Si2 0.160806 0.432907 0.356096
Si Si3 0.998930 0.433292 0.146197
Si Si4 0.823838 0.567478 0.201825
Si Si5 0.416157 0.431718 0.865384
Si Si6 0.737777 0.068555 0.658143
Si Si7 0.593348 0.433292 0.394130
O O1 0.229842 0.750000 0.923832
O O2 0.204879 0.490633 0.864979
O O3 0.331023 0.531211 0.705151
O O4 0.193465 0.505486 0.145743
O O5 0.162775 0.250000 0.343431
O O6 0.215261 0.487827 0.340810
O O7 0.072955 0.491039 0.601809
O O8 0.987518 0.250000 0.168284
O O9 0.083532 0.465095 0.002788
O O10 0.000000 0.500000 0.000000
O O11 0.813059 0.750000 0.239168
O O12 0.775327 0.486394 0.433576
O O13 0.404788 0.250000 0.907480
O O14 0.508210 0.469043 0.663364
O O15 0.400758 0.479630 0.755427
O O16 0.353221 0.519810 0.105375
O O17 0.746056 0.250000 0.652117
O O18 0.594254 0.250000 0.364592
#
# Coordination Sequence:
#
# PCOD9159701 Si02
#       7
#     4   4   4   4   4   4   4
#     4  11  23  41  63  90 125 163 202 247 304 363
#     4  12  24  39  63  92 122 159 203 251 301 358
#     4  11  23  40  64  91 121 157 202 252 303 357
#     4  11  25  43  63  89 122 160 202 249 305 364
#     4  10  19  33  58  90 121 155 201 251 299 352
#     4  12  23  38  61  90 122 159 204 250 302 361
#     4   9  19  35  57  87 122 159 199 247 299 355
#
# _framework density 18.132809999999999
#
# number of rings (size 3 to 8) (size 9 to 14) (size 15 to 20)
#    0.000    1.143    2.857    4.286    0.000    3.429 
#    0.000    0.714    0.000    0.000    0.000    0.000 
#    0.000    0.000    0.000    0.000    0.000    0.000 
#
# Total GULP energy -156548.339785 kJ/mol
# GULP energy per Si atom -5591.012135 kJ/mol
# Density = 1.809154 g / cm^3
# Si number density = 18.132810 Si / 1000 Ang^3
#
#
#
# Elastic Constant Matrix: (Units=GPa)
#
#
# Indices 1 2 3 4 5 6 
#
# 1 100.2039 26.2914 38.2691 0.0000 -9.2607 0.0000
# 2 26.2914 57.1455 23.2573 0.0000 -18.8264 0.0000
# 3 38.2691 23.2573 102.0332 0.0000 -16.6220 0.0000
# 4 0.0000 0.0000 0.0000 32.6144 0.0000 5.8846
# 5 -9.2607 -18.8264 -16.6220 0.0000 29.7166 0.0000
# 6 0.0000 0.0000 0.0000 5.8846 0.0000 26.1009
#
#
#
# Elastic Compliance Matrix: (Units=1/GPa)
#
#
# Indices 1 2 3 4 5 6 
#
# 1 0.012546 -0.004584 -0.003847 0.000000 -0.001146 0.000000
# 2 -0.004584 0.024678 -0.001751 0.000000 0.013226 0.000000
# 3 -0.003847 -0.001751 0.012396 0.000000 0.004626 0.000000
# 4 0.000000 0.000000 0.000000 0.031961 0.000000 -0.007206
# 5 -0.001146 0.013226 0.004626 0.000000 0.044261 0.000000
# 6 0.000000 0.000000 0.000000 -0.007206 0.000000 0.039938
#
#
# Mechanical properties :
#
#
# Convention : Reuss Voigt Hill
#
# Bulk Modulus (GPa) = 34.18155 48.33534 41.25845
# Shear Modulus (GPa) = 25.52363 29.12402 27.32382
#
# Velocity S-wave (km/s) = 3.75586 4.01203 3.88606
# Velocity P-wave (km/s) = 6.14005 6.94089 6.55272
#
# Compressibility (1/GPa) = 0.02925555
#
# Stress axis : x y z
#
# Youngs Moduli (GPa) = 79.70800 40.52157 80.66818
#
# Poissons Ratio (x) = 0.18575 0.31036
# Poissons Ratio (y) = 0.36537 0.14126
# Poissons Ratio (z) = 0.30667 0.07096
#
# Static dielectric constant tensor:
#      x y z
#    x 1.593600 0.000000 -0.030790 
#    y 0.000000 1.606650 0.000000 
#    z -0.030790 0.000000 1.610700 
# 
# From -- ./inp_files/28274.got.cif
#   From: 2010.05.17/outbox.cif.g08.bks.cpg/sg11_15_cif.got.tgz:28274.got - 2010.06.03 12:22:45.
