data_PCOD9159213
_publ_section_title
;
Structure prediction by ZEFSAII (Michael W. Deem and Ramdas Pophale) SiO2 
 PCOD9159213
Probable space group: P 21/M
;
_chemical_formula_sum "Si O2"
_cell_formula_units_Z 32
_cell_length_a 9.226933
_cell_length_b 11.542555
_cell_length_c 15.712089
_cell_angle_alpha 90.000000
_cell_angle_beta 93.588666
_cell_angle_gamma 90.000000
_cell_volume 1670.093628
_symmetry_space_group_name_H-M "P 21/M"
_symmetry_group_IT_number 11
_symmetry_cell_setting 'monoclinic'
loop_
_space_group_symop_operation_xyz
x,y,z
-x,1/2+y,-z
-x,-y,-z
x,1/2-y,z
loop_
_atom_site_type_symbol
_atom_site_label
_atom_site_fract_x
_atom_site_fract_y
_atom_site_fract_z
Si Si1 0.114989 0.884954 0.198608
Si Si2 0.036065 0.873236 0.601372
Si Si3 0.638422 0.881212 0.322304
Si Si4 0.405073 0.884977 0.100474
Si Si5 0.854233 0.041471 0.221902
Si Si6 0.766197 0.953969 0.498460
Si Si7 0.408130 0.619274 0.896322
Si Si8 0.674442 0.386953 0.641552
O O1 0.072053 0.750000 0.194718
O O2 0.248256 0.900849 0.138600
O O3 0.183962 0.907821 0.295000
O O4 0.976595 0.965434 0.180040
O O5 0.096232 0.750000 0.574728
O O6 0.062212 0.885878 0.702566
O O7 0.870441 0.881728 0.564442
O O8 0.125438 0.970492 0.555718
O O9 0.658995 0.750000 0.295226
O O10 0.673423 0.888143 0.424605
O O11 0.469583 0.914489 0.309585
O O12 0.746197 0.959757 0.272671
O O13 0.453056 0.750000 0.125721
O O14 0.502119 0.000674 0.123288
O O15 0.392452 0.883834 0.997735
O O16 0.748103 0.108580 0.154872
O O17 0.678032 0.038290 0.556834
O O18 0.468164 0.750000 0.876915
O O19 0.669183 0.250000 0.622866
#
# Coordination Sequence:
#
# PCOD9159213 Si02
#       8
#     4   4   4   4   4   4   4   4
#     4  10  20  35  57  84 115 149 193 242 287 342
#     4  10  20  33  49  72 104 141 181 225 283 340
#     4  10  21  34  53  79 107 143 190 242 284 331
#     4   9  20  40  65  90 117 153 193 236 286 344
#     4  11  21  35  55  80 116 149 187 228 284 343
#     4  10  19  33  51  73 100 142 183 236 282 336
#     4  10  21  39  63  90 121 153 189 235 290 350
#     4  10  19  33  52  76 106 140 183 236 289 337
#
# _framework density 19.160602000000001
#
# number of rings (size 3 to 8) (size 9 to 14) (size 15 to 20)
#    0.000    2.000    1.250    2.625    0.000    2.500 
#    0.000    1.250    0.000    3.000    0.000    0.000 
#    0.000    0.000    0.000    0.000    0.000    0.000 
#
# Total GULP energy -178304.119874 kJ/mol
# GULP energy per Si atom -5572.003746 kJ/mol
# Density = 1.911699 g / cm^3
# Si number density = 19.160602 Si / 1000 Ang^3
#
#
#
# Elastic Constant Matrix: (Units=GPa)
#
#
# Indices 1 2 3 4 5 6 
#
# 1 64.6061 45.3031 16.3697 0.0000 7.3531 0.0000
# 2 45.3031 99.8317 36.9730 0.0000 5.1698 0.0000
# 3 16.3697 36.9730 63.5370 0.0000 7.9866 0.0000
# 4 0.0000 0.0000 0.0000 21.6771 0.0000 -2.7853
# 5 7.3531 5.1698 7.9866 0.0000 28.4264 0.0000
# 6 0.0000 0.0000 0.0000 -2.7853 0.0000 28.1521
#
#
#
# Elastic Compliance Matrix: (Units=1/GPa)
#
#
# Indices 1 2 3 4 5 6 
#
# 1 0.023195 -0.010568 0.000711 0.000000 -0.004278 0.000000
# 2 -0.010568 0.017585 -0.007725 0.000000 0.001706 0.000000
# 3 0.000711 -0.007725 0.020626 0.000000 -0.004574 0.000000
# 4 0.000000 0.000000 0.000000 0.046726 0.000000 0.004623
# 5 -0.004278 0.001706 -0.004574 0.000000 0.037260 0.000000
# 6 0.000000 0.000000 0.000000 0.004623 0.000000 0.035979
#
#
# Mechanical properties :
#
#
# Convention : Reuss Voigt Hill
#
# Bulk Modulus (GPa) = 38.10463 47.25183 42.67823
# Shear Modulus (GPa) = 22.19450 24.27306 23.23378
#
# Velocity S-wave (km/s) = 3.40713 3.56310 3.48599
# Velocity P-wave (km/s) = 5.95048 6.45307 6.20686
#
# Compressibility (1/GPa) = 0.02624353
#
# Stress axis : x y z
#
# Youngs Moduli (GPa) = 43.11181 56.86658 48.48334
#
# Poissons Ratio (x) = 0.60096 -0.03448
# Poissons Ratio (y) = 0.45560 0.37452
# Poissons Ratio (z) = -0.03066 0.43927
#
# Static dielectric constant tensor:
#      x y z
#    x 1.661020 0.000000 0.033620 
#    y 0.000000 1.685580 0.000000 
#    z 0.033620 0.000000 1.679530 
# 
# From -- ./inp_files/47203.got.cif
#   From: 2010.05.17/outbox.cif.g08.bks.cpg/sg11_24_cif.got.tgz:47203.got - 2010.06.03 12:22:45.
