data_PCOD9159474
_publ_section_title
;
Structure prediction by ZEFSAII (Michael W. Deem and Ramdas Pophale) SiO2 
 PCOD9159474
Probable space group: P 21/M
;
_chemical_formula_sum "Si O2"
_cell_formula_units_Z 32
_cell_length_a 15.686656
_cell_length_b 8.810978
_cell_length_c 25.129633
_cell_angle_alpha 90.000000
_cell_angle_beta 151.435778
_cell_angle_gamma 90.000000
_cell_volume 1660.729516
_symmetry_space_group_name_H-M "P 21/M"
_symmetry_group_IT_number 11
_symmetry_cell_setting 'monoclinic'
loop_
_space_group_symop_operation_xyz
x,y,z
-x,1/2+y,-z
-x,-y,-z
x,1/2-y,z
loop_
_atom_site_type_symbol
_atom_site_label
_atom_site_fract_x
_atom_site_fract_y
_atom_site_fract_z
Si Si1 0.024147 0.419534 0.455827
Si Si2 0.961194 0.932206 0.037310
Si Si3 0.395412 0.066075 0.493516
Si Si4 0.610025 0.418198 0.211678
Si Si5 0.945369 0.432628 0.639260
Si Si6 0.635405 0.930568 0.116984
Si Si7 0.657490 0.433651 0.730813
Si Si8 0.604741 0.430631 0.822628
O O1 0.105961 0.250000 0.506232
O O2 0.820749 0.401785 0.326183
O O3 0.000000 0.500000 0.500000
O O4 0.101670 0.508102 0.446804
O O5 0.948442 0.750000 0.027439
O O6 0.135864 0.973943 0.166985
O O7 0.772817 0.004462 0.947760
O O8 0.000000 0.000000 0.000000
O O9 0.389111 0.250000 0.487081
O O10 0.517487 0.017109 0.610618
O O11 0.500000 0.000000 0.500000
O O12 0.198460 0.002260 0.398594
O O13 0.528230 0.250000 0.166141
O O14 0.562892 0.514990 0.134404
O O15 0.564302 0.505140 0.240359
O O16 0.934404 0.250000 0.633066
O O17 0.151927 0.473286 0.768269
O O18 0.629992 0.750000 0.110009
O O19 0.500000 0.000000 0.000000
O O20 0.651820 0.250000 0.728948
O O21 0.612962 0.485437 0.766228
O O22 0.611684 0.250000 0.826481
#
# Coordination Sequence:
#
# PCOD9159474 Si02
#       8
#     4   4   4   4   4   4   4   4
#     4  10  21  36  57  87 122 159 197 240 290 353
#     4   9  16  31  52  76 106 144 184 231 283 342
#     4  11  23  42  63  87 117 157 205 258 305 357
#     4  10  21  36  54  84 119 152 192 238 286 345
#     4  10  22  41  63  90 121 158 198 248 307 360
#     4  10  21  40  65  89 118 155 196 243 297 356
#     4   8  18  35  56  79 108 149 192 236 297 352
#     4  10  19  33  54  83 116 150 188 237 294 353
#
# _framework density 19.268640000000001
#
# number of rings (size 3 to 8) (size 9 to 14) (size 15 to 20)
#    0.000    2.250    0.000    3.375    1.750    3.000 
#    2.250    6.875    0.000    0.000    0.000    0.000 
#    0.000    0.000    0.000    0.000    0.000    0.000 
#
# Total GULP energy -178256.351123 kJ/mol
# GULP energy per Si atom -5570.510973 kJ/mol
# Density = 1.922478 g / cm^3
# Si number density = 19.268640 Si / 1000 Ang^3
#
#
#
# Elastic Constant Matrix: (Units=GPa)
#
#
# Indices 1 2 3 4 5 6 
#
# 1 113.1271 46.8051 39.7633 0.0000 -0.3516 0.0000
# 2 46.8051 88.8136 37.1671 0.0000 2.6973 0.0000
# 3 39.7633 37.1671 85.4645 0.0000 -8.6704 0.0000
# 4 0.0000 0.0000 0.0000 27.1740 0.0000 3.1453
# 5 -0.3516 2.6973 -8.6704 0.0000 24.5572 0.0000
# 6 0.0000 0.0000 0.0000 3.1453 0.0000 32.4150
#
#
#
# Elastic Compliance Matrix: (Units=1/GPa)
#
#
# Indices 1 2 3 4 5 6 
#
# 1 0.012108 -0.004869 -0.003572 0.000000 -0.000553 0.000000
# 2 -0.004869 0.016066 -0.005090 0.000000 -0.003631 0.000000
# 3 -0.003572 -0.005090 0.016208 0.000000 0.006231 0.000000
# 4 0.000000 0.000000 0.000000 0.037218 0.000000 -0.003611
# 5 -0.000553 -0.003631 0.006231 0.000000 0.043312 0.000000
# 6 0.000000 0.000000 0.000000 -0.003611 0.000000 0.031200
#
#
# Mechanical properties :
#
#
# Convention : Reuss Voigt Hill
#
# Bulk Modulus (GPa) = 57.73603 59.43068 58.58336
# Shear Modulus (GPa) = 26.46233 27.74054 27.10144
#
# Velocity S-wave (km/s) = 3.70988 3.79842 3.75441
# Velocity P-wave (km/s) = 6.95555 7.08149 7.01880
#
# Compressibility (1/GPa) = 0.01732021
#
# Stress axis : x y z
#
# Youngs Moduli (GPa) = 82.58967 62.24326 61.69738
#
# Poissons Ratio (x) = 0.30309 0.22038
# Poissons Ratio (y) = 0.40216 0.31402
# Poissons Ratio (z) = 0.29500 0.31680
#
# Static dielectric constant tensor:
#      x y z
#    x 1.668310 0.000000 0.014320 
#    y 0.000000 1.688550 0.000000 
#    z 0.014320 0.000000 1.705320 
# 
# From -- ./inp_files/69068.got.cif
#   From: 2010.05.17/outbox.cif.g08.bks.cpg/sg11_35_cif.got.tgz:69068.got - 2010.06.03 12:22:45.
