data_PCOD9159410
_publ_section_title
;
Structure prediction by ZEFSAII (Michael W. Deem and Ramdas Pophale) SiO2 
 PCOD9159410
Probable space group: P 21/M
;
_chemical_formula_sum "Si O2"
_cell_formula_units_Z 32
_cell_length_a 28.962691
_cell_length_b 7.616847
_cell_length_c 11.950784
_cell_angle_alpha 90.000000
_cell_angle_beta 147.783019
_cell_angle_gamma 90.000000
_cell_volume 1405.533665
_symmetry_space_group_name_H-M "P 21/M"
_symmetry_group_IT_number 11
_symmetry_cell_setting 'monoclinic'
loop_
_space_group_symop_operation_xyz
x,y,z
-x,1/2+y,-z
-x,-y,-z
x,1/2-y,z
loop_
_atom_site_type_symbol
_atom_site_label
_atom_site_fract_x
_atom_site_fract_y
_atom_site_fract_z
Si Si1 0.508843 0.461320 0.386290
Si Si2 0.847185 0.036307 0.137735
Si Si3 0.831090 0.953753 0.361634
Si Si4 0.348224 0.466236 0.905750
Si Si5 0.285499 0.452319 0.545708
Si Si6 0.689868 0.043472 0.660407
Si Si7 0.905526 0.041759 0.855924
Si Si8 0.980143 0.035411 0.237377
O O1 0.500000 0.500000 0.500000
O O2 0.508689 0.250000 0.375899
O O3 0.598992 0.529400 0.519466
O O4 0.428355 0.524711 0.145897
O O5 0.847405 0.250000 0.144080
O O6 0.770564 0.975691 0.898016
O O7 0.937252 0.980195 0.265270
O O8 0.833008 0.964998 0.231725
O O9 0.832226 0.750000 0.398580
O O10 0.741866 0.028253 0.224083
O O11 0.923347 0.031929 0.587431
O O12 0.348810 0.250000 0.907304
O O13 0.343330 0.523893 0.766221
O O14 0.308150 0.250000 0.579667
O O15 0.297442 0.529443 0.446788
O O16 0.183851 0.464104 0.372951
O O17 0.688278 0.250000 0.682264
O O18 0.894061 0.250000 0.827604
O O19 0.916167 0.985006 0.006572
O O20 0.000000 0.000000 0.000000
O O21 0.983876 0.250000 0.244925
#
# Coordination Sequence:
#
# PCOD9159410 Si02
#       8
#     4   4   4   4   4   4   4   4
#     4  10  21  39  63  88 117 153 192 237 296 357
#     4  10  19  34  52  75 110 146 181 229 287 340
#     4  10  19  33  54  78 105 144 188 230 278 337
#     4   9  20  38  57  81 116 150 186 236 297 351
#     4  11  22  38  60  85 114 153 198 241 289 349
#     4  10  21  38  59  83 115 154 190 237 299 351
#     4  11  21  37  58  82 116 158 200 242 290 343
#     4   9  18  33  52  73 107 149 183 223 284 340
#
# _framework density 22.767153
#
# number of rings (size 3 to 8) (size 9 to 14) (size 15 to 20)
#    0.000    2.000    1.250    2.625    0.000    3.500 
#    0.000    5.000    0.000    0.000    0.000    0.000 
#    0.000    0.000    0.000    0.000    0.000    0.000 
#
# Total GULP energy -178763.689889 kJ/mol
# GULP energy per Si atom -5586.365309 kJ/mol
# Density = 2.271533 g / cm^3
# Si number density = 22.767153 Si / 1000 Ang^3
#
#
#
# Elastic Constant Matrix: (Units=GPa)
#
#
# Indices 1 2 3 4 5 6 
#
# 1 67.9081 -9.8268 22.0298 0.0000 7.8764 0.0000
# 2 -9.8268 46.6423 -1.5486 0.0000 4.8057 0.0000
# 3 22.0298 -1.5486 141.9483 0.0000 -0.2680 0.0000
# 4 0.0000 0.0000 0.0000 7.0649 0.0000 -7.4031
# 5 7.8764 4.8057 -0.2680 0.0000 40.5898 0.0000
# 6 0.0000 0.0000 0.0000 -7.4031 0.0000 21.1472
#
#
#
# Elastic Compliance Matrix: (Units=1/GPa)
#
#
# Indices 1 2 3 4 5 6 
#
# 1 0.016518 0.003774 -0.002529 0.000000 -0.003669 0.000000
# 2 0.003774 0.022574 -0.000346 0.000000 -0.003407 0.000000
# 3 -0.002529 -0.000346 0.007435 0.000000 0.000581 0.000000
# 4 0.000000 0.000000 0.000000 0.223547 0.000000 0.078258
# 5 -0.003669 -0.003407 0.000581 0.000000 0.025756 0.000000
# 6 0.000000 0.000000 0.000000 0.078258 0.000000 0.074683
#
#
# Mechanical properties :
#
#
# Convention : Reuss Voigt Hill
#
# Bulk Modulus (GPa) = 20.69320 30.86752 25.78036
# Shear Modulus (GPa) = 12.99296 30.15003 21.57149
#
# Velocity S-wave (km/s) = 2.39150 3.64301 3.08146
# Velocity P-wave (km/s) = 4.09078 5.59310 4.89986
#
# Compressibility (1/GPa) = 0.04832505
#
# Stress axis : x y z
#
# Youngs Moduli (GPa) = 60.54012 44.29779 134.50490
#
# Poissons Ratio (x) = -0.16719 0.34020
# Poissons Ratio (y) = -0.22849 0.04652
# Poissons Ratio (z) = 0.15312 0.01532
#
# Static dielectric constant tensor:
#      x y z
#    x 1.843500 0.000000 0.012330 
#    y 0.000000 1.842720 0.000000 
#    z 0.012330 0.000000 1.854740 
# 
# From -- ./inp_files/45271.got.cif
#   From: 2010.05.17/outbox.cif.g08.bks.cpg/sg11_23_cif.got.tgz:45271.got - 2010.06.03 12:22:45.
