data_PCOD9159631
_publ_section_title
;
Structure prediction by ZEFSAII (Michael W. Deem and Ramdas Pophale) SiO2 
 PCOD9159631
Probable space group: P 21/M
;
_chemical_formula_sum "Si O2"
_cell_formula_units_Z 32
_cell_length_a 12.686122
_cell_length_b 7.572572
_cell_length_c 31.918785
_cell_angle_alpha 90.000000
_cell_angle_beta 28.882363
_cell_angle_gamma 90.000000
_cell_volume 1481.076021
_symmetry_space_group_name_H-M "P 21/M"
_symmetry_group_IT_number 11
_symmetry_cell_setting 'monoclinic'
loop_
_space_group_symop_operation_xyz
x,y,z
-x,1/2+y,-z
-x,-y,-z
x,1/2-y,z
loop_
_atom_site_type_symbol
_atom_site_label
_atom_site_fract_x
_atom_site_fract_y
_atom_site_fract_z
Si Si1 0.765587 0.048195 0.064087
Si Si2 0.796713 0.462418 0.800135
Si Si3 0.506234 0.042996 0.240168
Si Si4 0.878872 0.457582 0.172231
Si Si5 0.347749 0.052757 0.985994
Si Si6 0.114482 0.037067 0.327261
Si Si7 0.380525 0.538244 0.497892
Si Si8 0.765351 0.535593 0.306111
O O1 0.762353 0.250000 0.050425
O O2 0.612410 0.034113 0.157312
O O3 0.704934 0.935521 0.045218
O O4 0.000000 0.000000 0.000000
O O5 0.787805 0.250000 0.806834
O O6 0.794849 0.502351 0.751231
O O7 0.026805 0.523617 0.738792
O O8 0.589453 0.530991 0.899263
O O9 0.480150 0.250000 0.261360
O O10 0.687927 0.967362 0.208593
O O11 0.266967 0.969223 0.312288
O O12 0.901757 0.250000 0.152396
O O13 0.799573 0.474654 0.247048
O O14 0.126208 0.531215 0.081688
O O15 0.369731 0.250000 0.996992
O O16 0.113010 0.250000 0.331619
O O17 0.866503 0.969706 0.415940
O O18 0.500000 0.500000 0.500000
O O19 0.365922 0.750000 0.499005
O O20 0.541164 0.474110 0.405406
O O21 0.765173 0.750000 0.306424
#
# Coordination Sequence:
#
# PCOD9159631 Si02
#       8
#     4   4   4   4   4   4   4   4
#     4  11  19  30  50  77 108 143 181 226 270 316
#     4  10  20  34  54  80 114 143 169 223 281 319
#     4   9  18  33  52  77 110 141 175 222 268 310
#     4  10  21  38  55  73 105 151 191 221 257 316
#     4  10  20  34  52  79 110 143 183 225 271 318
#     4  10  19  33  56  86 111 136 174 221 273 328
#     4  10  20  35  59  85 110 137 172 222 275 326
#     4  10  22  39  54  77 111 144 179 224 274 321
#
# _framework density 21.605915
#
# number of rings (size 3 to 8) (size 9 to 14) (size 15 to 20)
#    0.000    2.000    3.750    0.375    0.000    2.000 
#    0.000    1.250    0.000    0.000    0.000    0.000 
#    0.000    0.000    0.000    0.000    0.000    0.000 
#
# Total GULP energy -178508.119400 kJ/mol
# GULP energy per Si atom -5578.378731 kJ/mol
# Density = 2.155674 g / cm^3
# Si number density = 21.605915 Si / 1000 Ang^3
#
#
#
# Elastic Constant Matrix: (Units=GPa)
#
#
# Indices 1 2 3 4 5 6 
#
# 1 63.0368 5.8931 56.7154 0.0000 -11.9028 0.0000
# 2 5.8931 47.8183 13.1589 0.0000 -1.1244 0.0000
# 3 56.7154 13.1589 170.1672 0.0000 -26.4611 0.0000
# 4 0.0000 0.0000 0.0000 7.3781 0.0000 11.0534
# 5 -11.9028 -1.1244 -26.4611 0.0000 41.3384 0.0000
# 6 0.0000 0.0000 0.0000 11.0534 0.0000 12.2603
#
#
#
# Elastic Compliance Matrix: (Units=1/GPa)
#
#
# Indices 1 2 3 4 5 6 
#
# 1 0.022818 -0.000773 -0.007248 0.000000 0.001909 0.000000
# 2 -0.000773 0.021404 -0.001490 0.000000 -0.000594 0.000000
# 3 -0.007248 -0.001490 0.008970 0.000000 0.003614 0.000000
# 4 0.000000 0.000000 0.000000 -0.386531 0.000000 0.348480
# 5 0.001909 -0.000594 0.003614 0.000000 0.027037 0.000000
# 6 0.000000 0.000000 0.000000 0.348480 0.000000 -0.232610
#
#
# Mechanical properties :
#
#
# Convention : Reuss Voigt Hill
#
# Bulk Modulus (GPa) = 29.26596 48.06191 38.66393
# Shear Modulus (GPa) = -9.83283 25.87903 8.02310
#
# Velocity S-wave (km/s) = -2.13562 3.46464 1.92910
# Velocity P-wave (km/s) = 2.73744 6.18855 4.78496
#
# Compressibility (1/GPa) = 0.03416939
#
# Stress axis : x y z
#
# Youngs Moduli (GPa) = 43.82492 46.72078 111.48749
#
# Poissons Ratio (x) = 0.03609 0.80811
# Poissons Ratio (y) = 0.03386 0.16612
# Poissons Ratio (z) = 0.31766 0.06961
#
# Static dielectric constant tensor:
#      x y z
#    x 1.765890 0.000000 -0.076950 
#    y 0.000000 1.840460 0.000000 
#    z -0.076950 0.000000 1.813890 
# 
# From -- ./inp_files/38281.got.cif
#   From: 2010.05.17/outbox.cif.g08.bks.cpg/sg11_20_cif.got.tgz:38281.got - 2010.06.03 12:22:45.
