data_PCOD9159435
_publ_section_title
;
Structure prediction by ZEFSAII (Michael W. Deem and Ramdas Pophale) SiO2 
 PCOD9159435
Probable space group: P 21/M
;
_chemical_formula_sum "Si O2"
_cell_formula_units_Z 32
_cell_length_a 23.090073
_cell_length_b 7.514808
_cell_length_c 14.913312
_cell_angle_alpha 90.000000
_cell_angle_beta 150.302165
_cell_angle_gamma 90.000000
_cell_volume 1282.023418
_symmetry_space_group_name_H-M "P 21/M"
_symmetry_group_IT_number 11
_symmetry_cell_setting 'monoclinic'
loop_
_space_group_symop_operation_xyz
x,y,z
-x,1/2+y,-z
-x,-y,-z
x,1/2-y,z
loop_
_atom_site_type_symbol
_atom_site_label
_atom_site_fract_x
_atom_site_fract_y
_atom_site_fract_z
Si Si1 0.649532 0.536153 0.093672
Si Si2 0.759313 0.462166 0.417849
Si Si3 0.258133 0.531815 0.402075
Si Si4 0.517371 0.966900 0.746876
Si Si5 0.989768 0.544139 0.273424
Si Si6 0.373948 0.037859 0.286062
Si Si7 0.125897 0.462255 0.712744
Si Si8 0.138924 0.547559 0.071868
O O1 0.646868 0.750000 0.088891
O O2 0.657527 0.488723 0.208701
O O3 0.768113 0.467259 0.204410
O O4 0.548882 0.475843 0.889963
O O5 0.771043 0.250000 0.442764
O O6 0.749593 0.528753 0.505980
O O7 0.881669 0.536778 0.543940
O O8 0.253996 0.750000 0.394438
O O9 0.387688 0.477087 0.545440
O O10 0.162016 0.469840 0.201521
O O11 0.517592 0.750000 0.746762
O O12 0.609773 0.021160 0.795462
O O13 0.000898 0.750000 0.314911
O O14 0.892728 0.469724 0.210665
O O15 0.948997 0.539827 0.116173
O O16 0.352931 0.250000 0.257897
O O17 0.500000 0.000000 0.500000
O O18 0.266135 0.955448 0.194435
O O19 0.148105 0.250000 0.745274
O O20 0.000000 0.500000 0.500000
O O21 0.099607 0.750000 0.028301
#
# Coordination Sequence:
#
# PCOD9159435 Si02
#       8
#     4   4   4   4   4   4   4   4
#     4  10  20  34  56  82 109 144 185 227 275 334
#     4  10  21  38  59  79 108 148 190 235 280 330
#     4   9  19  37  58  80 108 148 191 228 278 338
#     4   9  18  35  58  81 112 150 181 217 278 342
#     4  10  21  37  56  82 113 147 185 230 287 338
#     4  11  20  35  60  87 117 151 186 226 278 337
#     4  10  19  33  54  80 110 144 181 222 279 340
#     4  11  22  37  58  85 113 148 190 232 279 336
#
# _framework density 24.960540999999999
#
# number of rings (size 3 to 8) (size 9 to 14) (size 15 to 20)
#    0.000    2.000    2.500    1.500    0.000    4.000 
#    0.000    3.750    0.000    0.000    0.000    0.000 
#    0.000    0.000    0.000    0.000    0.000    0.000 
#
# Total GULP energy -178831.617135 kJ/mol
# GULP energy per Si atom -5588.488035 kJ/mol
# Density = 2.490373 g / cm^3
# Si number density = 24.960541 Si / 1000 Ang^3
#
#
#
# Elastic Constant Matrix: (Units=GPa)
#
#
# Indices 1 2 3 4 5 6 
#
# 1 77.8498 2.3172 10.2873 0.0000 -41.5943 0.0000
# 2 2.3172 68.4970 -13.8589 0.0000 1.3207 0.0000
# 3 10.2873 -13.8589 92.4789 0.0000 -34.5142 0.0000
# 4 0.0000 0.0000 0.0000 16.4291 0.0000 -3.2470
# 5 -41.5943 1.3207 -34.5142 0.0000 46.7057 0.0000
# 6 0.0000 0.0000 0.0000 -3.2470 0.0000 9.0012
#
#
#
# Elastic Compliance Matrix: (Units=1/GPa)
#
#
# Indices 1 2 3 4 5 6 
#
# 1 0.028935 0.000193 0.008872 0.000000 0.032319 0.000000
# 2 0.000193 0.015157 0.002975 0.000000 0.001941 0.000000
# 3 0.008872 0.002975 0.018212 0.000000 0.021275 0.000000
# 4 0.000000 0.000000 0.000000 0.065541 0.000000 0.023643
# 5 0.032319 0.001941 0.021275 0.000000 0.065859 0.000000
# 6 0.000000 0.000000 0.000000 0.023643 0.000000 0.119626
#
#
# Mechanical properties :
#
#
# Convention : Reuss Voigt Hill
#
# Bulk Modulus (GPa) = 11.57632 26.25743 18.91687
# Shear Modulus (GPa) = 15.72105 30.43252 23.07679
#
# Velocity S-wave (km/s) = 2.51238 3.49553 3.04391
# Velocity P-wave (km/s) = 3.61441 5.18016 4.46643
#
# Compressibility (1/GPa) = 0.08638326
#
# Stress axis : x y z
#
# Youngs Moduli (GPa) = 34.56061 65.97589 54.90796
#
# Poissons Ratio (x) = -0.01274 -0.48714
# Poissons Ratio (y) = -0.00667 -0.16333
# Poissons Ratio (z) = -0.30662 -0.19625
#
# Static dielectric constant tensor:
#      x y z
#    x 2.007220 0.000000 -0.012630 
#    y 0.000000 1.964400 0.000000 
#    z -0.012630 0.000000 1.955820 
# 
# From -- ./inp_files/55770.got.cif
#   From: 2010.05.17/outbox.cif.g08.bks.cpg/sg11_28_cif.got.tgz:55770.got - 2010.06.03 12:22:45.
