data_PCOD9159932
_publ_section_title
;
Structure prediction by ZEFSAII (Michael W. Deem and Ramdas Pophale) SiO2 
 PCOD9159932
Probable space group: P 21/M
;
_chemical_formula_sum "Si O2"
_cell_formula_units_Z 28
_cell_length_a 31.660042
_cell_length_b 8.396567
_cell_length_c 31.672479
_cell_angle_alpha 90.000000
_cell_angle_beta 170.560064
_cell_angle_gamma 90.000000
_cell_volume 1380.940936
_symmetry_space_group_name_H-M "P 21/M"
_symmetry_group_IT_number 11
_symmetry_cell_setting 'monoclinic'
loop_
_space_group_symop_operation_xyz
x,y,z
-x,1/2+y,-z
-x,-y,-z
x,1/2-y,z
loop_
_atom_site_type_symbol
_atom_site_label
_atom_site_fract_x
_atom_site_fract_y
_atom_site_fract_z
Si Si1 0.309913 0.555801 0.549322
Si Si2 0.987452 0.557712 0.890993
Si Si3 0.762534 0.940208 0.237777
Si Si4 0.462071 0.942258 0.415083
Si Si5 0.113055 0.938110 0.732693
Si Si6 0.835250 0.942395 0.025503
Si Si7 0.590203 0.060136 0.256231
O O1 0.306965 0.750000 0.546905
O O2 0.355801 0.504883 0.642628
O O3 0.042165 0.503932 0.264617
O O4 0.549971 0.504146 0.757181
O O5 0.987488 0.750000 0.890518
O O6 0.074371 0.499315 0.931003
O O7 0.703620 0.503702 0.624810
O O8 0.196229 0.503883 0.131629
O O9 0.762244 0.750000 0.236028
O O10 0.794491 0.006374 0.222133
O O11 0.000000 0.000000 0.500000
O O12 0.500000 0.000000 0.000000
O O13 0.461806 0.750000 0.415219
O O14 0.500000 0.000000 0.500000
O O15 0.069464 0.750000 0.689506
O O16 0.845456 0.021865 0.481171
O O17 0.338018 0.981861 0.987446
O O18 0.834324 0.750000 0.024460
O O19 0.547524 0.250000 0.214730
#
# Coordination Sequence:
#
# PCOD9159932 Si02
#       7
#     4   4   4   4   4   4   4
#     4   9  19  35  57  83 112 144 188 239 283 328
#     4  10  21  36  52  76 108 140 171 216 272 328
#     4  12  25  44  67  94 125 163 206 251 304 362
#     4  10  21  36  54  75 103 136 175 218 267 321
#     4  12  25  42  62  92 129 162 200 253 305 357
#     4  10  19  34  56  82 108 142 185 230 275 330
#     4  11  22  41  66  90 119 163 208 249 300 360
#
# _framework density 20.276031
#
# number of rings (size 3 to 8) (size 9 to 14) (size 15 to 20)
#    0.000    1.429    0.000    6.000    0.000    3.429 
#    0.000    4.286    0.000    0.000    0.000    0.000 
#    0.000    0.000    0.000    0.000    0.000    0.000 
#
# Total GULP energy -156627.229111 kJ/mol
# GULP energy per Si atom -5593.829611 kJ/mol
# Density = 2.022988 g / cm^3
# Si number density = 20.276031 Si / 1000 Ang^3
#
#
#
# Elastic Constant Matrix: (Units=GPa)
#
#
# Indices 1 2 3 4 5 6 
#
# 1 49.7894 -2.3753 -33.6861 0.0000 -1.3893 0.0000
# 2 -2.3753 23.3969 -6.6532 0.0000 -7.2621 0.0000
# 3 -33.6861 -6.6532 61.0270 0.0000 -2.2591 0.0000
# 4 0.0000 0.0000 0.0000 24.3177 0.0000 5.3071
# 5 -1.3893 -7.2621 -2.2591 0.0000 44.1679 0.0000
# 6 0.0000 0.0000 0.0000 5.3071 0.0000 22.0100
#
#
#
# Elastic Compliance Matrix: (Units=1/GPa)
#
#
# Indices 1 2 3 4 5 6 
#
# 1 0.034406 0.010449 0.020273 0.000000 0.003837 0.000000
# 2 0.010449 0.049918 0.011548 0.000000 0.009127 0.000000
# 3 0.020273 0.011548 0.028984 0.000000 0.004019 0.000000
# 4 0.000000 0.000000 0.000000 0.043406 0.000000 -0.010466
# 5 0.003837 0.009127 0.004019 0.000000 0.024468 0.000000
# 6 0.000000 0.000000 0.000000 -0.010466 0.000000 0.047958
#
#
# Mechanical properties :
#
#
# Convention : Reuss Voigt Hill
#
# Bulk Modulus (GPa) = 5.05438 5.42044 5.23741
# Shear Modulus (GPa) = 23.74724 29.89430 26.82077
#
# Velocity S-wave (km/s) = 3.42599 3.84391 3.64095
# Velocity P-wave (km/s) = 4.26005 4.73075 4.50156
#
# Compressibility (1/GPa) = 0.19784826
#
# Stress axis : x y z
#
# Youngs Moduli (GPa) = 29.06438 20.03281 34.50134
#
# Poissons Ratio (x) = -0.20932 -0.69945
# Poissons Ratio (y) = -0.30369 -0.39841
# Poissons Ratio (z) = -0.58922 -0.23133
#
# Static dielectric constant tensor:
#      x y z
#    x 1.683690 0.000000 0.003810 
#    y 0.000000 1.691840 0.000000 
#    z 0.003810 0.000000 1.707610 
# 
# From -- ./inp_files/73843.got.cif
#   From: 2010.05.17/outbox.cif.g08.bks.cpg/sg11_37_cif.got.tgz:73843.got - 2010.06.03 12:22:45.
