data_PCOD9159760
_publ_section_title
;
Structure prediction by ZEFSAII (Michael W. Deem and Ramdas Pophale) SiO2 
 PCOD9159760
Probable space group: P 21/M
;
_chemical_formula_sum "Si O2"
_cell_formula_units_Z 28
_cell_length_a 28.036437
_cell_length_b 8.320755
_cell_length_c 9.926654
_cell_angle_alpha 90.000000
_cell_angle_beta 40.257970
_cell_angle_gamma 90.000000
_cell_volume 1496.496309
_symmetry_space_group_name_H-M "P 21/M"
_symmetry_group_IT_number 11
_symmetry_cell_setting 'monoclinic'
loop_
_space_group_symop_operation_xyz
x,y,z
-x,1/2+y,-z
-x,-y,-z
x,1/2-y,z
loop_
_atom_site_type_symbol
_atom_site_label
_atom_site_fract_x
_atom_site_fract_y
_atom_site_fract_z
Si Si1 0.570424 0.555756 0.434575
Si Si2 0.174786 0.565217 0.900743
Si Si3 0.261287 0.945011 0.976144
Si Si4 0.713401 0.931487 0.539845
Si Si5 0.550273 0.568431 0.776000
Si Si6 0.786945 0.443780 0.624177
Si Si7 0.918618 0.444344 0.139079
O O1 0.500000 0.500000 0.500000
O O2 0.572945 0.750000 0.429163
O O3 0.554951 0.491144 0.619130
O O4 0.653157 0.500006 0.215037
O O5 0.155792 0.750000 0.972909
O O6 0.211186 0.494612 0.958014
O O7 0.240068 0.554119 0.650289
O O8 0.108256 0.496501 0.951658
O O9 0.262484 0.750000 0.966369
O O10 0.223185 0.992852 0.199379
O O11 0.743562 0.750000 0.458189
O O12 0.631857 0.930837 0.660225
O O13 0.720802 0.983975 0.677799
O O14 0.524565 0.750000 0.807953
O O15 0.500000 0.500000 0.000000
O O16 0.784055 0.250000 0.626595
O O17 0.860252 0.493982 0.382150
O O18 0.916390 0.250000 0.139300
O O19 0.000000 0.500000 0.000000
#
# Coordination Sequence:
#
# PCOD9159760 Si02
#       7
#     4   4   4   4   4   4   4
#     4  11  24  41  56  79 112 146 185 230 279 328
#     4   9  18  34  57  81 105 140 180 217 265 324
#     4  10  20  37  60  82 107 144 185 227 275 326
#     4  10  19  34  53  77 104 136 179 226 270 313
#     4  10  23  38  53  75 105 139 180 227 273 323
#     4   9  20  36  55  81 110 141 180 221 268 324
#     4   9  18  34  55  81 112 144 178 219 263 317
#
# _framework density 18.710372
#
# number of rings (size 3 to 8) (size 9 to 14) (size 15 to 20)
#    0.000    2.286    1.429    1.714    2.000    5.143 
#    0.000    0.714    0.000    0.000    0.000    0.000 
#    0.000    0.000    0.000    0.000    0.000    0.000 
#
# Total GULP energy -155900.340715 kJ/mol
# GULP energy per Si atom -5567.869311 kJ/mol
# Density = 1.866779 g / cm^3
# Si number density = 18.710372 Si / 1000 Ang^3
#
#
#
# Elastic Constant Matrix: (Units=GPa)
#
#
# Indices 1 2 3 4 5 6 
#
# 1 182.8730 20.1140 78.5685 0.0000 18.8818 0.0000
# 2 20.1140 15.1303 13.2534 0.0000 -0.2829 0.0000
# 3 78.5685 13.2534 89.1176 0.0000 18.2804 0.0000
# 4 0.0000 0.0000 0.0000 17.4951 0.0000 -5.5497
# 5 18.8818 -0.2829 18.2804 0.0000 29.7696 0.0000
# 6 0.0000 0.0000 0.0000 -5.5497 0.0000 24.7228
#
#
#
# Elastic Compliance Matrix: (Units=1/GPa)
#
#
# Indices 1 2 3 4 5 6 
#
# 1 0.009316 -0.006361 -0.006914 0.000000 -0.001724 0.000000
# 2 -0.006361 0.082389 -0.008733 0.000000 0.010180 0.000000
# 3 -0.006914 -0.008733 0.020288 0.000000 -0.008156 0.000000
# 4 0.000000 0.000000 0.000000 0.061541 0.000000 0.013815
# 5 -0.001724 0.010180 -0.008156 0.000000 0.039790 0.000000
# 6 0.000000 0.000000 0.000000 0.013815 0.000000 0.043550
#
#
# Mechanical properties :
#
#
# Convention : Reuss Voigt Hill
#
# Bulk Modulus (GPa) = 14.71069 56.77697 35.74383
# Shear Modulus (GPa) = 15.45363 26.07650 20.76506
#
# Velocity S-wave (km/s) = 2.87703 3.73727 3.33500
# Velocity P-wave (km/s) = 4.34923 7.00243 5.82880
#
# Compressibility (1/GPa) = 0.06797779
#
# Stress axis : x y z
#
# Youngs Moduli (GPa) = 107.33770 12.13761 49.28920
#
# Poissons Ratio (x) = 0.07721 0.34078
# Poissons Ratio (y) = 0.68278 0.43043
# Poissons Ratio (z) = 0.74213 0.10600
#
# Static dielectric constant tensor:
#      x y z
#    x 1.682700 0.000000 0.021140 
#    y 0.000000 1.698150 0.000000 
#    z 0.021140 0.000000 1.625370 
# 
# From -- ./inp_files/28155.got.cif
#   From: 2010.05.17/outbox.cif.g08.bks.cpg/sg11_15_cif.got.tgz:28155.got - 2010.06.03 12:22:45.
