data_PCOD9159527
_publ_section_title
;
Structure prediction by ZEFSAII (Michael W. Deem and Ramdas Pophale) SiO2 
 PCOD9159527
Probable space group: P 21/M
;
_chemical_formula_sum "Si O2"
_cell_formula_units_Z 32
_cell_length_a 12.602985
_cell_length_b 8.758494
_cell_length_c 23.727092
_cell_angle_alpha 90.000000
_cell_angle_beta 44.869443
_cell_angle_gamma 90.000000
_cell_volume 1847.738505
_symmetry_space_group_name_H-M "P 21/M"
_symmetry_group_IT_number 11
_symmetry_cell_setting 'monoclinic'
loop_
_space_group_symop_operation_xyz
x,y,z
-x,1/2+y,-z
-x,-y,-z
x,1/2-y,z
loop_
_atom_site_type_symbol
_atom_site_label
_atom_site_fract_x
_atom_site_fract_y
_atom_site_fract_z
Si Si1 0.949764 0.566701 0.781475
Si Si2 0.356525 0.431658 0.820085
Si Si3 0.187661 0.066688 0.997748
Si Si4 0.858628 0.566704 0.519580
Si Si5 0.316784 0.433364 0.308927
Si Si6 0.662659 0.068668 0.950219
Si Si7 0.969206 0.066241 0.651181
Si Si8 0.875658 0.432760 0.171935
O O1 0.942046 0.750000 0.782768
O O2 0.788470 0.502271 0.861759
O O3 0.987706 0.501576 0.706146
O O4 0.067107 0.524172 0.787089
O O5 0.374743 0.250000 0.812014
O O6 0.247121 0.471035 0.913615
O O7 0.518489 0.507428 0.767857
O O8 0.272947 0.488463 0.795411
O O9 0.203541 0.250000 0.000401
O O10 0.015394 0.028760 0.077695
O O11 0.287036 0.979988 0.006269
O O12 0.865490 0.750000 0.518000
O O13 0.719122 0.523464 0.611951
O O14 0.000000 0.500000 0.500000
O O15 0.892130 0.521390 0.442608
O O16 0.309812 0.250000 0.306215
O O17 0.184722 0.504340 0.319850
O O18 0.661003 0.250000 0.944621
O O19 0.500000 0.000000 0.000000
O O20 0.960323 0.250000 0.657227
O O21 0.855225 0.250000 0.178354
#
# Coordination Sequence:
#
# PCOD9159527 Si02
#       8
#     4   4   4   4   4   4   4   4
#     4  10  21  37  55  77 104 137 176 214 259 315
#     4  11  22  34  53  79 107 136 173 222 266 310
#     4   9  20  37  53  73 102 136 176 218 262 312
#     4   8  16  31  51  75 104 138 171 208 256 309
#     4  10  20  34  52  77 110 143 174 210 259 315
#     4  11  22  35  52  73 103 140 175 216 261 308
#     4  10  19  33  55  82 109 136 172 216 260 312
#     4   9  19  37  56  73  99 136 178 220 261 311
#
# _framework density 17.318466999999998
#
# number of rings (size 3 to 8) (size 9 to 14) (size 15 to 20)
#    0.000    2.250    0.000    3.750    1.750    4.500 
#    0.000    0.000    0.000    0.750    0.000    0.000 
#    0.000    0.000    0.000    0.000    0.000    0.000 
#
# Total GULP energy -178439.158822 kJ/mol
# GULP energy per Si atom -5576.223713 kJ/mol
# Density = 1.727905 g / cm^3
# Si number density = 17.318467 Si / 1000 Ang^3
#
#
#
# Elastic Constant Matrix: (Units=GPa)
#
#
# Indices 1 2 3 4 5 6 
#
# 1 43.6774 27.2294 35.8883 0.0000 8.4228 0.0000
# 2 27.2294 36.8536 28.6262 0.0000 7.6815 0.0000
# 3 35.8883 28.6262 87.9818 0.0000 30.3473 0.0000
# 4 0.0000 0.0000 0.0000 22.1444 0.0000 2.0317
# 5 8.4228 7.6815 30.3473 0.0000 22.7154 0.0000
# 6 0.0000 0.0000 0.0000 2.0317 0.0000 29.0010
#
#
#
# Elastic Compliance Matrix: (Units=1/GPa)
#
#
# Indices 1 2 3 4 5 6 
#
# 1 0.050907 -0.027837 -0.015661 0.000000 0.011460 0.000000
# 2 -0.027837 0.052058 -0.005696 0.000000 0.000327 0.000000
# 3 -0.015661 -0.005696 0.031418 0.000000 -0.034240 0.000000
# 4 0.000000 0.000000 0.000000 0.045450 0.000000 -0.003184
# 5 0.011460 0.000327 -0.034240 0.000000 0.085407 0.000000
# 6 0.000000 0.000000 0.000000 -0.003184 0.000000 0.034705
#
#
# Mechanical properties :
#
#
# Convention : Reuss Voigt Hill
#
# Bulk Modulus (GPa) = 27.78138 39.11117 33.44628
# Shear Modulus (GPa) = 12.18526 19.89008 16.03767
#
# Velocity S-wave (km/s) = 2.65542 3.39261 3.04640
# Velocity P-wave (km/s) = 5.04757 6.16271 5.63280
#
# Compressibility (1/GPa) = 0.03599533
#
# Stress axis : x y z
#
# Youngs Moduli (GPa) = 19.64348 19.20941 31.82893
#
# Poissons Ratio (x) = 0.53473 0.49848
# Poissons Ratio (y) = 0.54681 0.18129
# Poissons Ratio (z) = 0.30764 0.10942
#
# Static dielectric constant tensor:
#      x y z
#    x 1.555090 0.000000 0.018810 
#    y 0.000000 1.581400 0.000000 
#    z 0.018810 0.000000 1.616650 
# 
# From -- ./inp_files/42764.got.cif
#   From: 2010.05.17/outbox.cif.g08.bks.cpg/sg11_22_cif.got.tgz:42764.got - 2010.06.03 12:22:45.
