data_PCOD9159486
_publ_section_title
;
Structure prediction by ZEFSAII (Michael W. Deem and Ramdas Pophale) SiO2 
 PCOD9159486
Probable space group: P 21/M
;
_chemical_formula_sum "Si O2"
_cell_formula_units_Z 28
_cell_length_a 20.781042
_cell_length_b 16.550979
_cell_length_c 23.243563
_cell_angle_alpha 90.000000
_cell_angle_beta 11.955201
_cell_angle_gamma 90.000000
_cell_volume 1656.044442
_symmetry_space_group_name_H-M "P 21/M"
_symmetry_group_IT_number 11
_symmetry_cell_setting 'monoclinic'
loop_
_space_group_symop_operation_xyz
x,y,z
-x,1/2+y,-z
-x,-y,-z
x,1/2-y,z
loop_
_atom_site_type_symbol
_atom_site_label
_atom_site_fract_x
_atom_site_fract_y
_atom_site_fract_z
Si Si1 0.491085 0.345871 0.602817
Si Si2 0.864523 0.939654 0.984048
Si Si3 0.865420 0.560660 0.569139
Si Si4 0.107495 0.344168 0.254868
Si Si5 0.178565 0.045816 0.792975
Si Si6 0.540265 0.344381 0.988567
Si Si7 0.486667 0.434527 0.827165
O O1 0.512441 0.250000 0.591957
O O2 0.334801 0.389765 0.794480
O O3 0.278534 0.368803 0.732795
O O4 0.827802 0.386455 0.298358
O O5 0.673539 0.952364 0.093211
O O6 0.972275 0.025275 0.917710
O O7 0.649656 0.510649 0.714745
O O8 0.000000 0.500000 0.500000
O O9 0.155090 0.601227 0.283912
O O10 0.667226 0.626946 0.776747
O O11 0.111827 0.250000 0.235433
O O12 0.764840 0.371018 0.573025
O O13 0.335618 0.356218 0.109755
O O14 0.237435 0.397019 0.089025
O O15 0.500000 0.000000 0.500000
O O16 0.000000 0.000000 0.000000
O O17 0.618232 0.250000 0.924231
#
# Coordination Sequence:
#
# PCOD9159486 Si02
#       7
#     4   4   4   4   4   4   4
#     4  10  19  33  55  78 103 136 172 205 245 304
#     4  10  21  34  49  76 110 138 167 204 261 311
#     4  12  21  37  57  79 104 136 189 231 255 315
#     4  11  22  35  50  75 107 140 174 214 272 327
#     4   8  16  32  51  71  98 132 168 202 234 291
#     4  11  22  38  57  76 101 136 179 233 277 310
#     4  12  23  34  53  78 107 145 175 218 268 312
#
# _framework density 16.907758999999999
#
# number of rings (size 3 to 8) (size 9 to 14) (size 15 to 20)
#    0.000    1.429    2.857    3.429    0.000    5.714 
#    0.000    0.000    0.000    1.714    0.000    0.000 
#    0.000    0.000    0.000    0.000    0.000    0.000 
#
# Total GULP energy -156258.791213 kJ/mol
# GULP energy per Si atom -5580.671115 kJ/mol
# Density = 1.686928 g / cm^3
# Si number density = 16.907759 Si / 1000 Ang^3
#
#
#
# Elastic Constant Matrix: (Units=GPa)
#
#
# Indices 1 2 3 4 5 6 
#
# 1 85.7798 34.0284 8.9765 0.0000 -20.4158 0.0000
# 2 34.0284 39.8510 4.1210 0.0000 -19.0682 0.0000
# 3 8.9765 4.1210 53.5421 0.0000 16.6457 0.0000
# 4 0.0000 0.0000 0.0000 25.1621 0.0000 6.0756
# 5 -20.4158 -19.0682 16.6457 0.0000 31.1731 0.0000
# 6 0.0000 0.0000 0.0000 6.0756 0.0000 16.3759
#
#
#
# Elastic Compliance Matrix: (Units=1/GPa)
#
#
# Indices 1 2 3 4 5 6 
#
# 1 0.018585 -0.011946 -0.004447 0.000000 0.007239 0.000000
# 2 -0.011946 0.050041 -0.010711 0.000000 0.028505 0.000000
# 3 -0.004447 -0.010711 0.027805 0.000000 -0.024311 0.000000
# 4 0.000000 0.000000 0.000000 0.043653 0.000000 -0.016196
# 5 0.007239 0.028505 -0.024311 0.000000 0.067238 0.000000
# 6 0.000000 0.000000 0.000000 -0.016196 0.000000 0.067074
#
#
# Mechanical properties :
#
#
# Convention : Reuss Voigt Hill
#
# Bulk Modulus (GPa) = 23.68339 30.38052 27.03196
# Shear Modulus (GPa) = 14.59098 23.34535 18.96817
#
# Velocity S-wave (km/s) = 2.94083 3.71987 3.35305
# Velocity P-wave (km/s) = 5.05659 6.03799 5.56895
#
# Compressibility (1/GPa) = 0.04222369
#
# Stress axis : x y z
#
# Youngs Moduli (GPa) = 53.80732 19.98360 35.96480
#
# Poissons Ratio (x) = 0.23872 0.15993
# Poissons Ratio (y) = 0.64277 0.38521
# Poissons Ratio (z) = 0.23927 0.21404
#
# Static dielectric constant tensor:
#      x y z
#    x 1.574540 0.000000 -0.005580 
#    y 0.000000 1.559130 0.000000 
#    z -0.005580 0.000000 1.567730 
# 
# From -- ./inp_files/69880.got.cif
#   From: 2010.05.17/outbox.cif.g08.bks.cpg/sg11_35_cif.got.tgz:69880.got - 2010.06.03 12:22:45.
