data_PCOD9159101
_publ_section_title
;
Structure prediction by ZEFSAII (Michael W. Deem and Ramdas Pophale) SiO2 
 PCOD9159101
Probable space group: P 21/M
;
_chemical_formula_sum "Si O2"
_cell_formula_units_Z 28
_cell_length_a 22.170707
_cell_length_b 8.159848
_cell_length_c 25.082030
_cell_angle_alpha 90.000000
_cell_angle_beta 162.291348
_cell_angle_gamma 90.000000
_cell_volume 1380.227084
_symmetry_space_group_name_H-M "P 21/M"
_symmetry_group_IT_number 11
_symmetry_cell_setting 'monoclinic'
loop_
_space_group_symop_operation_xyz
x,y,z
-x,1/2+y,-z
-x,-y,-z
x,1/2-y,z
loop_
_atom_site_type_symbol
_atom_site_label
_atom_site_fract_x
_atom_site_fract_y
_atom_site_fract_z
Si Si1 0.931213 0.559389 0.072651
Si Si2 0.168389 0.948142 0.599876
Si Si3 0.445649 0.052001 0.014048
Si Si4 0.176531 0.948928 0.380260
Si Si5 0.621575 0.438394 0.732868
Si Si6 0.715490 0.939340 0.700313
Si Si7 0.004039 0.549603 0.348065
O O1 0.877262 0.750000 0.032514
O O2 0.016731 0.499611 0.201138
O O3 0.113856 0.539825 0.185350
O O4 0.745563 0.467444 0.890884
O O5 0.171514 0.750000 0.601444
O O6 0.381025 0.005994 0.800510
O O7 0.111362 0.005018 0.492667
O O8 0.000000 0.000000 0.500000
O O9 0.444024 0.250000 0.014225
O O10 0.224996 0.995711 0.842850
O O11 0.500000 0.000000 0.000000
O O12 0.184731 0.750000 0.385502
O O13 0.110789 0.001768 0.383718
O O14 0.393513 0.012975 0.548237
O O15 0.634868 0.250000 0.727766
O O16 0.717727 0.541232 0.765834
O O17 0.742063 0.750000 0.707952
O O18 0.500000 0.000000 0.500000
O O19 0.004396 0.750000 0.348488
#
# Coordination Sequence:
#
# PCOD9159101 Si02
#       7
#     4   4   4   4   4   4   4
#     4  11  23  40  64  92 123 160 207 256 305 361
#     4  10  19  32  55  84 114 146 187 234 290 349
#     4  10  19  32  54  83 112 146 186 233 290 347
#     4  10  22  41  64  87 116 158 207 253 301 360
#     4  12  25  41  63  90 125 163 203 252 308 366
#     4  12  23  39  64  94 126 160 203 253 308 361
#     4   9  19  36  57  84 115 149 193 244 293 351
#
# _framework density 20.286515999999999
#
# number of rings (size 3 to 8) (size 9 to 14) (size 15 to 20)
#    0.000    1.429    2.857    3.429    0.000    1.714 
#    0.000    5.714    0.000    1.714    0.000    0.000 
#    0.000    0.000    0.000    0.000    0.000    0.000 
#
# Total GULP energy -156533.875225 kJ/mol
# GULP energy per Si atom -5590.495544 kJ/mol
# Density = 2.024034 g / cm^3
# Si number density = 20.286516 Si / 1000 Ang^3
#
#
#
# Elastic Constant Matrix: (Units=GPa)
#
#
# Indices 1 2 3 4 5 6 
#
# 1 113.8492 -5.4800 29.0557 0.0000 -24.3444 0.0000
# 2 -5.4800 24.3586 3.2411 0.0000 -4.8923 0.0000
# 3 29.0557 3.2411 104.5299 0.0000 -36.4659 0.0000
# 4 0.0000 0.0000 0.0000 24.7524 0.0000 3.1746
# 5 -24.3444 -4.8923 -36.4659 0.0000 31.5714 0.0000
# 6 0.0000 0.0000 0.0000 3.1746 0.0000 19.6953
#
#
#
# Elastic Compliance Matrix: (Units=1/GPa)
#
#
# Indices 1 2 3 4 5 6 
#
# 1 0.010935 0.004287 0.000001 0.000000 0.009098 0.000000
# 2 0.004287 0.044220 0.001643 0.000000 0.012056 0.000000
# 3 0.000001 0.001643 0.016086 0.000000 0.018836 0.000000
# 4 0.000000 0.000000 0.000000 0.041253 0.000000 -0.006649
# 5 0.009098 0.012056 0.018836 0.000000 0.062313 0.000000
# 6 0.000000 0.000000 0.000000 -0.006649 0.000000 0.051845
#
#
# Mechanical properties :
#
#
# Convention : Reuss Voigt Hill
#
# Bulk Modulus (GPa) = 12.03307 32.93015 22.48161
# Shear Modulus (GPa) = 20.61923 29.59855 25.10889
#
# Velocity S-wave (km/s) = 3.19156 3.82386 3.52193
# Velocity P-wave (km/s) = 4.41881 5.98027 5.25783
#
# Compressibility (1/GPa) = 0.08310429
#
# Stress axis : x y z
#
# Youngs Moduli (GPa) = 91.45016 22.61396 62.16469
#
# Poissons Ratio (x) = -0.09695 -0.00008
# Poissons Ratio (y) = -0.39205 -0.10213
# Poissons Ratio (z) = -0.00012 -0.03715
#
# Static dielectric constant tensor:
#      x y z
#    x 1.690450 0.000000 -0.030280 
#    y 0.000000 1.697740 0.000000 
#    z -0.030280 0.000000 1.709610 
# 
# From -- ./inp_files/69823.got.cif
#   From: 2010.05.17/outbox.cif.g08.bks.cpg/sg11_35_cif.got.tgz:69823.got - 2010.06.03 12:22:45.
