data_PCOD9159170
_publ_section_title
;
Structure prediction by ZEFSAII (Michael W. Deem and Ramdas Pophale) SiO2 
 PCOD9159170
Probable space group: P 21/M
;
_chemical_formula_sum "Si O2"
_cell_formula_units_Z 32
_cell_length_a 16.601505
_cell_length_b 8.758240
_cell_length_c 11.541633
_cell_angle_alpha 90.000000
_cell_angle_beta 88.014286
_cell_angle_gamma 90.000000
_cell_volume 1677.145301
_symmetry_space_group_name_H-M "P 21/M"
_symmetry_group_IT_number 11
_symmetry_cell_setting 'monoclinic'
loop_
_space_group_symop_operation_xyz
x,y,z
-x,1/2+y,-z
-x,-y,-z
x,1/2-y,z
loop_
_atom_site_type_symbol
_atom_site_label
_atom_site_fract_x
_atom_site_fract_y
_atom_site_fract_z
Si Si1 0.277076 0.067054 0.676071
Si Si2 0.663437 0.433738 0.727266
Si Si3 0.416902 0.432316 0.049899
Si Si4 0.410729 0.567487 0.516520
Si Si5 0.169328 0.932991 0.159678
Si Si6 0.262165 0.566642 0.928061
Si Si7 0.115373 0.433665 0.563081
Si Si8 0.038657 0.432333 0.322784
O O1 0.282626 0.250000 0.678068
O O2 0.205325 0.020189 0.592270
O O3 0.360973 0.998984 0.626802
O O4 0.252765 0.005601 0.802986
O O5 0.657054 0.250000 0.742935
O O6 0.602237 0.514578 0.818460
O O7 0.639698 0.471156 0.597496
O O8 0.753697 0.477539 0.763501
O O9 0.416619 0.250000 0.041850
O O10 0.500000 0.500000 0.000000
O O11 0.344907 0.503130 0.977596
O O12 0.500000 0.500000 0.500000
O O13 0.415498 0.750000 0.525526
O O14 0.161409 0.750000 0.167534
O O15 0.089138 0.009410 0.211546
O O16 0.194220 0.972661 0.027037
O O17 0.266099 0.750000 0.919998
O O18 0.111124 0.250000 0.567279
O O19 0.087797 0.482703 0.436196
O O20 0.050171 0.500119 0.655774
O O21 0.034237 0.250000 0.322277
#
# Coordination Sequence:
#
# PCOD9159170 Si02
#       8
#     4   4   4   4   4   4   4   4
#     4  11  23  40  61  84 116 154 193 238 292 349
#     4   9  20  38  57  80 110 146 190 234 281 338
#     4  11  22  36  58  83 110 144 186 238 289 338
#     4  11  24  40  59  83 115 152 192 237 286 344
#     4   9  18  35  58  82 111 146 185 235 289 338
#     4  10  22  40  59  82 112 151 196 237 287 347
#     4   9  20  37  56  84 119 154 188 230 285 343
#     4  10  19  32  57  89 118 147 188 237 282 338
#
# _framework density 19.080038999999999
#
# number of rings (size 3 to 8) (size 9 to 14) (size 15 to 20)
#    0.000    2.000    0.000    4.125    1.750    5.000 
#    0.000    0.625    0.000    0.000    0.000    0.000 
#    0.000    0.000    0.000    0.000    0.000    0.000 
#
# Total GULP energy -178747.042513 kJ/mol
# GULP energy per Si atom -5585.845079 kJ/mol
# Density = 1.903661 g / cm^3
# Si number density = 19.080039 Si / 1000 Ang^3
#
#
#
# Elastic Constant Matrix: (Units=GPa)
#
#
# Indices 1 2 3 4 5 6 
#
# 1 90.2549 22.5807 29.9556 0.0000 -30.5327 0.0000
# 2 22.5807 28.3198 21.2644 0.0000 -6.0976 0.0000
# 3 29.9556 21.2644 67.4281 0.0000 -12.0426 0.0000
# 4 0.0000 0.0000 0.0000 32.1813 0.0000 -4.7859
# 5 -30.5327 -6.0976 -12.0426 0.0000 28.9548 0.0000
# 6 0.0000 0.0000 0.0000 -4.7859 0.0000 28.0957
#
#
#
# Elastic Compliance Matrix: (Units=1/GPa)
#
#
# Indices 1 2 3 4 5 6 
#
# 1 0.020980 -0.010749 -0.002575 0.000000 0.018788 0.000000
# 2 -0.010749 0.052201 -0.012691 0.000000 -0.005620 0.000000
# 3 -0.002575 -0.012691 0.020540 0.000000 0.003155 0.000000
# 4 0.000000 0.000000 0.000000 0.031882 0.000000 0.005431
# 5 0.018788 -0.005620 0.003155 0.000000 0.054477 0.000000
# 6 0.000000 0.000000 0.000000 0.005431 0.000000 0.036518
#
#
# Mechanical properties :
#
#
# Convention : Reuss Voigt Hill
#
# Bulk Modulus (GPa) = 23.98591 37.06713 30.52652
# Shear Modulus (GPa) = 17.69761 25.32649 21.51205
#
# Velocity S-wave (km/s) = 3.04887 3.64728 3.36142
# Velocity P-wave (km/s) = 4.99926 6.09969 5.57668
#
# Compressibility (1/GPa) = 0.04169114
#
# Stress axis : x y z
#
# Youngs Moduli (GPa) = 47.66518 19.15679 48.68506
#
# Poissons Ratio (x) = 0.20592 0.12536
# Poissons Ratio (y) = 0.51237 0.61784
# Poissons Ratio (z) = 0.12273 0.24311
#
# Static dielectric constant tensor:
#      x y z
#    x 1.581530 0.000000 -0.027300 
#    y 0.000000 1.633120 0.000000 
#    z -0.027300 0.000000 1.655390 
# 
# From -- ./inp_files/38160.got.cif
#   From: 2010.05.17/outbox.cif.g08.bks.cpg/sg11_20_cif.got.tgz:38160.got - 2010.06.03 12:22:45.
