data_PCOD9159286
_publ_section_title
;
Structure prediction by ZEFSAII (Michael W. Deem and Ramdas Pophale) SiO2 
 PCOD9159286
Probable space group: P 21/M
;
_chemical_formula_sum "Si O2"
_cell_formula_units_Z 28
_cell_length_a 13.060005
_cell_length_b 8.321184
_cell_length_c 15.385462
_cell_angle_alpha 90.000000
_cell_angle_beta 122.121601
_cell_angle_gamma 90.000000
_cell_volume 1416.061706
_symmetry_space_group_name_H-M "P 21/M"
_symmetry_group_IT_number 11
_symmetry_cell_setting 'monoclinic'
loop_
_space_group_symop_operation_xyz
x,y,z
-x,1/2+y,-z
-x,-y,-z
x,1/2-y,z
loop_
_atom_site_type_symbol
_atom_site_label
_atom_site_fract_x
_atom_site_fract_y
_atom_site_fract_z
Si Si1 0.749762 0.065159 0.062936
Si Si2 0.988094 0.558020 0.092105
Si Si3 0.383782 0.944854 0.503158
Si Si4 0.880277 0.441685 0.676344
Si Si5 0.868812 0.443679 0.292876
Si Si6 0.515239 0.937269 0.908699
Si Si7 0.663077 0.446640 0.321240
O O1 0.710759 0.250000 0.048936
O O2 0.776468 0.005919 0.173199
O O3 0.878926 0.045912 0.079362
O O4 0.656682 0.969382 0.961555
O O5 0.963200 0.750000 0.084310
O O6 0.093456 0.527152 0.209927
O O7 0.000000 0.500000 0.000000
O O8 0.385013 0.750000 0.501700
O O9 0.253049 0.001709 0.408012
O O10 0.379624 0.996950 0.602563
O O11 0.500000 0.000000 0.500000
O O12 0.879428 0.250000 0.663451
O O13 0.996189 0.500076 0.671495
O O14 0.872293 0.250000 0.292506
O O15 0.798437 0.493546 0.349260
O O16 0.489646 0.750000 0.898732
O O17 0.432190 0.004905 0.794741
O O18 0.500000 0.000000 0.000000
O O19 0.663134 0.250000 0.322109
#
# Coordination Sequence:
#
# PCOD9159286 Si02
#       7
#     4   4   4   4   4   4   4
#     4  10  19  33  52  78 112 149 184 224 274 331
#     4  10  20  35  54  80 111 145 185 230 280 334
#     4  10  22  42  62  79 109 148 189 236 280 328
#     4   9  20  37  57  82 111 143 179 233 289 325
#     4   9  17  33  56  82 111 143 180 220 273 344
#     4  11  20  33  53  81 115 150 185 223 275 334
#     4   9  19  36  57  82 113 151 188 227 281 340
#
# _framework density 19.773150000000001
#
# number of rings (size 3 to 8) (size 9 to 14) (size 15 to 20)
#    0.000    2.286    1.429    1.286    0.000    3.429 
#    0.000    5.000    0.000    0.000    0.000    0.000 
#    0.000    0.000    0.000    0.000    0.000    0.000 
#
# Total GULP energy -155916.591237 kJ/mol
# GULP energy per Si atom -5568.449687 kJ/mol
# Density = 1.972815 g / cm^3
# Si number density = 19.773150 Si / 1000 Ang^3
#
#
#
# Elastic Constant Matrix: (Units=GPa)
#
#
# Indices 1 2 3 4 5 6 
#
# 1 141.2635 16.6476 98.3976 0.0000 -7.1352 0.0000
# 2 16.6476 18.9625 23.5026 0.0000 0.5697 0.0000
# 3 98.3976 23.5026 132.6110 0.0000 3.9515 0.0000
# 4 0.0000 0.0000 0.0000 16.5537 0.0000 -0.0576
# 5 -7.1352 0.5697 3.9515 0.0000 35.3312 0.0000
# 6 0.0000 0.0000 0.0000 -0.0576 0.0000 32.9060
#
#
#
# Elastic Compliance Matrix: (Units=1/GPa)
#
#
# Indices 1 2 3 4 5 6 
#
# 1 0.015307 0.000857 -0.011641 0.000000 0.004379 0.000000
# 2 0.000857 0.067631 -0.012637 0.000000 0.000496 0.000000
# 3 -0.011641 -0.012637 0.018544 0.000000 -0.004221 0.000000
# 4 0.000000 0.000000 0.000000 0.060410 0.000000 0.000106
# 5 0.004379 0.000496 -0.004221 0.000000 0.029652 0.000000
# 6 0.000000 0.000000 0.000000 0.000106 0.000000 0.030390
#
#
# Mechanical properties :
#
#
# Convention : Reuss Voigt Hill
#
# Bulk Modulus (GPa) = 18.30122 63.32586 40.81354
# Shear Modulus (GPa) = 17.42232 27.24411 22.33322
#
# Velocity S-wave (km/s) = 2.97157 3.71595 3.36441
# Velocity P-wave (km/s) = 4.58795 7.10681 5.98147
#
# Compressibility (1/GPa) = 0.05464118
#
# Stress axis : x y z
#
# Youngs Moduli (GPa) = 65.32768 14.78615 53.92682
#
# Poissons Ratio (x) = -0.01268 0.62774
# Poissons Ratio (y) = -0.05601 0.68148
# Poissons Ratio (z) = 0.76045 0.18685
#
# Static dielectric constant tensor:
#      x y z
#    x 1.615520 0.000000 -0.010580 
#    y 0.000000 1.731690 0.000000 
#    z -0.010580 0.000000 1.769170 
# 
# From -- ./inp_files/49141.got.cif
#   From: 2010.05.17/outbox.cif.g08.bks.cpg/sg11_25_cif.got.tgz:49141.got - 2010.06.03 12:22:45.
