data_PCOD9159691
_publ_section_title
;
Structure prediction by ZEFSAII (Michael W. Deem and Ramdas Pophale) SiO2 
 PCOD9159691
Probable space group: P 21/M
;
_chemical_formula_sum "Si O2"
_cell_formula_units_Z 26
_cell_length_a 16.451079
_cell_length_b 10.717754
_cell_length_c 8.983324
_cell_angle_alpha 90.000000
_cell_angle_beta 46.787655
_cell_angle_gamma 90.000000
_cell_volume 1154.399643
_symmetry_space_group_name_H-M "P 21/M"
_symmetry_group_IT_number 11
_symmetry_cell_setting 'monoclinic'
loop_
_space_group_symop_operation_xyz
x,y,z
-x,1/2+y,-z
-x,-y,-z
x,1/2-y,z
loop_
_atom_site_type_symbol
_atom_site_label
_atom_site_fract_x
_atom_site_fract_y
_atom_site_fract_z
Si Si1 0.451867 0.893415 0.877070
Si Si2 0.092597 0.992139 0.193475
Si Si3 0.667772 0.008855 0.553872
Si Si4 0.690049 0.389230 0.216374
Si Si5 0.951846 0.750000 0.886636
Si Si6 0.246795 0.250000 0.654424
Si Si7 0.984415 0.750000 0.184398
Si Si8 0.792471 0.397589 0.667521
O O1 0.486777 0.750000 0.865534
O O2 0.549749 0.991486 0.784592
O O3 0.420346 0.908431 0.742152
O O4 0.330822 0.908218 0.103263
O O5 0.211136 0.980949 0.956947
O O6 0.035274 0.122800 0.222034
O O7 0.025612 0.874327 0.213075
O O8 0.124524 0.969712 0.325844
O O9 0.685891 0.874881 0.454918
O O10 0.665652 0.103218 0.420330
O O11 0.768703 0.044543 0.536175
O O12 0.731363 0.250000 0.124003
O O13 0.823460 0.750000 0.105812
O O14 0.016370 0.750000 0.965847
O O15 0.148995 0.250000 0.653442
O O16 0.819026 0.250000 0.626520
#
# Coordination Sequence:
#
# PCOD9159691 Si02
#       8
#     4   4   4   4   2   2   2   4
#     4   9  19  35  56  82 114 154 202 240 294 343
#     4  11  19  40  65  86 121 150 198 252 290 348
#     4  12  20  37  55  82 127 154 187 251 294 350
#     4  10  19  33  58  87 109 157 203 242 292 346
#     4  10  22  35  61  98 113 143 201 245 296 353
#     4  10  24  35  58  89 118 150 190 240 312 349
#     4  10  20  40  65  87 117 155 193 249 306 344
#     4  10  22  38  61  85 114 161 203 234 289 358
#
# _framework density 22.522528000000001
#
# number of rings (size 3 to 8) (size 9 to 14) (size 15 to 20)
#    0.462    1.231    3.846    2.769    0.000    0.615 
#    0.000    0.769    8.462    0.000    0.000    0.000 
#    0.000    0.000    0.000    0.000    0.000    0.000 
#
# Total GULP energy -145207.899000 kJ/mol
# GULP energy per Si atom -5584.919192 kJ/mol
# Density = 2.247127 g / cm^3
# Si number density = 22.522528 Si / 1000 Ang^3
#
#
#
# Elastic Constant Matrix: (Units=GPa)
#
#
# Indices 1 2 3 4 5 6 
#
# 1 106.9864 53.1751 9.3204 0.0000 12.9929 0.0000
# 2 53.1751 125.6642 9.8219 0.0000 14.2655 0.0000
# 3 9.3204 9.8219 51.5047 0.0000 4.2748 0.0000
# 4 0.0000 0.0000 0.0000 23.6254 0.0000 -4.7078
# 5 12.9929 14.2655 4.2748 0.0000 40.9499 0.0000
# 6 0.0000 0.0000 0.0000 -4.7078 0.0000 35.8946
#
#
#
# Elastic Compliance Matrix: (Units=1/GPa)
#
#
# Indices 1 2 3 4 5 6 
#
# 1 0.012072 -0.004790 -0.001101 0.000000 -0.002047 0.000000
# 2 -0.004790 0.010280 -0.000931 0.000000 -0.001964 0.000000
# 3 -0.001101 -0.000931 0.019909 0.000000 -0.001405 0.000000
# 4 0.000000 0.000000 0.000000 0.043463 0.000000 0.005700
# 5 -0.002047 -0.001964 -0.001405 0.000000 0.025900 0.000000
# 6 0.000000 0.000000 0.000000 0.005700 0.000000 0.028607
#
#
# Mechanical properties :
#
#
# Convention : Reuss Voigt Hill
#
# Bulk Modulus (GPa) = 34.94321 47.64335 41.29328
# Shear Modulus (GPa) = 30.59687 34.21650 32.40669
#
# Velocity S-wave (km/s) = 3.68978 3.90194 3.79734
# Velocity P-wave (km/s) = 5.80527 6.44203 6.13192
#
# Compressibility (1/GPa) = 0.02861787
#
# Stress axis : x y z
#
# Youngs Moduli (GPa) = 82.83477 97.27315 50.22842
#
# Poissons Ratio (x) = 0.46593 0.05532
# Poissons Ratio (y) = 0.39678 0.04674
# Poissons Ratio (z) = 0.09123 0.09052
#
# Static dielectric constant tensor:
#      x y z
#    x 1.828800 0.000000 -0.027080 
#    y 0.000000 1.779170 0.000000 
#    z -0.027080 0.000000 1.925270 
# 
# From -- ./inp_files/21135.got.cif
#   From: 2010.05.17/outbox.cif.g08.bks.cpg/sg11_11_cif.got.tgz:21135.got - 2010.06.03 12:22:45.
