data_PCOD9159560
_publ_section_title
;
Structure prediction by ZEFSAII (Michael W. Deem and Ramdas Pophale) SiO2 
 PCOD9159560
Probable space group: P 21/M
;
_chemical_formula_sum "Si O2"
_cell_formula_units_Z 16
_cell_length_a 12.515685
_cell_length_b 8.952356
_cell_length_c 10.491698
_cell_angle_alpha 90.000000
_cell_angle_beta 127.970452
_cell_angle_gamma 90.000000
_cell_volume 926.711996
_symmetry_space_group_name_H-M "P 21/M"
_symmetry_group_IT_number 11
_symmetry_cell_setting 'monoclinic'
loop_
_space_group_symop_operation_xyz
x,y,z
-x,1/2+y,-z
-x,-y,-z
x,1/2-y,z
loop_
_atom_site_type_symbol
_atom_site_label
_atom_site_fract_x
_atom_site_fract_y
_atom_site_fract_z
Si Si1 0.356835 0.428490 0.540948
Si Si2 0.935910 0.929898 0.578187
Si Si3 0.912156 0.429140 0.049263
Si Si4 0.641980 0.927226 0.761331
O O1 0.376078 0.250000 0.569718
O O2 0.220417 0.474508 0.513139
O O3 0.336627 0.456015 0.374619
O O4 0.492259 0.512955 0.682181
O O5 0.938262 0.750000 0.570284
O O6 0.020869 0.970896 0.766752
O O7 0.000000 0.000000 0.500000
O O8 0.915718 0.250000 0.040292
O O9 0.759972 0.489093 0.923202
O O10 0.000000 0.500000 0.000000
O O11 0.651320 0.750000 0.788244
#
# Coordination Sequence:
#
# PCOD9159560 Si02
#       4
#     4   4   4   4
#     4   9  18  35  54  79 114 146 180 228 279 326
#     4  10  22  39  57  81 114 148 186 228 276 333
#     4  11  21  36  57  84 114 145 185 233 278 326
#     4  10  19  33  55  85 113 141 184 231 278 330
#
# _framework density 17.265342
#
# number of rings (size 3 to 8) (size 9 to 14) (size 15 to 20)
#    0.000    2.000    2.500    1.500    0.000    4.000 
#    0.000    1.250    0.000    0.000    0.000    0.000 
#    0.000    0.000    0.000    0.000    0.000    0.000 
#
# Total GULP energy -89325.736922 kJ/mol
# GULP energy per Si atom -5582.858558 kJ/mol
# Density = 1.722605 g / cm^3
# Si number density = 17.265342 Si / 1000 Ang^3
#
#
#
# Elastic Constant Matrix: (Units=GPa)
#
#
# Indices 1 2 3 4 5 6 
#
# 1 167.3202 53.7502 89.6630 0.0000 11.3715 0.0000
# 2 53.7502 45.6072 53.3393 0.0000 5.1744 0.0000
# 3 89.6630 53.3393 117.1297 0.0000 10.3781 0.0000
# 4 0.0000 0.0000 0.0000 28.5446 0.0000 3.0131
# 5 11.3715 5.1744 10.3781 0.0000 29.1095 0.0000
# 6 0.0000 0.0000 0.0000 3.0131 0.0000 34.7029
#
#
#
# Elastic Compliance Matrix: (Units=1/GPa)
#
#
# Indices 1 2 3 4 5 6 
#
# 1 0.011050 -0.006670 -0.005311 0.000000 -0.001237 0.000000
# 2 -0.006670 0.050953 -0.018097 0.000000 0.000001 0.000000
# 3 -0.005311 -0.018097 0.021040 0.000000 -0.002210 0.000000
# 4 0.000000 0.000000 0.000000 0.035357 0.000000 -0.003070
# 5 -0.001237 0.000001 -0.002210 0.000000 0.035624 0.000000
# 6 0.000000 0.000000 0.000000 -0.003070 0.000000 0.029083
#
#
# Mechanical properties :
#
#
# Convention : Reuss Voigt Hill
#
# Bulk Modulus (GPa) = 43.69630 80.39580 62.04605
# Shear Modulus (GPa) = 19.92886 27.35837 23.64362
#
# Velocity S-wave (km/s) = 3.40114 3.98500 3.70459
# Velocity P-wave (km/s) = 6.38649 8.23648 7.36976
#
# Compressibility (1/GPa) = 0.02288523
#
# Stress axis : x y z
#
# Youngs Moduli (GPa) = 90.50035 19.62599 47.52786
#
# Poissons Ratio (x) = 0.13091 0.25244
# Poissons Ratio (y) = 0.60368 0.86011
# Poissons Ratio (z) = 0.48068 0.35517
#
# Static dielectric constant tensor:
#      x y z
#    x 1.574860 0.000000 0.012960 
#    y 0.000000 1.576690 0.000000 
#    z 0.012960 0.000000 1.565850 
# 
# From -- ./inp_files/11099.got.cif
#   From: 2010.05.17/outbox.cif.g08.bks.cpg/sg11_6_cif.got.tgz:11099.got - 2010.06.03 12:22:45.
