data_PCOD9159733
_publ_section_title
;
Structure prediction by ZEFSAII (Michael W. Deem and Ramdas Pophale) SiO2 
 PCOD9159733
Probable space group: P 21/M
;
_chemical_formula_sum "Si O2"
_cell_formula_units_Z 32
_cell_length_a 15.990556
_cell_length_b 8.800801
_cell_length_c 21.758075
_cell_angle_alpha 90.000000
_cell_angle_beta 42.507039
_cell_angle_gamma 90.000000
_cell_volume 2068.939544
_symmetry_space_group_name_H-M "P 21/M"
_symmetry_group_IT_number 11
_symmetry_cell_setting 'monoclinic'
loop_
_space_group_symop_operation_xyz
x,y,z
-x,1/2+y,-z
-x,-y,-z
x,1/2-y,z
loop_
_atom_site_type_symbol
_atom_site_label
_atom_site_fract_x
_atom_site_fract_y
_atom_site_fract_z
Si Si1 0.069690 0.432735 0.610999
Si Si2 0.192960 0.932358 0.904675
Si Si3 0.894054 0.068457 0.601297
Si Si4 0.720017 0.932496 0.603208
Si Si5 0.001765 0.432413 0.095668
Si Si6 0.129959 0.567597 0.709238
Si Si7 0.395535 0.431788 0.600962
Si Si8 0.553571 0.066043 0.292313
O O1 0.075190 0.250000 0.616368
O O2 0.184392 0.474692 0.503534
O O3 0.083290 0.513968 0.668364
O O4 0.943111 0.470012 0.642813
O O5 0.187572 0.750000 0.911595
O O6 0.333691 0.975983 0.813974
O O7 0.108200 0.978756 0.891952
O O8 0.127383 0.000665 0.999880
O O9 0.894684 0.250000 0.595782
O O10 0.768734 0.003725 0.640332
O O11 0.000000 0.000000 0.500000
O O12 0.726335 0.750000 0.605327
O O13 0.581093 0.975800 0.660396
O O14 0.009098 0.250000 0.089829
O O15 0.962432 0.477768 0.185384
O O16 0.143588 0.750000 0.703439
O O17 0.262432 0.492866 0.651464
O O18 0.500000 0.500000 0.500000
O O19 0.397892 0.250000 0.597127
O O20 0.421842 0.490086 0.655440
O O21 0.556478 0.250000 0.298815
#
# Coordination Sequence:
#
# PCOD9159733 Si02
#       8
#     4   4   4   4   4   4   4   4
#     4   9  18  31  46  70  98 128 161 195 235 283
#     4   9  17  31  50  69  93 124 158 198 242 284
#     4   9  17  30  48  68  95 124 157 198 237 277
#     4   9  18  31  49  70  97 128 158 194 237 282
#     4   9  18  32  48  68  94 122 158 201 242 283
#     4  11  21  34  50  70  96 127 161 201 242 284
#     4  12  24  35  48  66  94 132 167 197 231 279
#     4  10  19  34  51  71  99 128 160 200 240 283
#
# _framework density 15.46686
#
# number of rings (size 3 to 8) (size 9 to 14) (size 15 to 20)
#    0.000    2.250    1.250    3.375    0.000    5.500 
#    0.000    0.000    0.000    0.000    0.000    0.875 
#    0.000    0.000    0.000    0.000    0.000    0.000 
#
# Total GULP energy -178429.620871 kJ/mol
# GULP energy per Si atom -5575.925652 kJ/mol
# Density = 1.543166 g / cm^3
# Si number density = 15.466860 Si / 1000 Ang^3
#
#
#
# Elastic Constant Matrix: (Units=GPa)
#
#
# Indices 1 2 3 4 5 6 
#
# 1 135.9256 46.7690 68.0614 0.0000 9.0151 0.0000
# 2 46.7690 38.0494 37.4843 0.0000 4.4502 0.0000
# 3 68.0614 37.4843 119.9435 0.0000 10.4115 0.0000
# 4 0.0000 0.0000 0.0000 23.7124 0.0000 2.4885
# 5 9.0151 4.4502 10.4115 0.0000 4.6856 0.0000
# 6 0.0000 0.0000 0.0000 2.4885 0.0000 27.8190
#
#
#
# Elastic Compliance Matrix: (Units=1/GPa)
#
#
# Indices 1 2 3 4 5 6 
#
# 1 0.013967 -0.013192 -0.003169 0.000000 -0.007302 0.000000
# 2 -0.013192 0.050986 -0.007989 0.000000 -0.005292 0.000000
# 3 -0.003169 -0.007989 0.014179 0.000000 -0.017822 0.000000
# 4 0.000000 0.000000 0.000000 0.042572 0.000000 -0.003808
# 5 -0.007302 -0.005292 -0.017822 0.000000 0.272097 0.000000
# 6 0.000000 0.000000 0.000000 -0.003808 0.000000 0.036287
#
#
# Mechanical properties :
#
#
# Convention : Reuss Voigt Hill
#
# Bulk Modulus (GPa) = 32.85971 66.50533 49.68252
# Shear Modulus (GPa) = 10.22638 20.68365 15.45501
#
# Velocity S-wave (km/s) = 2.57413 3.66086 3.16450
# Velocity P-wave (km/s) = 5.48874 7.80776 6.74861
#
# Compressibility (1/GPa) = 0.03043241
#
# Stress axis : x y z
#
# Youngs Moduli (GPa) = 71.59662 19.61335 70.52595
#
# Poissons Ratio (x) = 0.25874 0.22350
# Poissons Ratio (y) = 0.94449 0.56342
# Poissons Ratio (z) = 0.22690 0.15669
#
# Static dielectric constant tensor:
#      x y z
#    x 1.520670 0.000000 -0.008560 
#    y 0.000000 1.520370 0.000000 
#    z -0.008560 0.000000 1.504730 
# 
# From -- ./inp_files/65196.got.cif
#   From: 2010.05.17/outbox.cif.g08.bks.cpg/sg11_33_cif.got.tgz:65196.got - 2010.06.03 12:22:45.
