data_PCOD9159425
_publ_section_title
;
Structure prediction by ZEFSAII (Michael W. Deem and Ramdas Pophale) SiO2 
 PCOD9159425
Probable space group: P 21/M
;
_chemical_formula_sum "Si O2"
_cell_formula_units_Z 28
_cell_length_a 14.233356
_cell_length_b 9.578715
_cell_length_c 20.069979
_cell_angle_alpha 90.000000
_cell_angle_beta 28.017606
_cell_angle_gamma 90.000000
_cell_volume 1285.350778
_symmetry_space_group_name_H-M "P 21/M"
_symmetry_group_IT_number 11
_symmetry_cell_setting 'monoclinic'
loop_
_space_group_symop_operation_xyz
x,y,z
-x,1/2+y,-z
-x,-y,-z
x,1/2-y,z
loop_
_atom_site_type_symbol
_atom_site_label
_atom_site_fract_x
_atom_site_fract_y
_atom_site_fract_z
Si Si1 0.265840 0.597453 0.681313
Si Si2 0.757962 0.416185 0.789756
Si Si3 0.272520 0.100071 0.570133
Si Si4 0.195000 0.089140 0.463929
Si Si5 0.630683 0.416018 0.014523
Si Si6 0.826082 0.908972 0.138694
Si Si7 0.459516 0.088061 0.807594
O O1 0.177362 0.750000 0.751963
O O2 0.504963 0.612878 0.538925
O O3 0.195792 0.538188 0.654346
O O4 0.221266 0.478040 0.761813
O O5 0.711923 0.250000 0.810156
O O6 0.580853 0.515545 0.875840
O O7 0.962645 0.445504 0.622249
O O8 0.772025 0.436737 0.861253
O O9 0.168657 0.250000 0.649042
O O10 0.281713 0.086102 0.485145
O O11 0.210871 0.250000 0.430204
O O12 0.326349 0.986966 0.336638
O O13 0.615850 0.250000 0.036181
O O14 0.671067 0.500950 0.057097
O O15 0.886977 0.750000 0.109070
O O16 0.646828 0.914866 0.197694
O O17 0.000000 0.000000 0.000000
O O18 0.478952 0.250000 0.815546
#
# Coordination Sequence:
#
# PCOD9159425 Si02
#       7
#     4   4   4   4   4   4   4
#     4  10  19  33  54  79 109 146 190 235 284 339
#     4   9  20  39  63  90 118 151 196 245 291 347
#     4   9  18  32  53  80 111 146 186 233 286 341
#     4  10  20  37  61  89 120 155 198 246 297 350
#     4  10  21  39  63  89 120 158 196 236 293 354
#     4  11  24  40  58  81 113 152 196 242 292 348
#     4  11  24  40  60  88 121 155 195 243 296 352
#
# _framework density 21.783936000000001
#
# number of rings (size 3 to 8) (size 9 to 14) (size 15 to 20)
#    0.000    2.000    1.429    1.714    0.000    5.714 
#    0.000    1.429    0.000    0.000    0.000    0.000 
#    0.000    0.000    0.000    0.000    0.000    0.000 
#
# Total GULP energy -156289.401897 kJ/mol
# GULP energy per Si atom -5581.764353 kJ/mol
# Density = 2.173436 g / cm^3
# Si number density = 21.783936 Si / 1000 Ang^3
#
#
#
# Elastic Constant Matrix: (Units=GPa)
#
#
# Indices 1 2 3 4 5 6 
#
# 1 30.9896 18.3787 -1.1498 0.0000 6.2117 0.0000
# 2 18.3787 145.5365 38.4630 0.0000 7.1096 0.0000
# 3 -1.1498 38.4630 61.1707 0.0000 0.9059 0.0000
# 4 0.0000 0.0000 0.0000 32.4892 0.0000 6.4501
# 5 6.2117 7.1096 0.9059 0.0000 27.5263 0.0000
# 6 0.0000 0.0000 0.0000 6.4501 0.0000 28.7545
#
#
#
# Elastic Compliance Matrix: (Units=1/GPa)
#
#
# Indices 1 2 3 4 5 6 
#
# 1 0.037084 -0.005455 0.004232 0.000000 -0.007099 0.000000
# 2 -0.005455 0.009150 -0.005842 0.000000 -0.000940 0.000000
# 3 0.004232 -0.005842 0.020102 0.000000 -0.000108 0.000000
# 4 0.000000 0.000000 0.000000 0.032214 0.000000 -0.007226
# 5 -0.007099 -0.000940 -0.000108 0.000000 0.038177 0.000000
# 6 0.000000 0.000000 0.000000 -0.007226 0.000000 0.036398
#
#
# Mechanical properties :
#
#
# Convention : Reuss Voigt Hill
#
# Bulk Modulus (GPa) = 19.15468 38.78673 28.97071
# Shear Modulus (GPa) = 24.43122 29.88767 27.15944
#
# Velocity S-wave (km/s) = 3.35255 3.70808 3.53479
# Velocity P-wave (km/s) = 4.87834 6.01473 5.47609
#
# Compressibility (1/GPa) = 0.05220656
#
# Stress axis : x y z
#
# Youngs Moduli (GPa) = 26.96597 109.29220 49.74612
#
# Poissons Ratio (x) = 0.59616 -0.21052
# Poissons Ratio (y) = 0.14709 0.29061
# Poissons Ratio (z) = -0.11412 0.63847
#
# Static dielectric constant tensor:
#      x y z
#    x 1.752860 0.000000 -0.027150 
#    y 0.000000 1.780130 0.000000 
#    z -0.027150 0.000000 1.864640 
# 
# From -- ./inp_files/65351.got.cif
#   From: 2010.05.17/outbox.cif.g08.bks.cpg/sg11_33_cif.got.tgz:65351.got - 2010.06.03 12:22:45.
