data_PCOD9159959
_publ_section_title
;
Structure prediction by ZEFSAII (Michael W. Deem and Ramdas Pophale) SiO2 
 PCOD9159959
Probable space group: P 21/M
;
_chemical_formula_sum "Si O2"
_cell_formula_units_Z 24
_cell_length_a 14.535398
_cell_length_b 16.404541
_cell_length_c 8.288716
_cell_angle_alpha 90.000000
_cell_angle_beta 34.225125
_cell_angle_gamma 90.000000
_cell_volume 1111.627062
_symmetry_space_group_name_H-M "P 21/M"
_symmetry_group_IT_number 11
_symmetry_cell_setting 'monoclinic'
loop_
_space_group_symop_operation_xyz
x,y,z
-x,1/2+y,-z
-x,-y,-z
x,1/2-y,z
loop_
_atom_site_type_symbol
_atom_site_label
_atom_site_fract_x
_atom_site_fract_y
_atom_site_fract_z
Si Si1 0.011209 0.915053 0.584896
Si Si2 0.335436 0.156849 0.880128
Si Si3 0.031576 0.659395 0.224436
Si Si4 0.621788 0.340839 0.206429
Si Si5 0.147676 0.009676 0.660936
Si Si6 0.498735 0.000229 0.698830
O O1 0.047942 0.849548 0.394089
O O2 0.838741 0.884016 0.907360
O O3 0.000000 0.000000 0.500000
O O4 0.130214 0.936669 0.557722
O O5 0.317779 0.250000 0.968906
O O6 0.456038 0.162848 0.552109
O O7 0.418772 0.085839 0.868009
O O8 0.986117 0.750000 0.241377
O O9 0.900324 0.594649 0.355598
O O10 0.221794 0.643703 0.902113
O O11 0.642469 0.250000 0.106823
O O12 0.605390 0.418729 0.114406
O O13 0.322230 0.009934 0.490394
O O14 0.000000 0.000000 0.000000
O O15 0.500000 0.000000 0.500000
#
# Coordination Sequence:
#
# PCOD9159959 Si02
#       6
#     4   4   4   4   4   4
#     4  10  21  39  61  86 120 159 202 253 316 377
#     4  10  19  35  59  85 114 158 208 254 304 367
#     4  10  21  40  62  89 125 163 205 262 322 378
#     4   9  18  34  59  85 116 160 208 253 304 363
#     4  11  21  36  62  92 121 160 210 259 311 376
#     4  10  19  34  56  83 120 156 196 255 309 359
#
# _framework density 21.589974999999999
#
# number of rings (size 3 to 8) (size 9 to 14) (size 15 to 20)
#    0.000    2.000    0.000    6.500    0.000    0.667 
#    0.000   12.500    0.000    4.000    0.000    0.000 
#    0.000    0.000    0.000    0.000    0.000    0.000 
#
# Total GULP energy -133748.340348 kJ/mol
# GULP energy per Si atom -5572.847514 kJ/mol
# Density = 2.154083 g / cm^3
# Si number density = 21.589975 Si / 1000 Ang^3
#
#
#
# Elastic Constant Matrix: (Units=GPa)
#
#
# Indices 1 2 3 4 5 6 
#
# 1 131.9877 57.1659 27.9079 0.0000 -36.3605 0.0000
# 2 57.1659 196.1384 24.0949 0.0000 -32.2978 0.0000
# 3 27.9079 24.0949 58.5926 0.0000 -13.5031 0.0000
# 4 0.0000 0.0000 0.0000 31.0153 0.0000 -12.6013
# 5 -36.3605 -32.2978 -13.5031 0.0000 35.2543 0.0000
# 6 0.0000 0.0000 0.0000 -12.6013 0.0000 20.5920
#
#
#
# Elastic Compliance Matrix: (Units=1/GPa)
#
#
# Indices 1 2 3 4 5 6 
#
# 1 0.011339 -0.001437 -0.002652 0.000000 0.009362 0.000000
# 2 -0.001437 0.006281 -0.001002 0.000000 0.003888 0.000000
# 3 -0.002652 -0.001002 0.019633 0.000000 0.003866 0.000000
# 4 0.000000 0.000000 0.000000 0.042911 0.000000 0.026260
# 5 0.009362 0.003888 0.003866 0.000000 0.043064 0.000000
# 6 0.000000 0.000000 0.000000 0.026260 0.000000 0.064632
#
#
# Mechanical properties :
#
#
# Convention : Reuss Voigt Hill
#
# Bulk Modulus (GPa) = 36.94193 67.22846 52.08519
# Shear Modulus (GPa) = 24.14681 35.87567 30.01124
#
# Velocity S-wave (km/s) = 3.34792 4.08080 3.73239
# Velocity P-wave (km/s) = 5.66503 7.30823 6.53845
#
# Compressibility (1/GPa) = 0.02706951
#
# Stress axis : x y z
#
# Youngs Moduli (GPa) = 88.19232 159.21905 50.93360
#
# Poissons Ratio (x) = 0.22886 0.13508
# Poissons Ratio (y) = 0.12676 0.05105
# Poissons Ratio (z) = 0.23390 0.15957
#
# Static dielectric constant tensor:
#      x y z
#    x 1.764590 0.000000 0.008850 
#    y 0.000000 1.843420 0.000000 
#    z 0.008850 0.000000 1.919550 
# 
# From -- ./inp_files/22498.got.cif
#   From: 2010.05.17/outbox.cif.g08.bks.cpg/sg11_12_cif.got.tgz:22498.got - 2010.06.03 12:22:45.
