data_PCOD9159781
_publ_section_title
;
Structure prediction by ZEFSAII (Michael W. Deem and Ramdas Pophale) SiO2 
 PCOD9159781
Probable space group: P 21/M
;
_chemical_formula_sum "Si O2"
_cell_formula_units_Z 28
_cell_length_a 9.725268
_cell_length_b 13.395887
_cell_length_c 14.193806
_cell_angle_alpha 90.000000
_cell_angle_beta 57.535599
_cell_angle_gamma 90.000000
_cell_volume 1560.173499
_symmetry_space_group_name_H-M "P 21/M"
_symmetry_group_IT_number 11
_symmetry_cell_setting 'monoclinic'
loop_
_space_group_symop_operation_xyz
x,y,z
-x,1/2+y,-z
-x,-y,-z
x,1/2-y,z
loop_
_atom_site_type_symbol
_atom_site_label
_atom_site_fract_x
_atom_site_fract_y
_atom_site_fract_z
Si Si1 0.685793 0.365611 0.765999
Si Si2 0.205912 0.366320 0.797748
Si Si3 0.524858 0.865847 0.680396
Si Si4 0.187397 0.516665 0.460149
Si Si5 0.384175 0.494061 0.890857
Si Si6 0.827430 0.136590 0.905648
Si Si7 0.324508 0.971679 0.605915
O O1 0.644566 0.250000 0.769453
O O2 0.734925 0.410584 0.647274
O O3 0.533960 0.424820 0.866542
O O4 0.826177 0.374910 0.792840
O O5 0.258291 0.250000 0.771144
O O6 0.279642 0.422065 0.861113
O O7 0.259670 0.433617 0.688888
O O8 0.011126 0.368148 0.874386
O O9 0.551109 0.750000 0.682924
O O10 0.464613 0.920402 0.796586
O O11 0.377970 0.886549 0.660071
O O12 0.694831 0.919191 0.588158
O O13 0.209913 0.554161 0.559515
O O14 0.000000 0.500000 0.500000
O O15 0.277390 0.550357 0.007183
O O16 0.764077 0.250000 0.947834
O O17 0.500000 0.000000 0.500000
#
# Coordination Sequence:
#
# PCOD9159781 Si02
#       7
#     4   4   4   4   4   4   4
#     4  10  21  35  52  76 104 137 177 214 252 307
#     4  10  20  34  54  80 105 131 170 214 256 307
#     4   9  19  34  51  72 100 136 174 209 255 315
#     4  10  20  34  53  78 106 135 171 218 267 308
#     4  10  19  34  54  76 103 133 171 216 255 299
#     4  10  20  34  54  78 104 136 169 208 261 310
#     4   9  19  33  51  76 103 136 171 209 257 308
#
# _framework density 17.946722999999999
#
# number of rings (size 3 to 8) (size 9 to 14) (size 15 to 20)
#    0.000    2.286    0.000    3.429    0.000    3.429 
#    0.000    0.000    0.000    1.714    0.000    0.000 
#    0.000    0.000    0.000    0.000    0.000    0.000 
#
# Total GULP energy -155994.739688 kJ/mol
# GULP energy per Si atom -5571.240703 kJ/mol
# Density = 1.790588 g / cm^3
# Si number density = 17.946723 Si / 1000 Ang^3
#
#
#
# Elastic Constant Matrix: (Units=GPa)
#
#
# Indices 1 2 3 4 5 6 
#
# 1 105.5322 34.1537 15.8519 0.0000 2.7062 0.0000
# 2 34.1537 119.1255 37.2127 0.0000 -8.7471 0.0000
# 3 15.8519 37.2127 55.1638 0.0000 4.7472 0.0000
# 4 0.0000 0.0000 0.0000 14.4862 0.0000 -4.0123
# 5 2.7062 -8.7471 4.7472 0.0000 18.1493 0.0000
# 6 0.0000 0.0000 0.0000 -4.0123 0.0000 16.3099
#
#
#
# Elastic Compliance Matrix: (Units=1/GPa)
#
#
# Indices 1 2 3 4 5 6 
#
# 1 0.010642 -0.003016 -0.000780 0.000000 -0.002836 0.000000
# 2 -0.003016 0.012486 -0.008300 0.000000 0.008638 0.000000
# 3 -0.000780 -0.008300 0.024844 0.000000 -0.010382 0.000000
# 4 0.000000 0.000000 0.000000 0.074079 0.000000 0.018224
# 5 -0.002836 0.008638 -0.010382 0.000000 0.062400 0.000000
# 6 0.000000 0.000000 0.000000 0.018224 0.000000 0.065796
#
#
# Mechanical properties :
#
#
# Convention : Reuss Voigt Hill
#
# Bulk Modulus (GPa) = 42.04879 50.47314 46.26097
# Shear Modulus (GPa) = 17.70765 22.62928 20.16847
#
# Velocity S-wave (km/s) = 3.14455 3.55479 3.35594
# Velocity P-wave (km/s) = 6.05516 6.71071 6.39134
#
# Compressibility (1/GPa) = 0.02378190
#
# Stress axis : x y z
#
# Youngs Moduli (GPa) = 93.97091 80.08899 40.25087
#
# Poissons Ratio (x) = 0.24153 0.03138
# Poissons Ratio (y) = 0.28339 0.33407
# Poissons Ratio (z) = 0.07325 0.66472
#
# Static dielectric constant tensor:
#      x y z
#    x 1.638080 0.000000 0.021400 
#    y 0.000000 1.599870 0.000000 
#    z 0.021400 0.000000 1.616330 
# 
# From -- ./inp_files/21399.got.cif
#   From: 2010.05.17/outbox.cif.g08.bks.cpg/sg11_11_cif.got.tgz:21399.got - 2010.06.03 12:22:45.
