data_PCOD9159142
_publ_section_title
;
Structure prediction by ZEFSAII (Michael W. Deem and Ramdas Pophale) SiO2 
 PCOD9159142
Probable space group: P 21/M
;
_chemical_formula_sum "Si O2"
_cell_formula_units_Z 32
_cell_length_a 11.770011
_cell_length_b 8.634957
_cell_length_c 32.589013
_cell_angle_alpha 90.000000
_cell_angle_beta 147.997402
_cell_angle_gamma 90.000000
_cell_volume 1755.292415
_symmetry_space_group_name_H-M "P 21/M"
_symmetry_group_IT_number 11
_symmetry_cell_setting 'monoclinic'
loop_
_space_group_symop_operation_xyz
x,y,z
-x,1/2+y,-z
-x,-y,-z
x,1/2-y,z
loop_
_atom_site_type_symbol
_atom_site_label
_atom_site_fract_x
_atom_site_fract_y
_atom_site_fract_z
Si Si1 0.853889 0.937760 0.647803
Si Si2 0.369118 0.064337 0.722126
Si Si3 0.654692 0.064361 0.195704
Si Si4 0.671303 0.062942 0.739702
Si Si5 0.897065 0.935929 0.567981
Si Si6 0.509270 0.435838 0.399847
Si Si7 0.163610 0.063159 0.898015
Si Si8 0.517893 0.064765 0.939780
O O1 0.851014 0.750000 0.647697
O O2 0.817693 0.984639 0.589424
O O3 0.673906 0.992246 0.624183
O O4 0.095704 0.986044 0.733582
O O5 0.357438 0.250000 0.720658
O O6 0.546419 0.020204 0.742935
O O7 0.415083 0.998807 0.781427
O O8 0.137643 0.999109 0.637817
O O9 0.651043 0.250000 0.195469
O O10 0.516197 0.002980 0.115646
O O11 0.667631 0.250000 0.735186
O O12 0.919330 0.012822 0.817168
O O13 0.554231 0.993248 0.664462
O O14 0.901896 0.750000 0.568157
O O15 0.735255 0.000337 0.484835
O O16 0.513585 0.250000 0.401959
O O17 0.167919 0.250000 0.901859
O O18 0.314949 0.016685 0.906160
O O19 0.274230 0.995958 0.972537
O O20 0.522387 0.250000 0.939351
#
# Coordination Sequence:
#
# PCOD9159142 Si02
#       8
#     4   4   4   4   4   4   4   4
#     4   8  17  32  51  78 108 137 169 211 261 311
#     4  10  21  38  57  76 101 135 179 225 263 304
#     4  10  19  34  56  80 108 141 176 213 260 314
#     4  10  22  39  56  75 103 139 177 218 264 311
#     4  10  20  36  55  76 106 140 175 215 263 314
#     4  11  21  33  53  80 107 136 174 217 262 314
#     4   9  19  36  56  80 111 143 172 209 261 313
#     4  10  19  32  55  86 114 139 171 210 255 311
#
# _framework density 18.23058
#
# number of rings (size 3 to 8) (size 9 to 14) (size 15 to 20)
#    0.000    2.250    0.000    3.750    0.000    2.500 
#    0.000    6.875    0.000    0.000    0.000    0.000 
#    0.000    0.000    0.000    0.000    0.000    0.000 
#
# Total GULP energy -178671.038780 kJ/mol
# GULP energy per Si atom -5583.469962 kJ/mol
# Density = 1.818909 g / cm^3
# Si number density = 18.230580 Si / 1000 Ang^3
#
#
#
# Elastic Constant Matrix: (Units=GPa)
#
#
# Indices 1 2 3 4 5 6 
#
# 1 63.0414 21.1050 46.4825 0.0000 -11.7702 0.0000
# 2 21.1050 31.1082 26.9060 0.0000 -9.2573 0.0000
# 3 46.4825 26.9060 119.4882 0.0000 -36.5501 0.0000
# 4 0.0000 0.0000 0.0000 25.4923 0.0000 -2.8320
# 5 -11.7702 -9.2573 -36.5501 0.0000 14.1026 0.0000
# 6 0.0000 0.0000 0.0000 -2.8320 0.0000 22.4642
#
#
#
# Elastic Compliance Matrix: (Units=1/GPa)
#
#
# Indices 1 2 3 4 5 6 
#
# 1 0.026629 -0.012403 -0.015724 0.000000 -0.026668 0.000000
# 2 -0.012403 0.046281 0.002557 0.000000 0.026655 0.000000
# 3 -0.015724 0.002557 0.050232 0.000000 0.118742 0.000000
# 4 0.000000 0.000000 0.000000 0.039785 0.000000 0.005016
# 5 -0.026668 0.026655 0.118742 0.000000 0.373895 0.000000
# 6 0.000000 0.000000 0.000000 0.005016 0.000000 0.045148
#
#
# Mechanical properties :
#
#
# Convention : Reuss Voigt Hill
#
# Bulk Modulus (GPa) = 13.88822 44.73607 29.31215
# Shear Modulus (GPa) = 7.60908 20.35478 13.98193
#
# Velocity S-wave (km/s) = 2.04520 3.34506 2.77239
# Velocity P-wave (km/s) = 3.63480 6.28582 5.13436
#
# Compressibility (1/GPa) = 0.07200344
#
# Stress axis : x y z
#
# Youngs Moduli (GPa) = 37.55261 21.60719 19.90767
#
# Poissons Ratio (x) = 0.26798 0.31302
# Poissons Ratio (y) = 0.46575 -0.05090
# Poissons Ratio (z) = 0.59047 -0.05525
#
# Static dielectric constant tensor:
#      x y z
#    x 1.619570 0.000000 0.007600 
#    y 0.000000 1.609490 0.000000 
#    z 0.007600 0.000000 1.599190 
# 
# From -- ./inp_files/73150.got.cif
#   From: 2010.05.17/outbox.cif.g08.bks.cpg/sg11_37_cif.got.tgz:73150.got - 2010.06.03 12:22:45.
