data_PCOD9159489
_publ_section_title
;
Structure prediction by ZEFSAII (Michael W. Deem and Ramdas Pophale) SiO2 
 PCOD9159489
Probable space group: P 21/M
;
_chemical_formula_sum "Si O2"
_cell_formula_units_Z 32
_cell_length_a 25.992674
_cell_length_b 7.656182
_cell_length_c 19.138097
_cell_angle_alpha 90.000000
_cell_angle_beta 156.032759
_cell_angle_gamma 90.000000
_cell_volume 1547.095488
_symmetry_space_group_name_H-M "P 21/M"
_symmetry_group_IT_number 11
_symmetry_cell_setting 'monoclinic'
loop_
_space_group_symop_operation_xyz
x,y,z
-x,1/2+y,-z
-x,-y,-z
x,1/2-y,z
loop_
_atom_site_type_symbol
_atom_site_label
_atom_site_fract_x
_atom_site_fract_y
_atom_site_fract_z
Si Si1 0.377251 0.535617 0.051694
Si Si2 0.624986 0.539285 0.611137
Si Si3 0.864238 0.544917 0.993529
Si Si4 0.624937 0.039982 0.110576
Si Si5 0.146096 0.538401 0.351566
Si Si6 0.145591 0.539656 0.510104
Si Si7 0.390158 0.042855 0.565212
Si Si8 0.143180 0.542843 0.854682
O O1 0.378752 0.750000 0.052248
O O2 0.497233 0.474603 0.245955
O O3 0.383966 0.475550 0.979983
O O4 0.248925 0.480396 0.931705
O O5 0.500000 0.500000 0.500000
O O6 0.636197 0.750000 0.621672
O O7 0.612196 0.471479 0.516292
O O8 0.749573 0.470554 0.805799
O O9 0.871454 0.750000 0.985737
O O10 0.838456 0.530308 0.044433
O O11 0.005702 0.473111 0.157132
O O12 0.635790 0.250000 0.120381
O O13 0.749115 0.973696 0.305582
O O14 0.500000 0.000000 0.000000
O O15 0.142679 0.750000 0.348515
O O16 0.171705 0.479053 0.463045
O O17 0.256467 0.483412 0.437038
O O18 0.153266 0.750000 0.518668
O O19 0.000477 0.494437 0.346870
O O20 0.413135 0.250000 0.587641
O O21 0.157936 0.750000 0.879519
#
# Coordination Sequence:
#
# PCOD9159489 Si02
#       8
#     4   4   4   4   4   4   4   4
#     4   9  19  34  51  74 105 135 165 211 263 301
#     4  10  21  36  54  76 103 136 172 211 256 304
#     4   9  19  36  54  74 105 139 168 207 258 304
#     4  10  20  35  54  75 103 139 175 212 256 303
#     4   9  18  33  51  72 100 133 168 207 253 304
#     4   9  19  35  53  75 106 139 169 209 259 303
#     4  10  20  34  52  75 103 133 168 212 258 301
#     4  10  19  33  55  79 102 133 173 211 251 306
#
# _framework density 20.683920000000001
#
# number of rings (size 3 to 8) (size 9 to 14) (size 15 to 20)
#    0.000    2.500    0.000    2.625    0.000    5.500 
#    0.000    2.500    0.000    0.000    0.000    0.000 
#    0.000    0.000    0.000    0.000    0.000    0.000 
#
# Total GULP energy -178675.323222 kJ/mol
# GULP energy per Si atom -5583.603851 kJ/mol
# Density = 2.063684 g / cm^3
# Si number density = 20.683920 Si / 1000 Ang^3
#
#
#
# Elastic Constant Matrix: (Units=GPa)
#
#
# Indices 1 2 3 4 5 6 
#
# 1 182.0374 -6.1482 134.8860 0.0000 7.8348 0.0000
# 2 -6.1482 34.8984 0.8583 0.0000 -7.4283 0.0000
# 3 134.8860 0.8583 202.4849 0.0000 -18.7101 0.0000
# 4 0.0000 0.0000 0.0000 10.6920 0.0000 14.5581
# 5 7.8348 -7.4283 -18.7101 0.0000 33.1107 0.0000
# 6 0.0000 0.0000 0.0000 14.5581 0.0000 13.2829
#
#
#
# Elastic Compliance Matrix: (Units=1/GPa)
#
#
# Indices 1 2 3 4 5 6 
#
# 1 0.012668 0.000751 -0.009183 0.000000 -0.008018 0.000000
# 2 0.000751 0.030189 -0.000020 0.000000 0.006584 0.000000
# 3 -0.009183 -0.000020 0.011877 0.000000 0.008880 0.000000
# 4 0.000000 0.000000 0.000000 -0.189977 0.000000 0.208217
# 5 -0.008018 0.006584 0.008880 0.000000 0.038594 0.000000
# 6 0.000000 0.000000 0.000000 0.208217 0.000000 -0.152922
#
#
# Mechanical properties :
#
#
# Convention : Reuss Voigt Hill
#
# Bulk Modulus (GPa) = 26.43430 75.40141 50.91785
# Shear Modulus (GPa) = -22.72134 30.73876 4.00871
#
# Velocity S-wave (km/s) = -3.31796 3.85920 1.39366
# Velocity P-wave (km/s) = 1.36771 7.50941 5.22114
#
# Compressibility (1/GPa) = 0.03782964
#
# Stress axis : x y z
#
# Youngs Moduli (GPa) = 78.93640 33.12490 84.19870
#
# Poissons Ratio (x) = -0.02488 0.77322
# Poissons Ratio (y) = -0.05928 0.00167
# Poissons Ratio (z) = 0.72489 0.00066
#
# Static dielectric constant tensor:
#      x y z
#    x 1.699590 0.000000 -0.020910 
#    y 0.000000 1.769370 0.000000 
#    z -0.020910 0.000000 1.732160 
# 
# From -- ./inp_files/67281.got.cif
#   From: 2010.05.17/outbox.cif.g08.bks.cpg/sg11_34_cif.got.tgz:67281.got - 2010.06.03 12:22:45.
