data_PCOD9159980
_publ_section_title
;
Structure prediction by ZEFSAII (Michael W. Deem and Ramdas Pophale) SiO2 
 PCOD9159980
Probable space group: P 21/M
;
_chemical_formula_sum "Si O2"
_cell_formula_units_Z 28
_cell_length_a 9.900888
_cell_length_b 12.290935
_cell_length_c 14.071337
_cell_angle_alpha 90.000000
_cell_angle_beta 123.095592
_cell_angle_gamma 90.000000
_cell_volume 1434.545845
_symmetry_space_group_name_H-M "P 21/M"
_symmetry_group_IT_number 11
_symmetry_cell_setting 'monoclinic'
loop_
_space_group_symop_operation_xyz
x,y,z
-x,1/2+y,-z
-x,-y,-z
x,1/2-y,z
loop_
_atom_site_type_symbol
_atom_site_label
_atom_site_fract_x
_atom_site_fract_y
_atom_site_fract_z
Si Si1 0.646371 0.026908 0.327290
Si Si2 0.634410 0.375416 0.722331
Si Si3 0.742953 0.379775 0.560266
Si Si4 0.733971 0.909638 0.084695
Si Si5 0.895762 0.627136 0.344503
Si Si6 0.984225 0.374210 0.954010
Si Si7 0.631868 0.369457 0.115837
O O1 0.654765 0.090997 0.429010
O O2 0.643566 0.099517 0.231531
O O3 0.490811 0.949420 0.269364
O O4 0.805424 0.951790 0.381734
O O5 0.575653 0.250000 0.697411
O O6 0.658372 0.419256 0.624032
O O7 0.809894 0.375025 0.837118
O O8 0.749670 0.250000 0.574373
O O9 0.929685 0.414802 0.621987
O O10 0.724409 0.040291 0.090577
O O11 0.781933 0.870445 0.207952
O O12 0.869952 0.872048 0.065201
O O13 0.555896 0.874135 0.985676
O O14 0.914605 0.750000 0.389097
O O15 0.992809 0.250000 0.005550
O O16 0.000000 0.500000 0.000000
O O17 0.696746 0.250000 0.123794
#
# Coordination Sequence:
#
# PCOD9159980 Si02
#       7
#     4   4   4   4   4   4   4
#     4  11  21  34  54  85 114 144 187 243 291 341
#     4  10  21  37  57  82 114 153 197 240 289 351
#     4  10  20  36  57  78 108 153 193 235 290 348
#     4  10  20  36  58  81 109 151 195 236 284 354
#     4  10  19  34  57  80 105 143 192 237 281 342
#     4  11  22  38  61  87 119 158 200 245 295 354
#     4  10  21  35  55  83 115 147 184 238 301 349
#
# _framework density 19.518371999999999
#
# number of rings (size 3 to 8) (size 9 to 14) (size 15 to 20)
#    0.000    1.714    1.429    3.857    0.000    0.571 
#    0.000    4.286    0.000    2.571    0.000    0.000 
#    0.000    0.000    0.000    0.000    0.000    0.000 
#
# Total GULP energy -156100.842028 kJ/mol
# GULP energy per Si atom -5575.030072 kJ/mol
# Density = 1.947395 g / cm^3
# Si number density = 19.518372 Si / 1000 Ang^3
#
#
#
# Elastic Constant Matrix: (Units=GPa)
#
#
# Indices 1 2 3 4 5 6 
#
# 1 49.9731 24.3183 -17.7655 0.0000 8.0620 0.0000
# 2 24.3183 112.7501 8.8055 0.0000 -5.4659 0.0000
# 3 -17.7655 8.8055 47.0671 0.0000 1.5606 0.0000
# 4 0.0000 0.0000 0.0000 21.2691 0.0000 -1.9731
# 5 8.0620 -5.4659 1.5606 0.0000 24.0108 0.0000
# 6 0.0000 0.0000 0.0000 -1.9731 0.0000 10.7278
#
#
#
# Elastic Compliance Matrix: (Units=1/GPa)
#
#
# Indices 1 2 3 4 5 6 
#
# 1 0.031160 -0.008441 0.013781 0.000000 -0.013279 0.000000
# 2 -0.008441 0.011401 -0.005511 0.000000 0.005787 0.000000
# 3 0.013781 -0.005511 0.027733 0.000000 -0.007684 0.000000
# 4 0.000000 0.000000 0.000000 0.047833 0.000000 0.008798
# 5 -0.013279 0.005787 -0.007684 0.000000 0.047924 0.000000
# 6 0.000000 0.000000 0.000000 0.008798 0.000000 0.094834
#
#
# Mechanical properties :
#
#
# Convention : Reuss Voigt Hill
#
# Bulk Modulus (GPa) = 14.29545 26.72298 20.50922
# Shear Modulus (GPa) = 17.57208 24.16368 20.86788
#
# Velocity S-wave (km/s) = 3.00373 3.52233 3.27332
# Velocity P-wave (km/s) = 4.40112 5.50122 4.98163
#
# Compressibility (1/GPa) = 0.06995232
#
# Stress axis : x y z
#
# Youngs Moduli (GPa) = 32.09289 87.71468 36.05751
#
# Poissons Ratio (x) = 0.74036 -0.49689
# Poissons Ratio (y) = 0.27088 0.19870
# Poissons Ratio (z) = -0.44226 0.48337
#
# Static dielectric constant tensor:
#      x y z
#    x 1.652010 0.000000 -0.008910 
#    y 0.000000 1.777950 0.000000 
#    z -0.008910 0.000000 1.669430 
# 
# From -- ./inp_files/21275.got.cif
#   From: 2010.05.17/outbox.cif.g08.bks.cpg/sg11_11_cif.got.tgz:21275.got - 2010.06.03 12:22:45.
