data_PCOD9159352
_publ_section_title
;
Structure prediction by ZEFSAII (Michael W. Deem and Ramdas Pophale) SiO2 
 PCOD9159352
Probable space group: P 21/M
;
_chemical_formula_sum "Si O2"
_cell_formula_units_Z 32
_cell_length_a 32.681048
_cell_length_b 9.250958
_cell_length_c 12.933474
_cell_angle_alpha 90.000000
_cell_angle_beta 27.638199
_cell_angle_gamma 90.000000
_cell_volume 1813.885454
_symmetry_space_group_name_H-M "P 21/M"
_symmetry_group_IT_number 11
_symmetry_cell_setting 'monoclinic'
loop_
_space_group_symop_operation_xyz
x,y,z
-x,1/2+y,-z
-x,-y,-z
x,1/2-y,z
loop_
_atom_site_type_symbol
_atom_site_label
_atom_site_fract_x
_atom_site_fract_y
_atom_site_fract_z
Si Si1 0.195538 0.576427 0.225091
Si Si2 0.699783 0.074900 0.214901
Si Si3 0.075471 0.412290 0.775776
Si Si4 0.980230 0.914601 0.337610
Si Si5 0.237595 0.577432 0.501953
Si Si6 0.817258 0.073698 0.144019
Si Si7 0.497796 0.575650 0.393208
Si Si8 0.660559 0.422673 0.921654
O O1 0.185646 0.750000 0.246250
O O2 0.098282 0.506967 0.436344
O O3 0.254328 0.541422 0.195629
O O4 0.253021 0.529851 0.997171
O O5 0.703401 0.250000 0.207605
O O6 0.754204 0.024567 0.192550
O O7 0.596959 0.036829 0.444172
O O8 0.080550 0.250000 0.805156
O O9 0.051368 0.406625 0.710148
O O10 0.163105 0.496445 0.604974
O O11 0.000000 0.500000 0.000000
O O12 0.982256 0.750000 0.375392
O O13 0.081154 0.971442 0.105761
O O14 0.222540 0.750000 0.532979
O O15 0.223616 0.532084 0.652696
O O16 0.322123 0.551475 0.239388
O O17 0.820317 0.250000 0.138013
O O18 0.500000 0.500000 0.500000
O O19 0.502961 0.750000 0.391691
O O20 0.578635 0.513460 0.146564
O O21 0.645553 0.250000 0.969865
#
# Coordination Sequence:
#
# PCOD9159352 Si02
#       8
#     4   4   4   4   4   4   4   4
#     4  10  19  33  53  78 110 141 175 220 269 318
#     4   9  19  36  56  77 103 141 182 218 263 325
#     4  11  20  30  48  76 107 139 182 226 267 311
#     4  10  20  32  50  79 109 140 181 222 263 310
#     4  10  19  34  55  78 106 144 182 220 266 315
#     4   9  18  35  55  74 104 147 189 217 252 317
#     4  11  21  36  60  86 109 136 176 223 275 323
#     4  10  20  34  54  84 114 137 172 220 275 325
#
# _framework density 17.641687999999998
#
# number of rings (size 3 to 8) (size 9 to 14) (size 15 to 20)
#    0.000    2.000    3.750    0.750    0.000    2.000 
#    0.000    0.625    0.000    3.750    0.000    0.000 
#    0.000    0.000    0.000    0.000    0.000    0.000 
#
# Total GULP energy -178242.180054 kJ/mol
# GULP energy per Si atom -5570.068127 kJ/mol
# Density = 1.760153 g / cm^3
# Si number density = 17.641688 Si / 1000 Ang^3
#
#
#
# Elastic Constant Matrix: (Units=GPa)
#
#
# Indices 1 2 3 4 5 6 
#
# 1 99.1726 19.0651 62.1311 0.0000 -8.4429 0.0000
# 2 19.0651 2.3638 62.1752 0.0000 3.6183 0.0000
# 3 62.1311 62.1752 150.4821 0.0000 -2.9455 0.0000
# 4 0.0000 0.0000 0.0000 30.5368 0.0000 -0.7235
# 5 -8.4429 3.6183 -2.9455 0.0000 18.2248 0.0000
# 6 0.0000 0.0000 0.0000 -0.7235 0.0000 12.1519
#
#
#
# Elastic Compliance Matrix: (Units=1/GPa)
#
#
# Indices 1 2 3 4 5 6 
#
# 1 0.013979 -0.002659 -0.004550 0.000000 0.006269 0.000000
# 2 -0.002659 -0.040124 0.017865 0.000000 0.009621 0.000000
# 3 -0.004550 0.017865 0.001035 0.000000 -0.005487 0.000000
# 4 0.000000 0.000000 0.000000 0.032794 0.000000 0.001953
# 5 0.006269 0.009621 -0.005487 0.000000 0.054977 0.000000
# 6 0.000000 0.000000 0.000000 0.001953 0.000000 0.082408
#
#
# Mechanical properties :
#
#
# Convention : Reuss Voigt Hill
#
# Bulk Modulus (GPa) = -263.17462 59.86236 -101.65613
# Shear Modulus (GPa) = 40.81889 19.42584 30.12237
#
# Velocity S-wave (km/s) = 4.81539 3.32193 4.13662
# Velocity P-wave (km/s) = 10.88964 6.97995 5.91035
#
# Compressibility (1/GPa) = -0.00379976
#
# Stress axis : x y z
#
# Youngs Moduli (GPa) = 71.53595 -24.92264 965.82351
#
# Poissons Ratio (x) = -0.06628 4.39463
# Poissons Ratio (y) = 0.19025 -17.25404
# Poissons Ratio (z) = 0.32550 0.44523
#
# Static dielectric constant tensor:
#      x y z
#    x 1.598960 0.000000 0.020860 
#    y 0.000000 1.583840 0.000000 
#    z 0.020860 0.000000 1.620320 
# 
# From -- ./inp_files/45136.got.cif
#   From: 2010.05.17/outbox.cif.g08.bks.cpg/sg11_23_cif.got.tgz:45136.got - 2010.06.03 12:22:45.
