data_PCOD9159955
_publ_section_title
;
Structure prediction by ZEFSAII (Michael W. Deem and Ramdas Pophale) SiO2 
 PCOD9159955
Probable space group: P 21/M
;
_chemical_formula_sum "Si O2"
_cell_formula_units_Z 20
_cell_length_a 5.067108
_cell_length_b 9.864970
_cell_length_c 20.911032
_cell_angle_alpha 90.000000
_cell_angle_beta 85.880358
_cell_angle_gamma 90.000000
_cell_volume 1042.576232
_symmetry_space_group_name_H-M "P 21/M"
_symmetry_group_IT_number 11
_symmetry_cell_setting 'monoclinic'
loop_
_space_group_symop_operation_xyz
x,y,z
-x,1/2+y,-z
-x,-y,-z
x,1/2-y,z
loop_
_atom_site_type_symbol
_atom_site_label
_atom_site_fract_x
_atom_site_fract_y
_atom_site_fract_z
Si Si1 0.695837 0.090458 0.709840
Si Si2 0.914871 0.750000 0.471585
Si Si3 0.403807 0.590187 0.145726
Si Si4 0.610880 0.250000 0.443444
Si Si5 0.089431 0.410581 0.938673
Si Si6 0.791687 0.979124 0.370987
O O1 0.775375 0.250000 0.713080
O O2 0.621277 0.038084 0.781744
O O3 0.443482 0.080191 0.668248
O O4 0.943608 0.011591 0.675860
O O5 0.695537 0.750000 0.531185
O O6 0.864426 0.879578 0.427999
O O7 0.207406 0.750000 0.495893
O O8 0.468268 0.750000 0.152175
O O9 0.637308 0.536766 0.096681
O O10 0.130371 0.579136 0.112812
O O11 0.689710 0.381527 0.402145
O O12 0.112883 0.250000 0.955788
O O13 0.000000 0.500000 0.000000
#
# Coordination Sequence:
#
# PCOD9159955 Si02
#       6
#     4   2   4   2   4   4
#     4  11  20  38  62  88 111 146 202 242 273 331
#     4  12  22  42  60  88 110 148 197 234 277 342
#     4   9  19  33  57  85 109 145 190 236 271 313
#     4  12  26  40  58  86 122 148 183 232 297 352
#     4  10  19  34  56  83 115 147 183 228 278 326
#     4  12  23  39  63  84 115 151 188 237 290 337
#
# _framework density 19.183247999999999
#
# number of rings (size 3 to 8) (size 9 to 14) (size 15 to 20)
#    0.000    1.200    2.000    5.400    0.000    3.200 
#    0.000    0.000   13.200    0.000    0.000    0.000 
#    0.000    0.000    0.000    0.000    0.000    0.000 
#
# Total GULP energy -111781.231831 kJ/mol
# GULP energy per Si atom -5589.061592 kJ/mol
# Density = 1.913959 g / cm^3
# Si number density = 19.183248 Si / 1000 Ang^3
#
#
#
# Elastic Constant Matrix: (Units=GPa)
#
#
# Indices 1 2 3 4 5 6 
#
# 1 45.3014 -23.6850 -17.0810 0.0000 -7.8377 0.0000
# 2 -23.6850 45.1185 12.4175 0.0000 5.5058 0.0000
# 3 -17.0810 12.4175 65.5593 0.0000 6.3740 0.0000
# 4 0.0000 0.0000 0.0000 16.6737 0.0000 -8.7497
# 5 -7.8377 5.5058 6.3740 0.0000 9.8565 0.0000
# 6 0.0000 0.0000 0.0000 -8.7497 0.0000 12.9391
#
#
#
# Elastic Compliance Matrix: (Units=1/GPa)
#
#
# Indices 1 2 3 4 5 6 
#
# 1 0.034313 0.014793 0.004576 0.000000 0.016062 0.000000
# 2 0.014793 0.030908 -0.001563 0.000000 -0.004491 0.000000
# 3 0.004576 -0.001563 0.017397 0.000000 -0.006738 0.000000
# 4 0.000000 0.000000 0.000000 0.092963 0.000000 0.062863
# 5 0.016062 -0.004491 -0.006738 0.000000 0.121094 0.000000
# 6 0.000000 0.000000 0.000000 0.062863 0.000000 0.119795
#
#
# Mechanical properties :
#
#
# Convention : Reuss Voigt Hill
#
# Bulk Modulus (GPa) = 8.45802 11.03132 9.74467
# Shear Modulus (GPa) = 11.89718 20.18236 16.03977
#
# Velocity S-wave (km/s) = 2.49305 3.24710 2.89474
# Velocity P-wave (km/s) = 3.56451 4.45210 4.03280
#
# Compressibility (1/GPa) = 0.11823100
#
# Stress axis : x y z
#
# Youngs Moduli (GPa) = 29.14319 32.35421 57.48136
#
# Poissons Ratio (x) = -0.47862 -0.26306
# Poissons Ratio (y) = -0.43112 0.08986
# Poissons Ratio (z) = -0.13337 0.05058
#
# Static dielectric constant tensor:
#      x y z
#    x 1.660680 0.000000 -0.018970 
#    y 0.000000 1.662810 0.000000 
#    z -0.018970 0.000000 1.666550 
# 
# From -- ./inp_files/6245.got.cif
#   From: 2010.05.17/outbox.cif.g08.bks.cpg/sg11_4_cif.got.tgz:6245.got - 2010.06.03 12:22:45.
