data_PCOD9159300
_publ_section_title
;
Structure prediction by ZEFSAII (Michael W. Deem and Ramdas Pophale) SiO2 
 PCOD9159300
Probable space group: P 21/M
;
_chemical_formula_sum "Si O2"
_cell_formula_units_Z 32
_cell_length_a 15.775525
_cell_length_b 8.902596
_cell_length_c 21.862650
_cell_angle_alpha 90.000000
_cell_angle_beta 138.542949
_cell_angle_gamma 90.000000
_cell_volume 2032.823243
_symmetry_space_group_name_H-M "P 21/M"
_symmetry_group_IT_number 11
_symmetry_cell_setting 'monoclinic'
loop_
_space_group_symop_operation_xyz
x,y,z
-x,1/2+y,-z
-x,-y,-z
x,1/2-y,z
loop_
_atom_site_type_symbol
_atom_site_label
_atom_site_fract_x
_atom_site_fract_y
_atom_site_fract_z
Si Si1 0.619545 0.430224 0.600441
Si Si2 0.443054 0.571443 0.292400
Si Si3 0.715143 0.070682 0.411657
Si Si4 0.008190 0.569963 0.909809
Si Si5 0.033914 0.569870 0.370840
Si Si6 0.203875 0.070783 0.103300
Si Si7 0.110614 0.570005 0.602337
Si Si8 0.892965 0.930625 0.716850
O O1 0.500000 0.500000 0.500000
O O2 0.622514 0.250000 0.594097
O O3 0.601030 0.464653 0.662227
O O4 0.751063 0.501781 0.647892
O O5 0.439732 0.750000 0.283579
O O6 0.586036 0.512301 0.359476
O O7 0.342082 0.496912 0.191851
O O8 0.695941 0.250000 0.406195
O O9 0.833724 0.032379 0.520971
O O10 0.761392 0.037335 0.367240
O O11 0.023339 0.750000 0.921972
O O12 0.889728 0.528177 0.890433
O O13 0.971409 0.530607 0.820791
O O14 0.133073 0.492033 0.005185
O O15 0.024662 0.750000 0.363735
O O16 0.044456 0.499344 0.309773
O O17 0.916850 0.502304 0.346921
O O18 0.210995 0.250000 0.104762
O O19 0.096345 0.750000 0.597589
O O20 0.000000 0.500000 0.500000
O O21 0.885187 0.750000 0.708210
#
# Coordination Sequence:
#
# PCOD9159300 Si02
#       8
#     4   4   4   4   4   4   4   4
#     4  11  23  35  47  66  97 136 173 206 240 287
#     4  11  22  33  48  71  98 130 167 205 246 293
#     4   9  19  33  49  70  99 132 167 205 246 290
#     4   9  19  34  51  72  96 125 162 206 252 295
#     4  10  20  33  50  74 102 134 169 208 248 295
#     4  10  19  33  53  72  94 126 162 206 252 294
#     4   9  17  31  50  72  98 130 166 209 253 294
#     4  11  21  34  51  72  99 132 167 205 249 295
#
# _framework density 15.741655
#
# number of rings (size 3 to 8) (size 9 to 14) (size 15 to 20)
#    0.000    2.000    1.250    3.750    0.000    8.000 
#    0.000    0.000    0.000    0.000    0.000    0.875 
#    0.000    0.000    0.000    0.000    0.000    0.000 
#
# Total GULP energy -178552.762897 kJ/mol
# GULP energy per Si atom -5579.773841 kJ/mol
# Density = 1.570583 g / cm^3
# Si number density = 15.741655 Si / 1000 Ang^3
#
#
#
# Elastic Constant Matrix: (Units=GPa)
#
#
# Indices 1 2 3 4 5 6 
#
# 1 76.9755 30.4536 17.2189 0.0000 -27.5583 0.0000
# 2 30.4536 39.1496 27.1967 0.0000 -12.1157 0.0000
# 3 17.2189 27.1967 72.4252 0.0000 -20.7475 0.0000
# 4 0.0000 0.0000 0.0000 26.2657 0.0000 0.2674
# 5 -27.5583 -12.1157 -20.7475 0.0000 17.5247 0.0000
# 6 0.0000 0.0000 0.0000 0.2674 0.0000 28.8641
#
#
#
# Elastic Compliance Matrix: (Units=1/GPa)
#
#
# Indices 1 2 3 4 5 6 
#
# 1 0.050398 -0.028663 0.023921 0.000000 0.087758 0.000000
# 2 -0.028663 0.052902 -0.023433 0.000000 -0.036242 0.000000
# 3 0.023921 -0.023433 0.034887 0.000000 0.062719 0.000000
# 4 0.000000 0.000000 0.000000 0.038076 0.000000 -0.000353
# 5 0.087758 -0.036242 0.062719 0.000000 0.244262 0.000000
# 6 0.000000 0.000000 0.000000 -0.000353 0.000000 0.034648
#
#
# Mechanical properties :
#
#
# Convention : Reuss Voigt Hill
#
# Bulk Modulus (GPa) = 12.21941 37.58762 24.90352
# Shear Modulus (GPa) = 9.27983 22.10965 15.69474
#
# Velocity S-wave (km/s) = 2.43061 3.75177 3.16099
# Velocity P-wave (km/s) = 3.95683 6.53432 5.40157
#
# Compressibility (1/GPa) = 0.08183702
#
# Stress axis : x y z
#
# Youngs Moduli (GPa) = 19.84188 18.90287 28.66427
#
# Poissons Ratio (x) = 0.54181 -0.68568
# Poissons Ratio (y) = 0.56873 0.67170
# Poissons Ratio (z) = -0.47464 0.44296
#
# Static dielectric constant tensor:
#      x y z
#    x 1.541420 0.000000 -0.023230 
#    y 0.000000 1.513920 0.000000 
#    z -0.023230 0.000000 1.509350 
# 
# From -- ./inp_files/38105.got.cif
#   From: 2010.05.17/outbox.cif.g08.bks.cpg/sg11_20_cif.got.tgz:38105.got - 2010.06.03 12:22:45.
