data_PCOD9159926
_publ_section_title
;
Structure prediction by ZEFSAII (Michael W. Deem and Ramdas Pophale) SiO2 
 PCOD9159926
Probable space group: P 21/M
;
_chemical_formula_sum "Si O2"
_cell_formula_units_Z 28
_cell_length_a 20.767387
_cell_length_b 8.624327
_cell_length_c 15.063127
_cell_angle_alpha 90.000000
_cell_angle_beta 147.394419
_cell_angle_gamma 90.000000
_cell_volume 1453.758902
_symmetry_space_group_name_H-M "P 21/M"
_symmetry_group_IT_number 11
_symmetry_cell_setting 'monoclinic'
loop_
_space_group_symop_operation_xyz
x,y,z
-x,1/2+y,-z
-x,-y,-z
x,1/2-y,z
loop_
_atom_site_type_symbol
_atom_site_label
_atom_site_fract_x
_atom_site_fract_y
_atom_site_fract_z
Si Si1 0.276431 0.563936 0.921954
Si Si2 0.557020 0.437923 0.723099
Si Si3 0.220838 0.936015 0.137598
Si Si4 0.716511 0.937614 0.604891
Si Si5 0.633565 0.935406 0.156886
Si Si6 0.808325 0.562595 0.517133
Si Si7 0.930579 0.934360 0.197223
O O1 0.276653 0.750000 0.916990
O O2 0.298184 0.493432 0.851213
O O3 0.155147 0.508050 0.827732
O O4 0.383266 0.516506 0.113805
O O5 0.553640 0.250000 0.718796
O O6 0.650824 0.485025 0.755849
O O7 0.421952 0.491933 0.553933
O O8 0.213157 0.750000 0.124296
O O9 0.216019 0.993638 0.232273
O O10 0.121484 0.006543 0.957447
O O11 0.717583 0.750000 0.612054
O O12 0.773031 0.981624 0.576296
O O13 0.628089 0.750000 0.150108
O O14 0.705273 0.983657 0.328336
O O15 0.500000 0.000000 0.000000
O O16 0.818538 0.750000 0.526414
O O17 0.934096 0.489850 0.636517
O O18 0.922102 0.750000 0.191822
#
# Coordination Sequence:
#
# PCOD9159926 Si02
#       7
#     4   4   4   4   4   4   4
#     4  10  20  38  63  88 118 154 190 236 292 344
#     4   8  16  32  55  83 114 148 184 228 285 343
#     4  10  20  35  56  83 116 151 187 232 289 348
#     4  10  19  34  56  81 111 149 193 237 283 336
#     4  11  23  40  63  91 121 154 192 233 284 342
#     4  10  23  41  59  81 114 155 195 239 288 339
#     4  11  23  40  61  85 112 147 195 243 287 342
#
# _framework density 19.260415999999999
#
# number of rings (size 3 to 8) (size 9 to 14) (size 15 to 20)
#    0.000    2.000    0.000    4.714    0.000    5.143 
#    0.000    5.000    0.000    0.000    0.000    0.000 
#    0.000    0.000    0.000    0.000    0.000    0.000 
#
# Total GULP energy -156452.456754 kJ/mol
# GULP energy per Si atom -5587.587741 kJ/mol
# Density = 1.921658 g / cm^3
# Si number density = 19.260416 Si / 1000 Ang^3
#
#
#
# Elastic Constant Matrix: (Units=GPa)
#
#
# Indices 1 2 3 4 5 6 
#
# 1 97.5398 26.9103 59.8331 0.0000 -22.4815 0.0000
# 2 26.9103 39.1931 29.8513 0.0000 -1.6620 0.0000
# 3 59.8331 29.8513 86.9792 0.0000 12.3003 0.0000
# 4 0.0000 0.0000 0.0000 24.6029 0.0000 -2.5033
# 5 -22.4815 -1.6620 12.3003 0.0000 28.6468 0.0000
# 6 0.0000 0.0000 0.0000 -2.5033 0.0000 29.9821
#
#
#
# Elastic Compliance Matrix: (Units=1/GPa)
#
#
# Indices 1 2 3 4 5 6 
#
# 1 0.048097 0.000679 -0.041162 0.000000 0.055459 0.000000
# 2 0.000679 0.036161 -0.014106 0.000000 0.008687 0.000000
# 3 -0.041162 -0.014106 0.052527 0.000000 -0.055675 0.000000
# 4 0.000000 0.000000 0.000000 0.040994 0.000000 0.003423
# 5 0.055459 0.008687 -0.055675 0.000000 0.102841 0.000000
# 6 0.000000 0.000000 0.000000 0.003423 0.000000 0.033639
#
#
# Mechanical properties :
#
#
# Convention : Reuss Voigt Hill
#
# Bulk Modulus (GPa) = 36.22301 50.76684 43.49493
# Shear Modulus (GPa) = 11.55699 23.78750 17.67225
#
# Velocity S-wave (km/s) = 2.45223 3.51813 3.03238
# Velocity P-wave (km/s) = 5.18321 6.55121 5.90695
#
# Compressibility (1/GPa) = 0.02760676
#
# Stress axis : x y z
#
# Youngs Moduli (GPa) = 20.79128 27.65437 19.03793
#
# Poissons Ratio (x) = -0.01876 0.78364
# Poissons Ratio (y) = -0.01411 0.26854
# Poissons Ratio (z) = 0.85581 0.39008
#
# Static dielectric constant tensor:
#      x y z
#    x 1.653960 0.000000 -0.001010 
#    y 0.000000 1.650800 0.000000 
#    z -0.001010 0.000000 1.660030 
# 
# From -- ./inp_files/49121.got.cif
#   From: 2010.05.17/outbox.cif.g08.bks.cpg/sg11_25_cif.got.tgz:49121.got - 2010.06.03 12:22:45.
