data_PCOD9159853
_publ_section_title
;
Structure prediction by ZEFSAII (Michael W. Deem and Ramdas Pophale) SiO2 
 PCOD9159853
Probable space group: P 21/M
;
_chemical_formula_sum "Si O2"
_cell_formula_units_Z 32
_cell_length_a 17.887491
_cell_length_b 24.393087
_cell_length_c 11.157724
_cell_angle_alpha 90.000000
_cell_angle_beta 161.843728
_cell_angle_gamma 90.000000
_cell_volume 1517.060605
_symmetry_space_group_name_H-M "P 21/M"
_symmetry_group_IT_number 11
_symmetry_cell_setting 'monoclinic'
loop_
_space_group_symop_operation_xyz
x,y,z
-x,1/2+y,-z
-x,-y,-z
x,1/2-y,z
loop_
_atom_site_type_symbol
_atom_site_label
_atom_site_fract_x
_atom_site_fract_y
_atom_site_fract_z
Si Si1 0.252097 0.504555 0.951259
Si Si2 0.457192 0.313527 0.664375
Si Si3 0.772327 0.378237 0.974462
Si Si4 0.730446 0.381594 0.524214
Si Si5 0.968977 0.686410 0.188005
Si Si6 0.357179 0.118427 0.150917
Si Si7 0.868049 0.621786 0.665886
Si Si8 0.646202 0.995427 0.345374
O O1 0.000000 0.500000 0.500000
O O2 0.237308 0.557088 0.013127
O O3 0.296453 0.445566 0.078121
O O4 0.465283 0.513515 0.180590
O O5 0.505208 0.250000 0.760331
O O6 0.685152 0.344683 0.956342
O O7 0.357141 0.344632 0.628339
O O8 0.244227 0.316327 0.238426
O O9 0.572444 0.367158 0.569038
O O10 0.027285 0.363931 0.304609
O O11 0.468750 0.375673 0.187418
O O12 0.766966 0.445597 0.548701
O O13 0.803909 0.344716 0.523627
O O14 0.920807 0.367157 0.917415
O O15 0.017477 0.750000 0.284943
O O16 0.864290 0.655328 0.144586
O O17 0.814175 0.557120 0.589919
O O18 0.500000 0.000000 0.000000
#
# Coordination Sequence:
#
# PCOD9159853 Si02
#       8
#     4   4   4   4   4   4   4   4
#     4  11  22  35  52  79 110 142 179 224 270 321
#     4   9  18  34  53  81 113 141 178 221 260 317
#     4  10  19  34  55  80 108 142 176 218 269 319
#     4   9  20  34  53  80 109 140 177 218 266 320
#     4   9  18  32  55  81 109 143 178 217 266 315
#     4   9  20  34  53  80 109 140 177 218 266 320
#     4  10  19  34  55  80 108 142 176 218 269 319
#     4  11  22  35  52  79 110 142 179 224 270 321
#
# _framework density 21.093422
#
# number of rings (size 3 to 8) (size 9 to 14) (size 15 to 20)
#    0.000    2.250    1.250    1.500    3.500    1.000 
#    0.000    5.000    0.000    3.000    0.000    3.500 
#    0.000    0.000    0.000    0.000    0.000    0.000 
#
# Total GULP energy -178663.331104 kJ/mol
# GULP energy per Si atom -5583.229097 kJ/mol
# Density = 2.104541 g / cm^3
# Si number density = 21.093422 Si / 1000 Ang^3
#
#
#
# Elastic Constant Matrix: (Units=GPa)
#
#
# Indices 1 2 3 4 5 6 
#
# 1 111.0072 84.1665 45.5848 0.0000 59.7903 0.0000
# 2 84.1665 140.2237 20.2403 0.0000 55.9686 0.0000
# 3 45.5848 20.2403 30.6743 0.0000 10.6479 0.0000
# 4 0.0000 0.0000 0.0000 -18.0648 0.0000 29.4443
# 5 59.7903 55.9686 10.6479 0.0000 41.4883 0.0000
# 6 0.0000 0.0000 0.0000 29.4443 0.0000 15.7387
#
#
#
# Elastic Compliance Matrix: (Units=1/GPa)
#
#
# Indices 1 2 3 4 5 6 
#
# 1 -0.124786 -0.005604 0.136228 0.000000 0.152431 0.000000
# 2 -0.005604 0.015500 0.002806 0.000000 -0.013553 0.000000
# 3 0.136228 0.002806 -0.112233 0.000000 -0.171304 0.000000
# 4 0.000000 0.000000 0.000000 -0.013671 0.000000 0.025575
# 5 0.152431 -0.013553 -0.171304 0.000000 -0.133323 0.000000
# 6 0.000000 0.000000 0.000000 0.025575 0.000000 0.015691
#
#
# Mechanical properties :
#
#
# Convention : Reuss Voigt Hill
#
# Bulk Modulus (GPa) = 22.05597 64.65426 43.35511
# Shear Modulus (GPa) = -8.27038 16.62669 4.17816
#
# Velocity S-wave (km/s) = -1.98226 2.81061 1.40893
# Velocity P-wave (km/s) = 2.28908 6.42266 4.82133
#
# Compressibility (1/GPa) = 0.04533920
#
# Stress axis : x y z
#
# Youngs Moduli (GPa) = -8.01373 64.51611 -8.91000
#
# Poissons Ratio (x) = 0.36158 1.21379
# Poissons Ratio (y) = -0.04491 0.02500
# Poissons Ratio (z) = 1.09169 -0.18102
#
# Static dielectric constant tensor:
#      x y z
#    x 1.761950 0.000000 0.006450 
#    y 0.000000 1.706660 0.000000 
#    z 0.006450 0.000000 1.754540 
# 
# From -- ./inp_files/42023.got.cif
#   From: 2010.05.17/outbox.cif.g08.bks.cpg/sg11_22_cif.got.tgz:42023.got - 2010.06.03 12:22:45.
