data_PCOD9159484
_publ_section_title
;
Structure prediction by ZEFSAII (Michael W. Deem and Ramdas Pophale) SiO2 
 PCOD9159484
Probable space group: P 21/M
;
_chemical_formula_sum "Si O2"
_cell_formula_units_Z 24
_cell_length_a 8.134132
_cell_length_b 26.322499
_cell_length_c 9.730675
_cell_angle_alpha 90.000000
_cell_angle_beta 148.366116
_cell_angle_gamma 90.000000
_cell_volume 1092.743198
_symmetry_space_group_name_H-M "P 21/M"
_symmetry_group_IT_number 11
_symmetry_cell_setting 'monoclinic'
loop_
_space_group_symop_operation_xyz
x,y,z
-x,1/2+y,-z
-x,-y,-z
x,1/2-y,z
loop_
_atom_site_type_symbol
_atom_site_label
_atom_site_fract_x
_atom_site_fract_y
_atom_site_fract_z
Si Si1 0.005003 0.431042 0.928362
Si Si2 0.136194 0.995768 0.789034
Si Si3 0.986377 0.586284 0.492541
Si Si4 0.247235 0.309668 0.365692
Si Si5 0.372723 0.871269 0.136393
Si Si6 0.383885 0.627356 0.570591
O O1 0.051850 0.483649 0.880428
O O2 0.750136 0.419781 0.863868
O O3 0.888151 0.390565 0.728214
O O4 0.338485 0.414239 0.226160
O O5 0.964148 0.037624 0.570888
O O6 0.024691 0.939404 0.669024
O O7 0.500000 0.000000 0.000000
O O8 0.641190 0.608286 0.227874
O O9 0.234324 0.627280 0.615654
O O10 0.201960 0.250000 0.347037
O O11 0.446777 0.333665 0.631023
O O12 0.444862 0.323620 0.368824
O O13 0.920324 0.339900 0.127525
#
# Coordination Sequence:
#
# PCOD9159484 Si02
#       6
#     4   4   4   4   4   4
#     4   9  18  34  51  79 110 148 183 218 267 316
#     4  10  19  33  55  76 116 156 192 221 257 327
#     4  10  21  34  54  84 112 150 186 228 273 312
#     4  10  21  40  60  79 105 142 179 225 286 347
#     4  10  22  36  59  84 113 142 179 234 285 327
#     4   9  18  34  56  76 105 141 181 219 270 327
#
# _framework density 21.963075
#
# number of rings (size 3 to 8) (size 9 to 14) (size 15 to 20)
#    0.000    2.333    1.667    0.500    2.333    0.667 
#    0.000    2.500    0.000    0.000    0.000    0.000 
#    0.000    0.000    0.000    0.000    0.000    0.000 
#
# Total GULP energy -133938.263626 kJ/mol
# GULP energy per Si atom -5580.760984 kJ/mol
# Density = 2.191309 g / cm^3
# Si number density = 21.963075 Si / 1000 Ang^3
#
#
#
# Elastic Constant Matrix: (Units=GPa)
#
#
# Indices 1 2 3 4 5 6 
#
# 1 57.8441 26.1543 9.4843 0.0000 18.5167 0.0000
# 2 26.1543 122.8675 35.0769 0.0000 0.1586 0.0000
# 3 9.4843 35.0769 95.6262 0.0000 13.1669 0.0000
# 4 0.0000 0.0000 0.0000 25.4971 0.0000 -0.9365
# 5 18.5167 0.1586 13.1669 0.0000 40.2711 0.0000
# 6 0.0000 0.0000 0.0000 -0.9365 0.0000 25.5336
#
#
#
# Elastic Compliance Matrix: (Units=1/GPa)
#
#
# Indices 1 2 3 4 5 6 
#
# 1 0.022938 -0.005191 0.001129 0.000000 -0.010896 0.000000
# 2 -0.005191 0.010313 -0.003760 0.000000 0.003576 0.000000
# 3 0.001129 -0.003760 0.012350 0.000000 -0.004542 0.000000
# 4 0.000000 0.000000 0.000000 0.039273 0.000000 0.001440
# 5 -0.010896 0.003576 -0.004542 0.000000 0.031313 0.000000
# 6 0.000000 0.000000 0.000000 0.001440 0.000000 0.039217
#
#
# Mechanical properties :
#
#
# Convention : Reuss Voigt Hill
#
# Bulk Modulus (GPa) = 33.38166 46.41876 39.90021
# Shear Modulus (GPa) = 27.61936 31.96852 29.79394
#
# Velocity S-wave (km/s) = 3.55002 3.81932 3.68713
# Velocity P-wave (km/s) = 5.65999 6.37419 6.02768
#
# Compressibility (1/GPa) = 0.02995657
#
# Stress axis : x y z
#
# Youngs Moduli (GPa) = 43.59661 96.96738 80.97056
#
# Poissons Ratio (x) = 0.50336 -0.09145
# Poissons Ratio (y) = 0.22631 0.30448
# Poissons Ratio (z) = -0.04924 0.36463
#
# Static dielectric constant tensor:
#      x y z
#    x 1.908360 0.000000 -0.075060 
#    y 0.000000 1.775940 0.000000 
#    z -0.075060 0.000000 1.832620 
# 
# From -- ./inp_files/2677.got.cif
#   From: 2010.05.17/outbox.cif.g08.bks.cpg/sg11_2_cif.got.tgz:2677.got - 2010.06.03 12:22:45.
