data_PCOD9159035
_publ_section_title
;
Structure prediction by ZEFSAII (Michael W. Deem and Ramdas Pophale) SiO2 
 PCOD9159035
Probable space group: P 21/M
;
_chemical_formula_sum "Si O2"
_cell_formula_units_Z 32
_cell_length_a 18.918027
_cell_length_b 13.488517
_cell_length_c 22.922170
_cell_angle_alpha 90.000000
_cell_angle_beta 18.665732
_cell_angle_gamma 90.000000
_cell_volume 1872.012494
_symmetry_space_group_name_H-M "P 21/M"
_symmetry_group_IT_number 11
_symmetry_cell_setting 'monoclinic'
loop_
_space_group_symop_operation_xyz
x,y,z
-x,1/2+y,-z
-x,-y,-z
x,1/2-y,z
loop_
_atom_site_type_symbol
_atom_site_label
_atom_site_fract_x
_atom_site_fract_y
_atom_site_fract_z
Si Si1 0.981858 0.079292 0.929943
Si Si2 0.589944 0.909000 0.467265
Si Si3 0.796862 0.633174 0.422666
Si Si4 0.545986 0.134891 0.202417
Si Si5 0.230896 0.631112 0.152600
Si Si6 0.637712 0.546482 0.769677
Si Si7 0.100490 0.641246 0.872703
Si Si8 0.114999 0.865807 0.377268
O O1 0.206164 0.128360 0.730639
O O2 0.782098 0.106909 0.043919
O O3 0.934252 0.119618 0.031652
O O4 0.011466 0.958970 0.910943
O O5 0.701518 0.928037 0.443005
O O6 0.363517 0.852805 0.656703
O O7 0.500000 0.000000 0.500000
O O8 0.801918 0.750000 0.400921
O O9 0.631170 0.626175 0.606868
O O10 0.038501 0.604399 0.256822
O O11 0.546623 0.250000 0.182305
O O12 0.474906 0.067372 0.204273
O O13 0.258511 0.750000 0.127418
O O14 0.146146 0.608855 0.284189
O O15 0.459992 0.579941 0.956739
O O16 0.718145 0.435045 0.717755
O O17 0.864918 0.609578 0.591995
O O18 0.005246 0.750000 0.931663
O O19 0.158544 0.750000 0.350461
#
# Coordination Sequence:
#
# PCOD9159035 Si02
#       8
#     4   4   4   4   4   4   4   4
#     4  10  21  34  53  80 104 138 179 218 269 323
#     4  10  20  33  50  75 106 140 176 219 267 322
#     4  10  19  32  53  79 107 135 170 223 275 313
#     4  11  20  34  56  81 108 138 175 226 277 316
#     4  10  19  33  55  83 113 140 174 221 270 316
#     4  11  21  34  57  84 109 145 180 215 266 324
#     4  10  20  35  52  75 108 140 176 221 265 317
#     4  10  21  37  54  81 116 144 177 219 263 315
#
# _framework density 17.093903000000001
#
# number of rings (size 3 to 8) (size 9 to 14) (size 15 to 20)
#    0.000    1.750    2.500    3.000    0.000    3.000 
#    0.000    0.625    0.000    0.000    0.000    0.000 
#    0.000    0.000    0.000    0.000    0.000    0.000 
#
# Total GULP energy -178425.145263 kJ/mol
# GULP energy per Si atom -5575.785789 kJ/mol
# Density = 1.705500 g / cm^3
# Si number density = 17.093903 Si / 1000 Ang^3
#
#
#
# Elastic Constant Matrix: (Units=GPa)
#
#
# Indices 1 2 3 4 5 6 
#
# 1 81.8247 40.6264 23.8849 0.0000 -5.5595 0.0000
# 2 40.6264 76.0654 36.7312 0.0000 2.8774 0.0000
# 3 23.8849 36.7312 118.9392 0.0000 -5.2191 0.0000
# 4 0.0000 0.0000 0.0000 45.5783 0.0000 24.0171
# 5 -5.5595 2.8774 -5.2191 0.0000 23.4414 0.0000
# 6 0.0000 0.0000 0.0000 24.0171 0.0000 39.8963
#
#
#
# Elastic Compliance Matrix: (Units=1/GPa)
#
#
# Indices 1 2 3 4 5 6 
#
# 1 0.017266 -0.009227 -0.000392 0.000000 0.005140 0.000000
# 2 -0.009227 0.020592 -0.004760 0.000000 -0.005776 0.000000
# 3 -0.000392 -0.004760 0.010076 0.000000 0.002735 0.000000
# 4 0.000000 0.000000 0.000000 0.032133 0.000000 -0.019344
# 5 0.005140 -0.005776 0.002735 0.000000 0.045196 0.000000
# 6 0.000000 0.000000 0.000000 -0.019344 0.000000 0.036710
#
#
# Mechanical properties :
#
#
# Convention : Reuss Voigt Hill
#
# Bulk Modulus (GPa) = 52.14751 53.25714 52.70233
# Shear Modulus (GPa) = 25.36482 33.48899 29.42691
#
# Velocity S-wave (km/s) = 3.85626 4.43100 4.15358
# Velocity P-wave (km/s) = 7.09932 7.57638 7.34173
#
# Compressibility (1/GPa) = 0.01917637
#
# Stress axis : x y z
#
# Youngs Moduli (GPa) = 57.91657 48.56368 99.24241
#
# Poissons Ratio (x) = 0.44809 0.03893
# Poissons Ratio (y) = 0.53439 0.47236
# Poissons Ratio (z) = 0.02272 0.23115
#
# Static dielectric constant tensor:
#      x y z
#    x 1.563500 0.000000 0.016030 
#    y 0.000000 1.581280 0.000000 
#    z 0.016030 0.000000 1.603780 
# 
# From -- ./inp_files/66269.got.cif
#   From: 2010.05.17/outbox.cif.g08.bks.cpg/sg11_34_cif.got.tgz:66269.got - 2010.06.03 12:22:45.
