data_PCOD9159563
_publ_section_title
;
Structure prediction by ZEFSAII (Michael W. Deem and Ramdas Pophale) SiO2 
 PCOD9159563
Probable space group: P 21/M
;
_chemical_formula_sum "Si O2"
_cell_formula_units_Z 32
_cell_length_a 12.513842
_cell_length_b 8.855264
_cell_length_c 29.853392
_cell_angle_alpha 90.000000
_cell_angle_beta 33.776913
_cell_angle_gamma 90.000000
_cell_volume 1839.204330
_symmetry_space_group_name_H-M "P 21/M"
_symmetry_group_IT_number 11
_symmetry_cell_setting 'monoclinic'
loop_
_space_group_symop_operation_xyz
x,y,z
-x,1/2+y,-z
-x,-y,-z
x,1/2-y,z
loop_
_atom_site_type_symbol
_atom_site_label
_atom_site_fract_x
_atom_site_fract_y
_atom_site_fract_z
Si Si1 0.450645 0.931073 0.230263
Si Si2 0.827474 0.567976 0.530584
Si Si3 0.001263 0.569345 0.376727
Si Si4 0.555638 0.568849 0.293602
Si Si5 0.504215 0.930600 0.879223
Si Si6 0.046692 0.068687 0.267544
Si Si7 0.662391 0.569374 0.975635
Si Si8 0.926428 0.067812 0.211217
O O1 0.464453 0.750000 0.219501
O O2 0.222970 0.969782 0.311596
O O3 0.544956 0.972257 0.244635
O O4 0.534719 0.012334 0.157384
O O5 0.832071 0.750000 0.532040
O O6 0.627451 0.504728 0.618315
O O7 0.000000 0.500000 0.500000
O O8 0.868444 0.524792 0.464628
O O9 0.992558 0.750000 0.375315
O O10 0.958491 0.496876 0.343689
O O11 0.540504 0.750000 0.301739
O O12 0.749263 0.510647 0.248820
O O13 0.490219 0.750000 0.886659
O O14 0.726907 0.974267 0.812130
O O15 0.372632 0.005592 0.962644
O O16 0.040884 0.250000 0.271682
O O17 0.947895 0.021323 0.255755
O O18 0.642692 0.750000 0.982246
O O19 0.872357 0.531860 0.883227
O O20 0.500000 0.500000 0.000000
O O21 0.902092 0.250000 0.218390
#
# Coordination Sequence:
#
# PCOD9159563 Si02
#       8
#     4   4   4   4   4   4   4   4
#     4   9  18  35  54  79 114 146 181 229 281 329
#     4  11  21  36  58  85 116 149 188 235 282 331
#     4   9  18  33  54  82 112 141 181 231 278 327
#     4  11  23  39  58  84 115 149 192 233 279 340
#     4  10  19  33  55  86 114 141 186 233 280 335
#     4   9  18  34  54  80 113 145 182 229 278 332
#     4  11  21  36  58  84 115 148 188 236 283 333
#     4  10  22  40  57  80 115 151 186 228 282 338
#
# _framework density 17.398827000000001
#
# number of rings (size 3 to 8) (size 9 to 14) (size 15 to 20)
#    0.000    2.000    2.500    1.500    0.000    4.000 
#    0.000    1.250    0.000    0.000    0.000    0.000 
#    0.000    0.000    0.000    0.000    0.000    0.000 
#
# Total GULP energy -178624.681960 kJ/mol
# GULP energy per Si atom -5582.021311 kJ/mol
# Density = 1.735923 g / cm^3
# Si number density = 17.398827 Si / 1000 Ang^3
#
#
#
# Elastic Constant Matrix: (Units=GPa)
#
#
# Indices 1 2 3 4 5 6 
#
# 1 164.9726 55.1562 90.7528 0.0000 21.6467 0.0000
# 2 55.1562 44.6893 53.2006 0.0000 6.7390 0.0000
# 3 90.7528 53.2006 118.0500 0.0000 18.1680 0.0000
# 4 0.0000 0.0000 0.0000 29.4821 0.0000 3.1673
# 5 21.6467 6.7390 18.1680 0.0000 32.6592 0.0000
# 6 0.0000 0.0000 0.0000 3.1673 0.0000 33.3977
#
#
#
# Elastic Compliance Matrix: (Units=1/GPa)
#
#
# Indices 1 2 3 4 5 6 
#
# 1 0.012068 -0.008553 -0.004882 0.000000 -0.003518 0.000000
# 2 -0.008553 0.054503 -0.018733 0.000000 0.004843 0.000000
# 3 -0.004882 -0.018733 0.021406 0.000000 -0.004807 0.000000
# 4 0.000000 0.000000 0.000000 0.034268 0.000000 -0.003250
# 5 -0.003518 0.004843 -0.004807 0.000000 0.034626 0.000000
# 6 0.000000 0.000000 0.000000 -0.003250 0.000000 0.030250
#
#
# Mechanical properties :
#
#
# Convention : Reuss Voigt Hill
#
# Bulk Modulus (GPa) = 42.29685 80.65901 61.47793
# Shear Modulus (GPa) = 19.28001 27.68128 23.48064
#
# Velocity S-wave (km/s) = 3.33246 3.99304 3.67761
# Velocity P-wave (km/s) = 6.25859 8.22914 7.31056
#
# Compressibility (1/GPa) = 0.02364242
#
# Stress axis : x y z
#
# Youngs Moduli (GPa) = 82.86187 18.34776 46.71632
#
# Poissons Ratio (x) = 0.15692 0.22806
# Poissons Ratio (y) = 0.70869 0.87512
# Poissons Ratio (z) = 0.40452 0.34370
#
# Static dielectric constant tensor:
#      x y z
#    x 1.582000 0.000000 0.014820 
#    y 0.000000 1.591740 0.000000 
#    z 0.014820 0.000000 1.573270 
# 
# From -- ./inp_files/38297.got.cif
#   From: 2010.05.17/outbox.cif.g08.bks.cpg/sg11_20_cif.got.tgz:38297.got - 2010.06.03 12:22:45.
