data_PCOD9159856
_publ_section_title
;
Structure prediction by ZEFSAII (Michael W. Deem and Ramdas Pophale) SiO2 
 PCOD9159856
Probable space group: P 21/M
;
_chemical_formula_sum "Si O2"
_cell_formula_units_Z 32
_cell_length_a 13.059836
_cell_length_b 9.130717
_cell_length_c 32.671957
_cell_angle_alpha 90.000000
_cell_angle_beta 26.814050
_cell_angle_gamma 90.000000
_cell_volume 1757.466767
_symmetry_space_group_name_H-M "P 21/M"
_symmetry_group_IT_number 11
_symmetry_cell_setting 'monoclinic'
loop_
_space_group_symop_operation_xyz
x,y,z
-x,1/2+y,-z
-x,-y,-z
x,1/2-y,z
loop_
_atom_site_type_symbol
_atom_site_label
_atom_site_fract_x
_atom_site_fract_y
_atom_site_fract_z
Si Si1 0.083434 0.927614 0.212294
Si Si2 0.447479 0.925980 0.928515
Si Si3 0.121694 0.075528 0.418630
Si Si4 0.658133 0.424573 0.214688
Si Si5 0.559567 0.074109 0.160411
Si Si6 0.274626 0.419309 0.594128
Si Si7 0.089857 0.580102 0.348108
Si Si8 0.961770 0.426222 0.866777
O O1 0.099251 0.750000 0.209967
O O2 0.865354 0.975853 0.316642
O O3 0.055577 0.967756 0.174644
O O4 0.313079 0.996503 0.148499
O O5 0.479522 0.750000 0.919353
O O6 0.354620 0.959234 0.915844
O O7 0.264716 0.970336 0.027764
O O8 0.092686 0.250000 0.430171
O O9 0.393281 0.045509 0.319595
O O10 0.021249 0.007927 0.412952
O O11 0.000000 0.000000 0.500000
O O12 0.692995 0.250000 0.205701
O O13 0.693437 0.467075 0.154119
O O14 0.825120 0.505898 0.185716
O O15 0.525484 0.250000 0.175221
O O16 0.318286 0.994541 0.250241
O O17 0.500000 0.500000 0.500000
O O18 0.331500 0.250000 0.581969
O O19 0.098258 0.426044 0.619626
O O20 0.133215 0.750000 0.342919
O O21 0.977979 0.250000 0.862840
#
# Coordination Sequence:
#
# PCOD9159856 Si02
#       8
#     4   4   4   4   4   4   4   4
#     4  10  21  39  57  79 113 148 187 234 283 337
#     4  10  20  35  58  86 111 144 191 235 282 340
#     4  10  21  37  58  84 112 145 187 233 282 338
#     4   9  20  37  54  77 112 148 184 229 279 332
#     4   9  18  34  56  80 109 144 184 232 281 333
#     4  10  22  37  55  81 110 143 186 234 285 341
#     4  10  19  34  55  80 109 142 185 232 278 333
#     4  10  22  37  55  82 117 151 186 233 283 339
#
# _framework density 18.208024999999999
#
# number of rings (size 3 to 8) (size 9 to 14) (size 15 to 20)
#    0.000    2.250    1.250    1.875    0.000    6.500 
#    0.000    2.500    0.000    0.000    0.000    0.000 
#    0.000    0.000    0.000    0.000    0.000    0.000 
#
# Total GULP energy -178507.409362 kJ/mol
# GULP energy per Si atom -5578.356543 kJ/mol
# Density = 1.816658 g / cm^3
# Si number density = 18.208025 Si / 1000 Ang^3
#
#
#
# Elastic Constant Matrix: (Units=GPa)
#
#
# Indices 1 2 3 4 5 6 
#
# 1 103.9320 30.6134 53.4910 0.0000 27.3564 0.0000
# 2 30.6134 20.2562 29.7841 0.0000 12.3991 0.0000
# 3 53.4910 29.7841 106.8392 0.0000 34.1951 0.0000
# 4 0.0000 0.0000 0.0000 28.0289 0.0000 -5.5915
# 5 27.3564 12.3991 34.1951 0.0000 33.2953 0.0000
# 6 0.0000 0.0000 0.0000 -5.5915 0.0000 31.2426
#
#
#
# Elastic Compliance Matrix: (Units=1/GPa)
#
#
# Indices 1 2 3 4 5 6 
#
# 1 0.018317 -0.022749 -0.001078 0.000000 -0.005471 0.000000
# 2 -0.022749 0.114568 -0.019181 0.000000 -0.004274 0.000000
# 3 -0.001078 -0.019181 0.018885 0.000000 -0.011366 0.000000
# 4 0.000000 0.000000 0.000000 0.036998 0.000000 0.006622
# 5 -0.005471 -0.004274 -0.011366 0.000000 0.047795 0.000000
# 6 0.000000 0.000000 0.000000 0.006622 0.000000 0.033193
#
#
# Mechanical properties :
#
#
# Convention : Reuss Voigt Hill
#
# Bulk Modulus (GPa) = 15.20819 50.97826 33.09323
# Shear Modulus (GPa) = 13.23838 26.32261 19.78050
#
# Velocity S-wave (km/s) = 2.69934 3.80631 3.29958
# Velocity P-wave (km/s) = 4.25274 6.88301 5.72108
#
# Compressibility (1/GPa) = 0.06575404
#
# Stress axis : x y z
#
# Youngs Moduli (GPa) = 54.59289 8.72846 52.95325
#
# Poissons Ratio (x) = 0.19857 0.05708
# Poissons Ratio (y) = 1.24195 1.01568
# Poissons Ratio (z) = 0.05884 0.16742
#
# Static dielectric constant tensor:
#      x y z
#    x 1.624900 0.000000 0.031120 
#    y 0.000000 1.613550 0.000000 
#    z 0.031120 0.000000 1.618200 
# 
# From -- ./inp_files/73116.got.cif
#   From: 2010.05.17/outbox.cif.g08.bks.cpg/sg11_37_cif.got.tgz:73116.got - 2010.06.03 12:22:45.
