data_PCOD9159960
_publ_section_title
;
Structure prediction by ZEFSAII (Michael W. Deem and Ramdas Pophale) SiO2 
 PCOD9159960
Probable space group: P 21/M
;
_chemical_formula_sum "Si O2"
_cell_formula_units_Z 24
_cell_length_a 15.567938
_cell_length_b 16.941593
_cell_length_c 7.721782
_cell_angle_alpha 90.000000
_cell_angle_beta 148.071271
_cell_angle_gamma 90.000000
_cell_volume 1077.077226
_symmetry_space_group_name_H-M "P 21/M"
_symmetry_group_IT_number 11
_symmetry_cell_setting 'monoclinic'
loop_
_space_group_symop_operation_xyz
x,y,z
-x,1/2+y,-z
-x,-y,-z
x,1/2-y,z
loop_
_atom_site_type_symbol
_atom_site_label
_atom_site_fract_x
_atom_site_fract_y
_atom_site_fract_z
Si Si1 0.766967 0.836036 0.247461
Si Si2 0.414937 0.616923 0.732971
Si Si3 0.088430 0.660619 0.290569
Si Si4 0.495051 0.551577 0.241653
Si Si5 0.253699 0.336495 0.186157
Si Si6 0.852680 0.494247 0.378155
O O1 0.819498 0.750000 0.407152
O O2 0.828915 0.919891 0.427854
O O3 0.570547 0.839967 0.918900
O O4 0.815640 0.839024 0.127650
O O5 0.237079 0.654642 0.408885
O O6 0.414860 0.527577 0.664129
O O7 0.461075 0.606581 0.015474
O O8 0.107360 0.750000 0.400225
O O9 0.118508 0.580750 0.450803
O O10 0.894408 0.654926 0.931583
O O11 0.609033 0.599197 0.561919
O O12 0.319252 0.524746 0.007372
O O13 0.326596 0.250000 0.337017
O O14 0.000000 0.500000 0.500000
#
# Coordination Sequence:
#
# PCOD9159960 Si02
#       6
#     4   4   4   4   4   4
#     4  10  20  36  58  84 116 151 191 240 290 338
#     4   9  19  36  59  81 106 148 189 231 283 339
#     4  10  20  36  57  83 116 153 192 235 286 345
#     4   9  20  36  56  82 112 144 193 233 281 348
#     4  10  21  36  57  85 117 151 189 235 288 338
#     4  10  19  34  56  84 110 147 193 234 278 330
#
# _framework density 22.282523999999999
#
# number of rings (size 3 to 8) (size 9 to 14) (size 15 to 20)
#    0.000    2.333    1.667    1.500    0.000    6.667 
#    0.000    0.000    0.000    0.000    0.000    0.000 
#    0.000    0.000    0.000    0.000    0.000    0.000 
#
# Total GULP energy -133714.384170 kJ/mol
# GULP energy per Si atom -5571.432674 kJ/mol
# Density = 2.223181 g / cm^3
# Si number density = 22.282524 Si / 1000 Ang^3
#
#
#
# Elastic Constant Matrix: (Units=GPa)
#
#
# Indices 1 2 3 4 5 6 
#
# 1 75.7474 7.9735 24.0694 0.0000 36.0174 0.0000
# 2 7.9735 160.0427 43.7508 0.0000 4.4164 0.0000
# 3 24.0694 43.7508 29.6439 0.0000 15.9488 0.0000
# 4 0.0000 0.0000 0.0000 20.6793 0.0000 5.3656
# 5 36.0174 4.4164 15.9488 0.0000 35.6765 0.0000
# 6 0.0000 0.0000 0.0000 5.3656 0.0000 21.3156
#
#
#
# Elastic Compliance Matrix: (Units=1/GPa)
#
#
# Indices 1 2 3 4 5 6 
#
# 1 0.028558 0.003926 -0.017393 0.000000 -0.021542 0.000000
# 2 0.003926 0.012738 -0.025027 0.000000 0.005647 0.000000
# 3 -0.017393 -0.025027 0.097011 0.000000 -0.022710 0.000000
# 4 0.000000 0.000000 0.000000 0.051737 0.000000 -0.013023
# 5 -0.021542 0.005647 -0.022710 0.000000 0.059231 0.000000
# 6 0.000000 0.000000 0.000000 -0.013023 0.000000 0.050192
#
#
# Mechanical properties :
#
#
# Convention : Reuss Voigt Hill
#
# Bulk Modulus (GPa) = 16.30762 46.33572 31.32167
# Shear Modulus (GPa) = 12.59784 28.17696 20.38740
#
# Velocity S-wave (km/s) = 2.38033 3.55988 3.02810
# Velocity P-wave (km/s) = 3.85864 6.14303 5.12961
#
# Compressibility (1/GPa) = 0.06132102
#
# Stress axis : x y z
#
# Youngs Moduli (GPa) = 35.01615 78.50294 10.30816
#
# Poissons Ratio (x) = -0.30823 0.17929
# Poissons Ratio (y) = -0.13749 0.25798
# Poissons Ratio (z) = 0.60903 1.96465
#
# Static dielectric constant tensor:
#      x y z
#    x 1.869170 0.000000 -0.005890 
#    y 0.000000 1.848020 0.000000 
#    z -0.005890 0.000000 1.839560 
# 
# From -- ./inp_files/25152.got.cif
#   From: 2010.05.17/outbox.cif.g08.bks.cpg/sg11_13_cif.got.tgz:25152.got - 2010.06.03 12:22:45.
