data_PCOD9159617
_publ_section_title
;
Structure prediction by ZEFSAII (Michael W. Deem and Ramdas Pophale) SiO2 
 PCOD9159617
Probable space group: P 21/M
;
_chemical_formula_sum "Si O2"
_cell_formula_units_Z 26
_cell_length_a 6.971266
_cell_length_b 12.138679
_cell_length_c 18.985023
_cell_angle_alpha 90.000000
_cell_angle_beta 47.188617
_cell_angle_gamma 90.000000
_cell_volume 1178.556728
_symmetry_space_group_name_H-M "P 21/M"
_symmetry_group_IT_number 11
_symmetry_cell_setting 'monoclinic'
loop_
_space_group_symop_operation_xyz
x,y,z
-x,1/2+y,-z
-x,-y,-z
x,1/2-y,z
loop_
_atom_site_type_symbol
_atom_site_label
_atom_site_fract_x
_atom_site_fract_y
_atom_site_fract_z
Si Si1 0.706081 0.629308 0.101061
Si Si2 0.022635 0.054347 0.104882
Si Si3 0.181572 0.872637 0.162338
Si Si4 0.622858 0.250000 0.593190
Si Si5 0.563153 0.124677 0.314548
Si Si6 0.286163 0.065992 0.624691
Si Si7 0.131264 0.539415 0.394770
O O1 0.764726 0.750000 0.116362
O O2 0.835948 0.533049 0.112063
O O3 0.397053 0.616669 0.169359
O O4 0.824371 0.621087 0.992562
O O5 0.833618 0.122271 0.203051
O O6 0.209845 0.974850 0.103234
O O7 0.216812 0.750000 0.122786
O O8 0.894537 0.882877 0.267295
O O9 0.519731 0.152614 0.563653
O O10 0.720571 0.152505 0.623998
O O11 0.481294 0.250000 0.348707
O O12 0.616443 0.051683 0.370811
O O13 0.342498 0.056961 0.326622
O O14 0.093947 0.054738 0.606903
O O15 0.000000 0.500000 0.500000
#
# Coordination Sequence:
#
# PCOD9159617 Si02
#       7
#     4   4   4   2   4   4   4
#     4  10  20  33  54  85 115 159 199 255 298 351
#     4  10  20  36  55  81 121 155 204 248 301 357
#     4  10  19  33  56  84 114 151 197 248 300 359
#     4  10  22  40  66  92 120 158 196 254 312 366
#     4  10  23  41  62  89 123 171 208 253 310 378
#     4  10  21  42  62  92 124 161 203 255 312 366
#     4  11  25  43  65  95 125 159 207 259 314 376
#
# _framework density 22.060881999999999
#
# number of rings (size 3 to 8) (size 9 to 14) (size 15 to 20)
#    0.000    1.846    0.769    2.769    1.077    3.077 
#    9.692    0.000    0.000   10.154    0.000    0.000 
#    0.000    0.000    0.000    0.000    0.000    0.000 
#
# Total GULP energy -144782.320326 kJ/mol
# GULP energy per Si atom -5568.550782 kJ/mol
# Density = 2.201067 g / cm^3
# Si number density = 22.060882 Si / 1000 Ang^3
#
#
#
# Elastic Constant Matrix: (Units=GPa)
#
#
# Indices 1 2 3 4 5 6 
#
# 1 133.3070 55.6092 -11.3610 0.0000 18.8628 0.0000
# 2 55.6092 187.2992 5.6059 0.0000 4.4688 0.0000
# 3 -11.3610 5.6059 48.6950 0.0000 -1.5972 0.0000
# 4 0.0000 0.0000 0.0000 18.9262 0.0000 13.7711
# 5 18.8628 4.4688 -1.5972 0.0000 27.1865 0.0000
# 6 0.0000 0.0000 0.0000 13.7711 0.0000 33.1111
#
#
#
# Elastic Compliance Matrix: (Units=1/GPa)
#
#
# Indices 1 2 3 4 5 6 
#
# 1 0.009755 -0.002821 0.002398 0.000000 -0.006164 0.000000
# 2 -0.002821 0.006196 -0.001343 0.000000 0.000860 0.000000
# 3 0.002398 -0.001343 0.021244 0.000000 -0.000195 0.000000
# 4 0.000000 0.000000 0.000000 0.075765 0.000000 -0.031511
# 5 -0.006164 0.000860 -0.000195 0.000000 0.040907 0.000000
# 6 0.000000 0.000000 0.000000 -0.031511 0.000000 0.043307
#
#
# Mechanical properties :
#
#
# Convention : Reuss Voigt Hill
#
# Bulk Modulus (GPa) = 29.70587 52.11216 40.90902
# Shear Modulus (GPa) = 23.59316 37.14124 30.36720
#
# Velocity S-wave (km/s) = 3.27380 4.10760 3.71417
# Velocity P-wave (km/s) = 5.27115 6.79483 6.08090
#
# Compressibility (1/GPa) = 0.03366338
#
# Stress axis : x y z
#
# Youngs Moduli (GPa) = 102.51390 161.38736 47.07256
#
# Poissons Ratio (x) = 0.45526 -0.11290
# Poissons Ratio (y) = 0.28918 0.06323
# Poissons Ratio (z) = -0.24588 0.21679
#
# Static dielectric constant tensor:
#      x y z
#    x 1.821810 0.000000 -0.029620 
#    y 0.000000 1.771840 0.000000 
#    z -0.029620 0.000000 1.897070 
# 
# From -- ./inp_files/8895.got.cif
#   From: 2010.05.17/outbox.cif.g08.bks.cpg/sg11_5_cif.got.tgz:8895.got - 2010.06.03 12:22:45.
