data_PCOD9159297
_publ_section_title
;
Structure prediction by ZEFSAII (Michael W. Deem and Ramdas Pophale) SiO2 
 PCOD9159297
Probable space group: P 21/M
;
_chemical_formula_sum "Si O2"
_cell_formula_units_Z 32
_cell_length_a 24.298666
_cell_length_b 8.886156
_cell_length_c 10.462621
_cell_angle_alpha 90.000000
_cell_angle_beta 125.306531
_cell_angle_gamma 90.000000
_cell_volume 1843.593569
_symmetry_space_group_name_H-M "P 21/M"
_symmetry_group_IT_number 11
_symmetry_cell_setting 'monoclinic'
loop_
_space_group_symop_operation_xyz
x,y,z
-x,1/2+y,-z
-x,-y,-z
x,1/2-y,z
loop_
_atom_site_type_symbol
_atom_site_label
_atom_site_fract_x
_atom_site_fract_y
_atom_site_fract_z
Si Si1 0.142201 0.568521 0.176087
Si Si2 0.920679 0.068300 0.638169
Si Si3 0.551925 0.076337 0.745714
Si Si4 0.300551 0.567098 0.030238
Si Si5 0.582836 0.422206 0.481436
Si Si6 0.280722 0.071247 0.284602
Si Si7 0.066972 0.568580 0.812729
Si Si8 0.833554 0.067208 0.283036
O O1 0.150507 0.750000 0.186451
O O2 0.102487 0.525313 0.250735
O O3 0.215191 0.493129 0.266562
O O4 0.100543 0.526731 0.993197
O O5 0.925148 0.250000 0.639543
O O6 0.865426 0.018684 0.459608
O O7 0.993290 0.001397 0.702584
O O8 0.540304 0.250000 0.765710
O O9 0.622731 0.022029 0.899941
O O10 0.566515 0.073535 0.612114
O O11 0.484366 0.982609 0.676664
O O12 0.300672 0.750000 0.041898
O O13 0.282207 0.501167 0.144465
O O14 0.242366 0.520604 0.853771
O O15 0.596743 0.250000 0.465903
O O16 0.649731 0.520487 0.555055
O O17 0.277971 0.250000 0.270595
O O18 0.061744 0.750000 0.801736
O O19 0.116462 0.520950 0.764590
O O20 0.832853 0.250000 0.282452
#
# Coordination Sequence:
#
# PCOD9159297 Si02
#       8
#     4   4   4   4   4   4   4   4
#     4  10  20  35  51  69  96 131 163 197 245 294
#     4  10  21  34  51  74  98 124 163 205 239 287
#     4   8  14  23  39  64  92 125 160 194 231 281
#     4   9  16  30  49  67  96 132 162 194 242 292
#     4   9  16  26  41  62  95 132 158 191 241 290
#     4  11  20  29  46  71  96 123 163 207 239 282
#     4  10  19  33  53  70  95 131 161 196 246 295
#     4   9  17  32  52  73  97 129 163 197 240 291
#
# _framework density 17.357405
#
# number of rings (size 3 to 8) (size 9 to 14) (size 15 to 20)
#    0.000    2.500    1.250    3.000    0.000    4.000 
#    0.000    0.625    0.000    0.000    0.000    0.875 
#    0.000    0.000    0.000    0.000    0.000    0.000 
#
# Total GULP energy -178395.305314 kJ/mol
# GULP energy per Si atom -5574.853291 kJ/mol
# Density = 1.731790 g / cm^3
# Si number density = 17.357405 Si / 1000 Ang^3
#
#
#
# Elastic Constant Matrix: (Units=GPa)
#
#
# Indices 1 2 3 4 5 6 
#
# 1 9.6669 3.1203 28.8536 0.0000 14.4494 0.0000
# 2 3.1203 20.0746 14.9413 0.0000 8.1536 0.0000
# 3 28.8536 14.9413 84.2686 0.0000 19.6979 0.0000
# 4 0.0000 0.0000 0.0000 16.0647 0.0000 13.4400
# 5 14.4494 8.1536 19.6979 0.0000 34.4842 0.0000
# 6 0.0000 0.0000 0.0000 13.4400 0.0000 21.2312
#
#
#
# Elastic Compliance Matrix: (Units=1/GPa)
#
#
# Indices 1 2 3 4 5 6 
#
# 1 -0.355659 -0.068105 0.109932 0.000000 0.102335 0.000000
# 2 -0.068105 0.046845 0.012616 0.000000 0.010254 0.000000
# 3 0.109932 0.012616 -0.019096 0.000000 -0.038138 0.000000
# 4 0.000000 0.000000 0.000000 0.132331 0.000000 -0.083770
# 5 0.102335 0.010254 -0.038138 0.000000 0.005480 0.000000
# 6 0.000000 0.000000 0.000000 -0.083770 0.000000 0.100129
#
#
# Mechanical properties :
#
#
# Convention : Reuss Voigt Hill
#
# Bulk Modulus (GPa) = -4.56573 23.09338 9.26383
# Shear Modulus (GPa) = -18.39147 18.82902 0.21878
#
# Velocity S-wave (km/s) = -3.25864 3.29718 0.35541
# Velocity P-wave (km/s) = 4.09811 5.27529 2.34885
#
# Compressibility (1/GPa) = -0.21902290
#
# Stress axis : x y z
#
# Youngs Moduli (GPa) = -2.81168 21.34712 -52.36692
#
# Poissons Ratio (x) = 1.45384 5.75681
# Poissons Ratio (y) = -0.19149 0.66068
# Poissons Ratio (z) = 0.30909 -0.26932
#
# Static dielectric constant tensor:
#      x y z
#    x 1.566030 0.000000 0.015030 
#    y 0.000000 1.585130 0.000000 
#    z 0.015030 0.000000 1.606500 
# 
# From -- ./inp_files/43832.got.cif
#   From: 2010.05.17/outbox.cif.g08.bks.cpg/sg11_22_cif.got.tgz:43832.got - 2010.06.03 12:22:45.
