data_PCOD9159151
_publ_section_title
;
Structure prediction by ZEFSAII (Michael W. Deem and Ramdas Pophale) SiO2 
 PCOD9159151
Probable space group: P 21/M
;
_chemical_formula_sum "Si O2"
_cell_formula_units_Z 28
_cell_length_a 7.110219
_cell_length_b 22.016099
_cell_length_c 8.622646
_cell_angle_alpha 90.000000
_cell_angle_beta 80.789307
_cell_angle_gamma 90.000000
_cell_volume 1332.379296
_symmetry_space_group_name_H-M "P 21/M"
_symmetry_group_IT_number 11
_symmetry_cell_setting 'monoclinic'
loop_
_space_group_symop_operation_xyz
x,y,z
-x,1/2+y,-z
-x,-y,-z
x,1/2-y,z
loop_
_atom_site_type_symbol
_atom_site_label
_atom_site_fract_x
_atom_site_fract_y
_atom_site_fract_z
Si Si1 0.022421 0.181056 0.669484
Si Si2 0.455763 0.318860 0.252207
Si Si3 0.688497 0.360739 0.925795
Si Si4 0.131037 0.107187 0.156800
Si Si5 0.695246 0.893240 0.189258
Si Si6 0.723405 0.494642 0.010762
Si Si7 0.175729 0.820980 0.632695
O O1 0.911929 0.168921 0.524372
O O2 0.860459 0.173351 0.821853
O O3 0.845609 0.964741 0.874180
O O4 0.198341 0.136831 0.682188
O O5 0.379986 0.250000 0.270861
O O6 0.585280 0.325734 0.079599
O O7 0.289634 0.367474 0.254522
O O8 0.599208 0.330209 0.375075
O O9 0.524503 0.377426 0.819402
O O10 0.766237 0.424509 0.985594
O O11 0.093807 0.250000 0.658115
O O12 0.197926 0.132107 0.980188
O O13 0.935235 0.134235 0.239036
O O14 0.733267 0.965819 0.167291
O O15 0.500000 0.500000 0.000000
O O16 0.141389 0.750000 0.678953
#
# Coordination Sequence:
#
# PCOD9159151 Si02
#       7
#     4   4   4   4   4   4   4
#     4  11  23  36  52  79 114 147 176 218 270 321
#     4  10  19  32  56  82 103 137 181 226 268 314
#     4  10  19  36  59  81 106 138 179 225 270 318
#     4   9  18  35  58  80 102 139 180 223 266 315
#     4   8  19  35  58  82 103 137 179 225 266 317
#     4   8  16  36  58  84 105 135 175 226 278 310
#     4  10  22  37  50  75 115 148 178 215 265 324
#
# _framework density 21.015039000000002
#
# number of rings (size 3 to 8) (size 9 to 14) (size 15 to 20)
#    0.857    1.714    1.429    1.714    0.000    6.286 
#    0.000    3.571    0.000    2.571    0.000    0.000 
#    0.000    0.000    0.000    0.000    0.000    0.000 
#
# Total GULP energy -156088.989451 kJ/mol
# GULP energy per Si atom -5574.606766 kJ/mol
# Density = 2.096721 g / cm^3
# Si number density = 21.015039 Si / 1000 Ang^3
#
#
#
# Elastic Constant Matrix: (Units=GPa)
#
#
# Indices 1 2 3 4 5 6 
#
# 1 70.4761 19.8580 14.2099 0.0000 18.7890 0.0000
# 2 19.8580 76.1003 22.5265 0.0000 19.3474 0.0000
# 3 14.2099 22.5265 38.0501 0.0000 17.5849 0.0000
# 4 0.0000 0.0000 0.0000 38.1435 0.0000 32.1626
# 5 18.7890 19.3474 17.5849 0.0000 32.7210 0.0000
# 6 0.0000 0.0000 0.0000 32.1626 0.0000 42.7848
#
#
#
# Elastic Compliance Matrix: (Units=1/GPa)
#
#
# Indices 1 2 3 4 5 6 
#
# 1 0.017161 -0.002020 -0.001611 0.000000 -0.007794 0.000000
# 2 -0.002020 0.017040 -0.006936 0.000000 -0.005188 0.000000
# 3 -0.001611 -0.006936 0.038139 0.000000 -0.015470 0.000000
# 4 0.000000 0.000000 0.000000 0.071602 0.000000 -0.053826
# 5 -0.007794 -0.005188 -0.015470 0.000000 0.046419 0.000000
# 6 0.000000 0.000000 0.000000 -0.053826 0.000000 0.063835
#
#
# Mechanical properties :
#
#
# Convention : Reuss Voigt Hill
#
# Bulk Modulus (GPa) = 19.52896 33.09058 26.30977
# Shear Modulus (GPa) = 17.10002 31.26534 24.18268
#
# Velocity S-wave (km/s) = 2.85564 3.86133 3.39592
# Velocity P-wave (km/s) = 4.49288 5.97162 5.28423
#
# Compressibility (1/GPa) = 0.05120600
#
# Stress axis : x y z
#
# Youngs Moduli (GPa) = 58.27145 58.68666 26.22018
#
# Poissons Ratio (x) = 0.11853 0.04224
# Poissons Ratio (y) = 0.11769 0.18186
# Poissons Ratio (z) = 0.09388 0.40705
#
# Static dielectric constant tensor:
#      x y z
#    x 1.800350 0.000000 0.032260 
#    y 0.000000 1.753920 0.000000 
#    z 0.032260 0.000000 1.772490 
# 
# From -- ./inp_files/14667.got.cif
#   From: 2010.05.17/outbox.cif.g08.bks.cpg/sg11_8_cif.got.tgz:14667.got - 2010.06.03 12:22:45.
