data_PCOD9159498
_publ_section_title
;
Structure prediction by ZEFSAII (Michael W. Deem and Ramdas Pophale) SiO2 
 PCOD9159498
Probable space group: P 21/M
;
_chemical_formula_sum "Si O2"
_cell_formula_units_Z 32
_cell_length_a 12.773784
_cell_length_b 18.100344
_cell_length_c 15.456508
_cell_angle_alpha 90.000000
_cell_angle_beta 148.843747
_cell_angle_gamma 90.000000
_cell_volume 1848.937287
_symmetry_space_group_name_H-M "P 21/M"
_symmetry_group_IT_number 11
_symmetry_cell_setting 'monoclinic'
loop_
_space_group_symop_operation_xyz
x,y,z
-x,1/2+y,-z
-x,-y,-z
x,1/2-y,z
loop_
_atom_site_type_symbol
_atom_site_label
_atom_site_fract_x
_atom_site_fract_y
_atom_site_fract_z
Si Si1 0.638013 0.439231 0.143342
Si Si2 0.319963 0.329924 0.136666
Si Si3 0.599845 0.463033 0.320599
Si Si4 0.056701 0.835948 0.008283
Si Si5 0.306349 0.167408 0.919832
Si Si6 0.971235 0.976301 0.290339
Si Si7 0.181523 0.452139 0.278769
Si Si8 0.419213 0.932230 0.324538
O O1 0.618854 0.456416 0.231398
O O2 0.854888 0.456650 0.256114
O O3 0.500000 0.500000 0.000000
O O4 0.531113 0.360454 0.052566
O O5 0.398434 0.250000 0.221466
O O6 0.472603 0.394437 0.267150
O O7 0.103091 0.340749 0.025950
O O8 0.302032 0.329182 0.020785
O O9 0.821616 0.461445 0.515138
O O10 0.489881 0.533926 0.282733
O O11 0.068426 0.750000 0.989200
O O12 0.953248 0.889278 0.863120
O O13 0.271194 0.865079 0.195901
O O14 0.259074 0.250000 0.853370
O O15 0.157682 0.099240 0.793975
O O16 0.033626 0.001532 0.237974
O O17 0.374980 0.422027 0.472376
O O18 0.282557 0.507726 0.280261
#
# Coordination Sequence:
#
# PCOD9159498 Si02
#       8
#     4   4   4   4   4   4   4   4
#     4   9  19  33  54  78 104 136 175 218 264 319
#     4   9  18  32  49  78 109 139 177 220 272 321
#     4  10  19  33  55  80 105 139 175 228 268 319
#     4  11  22  35  55  78 112 155 186 227 280 327
#     4   9  18  33  53  78 107 137 176 222 271 322
#     4  10  20  33  54  80 108 140 179 220 272 322
#     4  10  21  36  56  84 113 145 187 229 274 331
#     4  10  21  35  57  83 110 144 190 228 274 329
#
# _framework density 17.307238000000002
#
# number of rings (size 3 to 8) (size 9 to 14) (size 15 to 20)
#    0.000    2.250    1.250    1.500    5.250    1.000 
#    0.000    0.625    0.000    0.750    0.000    0.000 
#    0.000    0.000    0.000    0.000    0.000    0.000 
#
# Total GULP energy -178152.012779 kJ/mol
# GULP energy per Si atom -5567.250399 kJ/mol
# Density = 1.726785 g / cm^3
# Si number density = 17.307238 Si / 1000 Ang^3
#
#
#
# Elastic Constant Matrix: (Units=GPa)
#
#
# Indices 1 2 3 4 5 6 
#
# 1 59.3709 28.0394 11.4217 0.0000 11.5522 0.0000
# 2 28.0394 98.9086 47.1677 0.0000 9.4618 0.0000
# 3 11.4217 47.1677 55.7798 0.0000 10.7583 0.0000
# 4 0.0000 0.0000 0.0000 10.7109 0.0000 4.0713
# 5 11.5522 9.4618 10.7583 0.0000 21.6655 0.0000
# 6 0.0000 0.0000 0.0000 4.0713 0.0000 20.0482
#
#
#
# Elastic Compliance Matrix: (Units=1/GPa)
#
#
# Indices 1 2 3 4 5 6 
#
# 1 0.021298 -0.006571 0.003132 0.000000 -0.010042 0.000000
# 2 -0.006571 0.018971 -0.015234 0.000000 0.002783 0.000000
# 3 0.003132 -0.015234 0.032300 0.000000 -0.011056 0.000000
# 4 0.000000 0.000000 0.000000 0.101173 0.000000 -0.020546
# 5 -0.010042 0.002783 -0.011056 0.000000 0.055786 0.000000
# 6 0.000000 0.000000 0.000000 -0.020546 0.000000 0.054052
#
#
# Mechanical properties :
#
#
# Convention : Reuss Voigt Hill
#
# Bulk Modulus (GPa) = 28.38895 43.03520 35.71208
# Shear Modulus (GPa) = 15.03006 18.98027 17.00516
#
# Velocity S-wave (km/s) = 2.95010 3.31519 3.13796
# Velocity P-wave (km/s) = 5.29554 6.29074 5.81447
#
# Compressibility (1/GPa) = 0.03522497
#
# Stress axis : x y z
#
# Youngs Moduli (GPa) = 46.95321 52.71077 30.95937
#
# Poissons Ratio (x) = 0.34634 -0.09696
# Poissons Ratio (y) = 0.30851 0.47162
# Poissons Ratio (z) = -0.14705 0.80298
#
# Static dielectric constant tensor:
#      x y z
#    x 1.998820 0.000000 0.029890 
#    y 0.000000 1.609440 0.000000 
#    z 0.029890 0.000000 1.597360 
# 
# From -- ./inp_files/50724.got.cif
#   From: 2010.05.17/outbox.cif.g08.bks.cpg/sg11_26_cif.got.tgz:50724.got - 2010.06.03 12:22:45.
