data_PCOD9159922
_publ_section_title
;
Structure prediction by ZEFSAII (Michael W. Deem and Ramdas Pophale) SiO2 
 PCOD9159922
Probable space group: P 21/M
;
_chemical_formula_sum "Si O2"
_cell_formula_units_Z 26
_cell_length_a 14.781774
_cell_length_b 17.612818
_cell_length_c 11.557182
_cell_angle_alpha 90.000000
_cell_angle_beta 151.450253
_cell_angle_gamma 90.000000
_cell_volume 1438.017027
_symmetry_space_group_name_H-M "P 21/M"
_symmetry_group_IT_number 11
_symmetry_cell_setting 'monoclinic'
loop_
_space_group_symop_operation_xyz
x,y,z
-x,1/2+y,-z
-x,-y,-z
x,1/2-y,z
loop_
_atom_site_type_symbol
_atom_site_label
_atom_site_fract_x
_atom_site_fract_y
_atom_site_fract_z
Si Si1 0.966267 0.101390 0.863362
Si Si2 0.196575 0.908850 0.803635
Si Si3 0.957732 0.250000 0.000095
Si Si4 0.240559 0.750000 0.977292
Si Si5 0.632706 0.914152 0.319612
Si Si6 0.311103 0.250000 0.560041
Si Si7 0.059929 0.536717 0.409204
Si Si8 0.679465 0.972182 0.629297
O O1 0.947551 0.094962 0.704858
O O2 0.815695 0.041059 0.744007
O O3 0.925057 0.178364 0.882643
O O4 0.180350 0.079171 0.137641
O O5 0.171950 0.827361 0.837385
O O6 0.085046 0.919990 0.558210
O O7 0.420515 0.916947 0.033647
O O8 0.120188 0.979750 0.793559
O O9 0.827561 0.250000 0.967519
O O10 0.168413 0.250000 0.292018
O O11 0.468558 0.750000 0.228079
O O12 0.715739 0.828979 0.401202
O O13 0.622400 0.930258 0.446271
O O14 0.765942 0.978055 0.414254
O O15 0.500000 0.000000 0.500000
#
# Coordination Sequence:
#
# PCOD9159922 Si02
#       8
#     4   4   2   2   4   2   4   4
#     4  10  23  34  54  84 112 151 179 226 286 335
#     4  10  21  37  59  80 109 147 187 234 267 333
#     4  12  22  37  55  83 121 144 184 234 284 344
#     4  10  24  35  57  85 109 144 192 228 284 328
#     4  10  19  34  56  81 110 142 188 232 275 325
#     4  10  20  34  52  82 112 144 178 234 282 330
#     4  10  21  38  55  81 112 146 190 223 279 329
#     4  10  20  34  55  80 114 144 184 230 277 332
#
# _framework density 18.080454
#
# number of rings (size 3 to 8) (size 9 to 14) (size 15 to 20)
#    0.000    1.846    1.538    2.308    8.615    0.615 
#    0.000    0.000    0.000    0.000    0.000   14.000 
#    0.000    0.000    0.000    0.000    0.000    0.000 
#
# Total GULP energy -145070.141197 kJ/mol
# GULP energy per Si atom -5579.620815 kJ/mol
# Density = 1.803930 g / cm^3
# Si number density = 18.080454 Si / 1000 Ang^3
#
#
#
# Elastic Constant Matrix: (Units=GPa)
#
#
# Indices 1 2 3 4 5 6 
#
# 1 69.0837 15.9679 1.7387 0.0000 -7.1447 0.0000
# 2 15.9679 75.2997 15.5200 0.0000 -17.7753 0.0000
# 3 1.7387 15.5200 41.7497 0.0000 -2.1527 0.0000
# 4 0.0000 0.0000 0.0000 20.2477 0.0000 -3.7855
# 5 -7.1447 -17.7753 -2.1527 0.0000 26.2053 0.0000
# 6 0.0000 0.0000 0.0000 -3.7855 0.0000 20.1474
#
#
#
# Elastic Compliance Matrix: (Units=1/GPa)
#
#
# Indices 1 2 3 4 5 6 
#
# 1 0.015353 -0.002817 0.000527 0.000000 0.002318 0.000000
# 2 -0.002817 0.017615 -0.005879 0.000000 0.010697 0.000000
# 3 0.000527 -0.005879 0.026028 0.000000 -0.001706 0.000000
# 4 0.000000 0.000000 0.000000 0.051186 0.000000 0.009618
# 5 0.002318 0.010697 -0.001706 0.000000 0.045908 0.000000
# 6 0.000000 0.000000 0.000000 0.009618 0.000000 0.051441
#
#
# Mechanical properties :
#
#
# Convention : Reuss Voigt Hill
#
# Bulk Modulus (GPa) = 23.44254 28.06515 25.75385
# Shear Modulus (GPa) = 21.00064 23.51384 22.25724
#
# Velocity S-wave (km/s) = 3.41179 3.61017 3.51238
# Velocity P-wave (km/s) = 5.33987 5.73880 5.54293
#
# Compressibility (1/GPa) = 0.04265749
#
# Stress axis : x y z
#
# Youngs Moduli (GPa) = 65.13462 56.77117 38.42036
#
# Poissons Ratio (x) = 0.15993 -0.02026
# Poissons Ratio (y) = 0.18349 0.22588
# Poissons Ratio (z) = -0.03435 0.33377
#
# Static dielectric constant tensor:
#      x y z
#    x 1.610980 0.000000 0.008020 
#    y 0.000000 1.663330 0.000000 
#    z 0.008020 0.000000 1.614110 
# 
# From -- ./inp_files/39837.got.cif
#   From: 2010.05.17/outbox.cif.g08.bks.cpg/sg11_20_cif.got.tgz:39837.got - 2010.06.03 12:22:45.
