data_PCOD9159660
_publ_section_title
;
Structure prediction by ZEFSAII (Michael W. Deem and Ramdas Pophale) SiO2 
 PCOD9159660
Probable space group: P 21/M
;
_chemical_formula_sum "Si O2"
_cell_formula_units_Z 32
_cell_length_a 20.218340
_cell_length_b 8.460326
_cell_length_c 28.433868
_cell_angle_alpha 90.000000
_cell_angle_beta 21.775953
_cell_angle_gamma 90.000000
_cell_volume 1804.333573
_symmetry_space_group_name_H-M "P 21/M"
_symmetry_group_IT_number 11
_symmetry_cell_setting 'monoclinic'
loop_
_space_group_symop_operation_xyz
x,y,z
-x,1/2+y,-z
-x,-y,-z
x,1/2-y,z
loop_
_atom_site_type_symbol
_atom_site_label
_atom_site_fract_x
_atom_site_fract_y
_atom_site_fract_z
Si Si1 0.192473 0.440006 0.387925
Si Si2 0.670342 0.061451 0.602288
Si Si3 0.221858 0.438990 0.568119
Si Si4 0.553918 0.437778 0.111516
Si Si5 0.455974 0.060347 0.581368
Si Si6 0.082044 0.942740 0.161756
Si Si7 0.304001 0.061682 0.883334
Si Si8 0.946635 0.940538 0.146518
O O1 0.193723 0.250000 0.386805
O O2 0.245191 0.497562 0.405227
O O3 0.351671 0.498562 0.247921
O O4 0.000000 0.500000 0.500000
O O5 0.687063 0.250000 0.590934
O O6 0.457217 0.024064 0.744209
O O7 0.763427 0.992493 0.495115
O O8 0.221958 0.250000 0.570234
O O9 0.393491 0.500722 0.482860
O O10 0.045802 0.496818 0.712061
O O11 0.543118 0.250000 0.110958
O O12 0.631195 0.470695 0.112630
O O13 0.712518 0.499675 0.973491
O O14 0.456628 0.250000 0.579971
O O15 0.256437 0.009322 0.727835
O O16 0.500000 0.000000 0.500000
O O17 0.085413 0.750000 0.160331
O O18 0.995885 0.985906 0.168074
O O19 0.311106 0.250000 0.887128
O O20 0.099519 0.011497 0.012142
O O21 0.956660 0.750000 0.137030
#
# Coordination Sequence:
#
# PCOD9159660 Si02
#       8
#     4   4   4   4   4   4   4   4
#     4  10  19  33  57  85 109 136 166 203 251 303
#     4  10  21  37  53  75 107 138 171 211 255 308
#     4  11  21  34  52  75 103 137 176 215 261 312
#     4   8  15  29  49  73 102 133 164 199 249 305
#     4  11  21  34  50  72 103 137 175 220 265 309
#     4   8  14  28  48  71  98 129 167 210 251 297
#     4   9  17  29  48  72  97 126 166 216 259 299
#     4   9  17  31  49  69  97 131 169 215 264 308
#
# _framework density 17.73508
#
# number of rings (size 3 to 8) (size 9 to 14) (size 15 to 20)
#    0.000    2.500    1.250    2.625    0.000    3.000 
#    0.000    1.250    0.000    0.750    0.000    0.000 
#    0.000    0.000    0.000    0.000    0.000    0.000 
#
# Total GULP energy -178277.478982 kJ/mol
# GULP energy per Si atom -5571.171218 kJ/mol
# Density = 1.769471 g / cm^3
# Si number density = 17.735080 Si / 1000 Ang^3
#
#
#
# Elastic Constant Matrix: (Units=GPa)
#
#
# Indices 1 2 3 4 5 6 
#
# 1 50.7860 13.0180 61.1704 0.0000 -6.5419 0.0000
# 2 13.0180 21.8712 22.8623 0.0000 -3.7227 0.0000
# 3 61.1704 22.8623 191.3810 0.0000 -18.4569 0.0000
# 4 0.0000 0.0000 0.0000 22.3944 0.0000 -2.2777
# 5 -6.5419 -3.7227 -18.4569 0.0000 26.2795 0.0000
# 6 0.0000 0.0000 0.0000 -2.2777 0.0000 23.6160
#
#
#
# Elastic Compliance Matrix: (Units=1/GPa)
#
#
# Indices 1 2 3 4 5 6 
#
# 1 0.033865 -0.010083 -0.009594 0.000000 0.000263 0.000000
# 2 -0.010083 0.055506 -0.003102 0.000000 0.003174 0.000000
# 3 -0.009594 -0.003102 0.008999 0.000000 0.003493 0.000000
# 4 0.000000 0.000000 0.000000 0.045096 0.000000 0.004350
# 5 0.000263 0.003174 0.003493 0.000000 0.041021 0.000000
# 6 0.000000 0.000000 0.000000 0.004350 0.000000 0.042764
#
#
# Mechanical properties :
#
#
# Convention : Reuss Voigt Hill
#
# Bulk Modulus (GPa) = 18.93495 50.90442 34.91968
# Shear Modulus (GPa) = 17.21681 25.59048 21.40365
#
# Velocity S-wave (km/s) = 3.11911 3.80271 3.47775
# Velocity P-wave (km/s) = 4.86534 6.93151 5.98821
#
# Compressibility (1/GPa) = 0.05281240
#
# Stress axis : x y z
#
# Youngs Moduli (GPa) = 29.52896 18.01592 111.12193
#
# Poissons Ratio (x) = 0.18166 1.06613
# Poissons Ratio (y) = 0.29774 0.34468
# Poissons Ratio (z) = 0.28331 0.05588
#
# Static dielectric constant tensor:
#      x y z
#    x 1.564140 0.000000 -0.011000 
#    y 0.000000 1.609990 0.000000 
#    z -0.011000 0.000000 1.671530 
# 
# From -- ./inp_files/72021.got.cif
#   From: 2010.05.17/outbox.cif.g08.bks.cpg/sg11_37_cif.got.tgz:72021.got - 2010.06.03 12:22:45.
