data_PCOD9159981
_publ_section_title
;
Structure prediction by ZEFSAII (Michael W. Deem and Ramdas Pophale) SiO2 
 PCOD9159981
Probable space group: P 21/M
;
_chemical_formula_sum "Si O2"
_cell_formula_units_Z 32
_cell_length_a 20.262645
_cell_length_b 8.166953
_cell_length_c 21.085060
_cell_angle_alpha 90.000000
_cell_angle_beta 23.505283
_cell_angle_gamma 90.000000
_cell_volume 1391.626850
_symmetry_space_group_name_H-M "P 21/M"
_symmetry_group_IT_number 11
_symmetry_cell_setting 'monoclinic'
loop_
_space_group_symop_operation_xyz
x,y,z
-x,1/2+y,-z
-x,-y,-z
x,1/2-y,z
loop_
_atom_site_type_symbol
_atom_site_label
_atom_site_fract_x
_atom_site_fract_y
_atom_site_fract_z
Si Si1 0.150345 0.951163 0.209393
Si Si2 0.462923 0.063679 0.807519
Si Si3 0.273441 0.568922 0.528186
Si Si4 0.786071 0.939315 0.091262
Si Si5 0.508962 0.566010 0.897422
Si Si6 0.525567 0.060762 0.406636
Si Si7 0.052436 0.932515 0.158248
Si Si8 0.120413 0.448056 0.450198
O O1 0.152707 0.750000 0.206521
O O2 0.132477 0.009419 0.151850
O O3 0.987485 0.001091 0.392813
O O4 0.330953 0.003709 0.079072
O O5 0.439812 0.250000 0.852046
O O6 0.636348 0.058711 0.618263
O O7 0.331920 0.034224 0.866821
O O8 0.467694 0.934573 0.858840
O O9 0.197724 0.750000 0.601616
O O10 0.412027 0.545229 0.459712
O O11 0.137815 0.432472 0.654248
O O12 0.784011 0.750000 0.110198
O O13 0.711255 0.038142 0.215315
O O14 0.950717 0.987760 0.909208
O O15 0.523446 0.750000 0.910735
O O16 0.693683 0.488865 0.731553
O O17 0.479745 0.250000 0.441743
O O18 0.500000 0.000000 0.500000
O O19 0.119381 0.750000 0.091477
O O20 0.136405 0.250000 0.440653
O O21 0.000000 0.500000 0.500000
#
# Coordination Sequence:
#
# PCOD9159981 Si02
#       8
#     4   4   4   4   4   4   4   4
#     4   9  19  35  56  84 115 146 188 241 291 352
#     4   9  18  32  52  80 112 143 180 227 283 342
#     4  10  21  36  54  81 117 153 187 236 295 346
#     4  10  20  35  55  83 119 152 181 229 288 341
#     4  10  19  34  57  80 108 148 188 234 294 351
#     4  11  22  39  61  84 111 151 200 242 282 341
#     4  11  20  34  57  87 116 148 189 233 289 353
#     4  10  22  39  56  77 109 149 194 242 291 346
#
# _framework density 22.994668000000001
#
# number of rings (size 3 to 8) (size 9 to 14) (size 15 to 20)
#    0.000    2.000    1.250    3.750    0.000    4.500 
#    0.000    2.500    0.000    0.000    0.000    0.000 
#    0.000    0.000    0.000    0.000    0.000    0.000 
#
# Total GULP energy -178273.491389 kJ/mol
# GULP energy per Si atom -5571.046606 kJ/mol
# Density = 2.294233 g / cm^3
# Si number density = 22.994668 Si / 1000 Ang^3
#
#
#
# Elastic Constant Matrix: (Units=GPa)
#
#
# Indices 1 2 3 4 5 6 
#
# 1 30.5730 -4.3712 8.0327 0.0000 17.9165 0.0000
# 2 -4.3712 60.6686 3.1635 0.0000 5.2103 0.0000
# 3 8.0327 3.1635 73.6073 0.0000 5.9878 0.0000
# 4 0.0000 0.0000 0.0000 20.5876 0.0000 0.7874
# 5 17.9165 5.2103 5.9878 0.0000 35.2547 0.0000
# 6 0.0000 0.0000 0.0000 0.7874 0.0000 20.9652
#
#
#
# Elastic Compliance Matrix: (Units=1/GPa)
#
#
# Indices 1 2 3 4 5 6 
#
# 1 0.049348 0.005919 -0.003578 0.000000 -0.025346 0.000000
# 2 0.005919 0.017425 -0.000954 0.000000 -0.005421 0.000000
# 3 -0.003578 -0.000954 0.014052 0.000000 -0.000427 0.000000
# 4 0.000000 0.000000 0.000000 0.048643 0.000000 -0.001827
# 5 -0.025346 -0.005421 -0.000427 0.000000 0.042120 0.000000
# 6 0.000000 0.000000 0.000000 -0.001827 0.000000 0.047767
#
#
# Mechanical properties :
#
#
# Convention : Reuss Voigt Hill
#
# Bulk Modulus (GPa) = 11.96185 19.83323 15.89754
# Shear Modulus (GPa) = 20.45441 25.89642 23.17542
#
# Velocity S-wave (km/s) = 2.98573 3.35952 3.17813
# Velocity P-wave (km/s) = 4.13515 4.86748 4.51618
#
# Compressibility (1/GPa) = 0.08359913
#
# Stress axis : x y z
#
# Youngs Moduli (GPa) = 20.26416 57.38955 71.16514
#
# Poissons Ratio (x) = -0.33968 0.25462
# Poissons Ratio (y) = -0.11994 0.06788
# Poissons Ratio (z) = 0.07250 0.05474
#
# Static dielectric constant tensor:
#      x y z
#    x 1.847410 0.000000 -0.045890 
#    y 0.000000 1.807610 0.000000 
#    z -0.045890 0.000000 2.060150 
# 
# From -- ./inp_files/69989.got.cif
#   From: 2010.05.17/outbox.cif.g08.bks.cpg/sg11_35_cif.got.tgz:69989.got - 2010.06.03 12:22:45.
