data_PCOD9159889
_publ_section_title
;
Structure prediction by ZEFSAII (Michael W. Deem and Ramdas Pophale) SiO2 
 PCOD9159889
Probable space group: P 21/M
;
_chemical_formula_sum "Si O2"
_cell_formula_units_Z 32
_cell_length_a 27.184541
_cell_length_b 8.420654
_cell_length_c 21.728226
_cell_angle_alpha 90.000000
_cell_angle_beta 158.977499
_cell_angle_gamma 90.000000
_cell_volume 1784.289453
_symmetry_space_group_name_H-M "P 21/M"
_symmetry_group_IT_number 11
_symmetry_cell_setting 'monoclinic'
loop_
_space_group_symop_operation_xyz
x,y,z
-x,1/2+y,-z
-x,-y,-z
x,1/2-y,z
loop_
_atom_site_type_symbol
_atom_site_label
_atom_site_fract_x
_atom_site_fract_y
_atom_site_fract_z
Si Si1 0.408453 0.557974 0.449640
Si Si2 0.100010 0.560049 0.064135
Si Si3 0.400963 0.942037 0.972112
Si Si4 0.018059 0.058104 0.334598
Si Si5 0.272623 0.558704 0.950510
Si Si6 0.905852 0.560231 0.077941
Si Si7 0.387564 0.058523 0.209465
Si Si8 0.697523 0.558077 0.273225
O O1 0.500000 0.500000 0.500000
O O2 0.408710 0.750000 0.449753
O O3 0.253825 0.501889 0.259143
O O4 0.481210 0.506217 0.597984
O O5 0.101456 0.750000 0.065711
O O6 0.059492 0.502198 0.948946
O O7 0.000000 0.500000 0.000000
O O8 0.399333 0.750000 0.970482
O O9 0.330968 0.998563 0.953420
O O10 0.321667 0.000048 0.818945
O O11 0.559916 0.992625 0.149134
O O12 0.017570 0.250000 0.334963
O O13 0.160338 0.002736 0.530674
O O14 0.881652 0.003309 0.212318
O O15 0.999122 0.003196 0.242308
O O16 0.268426 0.750000 0.943491
O O17 0.369335 0.508680 0.120035
O O18 0.910646 0.750000 0.083305
O O19 0.749815 0.510858 0.913360
O O20 0.388141 0.250000 0.206365
O O21 0.699002 0.750000 0.274677
#
# Coordination Sequence:
#
# PCOD9159889 Si02
#       8
#     4   4   4   4   4   4   4   4
#     4  10  20  35  57  81 105 137 178 221 265 315
#     4  11  23  38  56  78 109 144 179 221 269 317
#     4   9  18  33  51  72 101 131 165 207 251 300
#     4   9  18  33  52  74 101 133 171 208 251 307
#     4   9  18  32  50  73 101 133 167 207 251 298
#     4  10  19  34  56  78 105 138 174 216 264 314
#     4   9  18  33  53  78 105 132 168 215 260 308
#     4   9  18  33  52  72  99 134 169 204 249 305
#
# _framework density 17.93431
#
# number of rings (size 3 to 8) (size 9 to 14) (size 15 to 20)
#    0.000    2.500    1.250    0.750    0.000    3.000 
#    2.250    0.000    0.000    0.000    0.000    0.000 
#    0.000    0.000    0.000    0.000    0.000    0.000 
#
# Total GULP energy -178482.695586 kJ/mol
# GULP energy per Si atom -5577.584237 kJ/mol
# Density = 1.789349 g / cm^3
# Si number density = 17.934310 Si / 1000 Ang^3
#
#
#
# Elastic Constant Matrix: (Units=GPa)
#
#
# Indices 1 2 3 4 5 6 
#
# 1 177.4434 19.8180 100.9624 0.0000 -12.4158 0.0000
# 2 19.8180 4.7787 18.6392 0.0000 -0.7013 0.0000
# 3 100.9624 18.6392 164.1532 0.0000 -15.4506 0.0000
# 4 0.0000 0.0000 0.0000 21.3550 0.0000 -6.2891
# 5 -12.4158 -0.7013 -15.4506 0.0000 19.3814 0.0000
# 6 0.0000 0.0000 0.0000 -6.2891 0.0000 26.0701
#
#
#
# Elastic Compliance Matrix: (Units=1/GPa)
#
#
# Indices 1 2 3 4 5 6 
#
# 1 0.011504 -0.037716 -0.002409 0.000000 0.004085 0.000000
# 2 -0.037716 0.508209 -0.037895 0.000000 -0.035981 0.000000
# 3 -0.002409 -0.037895 0.012543 0.000000 0.007085 0.000000
# 4 0.000000 0.000000 0.000000 0.050409 0.000000 0.012160
# 5 0.004085 -0.035981 0.007085 0.000000 0.058559 0.000000
# 6 0.000000 0.000000 0.000000 0.012160 0.000000 0.041292
#
#
# Mechanical properties :
#
#
# Convention : Reuss Voigt Hill
#
# Bulk Modulus (GPa) = 2.65804 69.46826 36.06315
# Shear Modulus (GPa) = 5.18694 27.15836 16.17265
#
# Velocity S-wave (km/s) = 1.70249 3.89565 3.00621
# Velocity P-wave (km/s) = 2.31299 7.68464 5.67467
#
# Compressibility (1/GPa) = 0.37621655
#
# Stress axis : x y z
#
# Youngs Moduli (GPa) = 86.92454 1.96770 79.72493
#
# Poissons Ratio (x) = 0.07421 0.19203
# Poissons Ratio (y) = 3.27841 3.02121
# Poissons Ratio (z) = 0.20937 0.07457
#
# Static dielectric constant tensor:
#      x y z
#    x 1.590510 0.000000 0.012910 
#    y 0.000000 1.610510 0.000000 
#    z 0.012910 0.000000 1.618050 
# 
# From -- ./inp_files/67171.got.cif
#   From: 2010.05.17/outbox.cif.g08.bks.cpg/sg11_34_cif.got.tgz:67171.got - 2010.06.03 12:22:45.
