data_PCOD9159478
_publ_section_title
;
Structure prediction by ZEFSAII (Michael W. Deem and Ramdas Pophale) SiO2 
 PCOD9159478
Probable space group: P 21/M
;
_chemical_formula_sum "Si O2"
_cell_formula_units_Z 28
_cell_length_a 15.211668
_cell_length_b 8.174940
_cell_length_c 21.155582
_cell_angle_alpha 90.000000
_cell_angle_beta 147.996946
_cell_angle_gamma 90.000000
_cell_volume 1394.225884
_symmetry_space_group_name_H-M "P 21/M"
_symmetry_group_IT_number 11
_symmetry_cell_setting 'monoclinic'
loop_
_space_group_symop_operation_xyz
x,y,z
-x,1/2+y,-z
-x,-y,-z
x,1/2-y,z
loop_
_atom_site_type_symbol
_atom_site_label
_atom_site_fract_x
_atom_site_fract_y
_atom_site_fract_z
Si Si1 0.340918 0.050221 0.760579
Si Si2 0.894812 0.556561 0.276606
Si Si3 0.303576 0.946232 0.072961
Si Si4 0.342574 0.946145 0.363232
Si Si5 0.013566 0.447657 0.805444
Si Si6 0.443228 0.441634 0.287367
Si Si7 0.205523 0.441964 0.544121
O O1 0.338358 0.250000 0.759095
O O2 0.255523 0.989556 0.772447
O O3 0.530421 0.000532 0.863980
O O4 0.235270 0.999620 0.634294
O O5 0.864409 0.750000 0.250843
O O6 0.923884 0.487963 0.224357
O O7 0.061514 0.532925 0.419028
O O8 0.305537 0.750000 0.078043
O O9 0.325365 0.015336 0.156620
O O10 0.141693 0.003654 0.937824
O O11 0.338608 0.750000 0.358693
O O12 0.171512 0.004948 0.290653
O O13 0.500000 0.000000 0.500000
O O14 0.363662 0.010975 0.305226
O O15 0.007361 0.250000 0.798042
O O16 0.481332 0.250000 0.309925
O O17 0.616961 0.534511 0.381638
O O18 0.164489 0.250000 0.520458
#
# Coordination Sequence:
#
# PCOD9159478 Si02
#       7
#     4   4   4   4   4   4   4
#     4   8  17  33  54  81 113 148 186 232 281 331
#     4  10  19  34  55  80 114 153 191 231 279 334
#     4  10  21  39  60  83 112 147 189 235 281 331
#     4  11  23  40  61  88 120 150 186 230 280 336
#     4  10  23  39  56  81 113 149 187 230 278 333
#     4  11  22  38  61  85 111 148 190 233 286 339
#     4  10  19  33  54  84 118 148 186 234 284 337
#
# _framework density 20.082827999999999
#
# number of rings (size 3 to 8) (size 9 to 14) (size 15 to 20)
#    0.000    2.000    0.000    4.714    0.000    4.000 
#    0.000    3.571    0.000    0.000    0.000    0.000 
#    0.000    0.000    0.000    0.000    0.000    0.000 
#
# Total GULP energy -156431.619005 kJ/mol
# GULP energy per Si atom -5586.843536 kJ/mol
# Density = 2.003712 g / cm^3
# Si number density = 20.082828 Si / 1000 Ang^3
#
#
#
# Elastic Constant Matrix: (Units=GPa)
#
#
# Indices 1 2 3 4 5 6 
#
# 1 161.9088 18.9063 59.0388 0.0000 -17.0052 0.0000
# 2 18.9063 9.7785 -0.4621 0.0000 0.4615 0.0000
# 3 59.0388 -0.4621 113.7773 0.0000 -5.5107 0.0000
# 4 0.0000 0.0000 0.0000 26.9276 0.0000 -6.1595
# 5 -17.0052 0.4615 -5.5107 0.0000 8.2840 0.0000
# 6 0.0000 0.0000 0.0000 -6.1595 0.0000 8.7653
#
#
#
# Elastic Compliance Matrix: (Units=1/GPa)
#
#
# Indices 1 2 3 4 5 6 
#
# 1 0.015238 -0.031126 -0.006649 0.000000 0.028592 0.000000
# 2 -0.031126 0.166117 0.013725 0.000000 -0.064020 0.000000
# 3 -0.006649 0.013725 0.011983 0.000000 -0.006442 0.000000
# 4 0.000000 0.000000 0.000000 0.044249 0.000000 0.031095
# 5 0.028592 -0.064020 -0.006442 0.000000 0.178690 0.000000
# 6 0.000000 0.000000 0.000000 0.031095 0.000000 0.135938
#
#
# Mechanical properties :
#
#
# Convention : Reuss Voigt Hill
#
# Bulk Modulus (GPa) = 6.88525 48.93674 27.91100
# Shear Modulus (GPa) = 7.70740 22.66082 15.18411
#
# Velocity S-wave (km/s) = 1.96116 3.36276 2.75266
# Velocity P-wave (km/s) = 2.92644 6.28474 4.90214
#
# Compressibility (1/GPa) = 0.14523803
#
# Stress axis : x y z
#
# Youngs Moduli (GPa) = 65.62344 6.01987 83.45248
#
# Poissons Ratio (x) = 0.18738 0.55486
# Poissons Ratio (y) = 2.04262 -1.14541
# Poissons Ratio (z) = 0.43631 -0.08262
#
# Static dielectric constant tensor:
#      x y z
#    x 1.723840 0.000000 0.007850 
#    y 0.000000 1.699900 0.000000 
#    z 0.007850 0.000000 1.663910 
# 
# From -- ./inp_files/37636.got.cif
#   From: 2010.05.17/outbox.cif.g08.bks.cpg/sg11_19_cif.got.tgz:37636.got - 2010.06.03 12:22:45.
