data_PCOD9159800
_publ_section_title
;
Structure prediction by ZEFSAII (Michael W. Deem and Ramdas Pophale) SiO2 
 PCOD9159800
Probable space group: P 21/M
;
_chemical_formula_sum "Si O2"
_cell_formula_units_Z 28
_cell_length_a 19.462721
_cell_length_b 8.851221
_cell_length_c 14.611764
_cell_angle_alpha 90.000000
_cell_angle_beta 138.036032
_cell_angle_gamma 90.000000
_cell_volume 1683.126531
_symmetry_space_group_name_H-M "P 21/M"
_symmetry_group_IT_number 11
_symmetry_cell_setting 'monoclinic'
loop_
_space_group_symop_operation_xyz
x,y,z
-x,1/2+y,-z
-x,-y,-z
x,1/2-y,z
loop_
_atom_site_type_symbol
_atom_site_label
_atom_site_fract_x
_atom_site_fract_y
_atom_site_fract_z
Si Si1 0.104725 0.429965 0.712899
Si Si2 0.691426 0.070044 0.403384
Si Si3 0.378002 0.070571 0.480420
Si Si4 0.501554 0.931411 0.102775
Si Si5 0.883185 0.569844 0.489445
Si Si6 0.293199 0.931586 0.007187
Si Si7 0.621321 0.069225 0.712598
O O1 0.091989 0.250000 0.708133
O O2 0.132292 0.463972 0.634011
O O3 0.996741 0.510882 0.625893
O O4 0.195290 0.488233 0.866943
O O5 0.685931 0.250000 0.392792
O O6 0.680204 0.014548 0.496474
O O7 0.596601 0.998177 0.253461
O O8 0.796021 0.010838 0.461780
O O9 0.364151 0.250000 0.476131
O O10 0.500386 0.037956 0.610882
O O11 0.347967 0.015185 0.349585
O O12 0.511487 0.750000 0.108571
O O13 0.395282 0.967434 0.049627
O O14 0.500000 0.000000 0.000000
O O15 0.877014 0.750000 0.495493
O O16 0.279437 0.750000 0.989643
O O17 0.315811 0.973512 0.134774
O O18 0.630136 0.250000 0.707706
#
# Coordination Sequence:
#
# PCOD9159800 Si02
#       7
#     4   4   4   4   4   4   4
#     4  10  21  36  56  82 108 138 183 229 268 319
#     4  12  23  35  54  80 110 145 182 224 271 324
#     4  10  19  34  54  78 108 142 180 225 270 322
#     4  11  22  36  51  76 111 147 182 220 268 324
#     4  10  21  38  58  78 106 144 184 228 272 318
#     4  10  20  35  54  76 109 146 179 218 268 322
#     4   9  18  34  53  77 107 142 181 223 267 321
#
# _framework density 16.635705999999999
#
# number of rings (size 3 to 8) (size 9 to 14) (size 15 to 20)
#    0.000    1.714    1.429    3.857    0.000    6.286 
#    0.000    0.000    0.000    0.857    0.000    0.000 
#    0.000    0.000    0.000    0.000    0.000    0.000 
#
# Total GULP energy -156420.741767 kJ/mol
# GULP energy per Si atom -5586.455063 kJ/mol
# Density = 1.659784 g / cm^3
# Si number density = 16.635706 Si / 1000 Ang^3
#
#
#
# Elastic Constant Matrix: (Units=GPa)
#
#
# Indices 1 2 3 4 5 6 
#
# 1 89.8047 48.6113 75.1464 0.0000 -7.4802 0.0000
# 2 48.6113 66.4758 58.5461 0.0000 -2.4508 0.0000
# 3 75.1464 58.5461 125.8345 0.0000 -9.0490 0.0000
# 4 0.0000 0.0000 0.0000 31.2761 0.0000 -1.4402
# 5 -7.4802 -2.4508 -9.0490 0.0000 20.8131 0.0000
# 6 0.0000 0.0000 0.0000 -1.4402 0.0000 29.1775
#
#
#
# Elastic Compliance Matrix: (Units=1/GPa)
#
#
# Indices 1 2 3 4 5 6 
#
# 1 0.025112 -0.008886 -0.010621 0.000000 0.003361 0.000000
# 2 -0.008886 0.028731 -0.008307 0.000000 -0.003422 0.000000
# 3 -0.010621 -0.008307 0.018384 0.000000 0.003198 0.000000
# 4 0.000000 0.000000 0.000000 0.032046 0.000000 0.001582
# 5 0.003361 -0.003422 0.003198 0.000000 0.050242 0.000000
# 6 0.000000 0.000000 0.000000 0.001582 0.000000 0.034351
#
#
# Mechanical properties :
#
#
# Convention : Reuss Voigt Hill
#
# Bulk Modulus (GPa) = 60.23960 71.85805 66.04882
# Shear Modulus (GPa) = 19.99778 22.90741 21.45259
#
# Velocity S-wave (km/s) = 3.47089 3.71482 3.59493
# Velocity P-wave (km/s) = 7.23550 7.85422 7.55120
#
# Compressibility (1/GPa) = 0.01660038
#
# Stress axis : x y z
#
# Youngs Moduli (GPa) = 39.82089 34.80566 54.39424
#
# Poissons Ratio (x) = 0.30929 0.57770
# Poissons Ratio (y) = 0.35385 0.45185
# Poissons Ratio (z) = 0.42292 0.28913
#
# Static dielectric constant tensor:
#      x y z
#    x 1.540640 0.000000 -0.010150 
#    y 0.000000 1.554210 0.000000 
#    z -0.010150 0.000000 1.535910 
# 
# From -- ./inp_files/53302.got.cif
#   From: 2010.05.17/outbox.cif.g08.bks.cpg/sg11_27_cif.got.tgz:53302.got - 2010.06.03 12:22:45.
