data_PCOD9159296
_publ_section_title
;
Structure prediction by ZEFSAII (Michael W. Deem and Ramdas Pophale) SiO2 
 PCOD9159296
Probable space group: P 21/M
;
_chemical_formula_sum "Si O2"
_cell_formula_units_Z 32
_cell_length_a 6.743717
_cell_length_b 22.080222
_cell_length_c 12.098259
_cell_angle_alpha 90.000000
_cell_angle_beta 69.625909
_cell_angle_gamma 90.000000
_cell_volume 1688.763785
_symmetry_space_group_name_H-M "P 21/M"
_symmetry_group_IT_number 11
_symmetry_cell_setting 'monoclinic'
loop_
_space_group_symop_operation_xyz
x,y,z
-x,1/2+y,-z
-x,-y,-z
x,1/2-y,z
loop_
_atom_site_type_symbol
_atom_site_label
_atom_site_fract_x
_atom_site_fract_y
_atom_site_fract_z
Si Si1 0.809208 0.818654 0.535840
Si Si2 0.822163 0.443193 0.150345
Si Si3 0.041419 0.419307 0.877969
Si Si4 0.491310 0.081755 0.492645
Si Si5 0.637901 0.978322 0.691966
Si Si6 0.492242 0.106308 0.745115
Si Si7 0.877101 0.320450 0.733987
Si Si8 0.034473 0.604103 0.660324
O O1 0.739371 0.750000 0.553327
O O2 0.612139 0.862580 0.555739
O O3 0.938505 0.837502 0.619698
O O4 0.967085 0.826966 0.401251
O O5 0.910857 0.510501 0.166252
O O6 0.568878 0.447363 0.213268
O O7 0.915461 0.396027 0.220088
O O8 0.896767 0.426676 0.013900
O O9 0.278943 0.395113 0.857145
O O10 0.943269 0.370673 0.812089
O O11 0.406931 0.026696 0.431599
O O12 0.420995 0.094822 0.631703
O O13 0.743607 0.086838 0.438748
O O14 0.857240 0.946572 0.673049
O O15 0.633445 0.046469 0.736861
O O16 0.641460 0.163039 0.737316
O O17 0.889846 0.250000 0.768737
#
# Coordination Sequence:
#
# PCOD9159296 Si02
#       8
#     4   4   4   4   4   4   4   4
#     4  10  21  36  54  79 112 148 188 233 277 328
#     4   9  20  38  61  84 110 147 189 227 280 339
#     4  10  21  39  59  83 114 149 187 232 277 328
#     4  10  19  33  52  82 113 146 182 222 279 335
#     4   9  20  33  55  85 117 143 178 229 279 332
#     4  11  20  34  55  85 114 149 182 222 281 335
#     4  11  23  37  55  82 115 150 188 228 275 330
#     4  10  19  36  56  82 112 144 180 229 279 331
#
# _framework density 18.948772999999999
#
# number of rings (size 3 to 8) (size 9 to 14) (size 15 to 20)
#    0.000    2.000    2.500    1.125    0.000    3.000 
#    0.000    4.375    0.000    7.500    0.000    0.000 
#    0.000    0.000    0.000    0.000    0.000    0.000 
#
# Total GULP energy -178387.760221 kJ/mol
# GULP energy per Si atom -5574.617507 kJ/mol
# Density = 1.890564 g / cm^3
# Si number density = 18.948773 Si / 1000 Ang^3
#
#
#
# Elastic Constant Matrix: (Units=GPa)
#
#
# Indices 1 2 3 4 5 6 
#
# 1 78.3107 29.6783 26.0854 0.0000 -13.1593 0.0000
# 2 29.6783 74.8719 32.0907 0.0000 0.5371 0.0000
# 3 26.0854 32.0907 69.7792 0.0000 -10.2590 0.0000
# 4 0.0000 0.0000 0.0000 21.6235 0.0000 3.8494
# 5 -13.1593 0.5371 -10.2590 0.0000 20.1268 0.0000
# 6 0.0000 0.0000 0.0000 3.8494 0.0000 21.0208
#
#
#
# Elastic Compliance Matrix: (Units=1/GPa)
#
#
# Indices 1 2 3 4 5 6 
#
# 1 0.017590 -0.006094 -0.002225 0.000000 0.010529 0.000000
# 2 -0.006094 0.019167 -0.007781 0.000000 -0.008462 0.000000
# 3 -0.002225 -0.007781 0.020061 0.000000 0.008978 0.000000
# 4 0.000000 0.000000 0.000000 0.047804 0.000000 -0.008754
# 5 0.010529 -0.008462 0.008978 0.000000 0.061371 0.000000
# 6 0.000000 0.000000 0.000000 -0.008754 0.000000 0.049175
#
#
# Mechanical properties :
#
#
# Convention : Reuss Voigt Hill
#
# Bulk Modulus (GPa) = 40.62024 44.29674 42.45849
# Shear Modulus (GPa) = 19.56375 21.56139 20.56257
#
# Velocity S-wave (km/s) = 3.21667 3.37690 3.29776
# Velocity P-wave (km/s) = 5.93964 6.21550 6.07914
#
# Compressibility (1/GPa) = 0.02461827
#
# Stress axis : x y z
#
# Youngs Moduli (GPa) = 56.85163 52.17177 49.84813
#
# Poissons Ratio (x) = 0.31795 0.11090
# Poissons Ratio (y) = 0.34647 0.38786
# Poissons Ratio (z) = 0.12648 0.40594
#
# Static dielectric constant tensor:
#      x y z
#    x 1.663500 0.000000 0.025800 
#    y 0.000000 1.691580 0.000000 
#    z 0.025800 0.000000 1.673210 
# 
# From -- ./inp_files/5386.got.cif
#   From: 2010.05.17/outbox.cif.g08.bks.cpg/sg11_3_cif.got.tgz:5386.got - 2010.06.03 12:22:45.
