data_PCOD9159586
_publ_section_title
;
Structure prediction by ZEFSAII (Michael W. Deem and Ramdas Pophale) SiO2 
 PCOD9159586
Probable space group: P 21/M
;
_chemical_formula_sum "Si O2"
_cell_formula_units_Z 24
_cell_length_a 15.470561
_cell_length_b 8.863392
_cell_length_c 14.850010
_cell_angle_alpha 90.000000
_cell_angle_beta 140.404476
_cell_angle_gamma 90.000000
_cell_volume 1297.837013
_symmetry_space_group_name_H-M "P 21/M"
_symmetry_group_IT_number 11
_symmetry_cell_setting 'monoclinic'
loop_
_space_group_symop_operation_xyz
x,y,z
-x,1/2+y,-z
-x,-y,-z
x,1/2-y,z
loop_
_atom_site_type_symbol
_atom_site_label
_atom_site_fract_x
_atom_site_fract_y
_atom_site_fract_z
Si Si1 0.580801 0.430757 0.193159
Si Si2 0.819059 0.431868 0.702238
Si Si3 0.741065 0.431781 0.836204
Si Si4 0.554063 0.431443 0.378066
Si Si5 0.091901 0.930776 0.852539
Si Si6 0.289605 0.070241 0.871518
O O1 0.596493 0.250000 0.197451
O O2 0.594241 0.473454 0.308064
O O3 0.683270 0.510507 0.207071
O O4 0.427923 0.468610 0.037552
O O5 0.832839 0.250000 0.708265
O O6 0.816759 0.477926 0.805234
O O7 0.674600 0.472625 0.542398
O O8 0.941869 0.507129 0.747885
O O9 0.734626 0.250000 0.831377
O O10 0.589166 0.494815 0.713835
O O11 0.819540 0.480501 0.989130
O O12 0.537748 0.250000 0.367092
O O13 0.091330 0.750000 0.849180
O O14 0.165098 0.995062 0.823163
O O15 0.275094 0.250000 0.860109
#
# Coordination Sequence:
#
# PCOD9159586 Si02
#       6
#     4   4   4   4   4   4
#     4   9  18  33  54  82 110 137 175 223 272 322
#     4  10  22  38  55  79 113 148 183 223 270 323
#     4  10  21  36  56  82 110 144 186 228 267 316
#     4  10  20  36  58  83 111 144 180 223 273 324
#     4  11  22  36  55  81 112 146 184 226 270 318
#     4  10  19  33  56  82 108 140 178 224 274 321
#
# _framework density 18.492305000000002
#
# number of rings (size 3 to 8) (size 9 to 14) (size 15 to 20)
#    0.000    2.000    1.667    2.000    0.000    3.333 
#    0.000    0.833    0.000    0.000    0.000    0.000 
#    0.000    0.000    0.000    0.000    0.000    0.000 
#
# Total GULP energy -134037.868364 kJ/mol
# GULP energy per Si atom -5584.911182 kJ/mol
# Density = 1.845022 g / cm^3
# Si number density = 18.492305 Si / 1000 Ang^3
#
#
#
# Elastic Constant Matrix: (Units=GPa)
#
#
# Indices 1 2 3 4 5 6 
#
# 1 84.8866 13.6214 -6.8222 0.0000 4.2879 0.0000
# 2 13.6214 10.4083 1.3698 0.0000 4.7067 0.0000
# 3 -6.8222 1.3698 18.8920 0.0000 10.9388 0.0000
# 4 0.0000 0.0000 0.0000 20.5708 0.0000 9.1568
# 5 4.2879 4.7067 10.9388 0.0000 28.3341 0.0000
# 6 0.0000 0.0000 0.0000 9.1568 0.0000 26.0530
#
#
#
# Elastic Compliance Matrix: (Units=1/GPa)
#
#
# Indices 1 2 3 4 5 6 
#
# 1 0.015952 -0.020992 0.008579 0.000000 -0.002239 0.000000
# 2 -0.020992 0.131654 -0.008118 0.000000 -0.015559 0.000000
# 3 0.008579 -0.008118 0.072882 0.000000 -0.028087 0.000000
# 4 0.000000 0.000000 0.000000 0.057629 0.000000 -0.020255
# 5 -0.002239 -0.015559 -0.028087 0.000000 0.049060 0.000000
# 6 0.000000 0.000000 0.000000 -0.020255 0.000000 0.045502
#
#
# Mechanical properties :
#
#
# Convention : Reuss Voigt Hill
#
# Bulk Modulus (GPa) = 5.57336 14.50275 10.03806
# Shear Modulus (GPa) = 10.55856 22.05944 16.30900
#
# Velocity S-wave (km/s) = 2.39209 3.45758 2.97296
# Velocity P-wave (km/s) = 3.26342 4.87847 4.15026
#
# Compressibility (1/GPa) = 0.17942486
#
# Stress axis : x y z
#
# Youngs Moduli (GPa) = 62.68984 7.59567 13.72083
#
# Poissons Ratio (x) = 0.15945 -0.11771
# Poissons Ratio (y) = 1.31601 0.11138
# Poissons Ratio (z) = -0.53780 0.06166
#
# Static dielectric constant tensor:
#      x y z
#    x 1.613300 0.000000 -0.019130 
#    y 0.000000 1.614530 0.000000 
#    z -0.019130 0.000000 1.625310 
# 
# From -- ./inp_files/20632.got.cif
#   From: 2010.05.17/outbox.cif.g08.bks.cpg/sg11_11_cif.got.tgz:20632.got - 2010.06.03 12:22:45.
