data_PCOD9159466
_publ_section_title
;
Structure prediction by ZEFSAII (Michael W. Deem and Ramdas Pophale) SiO2 
 PCOD9159466
Probable space group: P 21/M
;
_chemical_formula_sum "Si O2"
_cell_formula_units_Z 32
_cell_length_a 12.803334
_cell_length_b 11.488610
_cell_length_c 26.431529
_cell_angle_alpha 90.000000
_cell_angle_beta 25.785095
_cell_angle_gamma 90.000000
_cell_volume 1691.215636
_symmetry_space_group_name_H-M "P 21/M"
_symmetry_group_IT_number 11
_symmetry_cell_setting 'monoclinic'
loop_
_space_group_symop_operation_xyz
x,y,z
-x,1/2+y,-z
-x,-y,-z
x,1/2-y,z
loop_
_atom_site_type_symbol
_atom_site_label
_atom_site_fract_x
_atom_site_fract_y
_atom_site_fract_z
Si Si1 0.714312 0.447620 0.583982
Si Si2 0.454885 0.505640 0.172601
Si Si3 0.095473 0.627808 0.395236
Si Si4 0.952777 0.617328 0.712453
Si Si5 0.481005 0.882280 0.433312
Si Si6 0.192405 0.612757 0.710674
Si Si7 0.607734 0.385966 0.207035
Si Si8 0.939284 0.886562 0.929350
O O1 0.834337 0.374394 0.576263
O O2 0.565771 0.381684 0.606614
O O3 0.556887 0.541214 0.682950
O O4 0.921855 0.518676 0.464611
O O5 0.331335 0.608800 0.258952
O O6 0.248650 0.461224 0.225132
O O7 0.530969 0.415475 0.183565
O O8 0.694445 0.543026 0.039632
O O9 0.976393 0.750000 0.434230
O O10 0.883388 0.750000 0.731135
O O11 0.222776 0.602665 0.572909
O O12 0.986800 0.603824 0.757680
O O13 0.570691 0.750000 0.408506
O O14 0.631878 0.001904 0.376239
O O15 0.284261 0.750000 0.667170
O O16 0.083974 0.597397 0.813941
O O17 0.574991 0.250000 0.231323
O O18 0.880696 0.416339 0.103061
O O19 0.881531 0.750000 0.958377
#
# Coordination Sequence:
#
# PCOD9159466 Si02
#       8
#     4   4   4   4   4   4   4   4
#     4  10  19  33  54  82 113 155 186 237 296 357
#     4  11  21  36  56  83 117 154 197 240 298 344
#     4  10  20  32  49  81 117 150 191 234 291 355
#     4  10  22  40  61  86 119 154 195 245 301 356
#     4  11  21  38  61  91 123 152 191 250 306 352
#     4  10  22  42  65  87 116 160 202 244 298 358
#     4  10  20  35  58  84 115 154 198 242 292 355
#     4  10  21  38  59  83 115 154 202 252 295 344
#
# _framework density 18.921301
#
# number of rings (size 3 to 8) (size 9 to 14) (size 15 to 20)
#    0.000    1.750    2.500    2.250    0.000    1.000 
#    0.000    2.500    0.000    0.000    0.000    0.000 
#    0.000    0.000    0.000    0.000    0.000    0.000 
#
# Total GULP energy -178330.003051 kJ/mol
# GULP energy per Si atom -5572.812595 kJ/mol
# Density = 1.887824 g / cm^3
# Si number density = 18.921301 Si / 1000 Ang^3
#
#
#
# Elastic Constant Matrix: (Units=GPa)
#
#
# Indices 1 2 3 4 5 6 
#
# 1 81.8003 29.5919 9.7661 0.0000 -1.3934 0.0000
# 2 29.5919 104.2186 37.3396 0.0000 -14.0461 0.0000
# 3 9.7661 37.3396 53.0962 0.0000 -12.5951 0.0000
# 4 0.0000 0.0000 0.0000 40.6166 0.0000 -15.1348
# 5 -1.3934 -14.0461 -12.5951 0.0000 20.4893 0.0000
# 6 0.0000 0.0000 0.0000 -15.1348 0.0000 15.8263
#
#
#
# Elastic Compliance Matrix: (Units=1/GPa)
#
#
# Indices 1 2 3 4 5 6 
#
# 1 0.013692 -0.004120 -0.000082 0.000000 -0.001944 0.000000
# 2 -0.004120 0.014325 -0.008257 0.000000 0.004464 0.000000
# 3 -0.000082 -0.008257 0.027291 0.000000 0.011110 0.000000
# 4 0.000000 0.000000 0.000000 0.038251 0.000000 0.036580
# 5 -0.001944 0.004464 0.011110 0.000000 0.058564 0.000000
# 6 0.000000 0.000000 0.000000 0.036580 0.000000 0.098167
#
#
# Mechanical properties :
#
#
# Convention : Reuss Voigt Hill
#
# Bulk Modulus (GPa) = 32.90624 43.61227 38.25925
# Shear Modulus (GPa) = 17.52299 26.21427 21.86863
#
# Velocity S-wave (km/s) = 3.04649 3.72618 3.40335
# Velocity P-wave (km/s) = 5.45927 6.45073 5.97560
#
# Compressibility (1/GPa) = 0.03038938
#
# Stress axis : x y z
#
# Youngs Moduli (GPa) = 73.03458 69.80653 36.64195
#
# Poissons Ratio (x) = 0.28763 0.00300
# Poissons Ratio (y) = 0.30093 0.30256
# Poissons Ratio (z) = 0.00598 0.57641
#
# Static dielectric constant tensor:
#      x y z
#    x 1.664480 0.000000 -0.001390 
#    y 0.000000 1.699630 0.000000 
#    z -0.001390 0.000000 1.652890 
# 
# From -- ./inp_files/68597.got.cif
#   From: 2010.05.17/outbox.cif.g08.bks.cpg/sg11_35_cif.got.tgz:68597.got - 2010.06.03 12:22:45.
