data_PCOD9159386
_publ_section_title
;
Structure prediction by ZEFSAII (Michael W. Deem and Ramdas Pophale) SiO2 
 PCOD9159386
Probable space group: P 21/M
;
_chemical_formula_sum "Si O2"
_cell_formula_units_Z 28
_cell_length_a 21.467818
_cell_length_b 8.789997
_cell_length_c 15.186659
_cell_angle_alpha 90.000000
_cell_angle_beta 152.009663
_cell_angle_gamma 90.000000
_cell_volume 1344.963144
_symmetry_space_group_name_H-M "P 21/M"
_symmetry_group_IT_number 11
_symmetry_cell_setting 'monoclinic'
loop_
_space_group_symop_operation_xyz
x,y,z
-x,1/2+y,-z
-x,-y,-z
x,1/2-y,z
loop_
_atom_site_type_symbol
_atom_site_label
_atom_site_fract_x
_atom_site_fract_y
_atom_site_fract_z
Si Si1 0.879187 0.932808 0.105914
Si Si2 0.286776 0.571824 0.858335
Si Si3 0.345798 0.068074 0.560604
Si Si4 0.353069 0.424739 0.767488
Si Si5 0.058296 0.567313 0.162164
Si Si6 0.066474 0.076511 0.479729
Si Si7 0.605145 0.929896 0.829203
O O1 0.889041 0.750000 0.129309
O O2 0.723229 0.971603 0.909408
O O3 0.961799 0.976108 0.122815
O O4 0.946399 0.009946 0.274469
O O5 0.298043 0.750000 0.891109
O O6 0.373734 0.527996 0.879959
O O7 0.136618 0.525900 0.642441
O O8 0.333571 0.474190 0.999094
O O9 0.334105 0.250000 0.546498
O O10 0.385830 0.021170 0.710618
O O11 0.466364 0.016441 0.649146
O O12 0.206276 0.994217 0.362438
O O13 0.395565 0.250000 0.835390
O O14 0.190809 0.419453 0.565914
O O15 0.061427 0.750000 0.162070
O O16 0.000000 0.500000 0.000000
O O17 0.045960 0.250000 0.483411
O O18 0.581749 0.750000 0.796129
#
# Coordination Sequence:
#
# PCOD9159386 Si02
#       7
#     4   4   4   4   4   4   4
#     4  10  22  40  62  88 119 156 198 243 295 352
#     4  10  19  33  53  82 115 159 211 252 292 342
#     4  11  22  40  63  91 122 156 197 244 298 354
#     4   8  17  33  54  81 114 153 198 249 293 334
#     4  11  23  42  70  99 120 146 188 239 293 356
#     4   9  17  32  55  82 114 154 199 249 295 337
#     4  11  24  40  57  83 123 164 200 243 295 351
#
# _framework density 20.818414000000001
#
# number of rings (size 3 to 8) (size 9 to 14) (size 15 to 20)
#    0.857    1.143    1.429    2.571    0.000    4.000 
#    0.000    0.714    0.000    0.000    0.000    0.000 
#    0.000    0.000    0.000    0.000    0.000    0.000 
#
# Total GULP energy -156352.236770 kJ/mol
# GULP energy per Si atom -5584.008456 kJ/mol
# Density = 2.077103 g / cm^3
# Si number density = 20.818414 Si / 1000 Ang^3
#
#
#
# Elastic Constant Matrix: (Units=GPa)
#
#
# Indices 1 2 3 4 5 6 
#
# 1 95.7286 34.0519 62.8636 0.0000 20.0651 0.0000
# 2 34.0519 48.2578 32.6236 0.0000 3.8666 0.0000
# 3 62.8636 32.6236 102.2361 0.0000 13.4627 0.0000
# 4 0.0000 0.0000 0.0000 36.3719 0.0000 3.6054
# 5 20.0651 3.8666 13.4627 0.0000 35.0249 0.0000
# 6 0.0000 0.0000 0.0000 3.6054 0.0000 23.1085
#
#
#
# Elastic Compliance Matrix: (Units=1/GPa)
#
#
# Indices 1 2 3 4 5 6 
#
# 1 0.021004 -0.007851 -0.009416 0.000000 -0.007547 0.000000
# 2 -0.007851 0.029360 -0.004958 0.000000 0.003162 0.000000
# 3 -0.009416 -0.004958 0.017244 0.000000 -0.000686 0.000000
# 4 0.000000 0.000000 0.000000 0.027926 0.000000 -0.004357
# 5 -0.007547 0.003162 -0.000686 0.000000 0.032789 0.000000
# 6 0.000000 0.000000 0.000000 -0.004357 0.000000 0.043954
#
#
# Mechanical properties :
#
#
# Convention : Reuss Voigt Hill
#
# Bulk Modulus (GPa) = 43.18133 56.14453 49.66293
# Shear Modulus (GPa) = 22.27711 26.67996 24.47854
#
# Velocity S-wave (km/s) = 3.27474 3.58377 3.43273
# Velocity P-wave (km/s) = 5.92330 6.64468 6.29433
#
# Compressibility (1/GPa) = 0.02315816
#
# Stress axis : x y z
#
# Youngs Moduli (GPa) = 47.60971 34.05989 57.99253
#
# Poissons Ratio (x) = 0.26739 0.54607
# Poissons Ratio (y) = 0.37377 0.28752
# Poissons Ratio (z) = 0.44830 0.16887
#
# Static dielectric constant tensor:
#      x y z
#    x 1.837020 0.000000 0.102020 
#    y 0.000000 1.694650 0.000000 
#    z 0.102020 0.000000 1.786310 
# 
# From -- ./inp_files/54599.got.cif
#   From: 2010.05.17/outbox.cif.g08.bks.cpg/sg11_28_cif.got.tgz:54599.got - 2010.06.03 12:22:45.
