data_PCOD9159303
_publ_section_title
;
Structure prediction by ZEFSAII (Michael W. Deem and Ramdas Pophale) SiO2 
 PCOD9159303
Probable space group: P 21/M
;
_chemical_formula_sum "Si O2"
_cell_formula_units_Z 28
_cell_length_a 15.003316
_cell_length_b 8.811626
_cell_length_c 20.811811
_cell_angle_alpha 90.000000
_cell_angle_beta 154.937089
_cell_angle_gamma 90.000000
_cell_volume 1165.527714
_symmetry_space_group_name_H-M "P 21/M"
_symmetry_group_IT_number 11
_symmetry_cell_setting 'monoclinic'
loop_
_space_group_symop_operation_xyz
x,y,z
-x,1/2+y,-z
-x,-y,-z
x,1/2-y,z
loop_
_atom_site_type_symbol
_atom_site_label
_atom_site_fract_x
_atom_site_fract_y
_atom_site_fract_z
Si Si1 0.385054 0.925135 0.788414
Si Si2 0.361501 0.424592 0.166748
Si Si3 0.789956 0.927736 0.446080
Si Si4 0.069487 0.427822 0.129774
Si Si5 0.020066 0.426537 0.251547
Si Si6 0.805936 0.927398 0.223244
Si Si7 0.496282 0.431727 0.569528
O O1 0.315091 0.750000 0.741101
O O2 0.596818 0.931469 0.883988
O O3 0.235454 0.028943 0.645763
O O4 0.369839 0.983945 0.850554
O O5 0.393224 0.250000 0.206413
O O6 0.555690 0.526737 0.317760
O O7 0.127803 0.480737 0.026674
O O8 0.826417 0.750000 0.479241
O O9 0.976381 0.023506 0.598932
O O10 0.053117 0.250000 0.103790
O O11 0.040241 0.443454 0.188239
O O12 0.301870 0.489999 0.266457
O O13 0.972105 0.250000 0.233159
O O14 0.852794 0.524752 0.180907
O O15 0.255076 0.459314 0.432133
O O16 0.767550 0.750000 0.202710
O O17 0.500000 0.500000 0.500000
O O18 0.527552 0.250000 0.588720
#
# Coordination Sequence:
#
# PCOD9159303 Si02
#       7
#     4   4   4   4   4   4   4
#     4   9  19  34  51  74 101 132 170 210 248 293
#     4   9  19  33  52  76 101 131 171 210 246 293
#     4  10  19  33  53  74 101 132 168 210 250 295
#     4  10  19  33  55  78 103 133 167 207 251 300
#     4   9  20  35  50  74 104 135 167 204 250 299
#     4  12  22  32  50  75 103 135 169 209 254 298
#     4   9  17  31  52  75 100 129 166 209 251 296
#
# _framework density 24.023453
#
# number of rings (size 3 to 8) (size 9 to 14) (size 15 to 20)
#    0.857    1.429    0.000    5.143    0.000    3.429 
#    0.000    0.714    0.000    0.857    0.000    0.000 
#    0.000    0.000    0.000    0.000    0.000    0.000 
#
# Total GULP energy -156491.859533 kJ/mol
# GULP energy per Si atom -5588.994983 kJ/mol
# Density = 2.396877 g / cm^3
# Si number density = 24.023453 Si / 1000 Ang^3
#
#
#
# Elastic Constant Matrix: (Units=GPa)
#
#
# Indices 1 2 3 4 5 6 
#
# 1 103.4716 19.7837 -0.6527 0.0000 12.6902 0.0000
# 2 19.7837 86.1889 19.7645 0.0000 15.9761 0.0000
# 3 -0.6527 19.7645 90.4532 0.0000 11.7854 0.0000
# 4 0.0000 0.0000 0.0000 23.4910 0.0000 5.4510
# 5 12.6902 15.9761 11.7854 0.0000 48.6626 0.0000
# 6 0.0000 0.0000 0.0000 5.4510 0.0000 28.3726
#
#
#
# Elastic Compliance Matrix: (Units=1/GPa)
#
#
# Indices 1 2 3 4 5 6 
#
# 1 0.010352 -0.002161 0.000832 0.000000 -0.002192 0.000000
# 2 -0.002161 0.013262 -0.002498 0.000000 -0.003185 0.000000
# 3 0.000832 -0.002498 0.011904 0.000000 -0.002280 0.000000
# 4 0.000000 0.000000 0.000000 0.044556 0.000000 -0.008560
# 5 -0.002192 -0.003185 -0.002280 0.000000 0.022719 0.000000
# 6 0.000000 0.000000 0.000000 -0.008560 0.000000 0.036890
#
#
# Mechanical properties :
#
#
# Convention : Reuss Voigt Hill
#
# Bulk Modulus (GPa) = 35.88797 39.76719 37.82758
# Shear Modulus (GPa) = 31.92353 36.18645 34.05499
#
# Velocity S-wave (km/s) = 3.64929 3.88531 3.76915
# Velocity P-wave (km/s) = 5.72080 6.05945 5.89256
#
# Compressibility (1/GPa) = 0.02786449
#
# Stress axis : x y z
#
# Youngs Moduli (GPa) = 96.60284 75.40483 84.00248
#
# Poissons Ratio (x) = 0.16293 -0.06992
# Poissons Ratio (y) = 0.20873 0.20987
# Poissons Ratio (z) = -0.08041 0.18839
#
# Static dielectric constant tensor:
#      x y z
#    x 1.984990 0.000000 -0.021580 
#    y 0.000000 1.806060 0.000000 
#    z -0.021580 0.000000 1.921180 
# 
# From -- ./inp_files/73602.got.cif
#   From: 2010.05.17/outbox.cif.g08.bks.cpg/sg11_37_cif.got.tgz:73602.got - 2010.06.03 12:22:45.
