data_PCOD9159965
_publ_section_title
;
Structure prediction by ZEFSAII (Michael W. Deem and Ramdas Pophale) SiO2 
 PCOD9159965
Probable space group: P 21/M
;
_chemical_formula_sum "Si O2"
_cell_formula_units_Z 28
_cell_length_a 9.768355
_cell_length_b 8.585068
_cell_length_c 29.031377
_cell_angle_alpha 90.000000
_cell_angle_beta 139.815184
_cell_angle_gamma 90.000000
_cell_volume 1570.957213
_symmetry_space_group_name_H-M "P 21/M"
_symmetry_group_IT_number 11
_symmetry_cell_setting 'monoclinic'
loop_
_space_group_symop_operation_xyz
x,y,z
-x,1/2+y,-z
-x,-y,-z
x,1/2-y,z
loop_
_atom_site_type_symbol
_atom_site_label
_atom_site_fract_x
_atom_site_fract_y
_atom_site_fract_z
Si Si1 0.503407 0.561126 0.645625
Si Si2 0.360301 0.562702 0.506508
Si Si3 0.673207 0.568778 0.939962
Si Si4 0.647885 0.931136 0.078339
Si Si5 0.135934 0.566346 0.100481
Si Si6 0.885607 0.936324 0.805497
Si Si7 0.938674 0.437096 0.433637
O O1 0.502764 0.750000 0.643341
O O2 0.455277 0.509239 0.580822
O O3 0.726830 0.511315 0.724263
O O4 0.310724 0.519060 0.631087
O O5 0.500000 0.500000 0.500000
O O6 0.362722 0.750000 0.506113
O O7 0.114439 0.506257 0.444372
O O8 0.616535 0.750000 0.931186
O O9 0.487856 0.460466 0.910805
O O10 0.733496 0.530373 0.903296
O O11 0.887206 0.538581 0.024579
O O12 0.685164 0.750000 0.078683
O O13 0.871734 0.016152 0.139736
O O14 0.500000 0.000000 0.000000
O O15 0.173185 0.750000 0.103681
O O16 0.180836 0.513257 0.163450
O O17 0.871324 0.750000 0.806028
O O18 0.954735 0.250000 0.436408
O O19 0.000000 0.500000 0.500000
#
# Coordination Sequence:
#
# PCOD9159965 Si02
#       7
#     4   4   4   4   4   4   4
#     4   8  18  35  55  79 109 145 183 222 268 327
#     4  10  19  34  56  85 115 145 184 225 267 318
#     4  10  20  35  55  77 103 134 175 223 273 324
#     4  12  23  36  54  79 108 142 183 231 279 328
#     4  10  20  34  53  78 106 134 172 222 273 321
#     4  11  21  36  57  79 107 146 186 224 273 329
#     4   9  16  31  54  80 108 140 179 218 259 312
#
# _framework density 17.823529000000001
#
# number of rings (size 3 to 8) (size 9 to 14) (size 15 to 20)
#    0.000    2.000    1.429    4.286    0.000    1.143 
#    0.000   10.000    0.000    3.429    0.000    0.000 
#    0.000    0.000    0.000    0.000    0.000    0.000 
#
# Total GULP energy -156152.328069 kJ/mol
# GULP energy per Si atom -5576.868860 kJ/mol
# Density = 1.778296 g / cm^3
# Si number density = 17.823529 Si / 1000 Ang^3
#
#
#
# Elastic Constant Matrix: (Units=GPa)
#
#
# Indices 1 2 3 4 5 6 
#
# 1 106.1850 14.2092 39.6007 0.0000 6.9287 0.0000
# 2 14.2092 39.7366 13.8135 0.0000 2.3315 0.0000
# 3 39.6007 13.8135 93.8119 0.0000 9.0526 0.0000
# 4 0.0000 0.0000 0.0000 18.7803 0.0000 1.9613
# 5 6.9287 2.3315 9.0526 0.0000 22.6787 0.0000
# 6 0.0000 0.0000 0.0000 1.9613 0.0000 34.7554
#
#
#
# Elastic Compliance Matrix: (Units=1/GPa)
#
#
# Indices 1 2 3 4 5 6 
#
# 1 0.011465 -0.002507 -0.004324 0.000000 -0.001519 0.000000
# 2 -0.002507 0.027104 -0.002847 0.000000 -0.000884 0.000000
# 3 -0.004324 -0.002847 0.013259 0.000000 -0.003679 0.000000
# 4 0.000000 0.000000 0.000000 0.053563 0.000000 -0.003023
# 5 -0.001519 -0.000884 -0.003679 0.000000 0.046118 0.000000
# 6 0.000000 0.000000 0.000000 -0.003023 0.000000 0.028943
#
#
# Mechanical properties :
#
#
# Convention : Reuss Voigt Hill
#
# Bulk Modulus (GPa) = 30.79686 41.66449 36.23068
# Shear Modulus (GPa) = 23.73808 26.71688 25.22748
#
# Velocity S-wave (km/s) = 3.65340 3.87585 3.76627
# Velocity P-wave (km/s) = 5.92560 6.59215 6.26774
#
# Compressibility (1/GPa) = 0.03247084
#
# Stress axis : x y z
#
# Youngs Moduli (GPa) = 87.22433 36.89497 75.42005
#
# Poissons Ratio (x) = 0.09251 0.32610
# Poissons Ratio (y) = 0.21871 0.21474
# Poissons Ratio (z) = 0.37714 0.10505
#
# Static dielectric constant tensor:
#      x y z
#    x 1.636950 0.000000 0.007050 
#    y 0.000000 1.597720 0.000000 
#    z 0.007050 0.000000 1.617230 
# 
# From -- ./inp_files/72771.got.cif
#   From: 2010.05.17/outbox.cif.g08.bks.cpg/sg11_37_cif.got.tgz:72771.got - 2010.06.03 12:22:45.
