data_PCOD9159977
_publ_section_title
;
Structure prediction by ZEFSAII (Michael W. Deem and Ramdas Pophale) SiO2 
 PCOD9159977
Probable space group: P 21/M
;
_chemical_formula_sum "Si O2"
_cell_formula_units_Z 30
_cell_length_a 11.236662
_cell_length_b 23.000829
_cell_length_c 5.179326
_cell_angle_alpha 90.000000
_cell_angle_beta 112.727867
_cell_angle_gamma 90.000000
_cell_volume 1234.667286
_symmetry_space_group_name_H-M "P 21/M"
_symmetry_group_IT_number 11
_symmetry_cell_setting 'monoclinic'
loop_
_space_group_symop_operation_xyz
x,y,z
-x,1/2+y,-z
-x,-y,-z
x,1/2-y,z
loop_
_atom_site_type_symbol
_atom_site_label
_atom_site_fract_x
_atom_site_fract_y
_atom_site_fract_z
Si Si1 0.378571 0.566010 0.662546
Si Si2 0.338964 0.391778 0.193257
Si Si3 0.345449 0.184284 0.678562
Si Si4 0.991270 0.444941 0.182675
Si Si5 0.630305 0.165956 0.987549
Si Si6 0.228717 0.750000 0.556433
Si Si7 0.210710 0.479743 0.734771
Si Si8 0.839372 0.145445 0.770631
O O1 0.337870 0.500144 0.687333
O O2 0.260342 0.595407 0.407343
O O3 0.516862 0.580985 0.658056
O O4 0.383040 0.599382 0.941933
O O5 0.337913 0.346610 0.950925
O O6 0.249366 0.443919 0.018581
O O7 0.296372 0.357373 0.410663
O O8 0.294224 0.250000 0.635141
O O9 0.499576 0.186913 0.753139
O O10 0.867381 0.462010 0.253725
O O11 0.111859 0.444739 0.473942
O O12 0.958798 0.387462 0.997076
O O13 0.000000 0.500000 0.000000
O O14 0.753771 0.178950 0.914872
O O15 0.661675 0.200251 0.275288
O O16 0.129604 0.696316 0.403222
#
# Coordination Sequence:
#
# PCOD9159977 Si02
#       8
#     4   4   4   4   4   2   4   4
#     4  10  20  37  59  98 132 166 207 270 335 406
#     4  11  25  40  67 102 138 181 221 277 337 411
#     4  11  23  40  65  97 139 181 224 269 332 405
#     4  11  24  42  69  91 123 175 225 285 334 403
#     4  10  19  34  56  93 131 161 204 262 332 390
#     4  10  22  30  60  90 126 166 206 278 326 396
#     4  11  24  42  64  96 131 174 225 278 339 404
#     4  11  20  37  61  91 128 163 218 265 342 390
#
# _framework density 24.298044000000001
#
# number of rings (size 3 to 8) (size 9 to 14) (size 15 to 20)
#    0.000    1.333    4.667    1.200    1.867    0.000 
#    0.000    2.667    2.933    0.000    0.000    0.000 
#    0.000    0.000    0.000    0.000    0.000    0.000 
#
# Total GULP energy -167268.936117 kJ/mol
# GULP energy per Si atom -5575.631204 kJ/mol
# Density = 2.424274 g / cm^3
# Si number density = 24.298044 Si / 1000 Ang^3
#
#
#
# Elastic Constant Matrix: (Units=GPa)
#
#
# Indices 1 2 3 4 5 6 
#
# 1 48.7688 23.3484 7.4174 0.0000 -6.8470 0.0000
# 2 23.3484 105.8001 46.9274 0.0000 22.7524 0.0000
# 3 7.4174 46.9274 113.5702 0.0000 13.4601 0.0000
# 4 0.0000 0.0000 0.0000 -218.9429 0.0000 103.7136
# 5 -6.8470 22.7524 13.4601 0.0000 25.4096 0.0000
# 6 0.0000 0.0000 0.0000 103.7136 0.0000 -19.1683
#
#
#
# Elastic Compliance Matrix: (Units=1/GPa)
#
#
# Indices 1 2 3 4 5 6 
#
# 1 0.027218 -0.009512 0.000292 0.000000 0.015697 0.000000
# 2 -0.009512 0.016838 -0.004530 0.000000 -0.015240 0.000000
# 3 0.000292 -0.004530 0.010849 0.000000 -0.001612 0.000000
# 4 0.000000 0.000000 0.000000 0.002922 0.000000 0.015811
# 5 0.015697 -0.015240 -0.001612 0.000000 0.058085 0.000000
# 6 0.000000 0.000000 0.000000 0.015811 0.000000 0.033377
#
#
# Mechanical properties :
#
#
# Convention : Reuss Voigt Hill
#
# Bulk Modulus (GPa) = 36.48869 47.05840 41.77355
# Shear Modulus (GPa) = 26.89289 -29.84394 -1.47552
#
# Velocity S-wave (km/s) = 3.33046 -3.50843 -0.78011
# Velocity P-wave (km/s) = 5.46251 1.73120 4.05192
#
# Compressibility (1/GPa) = 0.02740576
#
# Stress axis : x y z
#
# Youngs Moduli (GPa) = 36.74030 59.39103 92.17595
#
# Poissons Ratio (x) = 0.56492 -0.02695
# Poissons Ratio (y) = 0.34947 0.41754
# Poissons Ratio (z) = -0.01074 0.26903
#
# Static dielectric constant tensor:
#      x y z
#    x 2.050690 0.000000 -0.102350 
#    y 0.000000 1.962740 0.000000 
#    z -0.102350 0.000000 2.026990 
# 
# From -- ./inp_files/7207.got.cif
#   From: 2010.05.17/outbox.cif.g08.bks.cpg/sg11_4_cif.got.tgz:7207.got - 2010.06.03 12:22:45.
