data_PCOD9159518
_publ_section_title
;
Structure prediction by ZEFSAII (Michael W. Deem and Ramdas Pophale) SiO2 
 PCOD9159518
Probable space group: P 21/M
;
_chemical_formula_sum "Si O2"
_cell_formula_units_Z 28
_cell_length_a 10.234497
_cell_length_b 7.948840
_cell_length_c 29.029191
_cell_angle_alpha 90.000000
_cell_angle_beta 37.331676
_cell_angle_gamma 90.000000
_cell_volume 1432.136778
_symmetry_space_group_name_H-M "P 21/M"
_symmetry_group_IT_number 11
_symmetry_cell_setting 'monoclinic'
loop_
_space_group_symop_operation_xyz
x,y,z
-x,1/2+y,-z
-x,-y,-z
x,1/2-y,z
loop_
_atom_site_type_symbol
_atom_site_label
_atom_site_fract_x
_atom_site_fract_y
_atom_site_fract_z
Si Si1 0.822146 0.052094 0.206276
Si Si2 0.234541 0.047525 0.952279
Si Si3 0.432607 0.553688 0.377316
Si Si4 0.141403 0.955872 0.374584
Si Si5 0.659811 0.945154 0.495893
Si Si6 0.731582 0.546997 0.953537
Si Si7 0.462634 0.454117 0.798783
O O1 0.822478 0.250000 0.217255
O O2 0.065959 0.986906 0.133700
O O3 0.659405 0.965347 0.287309
O O4 0.717125 0.026285 0.185305
O O5 0.250046 0.250000 0.949930
O O6 0.409129 0.990635 0.865496
O O7 0.255809 0.981320 0.997835
O O8 0.000000 0.000000 0.000000
O O9 0.389299 0.750000 0.397144
O O10 0.250003 0.487622 0.392603
O O11 0.435292 0.469083 0.426284
O O12 0.138927 0.750000 0.377739
O O13 0.308282 0.002187 0.287320
O O14 0.901923 0.020637 0.431463
O O15 0.694484 0.750000 0.477472
O O16 0.500000 0.000000 0.500000
O O17 0.752280 0.750000 0.948989
O O18 0.500000 0.500000 0.000000
O O19 0.448542 0.250000 0.800543
#
# Coordination Sequence:
#
# PCOD9159518 Si02
#       7
#     4   4   4   4   4   4   4
#     4  10  19  34  55  81 114 143 179 228 276 324
#     4  10  19  33  55  81 109 142 184 228 272 322
#     4  10  20  37  61  86 107 138 186 229 274 331
#     4   8  17  34  57  83 110 140 181 227 271 323
#     4  11  22  38  57  81 116 150 181 223 275 329
#     4  10  22  37  52  77 113 150 188 227 270 325
#     4   9  17  32  56  83 108 137 181 230 274 323
#
# _framework density 19.551205
#
# number of rings (size 3 to 8) (size 9 to 14) (size 15 to 20)
#    0.000    2.286    1.429    2.571    0.000    1.714 
#    2.571    6.429    0.000    0.000    0.000    0.000 
#    0.000    0.000    0.000    0.000    0.000    0.000 
#
# Total GULP energy -156175.980877 kJ/mol
# GULP energy per Si atom -5577.713603 kJ/mol
# Density = 1.950671 g / cm^3
# Si number density = 19.551205 Si / 1000 Ang^3
#
#
#
# Elastic Constant Matrix: (Units=GPa)
#
#
# Indices 1 2 3 4 5 6 
#
# 1 140.2968 1.0551 80.2583 0.0000 -9.5804 0.0000
# 2 1.0551 14.9828 -5.0298 0.0000 -1.8685 0.0000
# 3 80.2583 -5.0298 120.7742 0.0000 -11.7978 0.0000
# 4 0.0000 0.0000 0.0000 19.4351 0.0000 -1.6196
# 5 -9.5804 -1.8685 -11.7978 0.0000 28.1002 0.0000
# 6 0.0000 0.0000 0.0000 -1.6196 0.0000 22.6474
#
#
#
# Elastic Compliance Matrix: (Units=1/GPa)
#
#
# Indices 1 2 3 4 5 6 
#
# 1 0.011680 -0.003404 -0.007859 0.000000 0.000456 0.000000
# 2 -0.003404 0.069642 0.005737 0.000000 0.005879 0.000000
# 3 -0.007859 0.005737 0.014095 0.000000 0.003620 0.000000
# 4 0.000000 0.000000 0.000000 0.051762 0.000000 0.003702
# 5 0.000456 0.005879 0.003620 0.000000 0.037653 0.000000
# 6 0.000000 0.000000 0.000000 0.003702 0.000000 0.044420
#
#
# Mechanical properties :
#
#
# Convention : Reuss Voigt Hill
#
# Bulk Modulus (GPa) = 11.85332 47.62456 29.73894
# Shear Modulus (GPa) = 18.62702 27.35455 22.99079
#
# Velocity S-wave (km/s) = 3.08998 3.74454 3.43290
# Velocity P-wave (km/s) = 4.33665 6.56561 5.56389
#
# Compressibility (1/GPa) = 0.08436452
#
# Stress axis : x y z
#
# Youngs Moduli (GPa) = 85.61298 14.35914 70.94641
#
# Poissons Ratio (x) = 0.04888 0.55759
# Poissons Ratio (y) = 0.29143 -0.40700
# Poissons Ratio (z) = 0.67285 -0.08237
#
# Static dielectric constant tensor:
#      x y z
#    x 1.667090 0.000000 -0.005670 
#    y 0.000000 1.701380 0.000000 
#    z -0.005670 0.000000 1.706880 
# 
# From -- ./inp_files/72713.got.cif
#   From: 2010.05.17/outbox.cif.g08.bks.cpg/sg11_37_cif.got.tgz:72713.got - 2010.06.03 12:22:45.
