data_PCOD9159924
_publ_section_title
;
Structure prediction by ZEFSAII (Michael W. Deem and Ramdas Pophale) SiO2 
 PCOD9159924
Probable space group: P 21/M
;
_chemical_formula_sum "Si O2"
_cell_formula_units_Z 28
_cell_length_a 21.061373
_cell_length_b 8.830925
_cell_length_c 14.845057
_cell_angle_alpha 90.000000
_cell_angle_beta 28.738221
_cell_angle_gamma 90.000000
_cell_volume 1327.537811
_symmetry_space_group_name_H-M "P 21/M"
_symmetry_group_IT_number 11
_symmetry_cell_setting 'monoclinic'
loop_
_space_group_symop_operation_xyz
x,y,z
-x,1/2+y,-z
-x,-y,-z
x,1/2-y,z
loop_
_atom_site_type_symbol
_atom_site_label
_atom_site_fract_x
_atom_site_fract_y
_atom_site_fract_z
Si Si1 0.224547 0.430974 0.511001
Si Si2 0.501858 0.926717 0.153601
Si Si3 0.699196 0.918436 0.270412
Si Si4 0.512626 0.923292 0.354887
Si Si5 0.025401 0.432779 0.604492
Si Si6 0.212829 0.931150 0.217347
Si Si7 0.134741 0.922936 0.806901
O O1 0.234887 0.250000 0.500739
O O2 0.362554 0.496502 0.300044
O O3 0.094402 0.472202 0.613919
O O4 0.204417 0.493863 0.636826
O O5 0.498843 0.750000 0.131807
O O6 0.506642 0.938847 0.256420
O O7 0.641295 0.999740 0.952634
O O8 0.753242 0.750000 0.220840
O O9 0.656578 0.930318 0.220472
O O10 0.568755 0.946064 0.493597
O O11 0.786564 0.052300 0.198739
O O12 0.465140 0.750000 0.434890
O O13 0.034390 0.250000 0.584492
O O14 0.120613 0.510062 0.412730
O O15 0.874450 0.473086 0.763874
O O16 0.224461 0.750000 0.204591
O O17 0.120964 0.750000 0.799273
O O18 0.000000 0.000000 0.000000
#
# Coordination Sequence:
#
# PCOD9159924 Si02
#       7
#     4   4   4   4   4   4   4
#     4  11  23  41  64  91 122 158 199 250 306 363
#     4  11  22  37  59  90 127 162 201 249 299 357
#     4  10  19  34  56  81 110 148 193 241 292 343
#     4   9  19  34  54  81 113 150 191 238 289 345
#     4   9  21  42  65  90 122 157 198 247 302 363
#     4  10  21  39  64  92 121 157 200 247 300 360
#     4  12  25  41  59  83 117 157 201 248 298 358
#
# _framework density 21.091678999999999
#
# number of rings (size 3 to 8) (size 9 to 14) (size 15 to 20)
#    0.000    1.714    1.429    3.000    0.000    4.571 
#    0.000    2.857    0.000    0.000    0.000    0.000 
#    0.000    0.000    0.000    0.000    0.000    0.000 
#
# Total GULP energy -156129.212098 kJ/mol
# GULP energy per Si atom -5576.043289 kJ/mol
# Density = 2.104367 g / cm^3
# Si number density = 21.091679 Si / 1000 Ang^3
#
#
#
# Elastic Constant Matrix: (Units=GPa)
#
#
# Indices 1 2 3 4 5 6 
#
# 1 51.5093 15.6620 -7.5983 0.0000 -8.7763 0.0000
# 2 15.6620 57.8913 13.6627 0.0000 -4.8939 0.0000
# 3 -7.5983 13.6627 63.7498 0.0000 -19.2693 0.0000
# 4 0.0000 0.0000 0.0000 27.5397 0.0000 -5.6275
# 5 -8.7763 -4.8939 -19.2693 0.0000 18.1670 0.0000
# 6 0.0000 0.0000 0.0000 -5.6275 0.0000 24.3551
#
#
#
# Elastic Compliance Matrix: (Units=1/GPa)
#
#
# Indices 1 2 3 4 5 6 
#
# 1 0.028051 -0.008482 0.012609 0.000000 0.024641 0.000000
# 2 -0.008482 0.020774 -0.007375 0.000000 -0.006323 0.000000
# 3 0.012609 -0.007375 0.029453 0.000000 0.035345 0.000000
# 4 0.000000 0.000000 0.000000 0.038111 0.000000 0.008806
# 5 0.024641 -0.006323 0.035345 0.000000 0.102736 0.000000
# 6 0.000000 0.000000 0.000000 0.008806 0.000000 0.043094
#
#
# Mechanical properties :
#
#
# Convention : Reuss Voigt Hill
#
# Bulk Modulus (GPa) = 13.93049 24.06702 18.99876
# Shear Modulus (GPa) = 17.08573 24.10728 20.59650
#
# Velocity S-wave (km/s) = 2.84926 3.38446 3.12833
# Velocity P-wave (km/s) = 4.17654 5.16800 4.69849
#
# Compressibility (1/GPa) = 0.07178497
#
# Stress axis : x y z
#
# Youngs Moduli (GPa) = 35.64872 48.13624 33.95197
#
# Poissons Ratio (x) = 0.40829 -0.42811
# Poissons Ratio (y) = 0.30237 0.25038
# Poissons Ratio (z) = -0.44951 0.35498
#
# Static dielectric constant tensor:
#      x y z
#    x 1.698060 0.000000 0.070720 
#    y 0.000000 1.680810 0.000000 
#    z 0.070720 0.000000 1.647510 
# 
# From -- ./inp_files/54531.got.cif
#   From: 2010.05.17/outbox.cif.g08.bks.cpg/sg11_28_cif.got.tgz:54531.got - 2010.06.03 12:22:45.
