data_PCOD9159944
_publ_section_title
;
Structure prediction by ZEFSAII (Michael W. Deem and Ramdas Pophale) SiO2 
 PCOD9159944
Probable space group: P 21/M
;
_chemical_formula_sum "Si O2"
_cell_formula_units_Z 32
_cell_length_a 21.429378
_cell_length_b 8.976973
_cell_length_c 26.963267
_cell_angle_alpha 90.000000
_cell_angle_beta 159.014250
_cell_angle_gamma 90.000000
_cell_volume 1857.631942
_symmetry_space_group_name_H-M "P 21/M"
_symmetry_group_IT_number 11
_symmetry_cell_setting 'monoclinic'
loop_
_space_group_symop_operation_xyz
x,y,z
-x,1/2+y,-z
-x,-y,-z
x,1/2-y,z
loop_
_atom_site_type_symbol
_atom_site_label
_atom_site_fract_x
_atom_site_fract_y
_atom_site_fract_z
Si Si1 0.005582 0.928806 0.581056
Si Si2 0.780234 0.426036 0.603635
Si Si3 0.937139 0.429154 0.902632
Si Si4 0.278228 0.571935 0.697515
Si Si5 0.460763 0.571587 0.417651
Si Si6 0.342592 0.928051 0.022397
Si Si7 0.958805 0.070813 0.277944
Si Si8 0.089331 0.427078 0.911555
O O1 0.979948 0.750000 0.559728
O O2 0.044003 0.969710 0.666341
O O3 0.166463 0.965404 0.663989
O O4 0.835906 0.007926 0.432572
O O5 0.751302 0.250000 0.576403
O O6 0.602095 0.508895 0.484149
O O7 0.882003 0.492789 0.632291
O O8 0.912447 0.447346 0.748244
O O9 0.948495 0.250000 0.913893
O O10 0.735682 0.467394 0.743349
O O11 0.050003 0.475569 0.938388
O O12 0.000000 0.500000 0.000000
O O13 0.290511 0.750000 0.702844
O O14 0.468810 0.501561 0.841059
O O15 0.500000 0.500000 0.500000
O O16 0.474249 0.750000 0.431236
O O17 0.358712 0.750000 0.035728
O O18 0.217181 0.968722 0.882786
O O19 0.240117 0.985720 0.994878
O O20 0.978676 0.250000 0.288840
O O21 0.128187 0.250000 0.939749
#
# Coordination Sequence:
#
# PCOD9159944 Si02
#       8
#     4   4   4   4   4   4   4   4
#     4   9  19  37  58  79 109 145 180 223 270 316
#     4  10  19  34  56  83 111 141 179 223 271 323
#     4  10  22  39  56  79 110 142 179 225 273 321
#     4  10  20  35  56  81 109 145 184 220 265 321
#     4  11  21  36  58  83 109 142 183 226 270 322
#     4  10  20  34  55  83 109 140 181 221 266 324
#     4   9  19  36  56  81 111 142 178 224 272 318
#     4   9  18  36  56  76 108 143 177 222 268 316
#
# _framework density 17.226233000000001
#
# number of rings (size 3 to 8) (size 9 to 14) (size 15 to 20)
#    0.000    2.250    1.250    1.500    0.000    4.000 
#    2.250    0.000    0.000    0.000    0.000    0.000 
#    0.000    0.000    0.000    0.000    0.000    0.000 
#
# Total GULP energy -178591.067567 kJ/mol
# GULP energy per Si atom -5580.970861 kJ/mol
# Density = 1.718703 g / cm^3
# Si number density = 17.226233 Si / 1000 Ang^3
#
#
#
# Elastic Constant Matrix: (Units=GPa)
#
#
# Indices 1 2 3 4 5 6 
#
# 1 151.0718 54.2648 98.8652 0.0000 -8.5877 0.0000
# 2 54.2648 46.4905 62.3233 0.0000 3.2312 0.0000
# 3 98.8652 62.3233 140.2999 0.0000 9.1488 0.0000
# 4 0.0000 0.0000 0.0000 26.3968 0.0000 1.5238
# 5 -8.5877 3.2312 9.1488 0.0000 24.9902 0.0000
# 6 0.0000 0.0000 0.0000 1.5238 0.0000 30.2501
#
#
#
# Elastic Compliance Matrix: (Units=1/GPa)
#
#
# Indices 1 2 3 4 5 6 
#
# 1 0.014928 -0.007818 -0.007629 0.000000 0.008934 0.000000
# 2 -0.007818 0.057351 -0.019780 0.000000 -0.002861 0.000000
# 3 -0.007629 -0.019780 0.021815 0.000000 -0.008051 0.000000
# 4 0.000000 0.000000 0.000000 0.037994 0.000000 -0.001914
# 5 0.008934 -0.002861 -0.008051 0.000000 0.046403 0.000000
# 6 0.000000 0.000000 0.000000 -0.001914 0.000000 0.033154
#
#
# Mechanical properties :
#
#
# Convention : Reuss Voigt Hill
#
# Bulk Modulus (GPa) = 42.30270 85.41875 63.86073
# Shear Modulus (GPa) = 17.24257 24.48801 20.86529
#
# Velocity S-wave (km/s) = 3.16721 3.77444 3.48408
# Velocity P-wave (km/s) = 6.16323 8.28790 7.30324
#
# Compressibility (1/GPa) = 0.02363915
#
# Stress axis : x y z
#
# Youngs Moduli (GPa) = 66.98779 17.43648 45.83959
#
# Poissons Ratio (x) = 0.13632 0.34971
# Poissons Ratio (y) = 0.52373 0.90672
# Poissons Ratio (z) = 0.51105 0.34490
#
# Static dielectric constant tensor:
#      x y z
#    x 1.572800 0.000000 -0.000480 
#    y 0.000000 1.573540 0.000000 
#    z -0.000480 0.000000 1.557540 
# 
# From -- ./inp_files/72115.got.cif
#   From: 2010.05.17/outbox.cif.g08.bks.cpg/sg11_37_cif.got.tgz:72115.got - 2010.06.03 12:22:45.
