data_PCOD9159616
_publ_section_title
;
Structure prediction by ZEFSAII (Michael W. Deem and Ramdas Pophale) SiO2 
 PCOD9159616
Probable space group: P 21/M
;
_chemical_formula_sum "Si O2"
_cell_formula_units_Z 32
_cell_length_a 11.237411
_cell_length_b 7.821882
_cell_length_c 21.544473
_cell_angle_alpha 90.000000
_cell_angle_beta 52.181232
_cell_angle_gamma 90.000000
_cell_volume 1495.943927
_symmetry_space_group_name_H-M "P 21/M"
_symmetry_group_IT_number 11
_symmetry_cell_setting 'monoclinic'
loop_
_space_group_symop_operation_xyz
x,y,z
-x,1/2+y,-z
-x,-y,-z
x,1/2-y,z
loop_
_atom_site_type_symbol
_atom_site_label
_atom_site_fract_x
_atom_site_fract_y
_atom_site_fract_z
Si Si1 0.483927 0.952778 0.077131
Si Si2 0.474169 0.044693 0.593639
Si Si3 0.583582 0.455610 0.252499
Si Si4 0.039893 0.053018 0.416169
Si Si5 0.760393 0.553723 0.423682
Si Si6 0.806481 0.960333 0.020093
Si Si7 0.900881 0.445472 0.126894
Si Si8 0.325203 0.455627 0.245922
O O1 0.485397 0.750000 0.079758
O O2 0.346344 0.008194 0.165846
O O3 0.639948 0.017123 0.057019
O O4 0.500000 0.000000 0.000000
O O5 0.483569 0.250000 0.582254
O O6 0.311618 0.987167 0.617916
O O7 0.493334 0.997097 0.658405
O O8 0.611041 0.958181 0.513725
O O9 0.596958 0.250000 0.240788
O O10 0.752971 0.529296 0.203160
O O11 0.476974 0.520756 0.231724
O O12 0.078173 0.250000 0.411315
O O13 0.181808 0.976862 0.331591
O O14 0.894788 0.034728 0.417724
O O15 0.000000 0.000000 0.500000
O O16 0.806769 0.750000 0.400369
O O17 0.812872 0.750000 0.023864
O O18 0.929294 0.013256 0.928780
O O19 0.854896 0.045559 0.068920
O O20 0.911021 0.250000 0.145771
O O21 0.323206 0.250000 0.251439
#
# Coordination Sequence:
#
# PCOD9159616 Si02
#       8
#     4   4   4   4   4   4   4   4
#     4  11  23  39  60  83 115 157 201 248 297 352
#     4  10  21  36  58  85 114 150 191 237 292 351
#     4  10  19  33  56  84 114 147 186 235 293 353
#     4  11  23  39  63  93 124 161 201 250 303 355
#     4  10  21  39  59  81 116 154 194 241 288 352
#     4   9  18  33  53  80 108 138 181 230 282 337
#     4   9  17  31  54  80 108 140 175 224 285 340
#     4  10  22  40  60  86 118 152 198 247 294 352
#
# _framework density 21.391176000000002
#
# number of rings (size 3 to 8) (size 9 to 14) (size 15 to 20)
#    0.000    2.000    1.250    2.250    0.000    5.000 
#    2.250    0.000    0.000    0.000    0.000    0.000 
#    0.000    0.000    0.000    0.000    0.000    0.000 
#
# Total GULP energy -178237.799727 kJ/mol
# GULP energy per Si atom -5569.931241 kJ/mol
# Density = 2.134249 g / cm^3
# Si number density = 21.391176 Si / 1000 Ang^3
#
#
#
# Elastic Constant Matrix: (Units=GPa)
#
#
# Indices 1 2 3 4 5 6 
#
# 1 63.0081 -2.6584 43.5552 0.0000 -1.3670 0.0000
# 2 -2.6584 35.2632 2.3499 0.0000 -5.4210 0.0000
# 3 43.5552 2.3499 121.8435 0.0000 -2.5950 0.0000
# 4 0.0000 0.0000 0.0000 23.2221 0.0000 4.8439
# 5 -1.3670 -5.4210 -2.5950 0.0000 32.8668 0.0000
# 6 0.0000 0.0000 0.0000 4.8439 0.0000 17.4378
#
#
#
# Elastic Compliance Matrix: (Units=1/GPa)
#
#
# Indices 1 2 3 4 5 6 
#
# 1 0.021249 0.002209 -0.007625 0.000000 0.000646 0.000000
# 2 0.002209 0.029351 -0.001253 0.000000 0.004834 0.000000
# 3 -0.007625 -0.001253 0.010964 0.000000 0.000342 0.000000
# 4 0.000000 0.000000 0.000000 0.045711 0.000000 -0.012698
# 5 0.000646 0.004834 0.000342 0.000000 0.031277 0.000000
# 6 0.000000 0.000000 0.000000 -0.012698 0.000000 0.060874
#
#
# Mechanical properties :
#
#
# Convention : Reuss Voigt Hill
#
# Bulk Modulus (GPa) = 20.73480 34.06757 27.40119
# Shear Modulus (GPa) = 21.84944 26.49654 24.17299
#
# Velocity S-wave (km/s) = 3.19944 3.52329 3.36526
# Velocity P-wave (km/s) = 4.83350 5.70193 5.28558
#
# Compressibility (1/GPa) = 0.04822809
#
# Stress axis : x y z
#
# Youngs Moduli (GPa) = 47.06139 34.06995 91.20544
#
# Poissons Ratio (x) = -0.07527 0.69541
# Poissons Ratio (y) = -0.10397 0.11427
# Poissons Ratio (z) = 0.35883 0.04269
#
# Static dielectric constant tensor:
#      x y z
#    x 1.813670 0.000000 -0.027900 
#    y 0.000000 1.825530 0.000000 
#    z -0.027900 0.000000 1.862630 
# 
# From -- ./inp_files/64404.got.cif
#   From: 2010.05.17/outbox.cif.g08.bks.cpg/sg11_33_cif.got.tgz:64404.got - 2010.06.03 12:22:45.
