data_PCOD9159561
_publ_section_title
;
Structure prediction by ZEFSAII (Michael W. Deem and Ramdas Pophale) SiO2 
 PCOD9159561
Probable space group: P 21/M
;
_chemical_formula_sum "Si O2"
_cell_formula_units_Z 32
_cell_length_a 18.019385
_cell_length_b 8.786521
_cell_length_c 11.863333
_cell_angle_alpha 90.000000
_cell_angle_beta 109.010069
_cell_angle_gamma 90.000000
_cell_volume 1775.854643
_symmetry_space_group_name_H-M "P 21/M"
_symmetry_group_IT_number 11
_symmetry_cell_setting 'monoclinic'
loop_
_space_group_symop_operation_xyz
x,y,z
-x,1/2+y,-z
-x,-y,-z
x,1/2-y,z
loop_
_atom_site_type_symbol
_atom_site_label
_atom_site_fract_x
_atom_site_fract_y
_atom_site_fract_z
Si Si1 0.922364 0.570738 0.405779
Si Si2 0.020349 0.070430 0.817116
Si Si3 0.848716 0.931181 0.727221
Si Si4 0.832115 0.566567 0.974081
Si Si5 0.310781 0.567307 0.959408
Si Si6 0.357973 0.432908 0.739104
Si Si7 0.778179 0.069091 0.468327
Si Si8 0.523150 0.432686 0.890527
O O1 0.918070 0.750000 0.430657
O O2 0.932409 0.554692 0.276855
O O3 0.846203 0.489657 0.417663
O O4 0.000000 0.500000 0.500000
O O5 0.001219 0.250000 0.821082
O O6 0.080081 0.021255 0.944333
O O7 0.940099 0.978592 0.768707
O O8 0.842409 0.750000 0.709849
O O9 0.818914 0.972974 0.837222
O O10 0.802996 0.012548 0.604094
O O11 0.828224 0.750000 0.984070
O O12 0.768041 0.492717 0.023217
O O13 0.308279 0.750000 0.946041
O O14 0.385584 0.524975 0.076484
O O15 0.326797 0.495109 0.844418
O O16 0.351761 0.250000 0.736607
O O17 0.303335 0.500490 0.615534
O O18 0.450287 0.477441 0.775150
O O19 0.775614 0.250000 0.463924
O O20 0.521065 0.250000 0.895596
O O21 0.500000 0.500000 0.000000
#
# Coordination Sequence:
#
# PCOD9159561 Si02
#       8
#     4   4   4   4   4   4   4   4
#     4  11  21  34  54  79 108 140 173 214 266 323
#     4  10  21  37  56  77 104 136 174 223 272 318
#     4  11  23  38  56  75 101 140 185 229 272 319
#     4  10  22  38  55  78 106 140 182 224 269 320
#     4  10  19  33  55  85 115 142 175 215 263 320
#     4  10  19  34  56  82 113 145 176 216 265 318
#     4  12  24  37  54  78 109 143 182 225 269 324
#     4   8  16  30  51  80 112 142 171 209 261 317
#
# _framework density 18.019494000000002
#
# number of rings (size 3 to 8) (size 9 to 14) (size 15 to 20)
#    0.000    1.750    1.250    3.750    0.000    4.000 
#    0.000    0.000    0.000    0.750    0.000    0.000 
#    0.000    0.000    0.000    0.000    0.000    0.000 
#
# Total GULP energy -178632.553365 kJ/mol
# GULP energy per Si atom -5582.267293 kJ/mol
# Density = 1.797848 g / cm^3
# Si number density = 18.019494 Si / 1000 Ang^3
#
#
#
# Elastic Constant Matrix: (Units=GPa)
#
#
# Indices 1 2 3 4 5 6 
#
# 1 48.4357 20.7990 41.9481 0.0000 23.1523 0.0000
# 2 20.7990 61.8095 40.9265 0.0000 7.1924 0.0000
# 3 41.9481 40.9265 94.5369 0.0000 25.3249 0.0000
# 4 0.0000 0.0000 0.0000 22.7547 0.0000 7.2843
# 5 23.1523 7.1924 25.3249 0.0000 33.0315 0.0000
# 6 0.0000 0.0000 0.0000 7.2843 0.0000 18.9408
#
#
#
# Elastic Compliance Matrix: (Units=1/GPa)
#
#
# Indices 1 2 3 4 5 6 
#
# 1 0.041703 -0.004167 -0.011469 0.000000 -0.019530 0.000000
# 2 -0.004167 0.023378 -0.009679 0.000000 0.005250 0.000000
# 3 -0.011469 -0.009679 0.021569 0.000000 -0.006390 0.000000
# 4 0.000000 0.000000 0.000000 0.050117 0.000000 -0.019274
# 5 -0.019530 0.005250 -0.006390 0.000000 0.047719 0.000000
# 6 0.000000 0.000000 0.000000 -0.019274 0.000000 0.060209
#
#
# Mechanical properties :
#
#
# Convention : Reuss Voigt Hill
#
# Bulk Modulus (GPa) = 27.76070 45.79214 36.77642
# Shear Modulus (GPa) = 16.26908 21.68596 18.97752
#
# Velocity S-wave (km/s) = 3.00802 3.47287 3.24877
# Velocity P-wave (km/s) = 5.24439 6.44584 5.87590
#
# Compressibility (1/GPa) = 0.03602214
#
# Stress axis : x y z
#
# Youngs Moduli (GPa) = 23.97882 42.77459 46.36320
#
# Poissons Ratio (x) = 0.17822 0.53175
# Poissons Ratio (y) = 0.09991 0.44873
# Poissons Ratio (z) = 0.27502 0.41400
#
# Static dielectric constant tensor:
#      x y z
#    x 1.609920 0.000000 0.025310 
#    y 0.000000 1.610180 0.000000 
#    z 0.025310 0.000000 1.630700 
# 
# From -- ./inp_files/42545.got.cif
#   From: 2010.05.17/outbox.cif.g08.bks.cpg/sg11_22_cif.got.tgz:42545.got - 2010.06.03 12:22:45.
