data_PCOD9159169
_publ_section_title
;
Structure prediction by ZEFSAII (Michael W. Deem and Ramdas Pophale) SiO2 
 PCOD9159169
Probable space group: P 21/M
;
_chemical_formula_sum "Si O2"
_cell_formula_units_Z 32
_cell_length_a 16.656812
_cell_length_b 8.709221
_cell_length_c 11.620521
_cell_angle_alpha 90.000000
_cell_angle_beta 87.885217
_cell_angle_gamma 90.000000
_cell_volume 1684.615913
_symmetry_space_group_name_H-M "P 21/M"
_symmetry_group_IT_number 11
_symmetry_cell_setting 'monoclinic'
loop_
_space_group_symop_operation_xyz
x,y,z
-x,1/2+y,-z
-x,-y,-z
x,1/2-y,z
loop_
_atom_site_type_symbol
_atom_site_label
_atom_site_fract_x
_atom_site_fract_y
_atom_site_fract_z
Si Si1 0.274020 0.064653 0.685242
Si Si2 0.663365 0.434301 0.717676
Si Si3 0.419854 0.432749 0.059174
Si Si4 0.410352 0.434090 0.509088
Si Si5 0.171915 0.933703 0.162355
Si Si6 0.268157 0.566394 0.936444
Si Si7 0.114439 0.434527 0.565175
Si Si8 0.041680 0.433294 0.325559
O O1 0.272917 0.250000 0.699329
O O2 0.359651 0.021208 0.625376
O O3 0.203229 0.021795 0.600145
O O4 0.256077 0.986090 0.807241
O O5 0.660579 0.250000 0.710910
O O6 0.600374 0.492307 0.816667
O O7 0.639788 0.507069 0.597938
O O8 0.751441 0.479001 0.761814
O O9 0.424712 0.250000 0.069947
O O10 0.500000 0.500000 0.000000
O O11 0.346275 0.480979 0.981207
O O12 0.500000 0.500000 0.500000
O O13 0.414160 0.250000 0.505518
O O14 0.163782 0.750000 0.171416
O O15 0.092131 0.010788 0.214266
O O16 0.196995 0.971435 0.030242
O O17 0.280910 0.750000 0.942653
O O18 0.109786 0.250000 0.566668
O O19 0.090056 0.486151 0.438154
O O20 0.047147 0.499415 0.654756
O O21 0.037404 0.250000 0.326725
#
# Coordination Sequence:
#
# PCOD9159169 Si02
#       8
#     4   4   4   4   4   4   4   4
#     4  10  22  40  60  81 113 155 195 236 287 346
#     4  10  21  38  58  83 113 145 188 235 284 339
#     4  11  22  37  59  83 110 145 187 237 289 338
#     4  11  24  40  58  83 115 151 192 237 288 346
#     4   9  19  36  57  82 113 148 184 232 286 337
#     4  10  22  39  58  83 113 149 194 238 287 344
#     4   9  19  36  56  83 117 151 186 231 286 340
#     4  10  19  32  57  89 117 146 187 235 281 339
#
# _framework density 18.995429000000001
#
# number of rings (size 3 to 8) (size 9 to 14) (size 15 to 20)
#    0.000    2.000    0.000    4.125    1.750    6.000 
#    0.000    0.625    0.000    0.000    0.000    0.000 
#    0.000    0.000    0.000    0.000    0.000    0.000 
#
# Total GULP energy -178726.176601 kJ/mol
# GULP energy per Si atom -5585.193019 kJ/mol
# Density = 1.895219 g / cm^3
# Si number density = 18.995429 Si / 1000 Ang^3
#
#
#
# Elastic Constant Matrix: (Units=GPa)
#
#
# Indices 1 2 3 4 5 6 
#
# 1 89.1770 25.0747 31.0503 0.0000 -30.0295 0.0000
# 2 25.0747 37.2949 15.3459 0.0000 -5.7498 0.0000
# 3 31.0503 15.3459 71.4818 0.0000 -12.9525 0.0000
# 4 0.0000 0.0000 0.0000 32.5443 0.0000 -0.6638
# 5 -30.0295 -5.7498 -12.9525 0.0000 28.4454 0.0000
# 6 0.0000 0.0000 0.0000 -0.6638 0.0000 27.8380
#
#
#
# Elastic Compliance Matrix: (Units=1/GPa)
#
#
# Indices 1 2 3 4 5 6 
#
# 1 0.021924 -0.010181 -0.003833 0.000000 0.019342 0.000000
# 2 -0.010181 0.034435 -0.003985 0.000000 -0.005602 0.000000
# 3 -0.003833 -0.003985 0.017037 0.000000 0.002906 0.000000
# 4 0.000000 0.000000 0.000000 0.030742 0.000000 0.000733
# 5 0.019342 -0.005602 0.002906 0.000000 0.055765 0.000000
# 6 0.000000 0.000000 0.000000 0.000733 0.000000 0.035940
#
#
# Mechanical properties :
#
#
# Convention : Reuss Voigt Hill
#
# Bulk Modulus (GPa) = 26.74041 37.87729 32.30885
# Shear Modulus (GPa) = 20.46614 26.19774 23.33194
#
# Velocity S-wave (km/s) = 3.28598 3.71773 3.50850
# Velocity P-wave (km/s) = 5.33898 6.19776 5.78433
#
# Compressibility (1/GPa) = 0.03739658
#
# Stress axis : x y z
#
# Youngs Moduli (GPa) = 45.61171 29.04057 58.69736
#
# Poissons Ratio (x) = 0.29567 0.22498
# Poissons Ratio (y) = 0.46439 0.23392
# Poissons Ratio (z) = 0.17483 0.11573
#
# Static dielectric constant tensor:
#      x y z
#    x 1.654460 0.000000 -0.006560 
#    y 0.000000 1.636370 0.000000 
#    z -0.006560 0.000000 1.664470 
# 
# From -- ./inp_files/38157.got.cif
#   From: 2010.05.17/outbox.cif.g08.bks.cpg/sg11_20_cif.got.tgz:38157.got - 2010.06.03 12:22:45.
