data_PCOD9159358
_publ_section_title
;
Structure prediction by ZEFSAII (Michael W. Deem and Ramdas Pophale) SiO2 
 PCOD9159358
Probable space group: P 21/M
;
_chemical_formula_sum "Si O2"
_cell_formula_units_Z 28
_cell_length_a 14.210282
_cell_length_b 8.587269
_cell_length_c 16.639624
_cell_angle_alpha 90.000000
_cell_angle_beta 130.916046
_cell_angle_gamma 90.000000
_cell_volume 1534.382007
_symmetry_space_group_name_H-M "P 21/M"
_symmetry_group_IT_number 11
_symmetry_cell_setting 'monoclinic'
loop_
_space_group_symop_operation_xyz
x,y,z
-x,1/2+y,-z
-x,-y,-z
x,1/2-y,z
loop_
_atom_site_type_symbol
_atom_site_label
_atom_site_fract_x
_atom_site_fract_y
_atom_site_fract_z
Si Si1 0.001934 0.561746 0.873700
Si Si2 0.047234 0.060103 0.334439
Si Si3 0.173504 0.562103 0.673281
Si Si4 0.198854 0.936513 0.114572
Si Si5 0.558670 0.436188 0.113497
Si Si6 0.727111 0.564124 0.437540
Si Si7 0.469243 0.063499 0.237736
O O1 0.998189 0.750000 0.871634
O O2 0.991933 0.507686 0.776216
O O3 0.886110 0.500469 0.860880
O O4 0.126607 0.515059 0.991964
O O5 0.043886 0.250000 0.332174
O O6 0.185490 0.013870 0.439544
O O7 0.948231 0.010643 0.346746
O O8 0.169405 0.750000 0.659328
O O9 0.295473 0.526367 0.794960
O O10 0.198464 0.483805 0.601669
O O11 0.200160 0.750000 0.118315
O O12 0.338471 0.999067 0.194739
O O13 0.548379 0.250000 0.106356
O O14 0.492703 0.491686 0.158759
O O15 0.500000 0.500000 0.000000
O O16 0.713913 0.750000 0.431946
O O17 0.590670 0.490055 0.354975
O O18 0.466203 0.250000 0.235987
#
# Coordination Sequence:
#
# PCOD9159358 Si02
#       7
#     4   4   4   4   4   4   4
#     4   9  19  36  57  80 108 139 170 212 267 318
#     4   9  18  33  55  79 105 140 179 216 259 312
#     4   9  18  33  51  73 106 145 178 209 259 314
#     4  10  20  35  58  83 106 134 173 218 263 315
#     4   9  19  31  47  72 104 137 172 212 252 305
#     4  10  19  33  53  79 107 137 180 222 255 305
#     4  10  21  37  55  74 103 143 177 211 265 318
#
# _framework density 18.248390000000001
#
# number of rings (size 3 to 8) (size 9 to 14) (size 15 to 20)
#    0.000    2.571    0.000    2.571    2.000    3.429 
#    0.000    3.571    0.000    0.000    0.000    0.000 
#    0.000    0.000    0.000    0.000    0.000    0.000 
#
# Total GULP energy -156183.945384 kJ/mol
# GULP energy per Si atom -5577.998049 kJ/mol
# Density = 1.820686 g / cm^3
# Si number density = 18.248390 Si / 1000 Ang^3
#
#
#
# Elastic Constant Matrix: (Units=GPa)
#
#
# Indices 1 2 3 4 5 6 
#
# 1 86.3741 12.2035 36.0592 0.0000 25.4878 0.0000
# 2 12.2035 13.0328 9.5494 0.0000 3.4270 0.0000
# 3 36.0592 9.5494 76.0975 0.0000 6.5392 0.0000
# 4 0.0000 0.0000 0.0000 18.5247 0.0000 -1.6555
# 5 25.4878 3.4270 6.5392 0.0000 17.4467 0.0000
# 6 0.0000 0.0000 0.0000 -1.6555 0.0000 25.9848
#
#
#
# Elastic Compliance Matrix: (Units=1/GPa)
#
#
# Indices 1 2 3 4 5 6 
#
# 1 0.026288 -0.009709 -0.008372 0.000000 -0.033359 0.000000
# 2 -0.009709 0.091059 -0.006724 0.000000 -0.001182 0.000000
# 3 -0.008372 -0.006724 0.017346 0.000000 0.007050 0.000000
# 4 0.000000 0.000000 0.000000 0.054291 0.000000 0.003459
# 5 -0.033359 -0.001182 0.007050 0.000000 0.103642 0.000000
# 6 0.000000 0.000000 0.000000 0.003459 0.000000 0.038704
#
#
# Mechanical properties :
#
#
# Convention : Reuss Voigt Hill
#
# Bulk Modulus (GPa) = 11.75334 32.34762 22.05048
# Shear Modulus (GPa) = 12.21589 20.23739 16.22664
#
# Velocity S-wave (km/s) = 2.59013 3.33377 2.98520
# Velocity P-wave (km/s) = 3.92425 5.70819 4.89812
#
# Compressibility (1/GPa) = 0.08508221
#
# Stress axis : x y z
#
# Youngs Moduli (GPa) = 38.03974 10.98186 57.64990
#
# Poissons Ratio (x) = 0.10663 0.48263
# Poissons Ratio (y) = 0.36935 0.38766
# Poissons Ratio (z) = 0.31846 0.07385
#
# Static dielectric constant tensor:
#      x y z
#    x 1.606050 0.000000 0.004730 
#    y 0.000000 1.617600 0.000000 
#    z 0.004730 0.000000 1.635930 
# 
# From -- ./inp_files/49464.got.cif
#   From: 2010.05.17/outbox.cif.g08.bks.cpg/sg11_25_cif.got.tgz:49464.got - 2010.06.03 12:22:45.
