data_PCOD9159159
_publ_section_title
;
Structure prediction by ZEFSAII (Michael W. Deem and Ramdas Pophale) SiO2 
 PCOD9159159
Probable space group: P 21/M
;
_chemical_formula_sum "Si O2"
_cell_formula_units_Z 28
_cell_length_a 30.645052
_cell_length_b 8.846233
_cell_length_c 10.453404
_cell_angle_alpha 90.000000
_cell_angle_beta 33.794109
_cell_angle_gamma 90.000000
_cell_volume 1576.214795
_symmetry_space_group_name_H-M "P 21/M"
_symmetry_group_IT_number 11
_symmetry_cell_setting 'monoclinic'
loop_
_space_group_symop_operation_xyz
x,y,z
-x,1/2+y,-z
-x,-y,-z
x,1/2-y,z
loop_
_atom_site_type_symbol
_atom_site_label
_atom_site_fract_x
_atom_site_fract_y
_atom_site_fract_z
Si Si1 0.761687 0.068695 0.078375
Si Si2 0.156557 0.068269 0.369737
Si Si3 0.424101 0.569685 0.847900
Si Si4 0.825420 0.568057 0.183879
Si Si5 0.588284 0.431357 0.421236
Si Si6 0.269939 0.431756 0.330401
Si Si7 0.998869 0.931393 0.860506
O O1 0.766935 0.250000 0.055640
O O2 0.669813 0.026206 0.288768
O O3 0.796810 0.011717 0.125607
O O4 0.807578 0.994943 0.848174
O O5 0.151835 0.250000 0.377229
O O6 0.213905 0.025194 0.347897
O O7 0.071581 0.999473 0.605936
O O8 0.423653 0.750000 0.856901
O O9 0.510544 0.507303 0.666820
O O10 0.407159 0.526217 0.740540
O O11 0.355000 0.502453 0.101661
O O12 0.819708 0.750000 0.182680
O O13 0.771952 0.523905 0.435622
O O14 0.915506 0.532399 0.998691
O O15 0.579309 0.250000 0.449109
O O16 0.276523 0.250000 0.312931
O O17 0.005568 0.750000 0.852294
O O18 0.000000 0.000000 0.000000
#
# Coordination Sequence:
#
# PCOD9159159 Si02
#       7
#     4   4   4   4   4   4   4
#     4  11  23  40  60  88 120 155 195 241 294 347
#     4  11  22  38  62  89 117 155 197 240 293 349
#     4  10  19  32  56  88 116 146 192 241 289 340
#     4  10  23  42  60  84 118 157 195 237 292 353
#     4   9  19  35  54  82 119 151 187 237 290 344
#     4  10  20  37  59  85 117 152 194 239 289 344
#     4  11  22  39  62  89 120 152 196 247 293 344
#
# _framework density 17.764074999999998
#
# number of rings (size 3 to 8) (size 9 to 14) (size 15 to 20)
#    0.000    1.714    2.857    1.714    0.000    4.571 
#    0.000    0.714    0.000    0.000    0.000    0.000 
#    0.000    0.000    0.000    0.000    0.000    0.000 
#
# Total GULP energy -156413.421023 kJ/mol
# GULP energy per Si atom -5586.193608 kJ/mol
# Density = 1.772364 g / cm^3
# Si number density = 17.764075 Si / 1000 Ang^3
#
#
#
# Elastic Constant Matrix: (Units=GPa)
#
#
# Indices 1 2 3 4 5 6 
#
# 1 142.1360 57.7674 94.5563 0.0000 -6.4427 0.0000
# 2 57.7674 45.8928 61.3777 0.0000 -6.5416 0.0000
# 3 94.5563 61.3777 181.2341 0.0000 -17.4511 0.0000
# 4 0.0000 0.0000 0.0000 32.9634 0.0000 -3.2049
# 5 -6.4427 -6.5416 -17.4511 0.0000 32.0150 0.0000
# 6 0.0000 0.0000 0.0000 -3.2049 0.0000 24.5695
#
#
#
# Elastic Compliance Matrix: (Units=1/GPa)
#
#
# Indices 1 2 3 4 5 6 
#
# 1 0.015142 -0.015568 -0.002787 0.000000 -0.001653 0.000000
# 2 -0.015568 0.055858 -0.010551 0.000000 0.002529 0.000000
# 3 -0.002787 -0.010551 0.010853 0.000000 0.003199 0.000000
# 4 0.000000 0.000000 0.000000 0.030726 0.000000 0.004008
# 5 -0.001653 0.002529 0.003199 0.000000 0.033163 0.000000
# 6 0.000000 0.000000 0.000000 0.004008 0.000000 0.041224
#
#
# Mechanical properties :
#
#
# Convention : Reuss Voigt Hill
#
# Bulk Modulus (GPa) = 41.59610 88.51841 65.05725
# Shear Modulus (GPa) = 19.77906 28.28035 24.02970
#
# Velocity S-wave (km/s) = 3.34043 3.99431 3.68192
# Velocity P-wave (km/s) = 6.19231 8.43865 7.40120
#
# Compressibility (1/GPa) = 0.02404071
#
# Stress axis : x y z
#
# Youngs Moduli (GPa) = 66.04245 17.90243 92.13994
#
# Poissons Ratio (x) = 0.27871 0.25677
# Poissons Ratio (y) = 1.02817 0.97219
# Poissons Ratio (z) = 0.18404 0.18889
#
# Static dielectric constant tensor:
#      x y z
#    x 1.586610 0.000000 -0.006440 
#    y 0.000000 1.592680 0.000000 
#    z -0.006440 0.000000 1.583420 
# 
# From -- ./inp_files/28304.got.cif
#   From: 2010.05.17/outbox.cif.g08.bks.cpg/sg11_15_cif.got.tgz:28304.got - 2010.06.03 12:22:45.
