data_PCOD9159011
_publ_section_title
;
Structure prediction by ZEFSAII (Michael W. Deem and Ramdas Pophale) SiO2 
 PCOD9159011
Probable space group: P 21/M
;
_chemical_formula_sum "Si O2"
_cell_formula_units_Z 32
_cell_length_a 22.374428
_cell_length_b 11.312340
_cell_length_c 8.590238
_cell_angle_alpha 90.000000
_cell_angle_beta 131.424988
_cell_angle_gamma 90.000000
_cell_volume 1630.302164
_symmetry_space_group_name_H-M "P 21/M"
_symmetry_group_IT_number 11
_symmetry_cell_setting 'monoclinic'
loop_
_space_group_symop_operation_xyz
x,y,z
-x,1/2+y,-z
-x,-y,-z
x,1/2-y,z
loop_
_atom_site_type_symbol
_atom_site_label
_atom_site_fract_x
_atom_site_fract_y
_atom_site_fract_z
Si Si1 0.347569 0.388344 0.319605
Si Si2 0.002681 0.046411 0.248312
Si Si3 0.375237 0.497501 0.813841
Si Si4 0.284458 0.614847 0.397444
Si Si5 0.737580 0.612955 0.145909
Si Si6 0.511926 0.616438 0.231859
Si Si7 0.098275 0.383374 0.706644
Si Si8 0.105784 0.880461 0.218300
O O1 0.328199 0.250000 0.336577
O O2 0.301316 0.499623 0.318332
O O3 0.327477 0.391107 0.103606
O O4 0.439484 0.407852 0.526666
O O5 0.073495 0.977599 0.281933
O O6 0.942126 0.954570 0.224628
O O7 0.039794 0.116145 0.457037
O O8 0.953019 0.114232 0.031954
O O9 0.347987 0.599299 0.647510
O O10 0.420242 0.401805 0.784096
O O11 0.297191 0.450604 0.764559
O O12 0.438955 0.536941 0.052338
O O13 0.291397 0.750000 0.344464
O O14 0.195457 0.602475 0.312524
O O15 0.753386 0.750000 0.212753
O O16 0.818718 0.563250 0.211700
O O17 0.483409 0.750000 0.186159
O O18 0.114490 0.250000 0.787078
O O19 0.100481 0.750000 0.281773
#
# Coordination Sequence:
#
# PCOD9159011 Si02
#       8
#     4   4   4   4   4   4   4   4
#     4   9  19  36  56  79 108 142 178 216 260 312
#     4  10  20  34  52  74 100 134 175 212 258 312
#     4  10  19  32  53  77 104 136 174 213 259 311
#     4  10  20  35  54  78 109 142 177 219 265 313
#     4  10  20  34  53  78 106 136 175 220 263 310
#     4   9  18  33  52  74 102 136 173 214 257 305
#     4  10  20  34  52  74 102 134 169 213 260 308
#     4  10  20  34  52  75 104 136 173 218 263 308
#
# _framework density 19.628261999999999
#
# number of rings (size 3 to 8) (size 9 to 14) (size 15 to 20)
#    0.000    2.250    0.000    3.000    0.000    1.000 
#    0.000    5.000    0.000    6.000    0.000    0.000 
#    0.000    0.000    0.000    0.000    0.000    0.000 
#
# Total GULP energy -178303.749640 kJ/mol
# GULP energy per Si atom -5571.992176 kJ/mol
# Density = 1.958359 g / cm^3
# Si number density = 19.628262 Si / 1000 Ang^3
#
#
#
# Elastic Constant Matrix: (Units=GPa)
#
#
# Indices 1 2 3 4 5 6 
#
# 1 38.7601 22.9282 -14.3578 0.0000 -0.8754 0.0000
# 2 22.9282 82.6418 -4.0204 0.0000 -4.8505 0.0000
# 3 -14.3578 -4.0204 43.6005 0.0000 3.5146 0.0000
# 4 0.0000 0.0000 0.0000 14.6990 0.0000 4.9203
# 5 -0.8754 -4.8505 3.5146 0.0000 17.1154 0.0000
# 6 0.0000 0.0000 0.0000 4.9203 0.0000 -1.9500
#
#
#
# Elastic Compliance Matrix: (Units=1/GPa)
#
#
# Indices 1 2 3 4 5 6 
#
# 1 0.035425 -0.009476 0.011045 0.000000 -0.003141 0.000000
# 2 -0.009476 0.014872 -0.002084 0.000000 0.004158 0.000000
# 3 0.011045 -0.002084 0.026827 0.000000 -0.005534 0.000000
# 4 0.000000 0.000000 0.000000 0.036881 0.000000 0.093059
# 5 -0.003141 0.004158 -0.005534 0.000000 0.060581 0.000000
# 6 0.000000 0.000000 0.000000 0.093059 0.000000 -0.278005
#
#
# Mechanical properties :
#
#
# Convention : Reuss Voigt Hill
#
# Bulk Modulus (GPa) = 13.14143 19.34471 16.24307
# Shear Modulus (GPa) = -64.91480 16.66969 -24.12255
#
# Velocity S-wave (km/s) = -5.75707 2.91738 -3.50947
# Velocity P-wave (km/s) = 6.12227 4.60707 2.85106
#
# Compressibility (1/GPa) = 0.07609520
#
# Stress axis : x y z
#
# Youngs Moduli (GPa) = 28.22834 67.24056 37.27627
#
# Poissons Ratio (x) = 0.63714 -0.41173
# Poissons Ratio (y) = 0.26748 0.07769
# Poissons Ratio (z) = -0.31179 0.14014
#
# Static dielectric constant tensor:
#      x y z
#    x 1.662650 0.000000 0.008150 
#    y 0.000000 1.698860 0.000000 
#    z 0.008150 0.000000 1.697100 
# 
# From -- ./inp_files/26589.got.cif
#   From: 2010.05.17/outbox.cif.g08.bks.cpg/sg11_14_cif.got.tgz:26589.got - 2010.06.03 12:22:45.
