data_PCOD9159845
_publ_section_title
;
Structure prediction by ZEFSAII (Michael W. Deem and Ramdas Pophale) SiO2 
 PCOD9159845
Probable space group: P 21/M
;
_chemical_formula_sum "Si O2"
_cell_formula_units_Z 24
_cell_length_a 12.255497
_cell_length_b 17.942653
_cell_length_c 9.329398
_cell_angle_alpha 90.000000
_cell_angle_beta 136.323690
_cell_angle_gamma 90.000000
_cell_volume 1416.730877
_symmetry_space_group_name_H-M "P 21/M"
_symmetry_group_IT_number 11
_symmetry_cell_setting 'monoclinic'
loop_
_space_group_symop_operation_xyz
x,y,z
-x,1/2+y,-z
-x,-y,-z
x,1/2-y,z
loop_
_atom_site_type_symbol
_atom_site_label
_atom_site_fract_x
_atom_site_fract_y
_atom_site_fract_z
Si Si1 0.871933 0.061313 0.436896
Si Si2 0.870149 0.835527 0.207654
Si Si3 0.860292 0.541106 0.677928
Si Si4 0.696672 0.836840 0.345152
Si Si5 0.206157 0.026227 0.060440
Si Si6 0.415576 0.553068 0.037379
O O1 0.742693 0.078269 0.195736
O O2 0.963566 0.134003 0.575145
O O3 0.799361 0.020406 0.506594
O O4 0.000000 0.000000 0.500000
O O5 0.875042 0.750000 0.166342
O O6 0.756178 0.842585 0.237198
O O7 0.821889 0.893221 0.038714
O O8 0.819529 0.619301 0.564011
O O9 0.780835 0.533660 0.757115
O O10 0.046453 0.522356 0.877074
O O11 0.684192 0.750000 0.370214
O O12 0.532443 0.881245 0.193215
O O13 0.352907 0.990396 0.117062
O O14 0.500000 0.500000 0.000000
#
# Coordination Sequence:
#
# PCOD9159845 Si02
#       6
#     4   4   4   4   4   4
#     4  11  17  35  58  79 101 140 185 226 259 314
#     4  10  19  34  55  79 107 140 180 225 269 317
#     4  10  19  36  56  83 106 140 185 226 261 319
#     4  11  22  35  53  81 113 145 178 219 279 327
#     4  10  20  34  59  83 105 142 188 223 263 318
#     4  12  19  34  57  81 106 142 181 228 261 323
#
# _framework density 16.940407
#
# number of rings (size 3 to 8) (size 9 to 14) (size 15 to 20)
#    0.000    1.333    8.333    0.000    0.000    2.000 
#    0.000    0.833    0.000    4.000    0.000    0.000 
#    0.000    0.000    0.000    0.000    0.000    0.000 
#
# Total GULP energy -133837.460115 kJ/mol
# GULP energy per Si atom -5576.560838 kJ/mol
# Density = 1.690185 g / cm^3
# Si number density = 16.940407 Si / 1000 Ang^3
#
#
#
# Elastic Constant Matrix: (Units=GPa)
#
#
# Indices 1 2 3 4 5 6 
#
# 1 103.6849 59.8257 28.9745 0.0000 -22.4141 0.0000
# 2 59.8257 138.5718 47.8693 0.0000 1.2601 0.0000
# 3 28.9745 47.8693 61.9463 0.0000 -12.2332 0.0000
# 4 0.0000 0.0000 0.0000 20.0675 0.0000 5.0091
# 5 -22.4141 1.2601 -12.2332 0.0000 29.9617 0.0000
# 6 0.0000 0.0000 0.0000 5.0091 0.0000 21.4285
#
#
#
# Elastic Compliance Matrix: (Units=1/GPa)
#
#
# Indices 1 2 3 4 5 6 
#
# 1 0.016609 -0.007490 0.000582 0.000000 0.012977 0.000000
# 2 -0.007490 0.013643 -0.008984 0.000000 -0.009845 0.000000
# 3 0.000582 -0.008984 0.024988 0.000000 0.011016 0.000000
# 4 0.000000 0.000000 0.000000 0.052920 0.000000 -0.012371
# 5 0.012977 -0.009845 0.011016 0.000000 0.047996 0.000000
# 6 0.000000 0.000000 0.000000 -0.012371 0.000000 0.049559
#
#
# Mechanical properties :
#
#
# Convention : Reuss Voigt Hill
#
# Bulk Modulus (GPa) = 42.63029 64.17133 53.40081
# Shear Modulus (GPa) = 20.38188 25.46043 22.92116
#
# Velocity S-wave (km/s) = 3.47241 3.88098 3.68237
# Velocity P-wave (km/s) = 6.42622 7.61877 7.04776
#
# Compressibility (1/GPa) = 0.02345750
#
# Stress axis : x y z
#
# Youngs Moduli (GPa) = 60.20882 73.29873 40.01873
#
# Poissons Ratio (x) = 0.54898 -0.02328
# Poissons Ratio (y) = 0.45094 0.35951
# Poissons Ratio (z) = -0.03503 0.65848
#
# Static dielectric constant tensor:
#      x y z
#    x 1.602630 0.000000 0.009760 
#    y 0.000000 1.557080 0.000000 
#    z 0.009760 0.000000 1.583320 
# 
# From -- ./inp_files/18532.got.cif
#   From: 2010.05.17/outbox.cif.g08.bks.cpg/sg11_10_cif.got.tgz:18532.got - 2010.06.03 12:22:45.
