data_PCOD9159164
_publ_section_title
;
Structure prediction by ZEFSAII (Michael W. Deem and Ramdas Pophale) SiO2 
 PCOD9159164
Probable space group: P 21/M
;
_chemical_formula_sum "Si O2"
_cell_formula_units_Z 28
_cell_length_a 30.479469
_cell_length_b 8.857349
_cell_length_c 10.343677
_cell_angle_alpha 90.000000
_cell_angle_beta 33.690885
_cell_angle_gamma 90.000000
_cell_volume 1549.008205
_symmetry_space_group_name_H-M "P 21/M"
_symmetry_group_IT_number 11
_symmetry_cell_setting 'monoclinic'
loop_
_space_group_symop_operation_xyz
x,y,z
-x,1/2+y,-z
-x,-y,-z
x,1/2-y,z
loop_
_atom_site_type_symbol
_atom_site_label
_atom_site_fract_x
_atom_site_fract_y
_atom_site_fract_z
Si Si1 0.166612 0.570665 0.842448
Si Si2 0.582262 0.569172 0.151890
Si Si3 0.756542 0.570147 0.094110
Si Si4 0.737156 0.570077 0.623476
Si Si5 0.993760 0.929553 0.872120
Si Si6 0.153402 0.429304 0.394024
Si Si7 0.402232 0.929543 0.603235
O O1 0.157968 0.750000 0.864993
O O2 0.197384 0.510432 0.903705
O O3 0.228975 0.520494 0.579786
O O4 0.083533 0.495131 0.007522
O O5 0.588735 0.750000 0.161068
O O6 0.600357 0.484868 0.241583
O O7 0.491603 0.536617 0.337382
O O8 0.648028 0.531410 0.884596
O O9 0.758063 0.750000 0.109448
O O10 0.666714 0.512609 0.304561
O O11 0.798218 0.536675 0.854423
O O12 0.741243 0.750000 0.585860
O O13 0.792318 0.541562 0.613514
O O14 0.987357 0.750000 0.898405
O O15 0.073055 0.977777 0.603241
O O16 0.000000 0.000000 0.000000
O O17 0.134862 0.250000 0.439583
O O18 0.390121 0.750000 0.627378
#
# Coordination Sequence:
#
# PCOD9159164 Si02
#       7
#     4   4   4   4   4   4   4
#     4  12  26  42  61  88 121 156 197 245 297 354
#     4   9  18  34  57  87 120 157 199 244 292 346
#     4  11  23  42  63  86 121 162 198 239 299 357
#     4  10  19  37  62  88 118 156 200 243 291 350
#     4  12  24  40  63  90 120 155 196 243 295 347
#     4  10  21  38  64  90 117 154 199 245 290 347
#     4  10  19  32  56  89 123 155 195 246 295 346
#
# _framework density 18.076080999999999
#
# number of rings (size 3 to 8) (size 9 to 14) (size 15 to 20)
#    0.000    1.429    2.857    3.429    0.000    2.857 
#    0.000    0.714    0.000    0.000    0.000    0.000 
#    0.000    0.000    0.000    0.000    0.000    0.000 
#
# Total GULP energy -156483.539972 kJ/mol
# GULP energy per Si atom -5588.697856 kJ/mol
# Density = 1.803494 g / cm^3
# Si number density = 18.076081 Si / 1000 Ang^3
#
#
#
# Elastic Constant Matrix: (Units=GPa)
#
#
# Indices 1 2 3 4 5 6 
#
# 1 89.7575 48.9833 26.5461 0.0000 -7.0415 0.0000
# 2 48.9833 88.1016 52.2085 0.0000 -5.7711 0.0000
# 3 26.5461 52.2085 85.2435 0.0000 -17.0461 0.0000
# 4 0.0000 0.0000 0.0000 30.1589 0.0000 -2.2457
# 5 -7.0415 -5.7711 -17.0461 0.0000 30.4451 0.0000
# 6 0.0000 0.0000 0.0000 -2.2457 0.0000 32.2361
#
#
#
# Elastic Compliance Matrix: (Units=1/GPa)
#
#
# Indices 1 2 3 4 5 6 
#
# 1 0.016217 -0.009681 0.001421 0.000000 0.002711 0.000000
# 2 -0.009681 0.023856 -0.012544 0.000000 -0.004740 0.000000
# 3 0.001421 -0.012544 0.020902 0.000000 0.009654 0.000000
# 4 0.000000 0.000000 0.000000 0.033331 0.000000 0.002322
# 5 0.002711 -0.004740 0.009654 0.000000 0.037980 0.000000
# 6 0.000000 0.000000 0.000000 0.002322 0.000000 0.031183
#
#
# Mechanical properties :
#
#
# Convention : Reuss Voigt Hill
#
# Bulk Modulus (GPa) = 51.63425 57.61984 54.62704
# Shear Modulus (GPa) = 23.63724 27.59233 25.61479
#
# Velocity S-wave (km/s) = 3.62007 3.91123 3.76846
# Velocity P-wave (km/s) = 6.78971 7.23481 7.01579
#
# Compressibility (1/GPa) = 0.01936699
#
# Stress axis : x y z
#
# Youngs Moduli (GPa) = 61.66511 41.91813 47.84289
#
# Poissons Ratio (x) = 0.40580 -0.06800
# Poissons Ratio (y) = 0.59697 0.60015
# Poissons Ratio (z) = -0.08764 0.52583
#
# Static dielectric constant tensor:
#      x y z
#    x 1.587430 0.000000 -0.013570 
#    y 0.000000 1.597540 0.000000 
#    z -0.013570 0.000000 1.620000 
# 
# From -- ./inp_files/28401.got.cif
#   From: 2010.05.17/outbox.cif.g08.bks.cpg/sg11_15_cif.got.tgz:28401.got - 2010.06.03 12:22:45.
