data_PCOD9159809
_publ_section_title
;
Structure prediction by ZEFSAII (Michael W. Deem and Ramdas Pophale) SiO2 
 PCOD9159809
Probable space group: P 21/M
;
_chemical_formula_sum "Si O2"
_cell_formula_units_Z 20
_cell_length_a 23.688501
_cell_length_b 8.418679
_cell_length_c 5.175079
_cell_angle_alpha 90.000000
_cell_angle_beta 71.080680
_cell_angle_gamma 90.000000
_cell_volume 976.289614
_symmetry_space_group_name_H-M "P 21/M"
_symmetry_group_IT_number 11
_symmetry_cell_setting 'monoclinic'
loop_
_space_group_symop_operation_xyz
x,y,z
-x,1/2+y,-z
-x,-y,-z
x,1/2-y,z
loop_
_atom_site_type_symbol
_atom_site_label
_atom_site_fract_x
_atom_site_fract_y
_atom_site_fract_z
Si Si1 0.934776 0.441872 0.519731
Si Si2 0.535232 0.439772 0.197474
Si Si3 0.331812 0.062318 0.914007
Si Si4 0.266537 0.560577 0.511964
Si Si5 0.865330 0.443647 0.122934
O O1 0.935430 0.250000 0.517792
O O2 0.912229 0.494931 0.272655
O O3 0.000000 0.500000 0.500000
O O4 0.887775 0.494649 0.808846
O O5 0.500000 0.500000 0.500000
O O6 0.537531 0.250000 0.192858
O O7 0.602150 0.506577 0.106891
O O8 0.500000 0.500000 0.000000
O O9 0.331527 0.250000 0.870833
O O10 0.310761 0.978156 0.682205
O O11 0.288345 0.018044 0.215124
O O12 0.264598 0.750000 0.472467
O O13 0.200818 0.505490 0.698384
O O14 0.864343 0.250000 0.122079
#
# Coordination Sequence:
#
# PCOD9159809 Si02
#       5
#     4   4   4   4   4
#     4  10  19  34  54  80 110 146 187 236 291 350
#     4  12  25  44  67  94 125 163 206 251 300 358
#     4  12  25  42  62  92 129 162 196 249 309 361
#     4  11  22  41  66  90 116 160 211 252 295 360
#     4   9  19  35  57  80 109 147 193 240 289 347
#
# _framework density 20.485723
#
# number of rings (size 3 to 8) (size 9 to 14) (size 15 to 20)
#    0.000    1.200    0.000    7.200    0.000    3.200 
#    0.000    6.000    0.000    0.000    0.000    0.000 
#    0.000    0.000    0.000    0.000    0.000    0.000 
#
# Total GULP energy -111917.075579 kJ/mol
# GULP energy per Si atom -5595.853779 kJ/mol
# Density = 2.043910 g / cm^3
# Si number density = 20.485723 Si / 1000 Ang^3
#
#
#
# Elastic Constant Matrix: (Units=GPa)
#
#
# Indices 1 2 3 4 5 6 
#
# 1 50.9396 -7.1981 -29.1927 0.0000 -0.5844 0.0000
# 2 -7.1981 36.8379 -4.3593 0.0000 -11.8113 0.0000
# 3 -29.1927 -4.3593 68.1692 0.0000 0.2475 0.0000
# 4 0.0000 0.0000 0.0000 29.5552 0.0000 3.5619
# 5 -0.5844 -11.8113 0.2475 0.0000 43.0763 0.0000
# 6 0.0000 0.0000 0.0000 3.5619 0.0000 29.2416
#
#
#
# Elastic Compliance Matrix: (Units=1/GPa)
#
#
# Indices 1 2 3 4 5 6 
#
# 1 0.027859 0.007687 0.012413 0.000000 0.002414 0.000000
# 2 0.007687 0.032125 0.005314 0.000000 0.008882 0.000000
# 3 0.012413 0.005314 0.020319 0.000000 0.001509 0.000000
# 4 0.000000 0.000000 0.000000 0.034339 0.000000 -0.004183
# 5 0.002414 0.008882 0.001509 0.000000 0.025674 0.000000
# 6 0.000000 0.000000 0.000000 -0.004183 0.000000 0.034707
#
#
# Mechanical properties :
#
#
# Convention : Reuss Voigt Hill
#
# Bulk Modulus (GPa) = 7.62607 8.27182 7.94894
# Shear Modulus (GPa) = 29.77850 33.48776 31.63313
#
# Velocity S-wave (km/s) = 3.81678 4.04751 3.93384
# Velocity P-wave (km/s) = 4.81190 5.08820 4.95198
#
# Compressibility (1/GPa) = 0.13112922
#
# Stress axis : x y z
#
# Youngs Moduli (GPa) = 35.89548 31.12880 49.21402
#
# Poissons Ratio (x) = -0.23927 -0.61089
# Poissons Ratio (y) = -0.27591 -0.26151
# Poissons Ratio (z) = -0.44557 -0.16541
#
# Static dielectric constant tensor:
#      x y z
#    x 1.699980 0.000000 -0.006470 
#    y 0.000000 1.689210 0.000000 
#    z -0.006470 0.000000 1.701200 
# 
# From -- ./inp_files/8481.got.cif
#   From: 2010.05.17/outbox.cif.g08.bks.cpg/sg11_5_cif.got.tgz:8481.got - 2010.06.03 12:22:45.
