data_PCOD9159068
_publ_section_title
;
Structure prediction by ZEFSAII (Michael W. Deem and Ramdas Pophale) SiO2 
 PCOD9159068
Probable space group: P 21/M
;
_chemical_formula_sum "Si O2"
_cell_formula_units_Z 20
_cell_length_a 12.994174
_cell_length_b 8.768146
_cell_length_c 30.253645
_cell_angle_alpha 90.000000
_cell_angle_beta 19.463874
_cell_angle_gamma 90.000000
_cell_volume 1148.564437
_symmetry_space_group_name_H-M "P 21/M"
_symmetry_group_IT_number 11
_symmetry_cell_setting 'monoclinic'
loop_
_space_group_symop_operation_xyz
x,y,z
-x,1/2+y,-z
-x,-y,-z
x,1/2-y,z
loop_
_atom_site_type_symbol
_atom_site_label
_atom_site_fract_x
_atom_site_fract_y
_atom_site_fract_z
Si Si1 0.999588 0.068272 0.391967
Si Si2 0.349192 0.431582 0.706278
Si Si3 0.166118 0.068727 0.145258
Si Si4 0.291818 0.932820 0.355222
Si Si5 0.154636 0.067839 0.638373
O O1 0.027695 0.250000 0.375640
O O2 0.664648 0.038436 0.550706
O O3 0.997195 0.986851 0.345880
O O4 0.259887 0.005686 0.319957
O O5 0.289116 0.250000 0.726834
O O6 0.422506 0.467201 0.727899
O O7 0.072203 0.523632 0.796994
O O8 0.183076 0.250000 0.142946
O O9 0.030192 0.996007 0.244994
O O10 0.500000 0.000000 0.000000
O O11 0.263649 0.750000 0.363833
O O12 0.000000 0.000000 0.500000
O O13 0.171356 0.250000 0.633653
O O14 0.500000 0.000000 0.500000
#
# Coordination Sequence:
#
# PCOD9159068 Si02
#       5
#     4   4   4   4   4
#     4  10  19  32  53  82 115 146 184 231 281 332
#     4   9  18  33  53  78 112 148 187 231 276 331
#     4  12  25  40  59  82 113 152 192 234 283 339
#     4   9  17  29  48  76 111 146 183 228 279 331
#     4  12  23  37  58  84 115 149 189 234 285 337
#
# _framework density 17.413042000000001
#
# number of rings (size 3 to 8) (size 9 to 14) (size 15 to 20)
#    0.000    1.600    2.000    6.000    0.000    4.000 
#    0.000    0.000    0.000    1.200    0.000    0.000 
#    0.000    0.000    0.000    0.000    0.000    0.000 
#
# Total GULP energy -111656.206993 kJ/mol
# GULP energy per Si atom -5582.810350 kJ/mol
# Density = 1.737341 g / cm^3
# Si number density = 17.413042 Si / 1000 Ang^3
#
#
#
# Elastic Constant Matrix: (Units=GPa)
#
#
# Indices 1 2 3 4 5 6 
#
# 1 176.0326 91.1918 60.3977 0.0000 -1.7749 0.0000
# 2 91.1918 141.4640 60.3976 0.0000 -8.0738 0.0000
# 3 60.3977 60.3976 85.0896 0.0000 3.1107 0.0000
# 4 0.0000 0.0000 0.0000 22.9300 0.0000 -1.5890
# 5 -1.7749 -8.0738 3.1107 0.0000 13.9695 0.0000
# 6 0.0000 0.0000 0.0000 -1.5890 0.0000 38.7265
#
#
#
# Elastic Compliance Matrix: (Units=1/GPa)
#
#
# Indices 1 2 3 4 5 6 
#
# 1 0.009141 -0.004559 -0.003225 0.000000 -0.000755 0.000000
# 2 -0.004559 0.013267 -0.006493 0.000000 0.008534 0.000000
# 3 -0.003225 -0.006493 0.018957 0.000000 -0.008384 0.000000
# 4 0.000000 0.000000 0.000000 0.043735 0.000000 0.001795
# 5 -0.000755 0.008534 -0.008384 0.000000 0.078288 0.000000
# 6 0.000000 0.000000 0.000000 0.001795 0.000000 0.025896
#
#
# Mechanical properties :
#
#
# Convention : Reuss Voigt Hill
#
# Bulk Modulus (GPa) = 78.05743 91.84002 84.94872
# Shear Modulus (GPa) = 22.51149 27.83183 25.17166
#
# Velocity S-wave (km/s) = 3.59945 4.00225 3.80618
# Velocity P-wave (km/s) = 7.88663 8.61475 8.25872
#
# Compressibility (1/GPa) = 0.01281108
#
# Stress axis : x y z
#
# Youngs Moduli (GPa) = 109.39217 75.37452 52.75131
#
# Poissons Ratio (x) = 0.34363 0.17013
# Poissons Ratio (y) = 0.49872 0.34252
# Poissons Ratio (z) = 0.35280 0.48941
#
# Static dielectric constant tensor:
#      x y z
#    x 1.615880 0.000000 -0.023310 
#    y 0.000000 1.506390 0.000000 
#    z -0.023310 0.000000 1.501790 
# 
# From -- ./inp_files/25997.got.cif
#   From: 2010.05.17/outbox.cif.g08.bks.cpg/sg11_13_cif.got.tgz:25997.got - 2010.06.03 12:22:45.
