data_PCOD9159420
_publ_section_title
;
Structure prediction by ZEFSAII (Michael W. Deem and Ramdas Pophale) SiO2 
 PCOD9159420
Probable space group: P 21/M
;
_chemical_formula_sum "Si O2"
_cell_formula_units_Z 28
_cell_length_a 30.434018
_cell_length_b 7.596317
_cell_length_c 9.506549
_cell_angle_alpha 90.000000
_cell_angle_beta 38.032238
_cell_angle_gamma 90.000000
_cell_volume 1354.065983
_symmetry_space_group_name_H-M "P 21/M"
_symmetry_group_IT_number 11
_symmetry_cell_setting 'monoclinic'
loop_
_space_group_symop_operation_xyz
x,y,z
-x,1/2+y,-z
-x,-y,-z
x,1/2-y,z
loop_
_atom_site_type_symbol
_atom_site_label
_atom_site_fract_x
_atom_site_fract_y
_atom_site_fract_z
Si Si1 0.226315 0.534711 0.844879
Si Si2 0.931413 0.039258 0.764712
Si Si3 0.773052 0.464521 0.484136
Si Si4 0.069131 0.960958 0.916394
Si Si5 0.502637 0.959509 0.827937
Si Si6 0.365810 0.533985 0.996154
Si Si7 0.357090 0.957061 0.699202
O O1 0.228611 0.750000 0.840091
O O2 0.236936 0.483921 0.654431
O O3 0.288689 0.469264 0.788896
O O4 0.146548 0.478764 0.090385
O O5 0.926269 0.250000 0.785335
O O6 0.941010 0.971953 0.899247
O O7 0.000000 0.000000 0.500000
O O8 0.771960 0.250000 0.489133
O O9 0.852408 0.522261 0.330899
O O10 0.708025 0.522806 0.745122
O O11 0.074272 0.750000 0.909885
O O12 0.000000 0.000000 0.000000
O O13 0.503552 0.750000 0.811508
O O14 0.573831 0.026291 0.572983
O O15 0.432888 0.025360 0.920495
O O16 0.500000 0.000000 0.000000
O O17 0.367027 0.750000 0.994609
O O18 0.370161 0.473206 0.823482
O O19 0.342639 0.750000 0.755020
#
# Coordination Sequence:
#
# PCOD9159420 Si02
#       7
#     4   4   4   4   4   4   4
#     4   8  15  29  50  72  97 130 169 206 243 292
#     4   9  18  32  49  73 101 131 167 208 250 295
#     4   8  14  28  48  70  95 127 166 205 239 283
#     4   9  18  31  49  72  99 128 163 205 247 291
#     4  11  22  36  54  76 102 134 168 203 242 290
#     4   9  18  31  51  78 103 126 160 204 248 291
#     4  10  19  33  54  79 103 128 160 203 250 298
#
# _framework density 20.678459
#
# number of rings (size 3 to 8) (size 9 to 14) (size 15 to 20)
#    0.000    2.857    0.000    3.429    0.000    4.000 
#    0.000    4.286    0.000    6.857    0.000    0.000 
#    0.000    0.000    0.000    0.000    0.000    0.000 
#
# Total GULP energy -156210.354820 kJ/mol
# GULP energy per Si atom -5578.941244 kJ/mol
# Density = 2.063139 g / cm^3
# Si number density = 20.678459 Si / 1000 Ang^3
#
#
#
# Elastic Constant Matrix: (Units=GPa)
#
#
# Indices 1 2 3 4 5 6 
#
# 1 212.8159 0.9411 114.2563 0.0000 -23.1842 0.0000
# 2 0.9411 38.4335 -11.3130 0.0000 -0.2802 0.0000
# 3 114.2563 -11.3130 175.7438 0.0000 -16.0909 0.0000
# 4 0.0000 0.0000 0.0000 20.5316 0.0000 -3.5715
# 5 -23.1842 -0.2802 -16.0909 0.0000 30.2068 0.0000
# 6 0.0000 0.0000 0.0000 -3.5715 0.0000 14.0857
#
#
#
# Elastic Compliance Matrix: (Units=1/GPa)
#
#
# Indices 1 2 3 4 5 6 
#
# 1 0.007615 -0.001560 -0.004749 0.000000 0.003300 0.000000
# 2 -0.001560 0.026884 0.002794 0.000000 0.000540 0.000000
# 3 -0.004749 0.002794 0.009068 0.000000 0.001212 0.000000
# 4 0.000000 0.000000 0.000000 0.050953 0.000000 0.012919
# 5 0.003300 0.000540 0.001212 0.000000 0.036289 0.000000
# 6 0.000000 0.000000 0.000000 0.012919 0.000000 0.074270
#
#
# Mechanical properties :
#
#
# Convention : Reuss Voigt Hill
#
# Bulk Modulus (GPa) = 27.36928 70.52912 48.94920
# Shear Modulus (GPa) = 22.29289 34.50541 28.39915
#
# Velocity S-wave (km/s) = 3.28696 4.08936 3.70992
# Velocity P-wave (km/s) = 5.26022 7.51523 6.48647
#
# Compressibility (1/GPa) = 0.03653731
#
# Stress axis : x y z
#
# Youngs Moduli (GPa) = 131.32035 37.19735 110.27342
#
# Poissons Ratio (x) = 0.05804 0.52369
# Poissons Ratio (y) = 0.20489 -0.30815
# Poissons Ratio (z) = 0.62364 -0.10394
#
# Static dielectric constant tensor:
#      x y z
#    x 1.735090 0.000000 -0.013700 
#    y 0.000000 1.804880 0.000000 
#    z -0.013700 0.000000 1.698470 
# 
# From -- ./inp_files/28641.got.cif
#   From: 2010.05.17/outbox.cif.g08.bks.cpg/sg11_15_cif.got.tgz:28641.got - 2010.06.03 12:22:45.
