data_PCOD9159117
_publ_section_title
;
Structure prediction by ZEFSAII (Michael W. Deem and Ramdas Pophale) SiO2 
 PCOD9159117
Probable space group: P 21/M
;
_chemical_formula_sum "Si O2"
_cell_formula_units_Z 24
_cell_length_a 9.462403
_cell_length_b 17.603263
_cell_length_c 16.355432
_cell_angle_alpha 90.000000
_cell_angle_beta 149.888609
_cell_angle_gamma 90.000000
_cell_volume 1366.739630
_symmetry_space_group_name_H-M "P 21/M"
_symmetry_group_IT_number 11
_symmetry_cell_setting 'monoclinic'
loop_
_space_group_symop_operation_xyz
x,y,z
-x,1/2+y,-z
-x,-y,-z
x,1/2-y,z
loop_
_atom_site_type_symbol
_atom_site_label
_atom_site_fract_x
_atom_site_fract_y
_atom_site_fract_z
Si Si1 0.541222 0.090116 0.024626
Si Si2 0.425109 0.661225 0.125350
Si Si3 0.926802 0.417379 0.369598
Si Si4 0.460530 0.841718 0.322392
Si Si5 0.951386 0.096750 0.561904
Si Si6 0.083486 0.659116 0.289284
O O1 0.732353 0.108759 0.198156
O O2 0.672691 0.117062 0.004083
O O3 0.234981 0.128692 0.879199
O O4 0.500000 0.000000 0.000000
O O5 0.368383 0.750000 0.085754
O O6 0.329091 0.637021 0.168011
O O7 0.762618 0.646529 0.297834
O O8 0.237132 0.381500 0.518053
O O9 0.812748 0.397079 0.403287
O O10 0.958463 0.508861 0.382548
O O11 0.498220 0.750000 0.339877
O O12 0.265111 0.861767 0.300983
O O13 0.797309 0.123937 0.566569
O O14 0.078478 0.750000 0.293772
#
# Coordination Sequence:
#
# PCOD9159117 Si02
#       6
#     4   4   4   4   4   4
#     4  11  19  33  53  81 105 134 172 221 254 307
#     4   9  17  33  54  73 102 143 174 202 255 316
#     4  10  19  32  55  78 107 129 173 219 257 296
#     4   9  20  36  54  76 104 140 177 209 252 313
#     4   9  17  32  53  77 102 136 171 210 255 306
#     4  10  20  37  56  75 105 142 173 206 258 314
#
# _framework density 17.560037000000001
#
# number of rings (size 3 to 8) (size 9 to 14) (size 15 to 20)
#    0.000    2.333    3.333    2.000    0.000    2.667 
#    0.000    2.500    0.000    4.000    0.000    0.000 
#    0.000    0.000    0.000    0.000    0.000    0.000 
#
# Total GULP energy -133681.241277 kJ/mol
# GULP energy per Si atom -5570.051720 kJ/mol
# Density = 1.752007 g / cm^3
# Si number density = 17.560037 Si / 1000 Ang^3
#
#
#
# Elastic Constant Matrix: (Units=GPa)
#
#
# Indices 1 2 3 4 5 6 
#
# 1 154.8048 43.0594 59.0482 0.0000 -47.8670 0.0000
# 2 43.0594 50.0731 26.8703 0.0000 -18.4401 0.0000
# 3 59.0482 26.8703 105.6753 0.0000 -45.8928 0.0000
# 4 0.0000 0.0000 0.0000 14.2574 0.0000 -17.5461
# 5 -47.8670 -18.4401 -45.8928 0.0000 39.0774 0.0000
# 6 0.0000 0.0000 0.0000 -17.5461 0.0000 16.8012
#
#
#
# Elastic Compliance Matrix: (Units=1/GPa)
#
#
# Indices 1 2 3 4 5 6 
#
# 1 0.011622 -0.005744 -0.000057 0.000000 0.011459 0.000000
# 2 -0.005744 0.027321 -0.002437 0.000000 0.002994 0.000000
# 3 -0.000057 -0.002437 0.019562 0.000000 0.021753 0.000000
# 4 0.000000 0.000000 0.000000 -0.245907 0.000000 -0.256809
# 5 0.011459 0.002994 0.021753 0.000000 0.066586 0.000000
# 6 0.000000 0.000000 0.000000 -0.256809 0.000000 -0.208675
#
#
# Mechanical properties :
#
#
# Convention : Reuss Voigt Hill
#
# Bulk Modulus (GPa) = 23.79361 63.16766 43.48063
# Shear Modulus (GPa) = -16.72212 26.13222 4.70505
#
# Velocity S-wave (km/s) = -3.08926 3.86186 1.63867
# Velocity P-wave (km/s) = 0.92445 7.47902 5.32871
#
# Compressibility (1/GPa) = 0.04202810
#
# Stress axis : x y z
#
# Youngs Moduli (GPa) = 86.04003 36.60249 51.12059
#
# Poissons Ratio (x) = 0.21024 0.00294
# Poissons Ratio (y) = 0.49420 0.12458
# Poissons Ratio (z) = 0.00494 0.08920
#
# Static dielectric constant tensor:
#      x y z
#    x 1.637140 0.000000 -0.048430 
#    y 0.000000 1.592230 0.000000 
#    z -0.048430 0.000000 1.599710 
# 
# From -- ./inp_files/18525.got.cif
#   From: 2010.05.17/outbox.cif.g08.bks.cpg/sg11_10_cif.got.tgz:18525.got - 2010.06.03 12:22:45.
