data_PCOD9159227
_publ_section_title
;
Structure prediction by ZEFSAII (Michael W. Deem and Ramdas Pophale) SiO2 
 PCOD9159227
Probable space group: P 21/M
;
_chemical_formula_sum "Si O2"
_cell_formula_units_Z 24
_cell_length_a 24.197568
_cell_length_b 8.553727
_cell_length_c 12.282834
_cell_angle_alpha 90.000000
_cell_angle_beta 33.732926
_cell_angle_gamma 90.000000
_cell_volume 1411.792609
_symmetry_space_group_name_H-M "P 21/M"
_symmetry_group_IT_number 11
_symmetry_cell_setting 'monoclinic'
loop_
_space_group_symop_operation_xyz
x,y,z
-x,1/2+y,-z
-x,-y,-z
x,1/2-y,z
loop_
_atom_site_type_symbol
_atom_site_label
_atom_site_fract_x
_atom_site_fract_y
_atom_site_fract_z
Si Si1 0.388659 0.062416 0.688164
Si Si2 0.137986 0.058794 0.491054
Si Si3 0.229874 0.931993 0.783525
Si Si4 0.078424 0.932802 0.231079
Si Si5 0.108287 0.062895 0.786442
Si Si6 0.243136 0.064095 0.113659
O O1 0.389484 0.250000 0.689608
O O2 0.500000 0.000000 0.500000
O O3 0.323075 0.008494 0.692439
O O4 0.330890 0.002515 0.891761
O O5 0.138666 0.250000 0.490944
O O6 0.137356 0.007590 0.617278
O O7 0.224743 0.005428 0.266564
O O8 0.032561 0.011731 0.610860
O O9 0.250859 0.750000 0.729328
O O10 0.190755 0.011574 0.738432
O O11 0.139133 0.941626 0.018601
O O12 0.076400 0.750000 0.267540
O O13 0.141678 0.029490 0.213882
O O14 0.101193 0.250000 0.795875
O O15 0.000000 0.000000 0.000000
O O16 0.257117 0.250000 0.097574
#
# Coordination Sequence:
#
# PCOD9159227 Si02
#       6
#     4   4   4   4   4   4
#     4  10  20  35  56  80 100 126 163 210 261 307
#     4   9  17  30  46  67 100 137 166 200 244 288
#     4  10  19  33  51  75 104 134 169 210 249 293
#     4   9  16  28  45  67  99 134 163 196 244 291
#     4  11  20  32  49  71 103 142 177 206 240 289
#     4   9  18  31  48  71  97 126 165 205 247 299
#
# _framework density 16.999663999999999
#
# number of rings (size 3 to 8) (size 9 to 14) (size 15 to 20)
#    0.000    2.333    1.667    2.000    0.000    1.333 
#    0.000    1.667    0.000    1.000    0.000    0.000 
#    0.000    0.000    0.000    0.000    0.000    0.000 
#
# Total GULP energy -133789.385228 kJ/mol
# GULP energy per Si atom -5574.557718 kJ/mol
# Density = 1.696097 g / cm^3
# Si number density = 16.999664 Si / 1000 Ang^3
#
#
#
# Elastic Constant Matrix: (Units=GPa)
#
#
# Indices 1 2 3 4 5 6 
#
# 1 94.5322 17.6079 92.2263 0.0000 12.3379 0.0000
# 2 17.6079 27.9293 28.1754 0.0000 0.0940 0.0000
# 3 92.2263 28.1754 119.4647 0.0000 7.1936 0.0000
# 4 0.0000 0.0000 0.0000 16.5314 0.0000 -4.6855
# 5 12.3379 0.0940 7.1936 0.0000 30.3391 0.0000
# 6 0.0000 0.0000 0.0000 -4.6855 0.0000 26.0088
#
#
#
# Elastic Compliance Matrix: (Units=1/GPa)
#
#
# Indices 1 2 3 4 5 6 
#
# 1 0.047347 0.008442 -0.037923 0.000000 -0.010289 0.000000
# 2 0.008442 0.048679 -0.018040 0.000000 0.000693 0.000000
# 3 -0.037923 -0.018040 0.041563 0.000000 0.005623 0.000000
# 4 0.000000 0.000000 0.000000 0.063746 0.000000 0.011484
# 5 -0.010289 0.000693 0.005623 0.000000 0.035809 0.000000
# 6 0.000000 0.000000 0.000000 0.011484 0.000000 0.040517
#
#
# Mechanical properties :
#
#
# Convention : Reuss Voigt Hill
#
# Bulk Modulus (GPa) = 23.50321 57.54948 40.52635
# Shear Modulus (GPa) = 12.92376 21.50366 17.21371
#
# Velocity S-wave (km/s) = 2.76023 3.56047 3.18558
# Velocity P-wave (km/s) = 4.90043 7.12947 6.11733
#
# Compressibility (1/GPa) = 0.04254738
#
# Stress axis : x y z
#
# Youngs Moduli (GPa) = 21.12086 20.54283 24.05981
#
# Poissons Ratio (x) = -0.17343 0.91242
# Poissons Ratio (y) = -0.17831 0.43404
# Poissons Ratio (z) = 0.80096 0.37059
#
# Static dielectric constant tensor:
#      x y z
#    x 1.562810 0.000000 0.035630 
#    y 0.000000 1.583210 0.000000 
#    z 0.035630 0.000000 1.599340 
# 
# From -- ./inp_files/33829.got.cif
#   From: 2010.05.17/outbox.cif.g08.bks.cpg/sg11_17_cif.got.tgz:33829.got - 2010.06.03 12:22:45.
