data_PCOD9159671
_publ_section_title
;
Structure prediction by ZEFSAII (Michael W. Deem and Ramdas Pophale) SiO2 
 PCOD9159671
Probable space group: P 21/M
;
_chemical_formula_sum "Si O2"
_cell_formula_units_Z 28
_cell_length_a 14.958983
_cell_length_b 9.401157
_cell_length_c 11.836483
_cell_angle_alpha 90.000000
_cell_angle_beta 59.499924
_cell_angle_gamma 90.000000
_cell_volume 1434.254106
_symmetry_space_group_name_H-M "P 21/M"
_symmetry_group_IT_number 11
_symmetry_cell_setting 'monoclinic'
loop_
_space_group_symop_operation_xyz
x,y,z
-x,1/2+y,-z
-x,-y,-z
x,1/2-y,z
loop_
_atom_site_type_symbol
_atom_site_label
_atom_site_fract_x
_atom_site_fract_y
_atom_site_fract_z
Si Si1 0.005291 0.078213 0.876303
Si Si2 0.367501 0.597212 0.016354
Si Si3 0.830056 0.582987 0.852193
Si Si4 0.580715 0.411479 0.520250
Si Si5 0.575226 0.997923 0.776722
Si Si6 0.192531 0.407717 0.395571
Si Si7 0.177841 0.579957 0.623241
O O1 0.006705 0.250000 0.883753
O O2 0.105317 0.014407 0.748449
O O3 0.907862 0.018888 0.867887
O O4 0.000000 0.000000 0.000000
O O5 0.316414 0.750000 0.028516
O O6 0.286893 0.470244 0.048572
O O7 0.402353 0.589659 0.125215
O O8 0.470266 0.583552 0.875382
O O9 0.843549 0.750000 0.871871
O O10 0.846310 0.567657 0.706688
O O11 0.500000 0.500000 0.500000
O O12 0.569373 0.250000 0.491340
O O13 0.560342 0.424153 0.667512
O O14 0.701507 0.450460 0.426580
O O15 0.681710 0.910384 0.693356
O O16 0.159498 0.250000 0.454740
O O17 0.161265 0.527397 0.504991
O O18 0.159203 0.750000 0.645650
#
# Coordination Sequence:
#
# PCOD9159671 Si02
#       7
#     4   4   4   4   4   4   4
#     4  12  26  45  67  87 113 151 194 239 289 346
#     4  10  19  33  57  86 117 155 197 242 294 349
#     4  10  22  39  59  87 121 154 194 244 293 347
#     4  10  22  38  58  84 116 154 193 235 280 335
#     4   9  19  33  54  83 120 156 194 241 292 344
#     4   9  18  35  60  89 119 152 193 240 291 344
#     4  10  22  41  63  88 118 152 192 239 293 346
#
# _framework density 19.522342999999999
#
# number of rings (size 3 to 8) (size 9 to 14) (size 15 to 20)
#    0.000    2.000    0.000    3.000    0.000   13.143 
#    0.000    1.429    0.000    0.000    0.000    0.000 
#    0.000    0.000    0.000    0.000    0.000    0.000 
#
# Total GULP energy -156224.476994 kJ/mol
# GULP energy per Si atom -5579.445607 kJ/mol
# Density = 1.947791 g / cm^3
# Si number density = 19.522343 Si / 1000 Ang^3
#
#
#
# Elastic Constant Matrix: (Units=GPa)
#
#
# Indices 1 2 3 4 5 6 
#
# 1 98.4301 61.9932 45.4652 0.0000 9.0852 0.0000
# 2 61.9932 141.5072 56.2799 0.0000 -0.9528 0.0000
# 3 45.4652 56.2799 108.2753 0.0000 -9.8813 0.0000
# 4 0.0000 0.0000 0.0000 12.6433 0.0000 -0.0639
# 5 9.0852 -0.9528 -9.8813 0.0000 13.8734 0.0000
# 6 0.0000 0.0000 0.0000 -0.0639 0.0000 27.8631
#
#
#
# Elastic Compliance Matrix: (Units=1/GPa)
#
#
# Indices 1 2 3 4 5 6 
#
# 1 0.018065 -0.005553 -0.006218 0.000000 -0.016640 0.000000
# 2 -0.005553 0.010724 -0.003041 0.000000 0.002207 0.000000
# 3 -0.006218 -0.003041 0.014738 0.000000 0.014360 0.000000
# 4 0.000000 0.000000 0.000000 0.079094 0.000000 0.000181
# 5 -0.016640 0.002207 0.014360 0.000000 0.093356 0.000000
# 6 0.000000 0.000000 0.000000 0.000181 0.000000 0.035890
#
#
# Mechanical properties :
#
#
# Convention : Reuss Voigt Hill
#
# Bulk Modulus (GPa) = 71.92722 75.07658 73.50190
# Shear Modulus (GPa) = 17.47492 23.17424 20.32458
#
# Velocity S-wave (km/s) = 2.99511 3.44912 3.23010
# Velocity P-wave (km/s) = 6.99174 7.37578 7.18632
#
# Compressibility (1/GPa) = 0.01390294
#
# Stress axis : x y z
#
# Youngs Moduli (GPa) = 55.35618 93.24978 67.85393
#
# Poissons Ratio (x) = 0.51784 0.42188
# Poissons Ratio (y) = 0.30741 0.20633
# Poissons Ratio (z) = 0.34418 0.28356
#
# Static dielectric constant tensor:
#      x y z
#    x 1.700130 0.000000 -0.011140 
#    y 0.000000 1.690410 0.000000 
#    z -0.011140 0.000000 1.678670 
# 
# From -- ./inp_files/37891.got.cif
#   From: 2010.05.17/outbox.cif.g08.bks.cpg/sg11_19_cif.got.tgz:37891.got - 2010.06.03 12:22:45.
