data_PCOD9159335
_publ_section_title
;
Structure prediction by ZEFSAII (Michael W. Deem and Ramdas Pophale) SiO2 
 PCOD9159335
Probable space group: P 21/M
;
_chemical_formula_sum "Si O2"
_cell_formula_units_Z 32
_cell_length_a 35.747291
_cell_length_b 8.745706
_cell_length_c 14.471767
_cell_angle_alpha 90.000000
_cell_angle_beta 23.031445
_cell_angle_gamma 90.000000
_cell_volume 1770.103536
_symmetry_space_group_name_H-M "P 21/M"
_symmetry_group_IT_number 11
_symmetry_cell_setting 'monoclinic'
loop_
_space_group_symop_operation_xyz
x,y,z
-x,1/2+y,-z
-x,-y,-z
x,1/2-y,z
loop_
_atom_site_type_symbol
_atom_site_label
_atom_site_fract_x
_atom_site_fract_y
_atom_site_fract_z
Si Si1 0.104657 0.564800 0.561636
Si Si2 0.116212 0.066549 0.930714
Si Si3 0.521024 0.067380 0.851726
Si Si4 0.645669 0.567354 0.297879
Si Si5 0.288585 0.564826 0.045476
Si Si6 0.558871 0.433377 0.148014
Si Si7 0.725562 0.066969 0.297875
Si Si8 0.892666 0.066550 0.240484
O O1 0.101394 0.750000 0.566008
O O2 0.179995 0.514469 0.313717
O O3 0.145448 0.526488 0.571094
O O4 0.994461 0.513756 0.804263
O O5 0.116846 0.250000 0.927397
O O6 0.184547 0.003998 0.854349
O O7 0.151713 0.004621 0.750475
O O8 0.516026 0.250000 0.867181
O O9 0.627987 0.023734 0.574350
O O10 0.450645 0.007816 0.931057
O O11 0.500000 0.000000 0.000000
O O12 0.654356 0.750000 0.279042
O O13 0.537854 0.528158 0.575324
O O14 0.713395 0.495275 0.222095
O O15 0.669855 0.503955 0.142425
O O16 0.291170 0.750000 0.032747
O O17 0.353261 0.521519 0.986699
O O18 0.561950 0.250000 0.128605
O O19 0.732177 0.250000 0.282002
O O20 0.894370 0.250000 0.228098
O O21 0.000000 0.000000 0.000000
#
# Coordination Sequence:
#
# PCOD9159335 Si02
#       8
#     4   4   4   4   4   4   4   4
#     4   8  17  32  50  74 105 136 170 211 255 303
#     4  10  19  33  53  77 104 137 174 216 262 309
#     4  10  21  36  55  79 110 141 172 211 256 304
#     4  10  20  35  53  77 105 132 168 217 263 307
#     4  10  19  34  55  77 102 136 172 210 258 311
#     4   9  19  34  54  78 106 139 173 208 254 309
#     4  10  21  37  56  77 100 136 179 214 252 309
#     4   9  16  29  48  71 100 135 172 211 253 302
#
# _framework density 18.078040000000001
#
# number of rings (size 3 to 8) (size 9 to 14) (size 15 to 20)
#    0.000    2.500    0.000    3.000    0.000    3.500 
#    0.000    6.875    0.000    0.000    0.000    0.000 
#    0.000    0.000    0.000    0.000    0.000    0.000 
#
# Total GULP energy -178454.517733 kJ/mol
# GULP energy per Si atom -5576.703679 kJ/mol
# Density = 1.803689 g / cm^3
# Si number density = 18.078040 Si / 1000 Ang^3
#
#
#
# Elastic Constant Matrix: (Units=GPa)
#
#
# Indices 1 2 3 4 5 6 
#
# 1 136.3079 37.3302 56.2623 0.0000 4.4102 0.0000
# 2 37.3302 37.2156 26.2693 0.0000 3.1496 0.0000
# 3 56.2623 26.2693 65.4366 0.0000 14.1555 0.0000
# 4 0.0000 0.0000 0.0000 20.4289 0.0000 4.7266
# 5 4.4102 3.1496 14.1555 0.0000 29.9995 0.0000
# 6 0.0000 0.0000 0.0000 4.7266 0.0000 37.1450
#
#
#
# Elastic Compliance Matrix: (Units=1/GPa)
#
#
# Indices 1 2 3 4 5 6 
#
# 1 0.012777 -0.006774 -0.008924 0.000000 0.003044 0.000000
# 2 -0.006774 0.041425 -0.011226 0.000000 0.001944 0.000000
# 3 -0.008924 -0.011226 0.029984 0.000000 -0.011657 0.000000
# 4 0.000000 0.000000 0.000000 0.050435 0.000000 -0.006418
# 5 0.003044 0.001944 -0.011657 0.000000 0.038183 0.000000
# 6 0.000000 0.000000 0.000000 -0.006418 0.000000 0.027738
#
#
# Mechanical properties :
#
#
# Convention : Reuss Voigt Hill
#
# Bulk Modulus (GPa) = 32.96396 53.18710 43.07553
# Shear Modulus (GPa) = 18.90337 25.45455 22.17896
#
# Velocity S-wave (km/s) = 3.23717 3.75645 3.50644
# Velocity P-wave (km/s) = 5.67857 6.94977 6.34608
#
# Compressibility (1/GPa) = 0.03033616
#
# Stress axis : x y z
#
# Youngs Moduli (GPa) = 78.26740 24.13993 33.35158
#
# Poissons Ratio (x) = 0.16353 0.29764
# Poissons Ratio (y) = 0.53020 0.37441
# Poissons Ratio (z) = 0.69849 0.27100
#
# Static dielectric constant tensor:
#      x y z
#    x 1.593090 0.000000 0.002250 
#    y 0.000000 1.606640 0.000000 
#    z 0.002250 0.000000 1.631220 
# 
# From -- ./inp_files/45181.got.cif
#   From: 2010.05.17/outbox.cif.g08.bks.cpg/sg11_23_cif.got.tgz:45181.got - 2010.06.03 12:22:45.
