data_PCOD9159025
_publ_section_title
;
Structure prediction by ZEFSAII (Michael W. Deem and Ramdas Pophale) SiO2 
 PCOD9159025
Probable space group: P 21/M
;
_chemical_formula_sum "Si O2"
_cell_formula_units_Z 20
_cell_length_a 5.070225
_cell_length_b 11.249837
_cell_length_c 16.927847
_cell_angle_alpha 90.000000
_cell_angle_beta 86.877709
_cell_angle_gamma 90.000000
_cell_volume 964.117625
_symmetry_space_group_name_H-M "P 21/M"
_symmetry_group_IT_number 11
_symmetry_cell_setting 'monoclinic'
loop_
_space_group_symop_operation_xyz
x,y,z
-x,1/2+y,-z
-x,-y,-z
x,1/2-y,z
loop_
_atom_site_type_symbol
_atom_site_label
_atom_site_fract_x
_atom_site_fract_y
_atom_site_fract_z
Si Si1 0.432109 0.887245 0.056150
Si Si2 0.517786 0.378736 0.615376
Si Si3 0.989823 0.502354 0.323448
Si Si4 0.912994 0.614354 0.163568
Si Si5 0.871208 0.121563 0.470396
O O1 0.465575 0.750000 0.023776
O O2 0.134003 0.898255 0.092437
O O3 0.627866 0.895012 0.128108
O O4 0.500000 0.000000 0.000000
O O5 0.595867 0.250000 0.645641
O O6 0.214941 0.399988 0.638765
O O7 0.592498 0.379491 0.521381
O O8 0.710321 0.471289 0.655741
O O9 0.884035 0.390880 0.375718
O O10 0.958670 0.517688 0.230941
O O11 0.942160 0.750000 0.194924
O O12 0.991338 0.250000 0.489551
O O13 0.000000 0.000000 0.500000
#
# Coordination Sequence:
#
# PCOD9159025 Si02
#       5
#     4   4   4   4   4
#     4  10  21  39  61  86 113 144 181 223 271 335
#     4  10  19  32  53  78 108 147 190 231 275 322
#     4  11  20  34  53  81 112 145 185 235 280 324
#     4  10  20  34  57  86 114 144 183 227 275 330
#     4   9  20  37  56  81 112 152 197 240 282 329
#
# _framework density 20.744357999999998
#
# number of rings (size 3 to 8) (size 9 to 14) (size 15 to 20)
#    0.000    2.000    0.000    4.200    0.000    3.200 
#    0.000   10.000    0.000    0.000    0.000    0.000 
#    0.000    0.000    0.000    0.000    0.000    0.000 
#
# Total GULP energy -111378.665997 kJ/mol
# GULP energy per Si atom -5568.933300 kJ/mol
# Density = 2.069714 g / cm^3
# Si number density = 20.744358 Si / 1000 Ang^3
#
#
#
# Elastic Constant Matrix: (Units=GPa)
#
#
# Indices 1 2 3 4 5 6 
#
# 1 47.1377 -0.2409 -10.9463 0.0000 -1.0677 0.0000
# 2 -0.2409 110.6515 34.7277 0.0000 -1.8936 0.0000
# 3 -10.9463 34.7277 58.7985 0.0000 -0.7155 0.0000
# 4 0.0000 0.0000 0.0000 33.8960 0.0000 1.1384
# 5 -1.0677 -1.8936 -0.7155 0.0000 26.6325 0.0000
# 6 0.0000 0.0000 0.0000 1.1384 0.0000 21.9001
#
#
#
# Elastic Compliance Matrix: (Units=1/GPa)
#
#
# Indices 1 2 3 4 5 6 
#
# 1 0.022409 -0.001532 0.005088 0.000000 0.000926 0.000000
# 2 -0.001532 0.011209 -0.006899 0.000000 0.000550 0.000000
# 3 0.005088 -0.006899 0.022033 0.000000 0.000305 0.000000
# 4 0.000000 0.000000 0.000000 0.029554 0.000000 -0.001536
# 5 0.000926 0.000550 0.000305 0.000000 0.037633 0.000000
# 6 0.000000 0.000000 0.000000 -0.001536 0.000000 0.045742
#
#
# Mechanical properties :
#
#
# Convention : Reuss Voigt Hill
#
# Bulk Modulus (GPa) = 20.42284 29.29653 24.85968
# Shear Modulus (GPa) = 26.09802 29.35553 27.72677
#
# Velocity S-wave (km/s) = 3.55079 3.76587 3.65991
# Velocity P-wave (km/s) = 5.16499 5.74999 5.46533
#
# Compressibility (1/GPa) = 0.04896480
#
# Stress axis : x y z
#
# Youngs Moduli (GPa) = 44.62470 89.21753 45.38725
#
# Poissons Ratio (x) = 0.13670 -0.23093
# Poissons Ratio (y) = 0.06838 0.31311
# Poissons Ratio (z) = -0.22705 0.61547
#
# Static dielectric constant tensor:
#      x y z
#    x 1.734950 0.000000 0.018040 
#    y 0.000000 1.796370 0.000000 
#    z 0.018040 0.000000 1.810970 
# 
# From -- ./inp_files/6031.got.cif
#   From: 2010.05.17/outbox.cif.g08.bks.cpg/sg11_4_cif.got.tgz:6031.got - 2010.06.03 12:22:45.
