data_PCOD9159267
_publ_section_title
;
Structure prediction by ZEFSAII (Michael W. Deem and Ramdas Pophale) SiO2 
 PCOD9159267
Probable space group: P 21/M
;
_chemical_formula_sum "Si O2"
_cell_formula_units_Z 32
_cell_length_a 12.465386
_cell_length_b 8.463052
_cell_length_c 32.259145
_cell_angle_alpha 90.000000
_cell_angle_beta 29.606448
_cell_angle_gamma 90.000000
_cell_volume 1681.308684
_symmetry_space_group_name_H-M "P 21/M"
_symmetry_group_IT_number 11
_symmetry_cell_setting 'monoclinic'
loop_
_space_group_symop_operation_xyz
x,y,z
-x,1/2+y,-z
-x,-y,-z
x,1/2-y,z
loop_
_atom_site_type_symbol
_atom_site_label
_atom_site_fract_x
_atom_site_fract_y
_atom_site_fract_z
Si Si1 0.046760 0.442433 0.369505
Si Si2 0.678470 0.561596 0.081268
Si Si3 0.847750 0.440995 0.109531
Si Si4 0.446670 0.559116 0.472010
Si Si5 0.213910 0.438482 0.223247
Si Si6 0.144394 0.438740 0.718943
Si Si7 0.205294 0.058956 0.405032
Si Si8 0.689318 0.059313 0.253470
O O1 0.052499 0.250000 0.366755
O O2 0.795751 0.491993 0.458595
O O3 0.135206 0.496976 0.295258
O O4 0.178329 0.491563 0.366035
O O5 0.662400 0.750000 0.084488
O O6 0.704770 0.509037 0.120196
O O7 0.463374 0.486725 0.134608
O O8 0.902845 0.512809 0.983499
O O9 0.833529 0.250000 0.111998
O O10 0.769319 0.490862 0.181120
O O11 0.500000 0.500000 0.500000
O O12 0.447966 0.750000 0.471750
O O13 0.636139 0.503221 0.377875
O O14 0.194389 0.250000 0.229731
O O15 0.058802 0.504676 0.239739
O O16 0.146569 0.250000 0.718229
O O17 0.159273 0.498929 0.760700
O O18 0.202656 0.250000 0.406657
O O19 0.439315 0.005368 0.343242
O O20 0.000000 0.000000 0.500000
O O21 0.690408 0.250000 0.253762
#
# Coordination Sequence:
#
# PCOD9159267 Si02
#       8
#     4   4   4   4   4   4   4   4
#     4   9  18  33  54  77 104 141 181 222 268 323
#     4  10  20  35  59  90 119 140 174 232 286 330
#     4   9  19  38  62  86 112 147 186 224 274 336
#     4  10  19  33  52  75 106 143 184 228 273 323
#     4  11  21  36  58  81 110 148 187 226 276 338
#     4  11  23  37  55  81 113 146 186 239 285 325
#     4  10  20  35  54  78 109 142 180 224 269 321
#     4  10  21  38  59  80 108 150 194 227 269 338
#
# _framework density 19.032793999999999
#
# number of rings (size 3 to 8) (size 9 to 14) (size 15 to 20)
#    0.000    2.000    1.250    2.625    0.000    5.000 
#    0.000    3.750    0.000    0.000    0.000    0.000 
#    0.000    0.000    0.000    0.000    0.000    0.000 
#
# Total GULP energy -178724.190520 kJ/mol
# GULP energy per Si atom -5585.130954 kJ/mol
# Density = 1.898947 g / cm^3
# Si number density = 19.032794 Si / 1000 Ang^3
#
#
#
# Elastic Constant Matrix: (Units=GPa)
#
#
# Indices 1 2 3 4 5 6 
#
# 1 136.7983 21.2371 54.1304 0.0000 -5.8383 0.0000
# 2 21.2371 15.5322 19.0096 0.0000 0.1035 0.0000
# 3 54.1304 19.0096 83.7694 0.0000 -0.7166 0.0000
# 4 0.0000 0.0000 0.0000 21.4253 0.0000 -1.9755
# 5 -5.8383 0.1035 -0.7166 0.0000 32.3991 0.0000
# 6 0.0000 0.0000 0.0000 -1.9755 0.0000 27.2911
#
#
#
# Elastic Compliance Matrix: (Units=1/GPa)
#
#
# Indices 1 2 3 4 5 6 
#
# 1 0.010671 -0.008560 -0.004937 0.000000 0.001841 0.000000
# 2 -0.008560 0.096024 -0.016278 0.000000 -0.002209 0.000000
# 3 -0.004937 -0.016278 0.018818 0.000000 -0.000422 0.000000
# 4 0.000000 0.000000 0.000000 0.046987 0.000000 0.003401
# 5 0.001841 -0.002209 -0.000422 0.000000 0.031195 0.000000
# 6 0.000000 0.000000 0.000000 0.003401 0.000000 0.036888
#
#
# Mechanical properties :
#
#
# Convention : Reuss Voigt Hill
#
# Bulk Modulus (GPa) = 15.16017 47.20603 31.18310
# Shear Modulus (GPa) = 15.52209 25.67126 20.59668
#
# Velocity S-wave (km/s) = 2.85887 3.67657 3.29320
# Velocity P-wave (km/s) = 4.34513 6.54822 5.55695
#
# Compressibility (1/GPa) = 0.06596233
#
# Stress axis : x y z
#
# Youngs Moduli (GPa) = 93.71039 10.41409 53.14014
#
# Poissons Ratio (x) = 0.08915 0.26236
# Poissons Ratio (y) = 0.80219 0.86500
# Poissons Ratio (z) = 0.46267 0.16952
#
# Static dielectric constant tensor:
#      x y z
#    x 1.636980 0.000000 0.000690 
#    y 0.000000 1.651580 0.000000 
#    z 0.000690 0.000000 1.668580 
# 
# From -- ./inp_files/45293.got.cif
#   From: 2010.05.17/outbox.cif.g08.bks.cpg/sg11_23_cif.got.tgz:45293.got - 2010.06.03 12:22:45.
