data_PCOD9159288
_publ_section_title
;
Structure prediction by ZEFSAII (Michael W. Deem and Ramdas Pophale) SiO2 
 PCOD9159288
Probable space group: P 21/M
;
_chemical_formula_sum "Si O2"
_cell_formula_units_Z 32
_cell_length_a 21.367905
_cell_length_b 8.518735
_cell_length_c 14.717676
_cell_angle_alpha 90.000000
_cell_angle_beta 43.454016
_cell_angle_gamma 90.000000
_cell_volume 1842.556870
_symmetry_space_group_name_H-M "P 21/M"
_symmetry_group_IT_number 11
_symmetry_cell_setting 'monoclinic'
loop_
_space_group_symop_operation_xyz
x,y,z
-x,1/2+y,-z
-x,-y,-z
x,1/2-y,z
loop_
_atom_site_type_symbol
_atom_site_label
_atom_site_fract_x
_atom_site_fract_y
_atom_site_fract_z
Si Si1 0.142200 0.941680 0.077136
Si Si2 0.951945 0.938720 0.359213
Si Si3 0.100810 0.561672 0.916449
Si Si4 0.719336 0.441680 0.922864
Si Si5 0.482742 0.938328 0.916448
Si Si6 0.811158 0.438720 0.640787
Si Si7 0.806139 0.561998 0.358032
Si Si8 0.335828 0.561998 0.358035
O O1 0.141490 0.750000 0.076881
O O2 0.232468 0.992251 0.035064
O O3 0.053422 0.991213 0.228294
O O4 0.130757 0.992791 0.985254
O O5 0.952009 0.750000 0.362768
O O6 0.886086 0.986210 0.344778
O O7 0.904999 0.999998 0.500000
O O8 0.097499 0.750000 0.920460
O O9 0.168232 0.504598 0.766759
O O10 0.000000 0.500000 0.000000
O O11 0.718371 0.250000 0.923119
O O12 0.781715 0.491213 0.771707
O O13 0.616011 0.492791 0.014747
O O14 0.482042 0.750000 0.920457
O O15 0.565009 0.995405 0.766759
O O16 0.500000 0.000000 0.000000
O O17 0.814779 0.250000 0.637230
O O18 0.730864 0.486207 0.655222
O O19 0.805081 0.750000 0.355852
O O20 0.713116 0.500003 0.500000
O O21 0.339064 0.750000 0.355860
#
# Coordination Sequence:
#
# PCOD9159288 Si02
#       8
#     4   4   4   4   4   4   4   4
#     4   9  18  33  51  72 102 139 176 212 256 308
#     4   9  17  30  47  71 101 135 171 205 246 297
#     4  11  20  33  54  79 104 137 176 218 262 306
#     4   9  18  33  51  72 102 139 176 212 256 308
#     4  11  20  33  54  79 104 137 176 218 262 306
#     4   9  17  30  47  71 101 135 171 205 246 297
#     4  10  19  33  52  79 107 135 170 215 264 310
#     4  10  19  33  52  79 107 135 170 215 264 310
#
# _framework density 17.367170999999999
#
# number of rings (size 3 to 8) (size 9 to 14) (size 15 to 20)
#    0.000    2.250    2.500    1.500    0.000    1.500 
#    0.000    0.000    0.000    6.750    0.000    0.000 
#    0.000    0.000    0.000    0.000    0.000    0.000 
#
# Total GULP energy -178532.020586 kJ/mol
# GULP energy per Si atom -5579.125643 kJ/mol
# Density = 1.732764 g / cm^3
# Si number density = 17.367171 Si / 1000 Ang^3
#
#
#
# Elastic Constant Matrix: (Units=GPa)
#
#
# Indices 1 2 3 4 5 6 
#
# 1 123.3662 21.0744 78.7611 0.0000 0.0179 0.0000
# 2 21.0744 22.7904 25.7285 0.0000 0.2364 0.0000
# 3 78.7611 25.7285 143.1182 0.0000 0.9839 0.0000
# 4 0.0000 0.0000 0.0000 32.3970 0.0000 0.9806
# 5 0.0179 0.2364 0.9839 0.0000 22.5266 0.0000
# 6 0.0000 0.0000 0.0000 0.9806 0.0000 13.0544
#
#
#
# Elastic Compliance Matrix: (Units=1/GPa)
#
#
# Indices 1 2 3 4 5 6 
#
# 1 0.012924 -0.004921 -0.006230 0.000000 0.000313 0.000000
# 2 -0.004921 0.056925 -0.007523 0.000000 -0.000265 0.000000
# 3 -0.006230 -0.007523 0.011771 0.000000 -0.000430 0.000000
# 4 0.000000 0.000000 0.000000 0.030937 0.000000 -0.002324
# 5 0.000313 -0.000265 -0.000430 0.000000 0.044413 0.000000
# 6 0.000000 0.000000 0.000000 -0.002324 0.000000 0.076777
#
#
# Mechanical properties :
#
#
# Convention : Reuss Voigt Hill
#
# Bulk Modulus (GPa) = 22.58805 60.04475 41.31640
# Shear Modulus (GPa) = 17.49147 24.50963 21.00055
#
# Velocity S-wave (km/s) = 3.17702 3.76075 3.48114
# Velocity P-wave (km/s) = 5.14707 7.31481 6.32451
#
# Compressibility (1/GPa) = 0.04427120
#
# Stress axis : x y z
#
# Youngs Moduli (GPa) = 77.37624 17.56699 84.95411
#
# Poissons Ratio (x) = 0.08645 0.52924
# Poissons Ratio (y) = 0.38078 0.63915
# Poissons Ratio (z) = 0.48204 0.13216
#
# Static dielectric constant tensor:
#      x y z
#    x 1.594840 0.000000 -0.000640 
#    y 0.000000 1.597260 0.000000 
#    z -0.000640 0.000000 1.582200 
# 
# From -- ./inp_files/54286.got.cif
#   From: 2010.05.17/outbox.cif.g08.bks.cpg/sg11_28_cif.got.tgz:54286.got - 2010.06.03 12:22:45.
