data_PCOD9159229
_publ_section_title
;
Structure prediction by ZEFSAII (Michael W. Deem and Ramdas Pophale) SiO2 
 PCOD9159229
Probable space group: P 21/M
;
_chemical_formula_sum "Si O2"
_cell_formula_units_Z 32
_cell_length_a 14.602301
_cell_length_b 8.788299
_cell_length_c 26.994484
_cell_angle_alpha 90.000000
_cell_angle_beta 144.832365
_cell_angle_gamma 90.000000
_cell_volume 1995.269188
_symmetry_space_group_name_H-M "P 21/M"
_symmetry_group_IT_number 11
_symmetry_cell_setting 'monoclinic'
loop_
_space_group_symop_operation_xyz
x,y,z
-x,1/2+y,-z
-x,-y,-z
x,1/2-y,z
loop_
_atom_site_type_symbol
_atom_site_label
_atom_site_fract_x
_atom_site_fract_y
_atom_site_fract_z
Si Si1 0.751591 0.932147 0.596893
Si Si2 0.042908 0.924663 0.855901
Si Si3 0.708801 0.926066 0.764016
Si Si4 0.301653 0.432034 0.041673
Si Si5 0.574278 0.431500 0.083586
Si Si6 0.081739 0.070434 0.767547
Si Si7 0.178375 0.568868 0.084946
Si Si8 0.525421 0.933974 0.588830
O O1 0.760815 0.750000 0.599790
O O2 0.662971 0.975420 0.609543
O O3 0.635725 0.993602 0.502954
O O4 0.927353 0.000778 0.672750
O O5 0.083398 0.750000 0.860220
O O6 0.867753 0.924792 0.800982
O O7 0.057178 0.029066 0.814385
O O8 0.160230 0.987962 0.949095
O O9 0.677333 0.750000 0.764697
O O10 0.574346 0.979858 0.665989
O O11 0.748110 0.023126 0.829656
O O12 0.278408 0.250000 0.032813
O O13 0.458735 0.464060 0.078870
O O14 0.289033 0.499055 0.090929
O O15 0.582159 0.250000 0.080698
O O16 0.748851 0.497317 0.170583
O O17 0.500000 0.500000 0.000000
O O18 0.087574 0.250000 0.762923
O O19 0.166653 0.750000 0.074613
O O20 0.000000 0.500000 0.000000
O O21 0.514237 0.750000 0.583089
#
# Coordination Sequence:
#
# PCOD9159229 Si02
#       8
#     4   4   4   4   4   4   4   4
#     4  10  19  33  51  75 106 139 176 217 261 312
#     4  11  20  32  52  75 105 142 178 219 262 305
#     4  10  20  35  53  75 105 141 179 217 261 312
#     4  11  23  38  54  75 103 138 179 221 266 312
#     4  11  23  37  55  77 104 138 178 221 264 316
#     4  12  23  34  51  76 107 144 182 218 260 313
#     4  12  24  36  53  76 105 140 180 221 262 310
#     4   9  18  33  51  75 105 138 173 214 265 314
#
# _framework density 16.037936999999999
#
# number of rings (size 3 to 8) (size 9 to 14) (size 15 to 20)
#    0.000    1.250    3.750    3.750    0.000    3.000 
#    0.000    0.000    0.000    0.000    0.000    0.875 
#    0.000    0.000    0.000    0.000    0.000    0.000 
#
# Total GULP energy -178693.170412 kJ/mol
# GULP energy per Si atom -5584.161575 kJ/mol
# Density = 1.600143 g / cm^3
# Si number density = 16.037937 Si / 1000 Ang^3
#
#
#
# Elastic Constant Matrix: (Units=GPa)
#
#
# Indices 1 2 3 4 5 6 
#
# 1 71.6771 32.0848 40.2445 0.0000 -4.6969 0.0000
# 2 32.0848 70.5901 42.4720 0.0000 1.8603 0.0000
# 3 40.2445 42.4720 122.7064 0.0000 -5.5426 0.0000
# 4 0.0000 0.0000 0.0000 27.2918 0.0000 -2.0252
# 5 -4.6969 1.8603 -5.5426 0.0000 16.8669 0.0000
# 6 0.0000 0.0000 0.0000 -2.0252 0.0000 20.9847
#
#
#
# Elastic Compliance Matrix: (Units=1/GPa)
#
#
# Indices 1 2 3 4 5 6 
#
# 1 0.019399 -0.006631 -0.003847 0.000000 0.004869 0.000000
# 2 -0.006631 0.020438 -0.005161 0.000000 -0.005797 0.000000
# 3 -0.003847 -0.005161 0.011344 0.000000 0.003226 0.000000
# 4 0.000000 0.000000 0.000000 0.036905 0.000000 0.003562
# 5 0.004869 -0.005797 0.003226 0.000000 0.062343 0.000000
# 6 0.000000 0.000000 0.000000 0.003562 0.000000 0.047998
#
#
# Mechanical properties :
#
#
# Convention : Reuss Voigt Hill
#
# Bulk Modulus (GPa) = 50.24656 54.95291 52.59973
# Shear Modulus (GPa) = 21.15603 23.04016 22.09810
#
# Velocity S-wave (km/s) = 3.63592 3.79437 3.71599
# Velocity P-wave (km/s) = 7.00174 7.31676 7.16098
#
# Compressibility (1/GPa) = 0.01990186
#
# Stress axis : x y z
#
# Youngs Moduli (GPa) = 51.54976 48.92775 88.15586
#
# Poissons Ratio (x) = 0.32442 0.33916
# Poissons Ratio (y) = 0.34181 0.45501
# Poissons Ratio (z) = 0.19833 0.25254
#
# Static dielectric constant tensor:
#      x y z
#    x 1.535010 0.000000 -0.002900 
#    y 0.000000 1.536480 0.000000 
#    z -0.002900 0.000000 1.543810 
# 
# From -- ./inp_files/71615.got.cif
#   From: 2010.05.17/outbox.cif.g08.bks.cpg/sg11_36_cif.got.tgz:71615.got - 2010.06.03 12:22:45.
