data_PCOD9159866
_publ_section_title
;
Structure prediction by ZEFSAII (Michael W. Deem and Ramdas Pophale) SiO2 
 PCOD9159866
Probable space group: P 21/M
;
_chemical_formula_sum "Si O2"
_cell_formula_units_Z 20
_cell_length_a 9.635381
_cell_length_b 8.732016
_cell_length_c 27.891312
_cell_angle_alpha 90.000000
_cell_angle_beta 148.983473
_cell_angle_gamma 90.000000
_cell_volume 1209.205504
_symmetry_space_group_name_H-M "P 21/M"
_symmetry_group_IT_number 11
_symmetry_cell_setting 'monoclinic'
loop_
_space_group_symop_operation_xyz
x,y,z
-x,1/2+y,-z
-x,-y,-z
x,1/2-y,z
loop_
_atom_site_type_symbol
_atom_site_label
_atom_site_fract_x
_atom_site_fract_y
_atom_site_fract_z
Si Si1 0.228305 0.930207 0.899209
Si Si2 0.672740 0.067643 0.728977
Si Si3 0.109129 0.932959 0.582259
Si Si4 0.940642 0.569653 0.720370
Si Si5 0.797883 0.432363 0.580707
O O1 0.210029 0.750000 0.904621
O O2 0.196151 0.946191 0.831770
O O3 0.957162 0.016010 0.836440
O O4 0.500000 0.000000 0.000000
O O5 0.647115 0.250000 0.720483
O O6 0.416723 0.990281 0.677284
O O7 0.705025 0.002401 0.684072
O O8 0.097018 0.750000 0.577622
O O9 0.000000 0.000000 0.500000
O O10 0.935347 0.996937 0.574662
O O11 0.889710 0.750000 0.697693
O O12 0.958797 0.482933 0.676026
O O13 0.500000 0.500000 0.500000
O O14 0.785724 0.250000 0.573065
#
# Coordination Sequence:
#
# PCOD9159866 Si02
#       5
#     4   4   4   4   4
#     4   9  18  32  56  85 114 145 185 231 278 327
#     4  10  19  34  55  81 111 143 183 227 274 327
#     4  12  24  39  56  78 110 147 187 230 277 331
#     4   9  19  35  54  80 111 143 182 226 273 324
#     4  12  24  38  56  79 109 147 187 228 277 331
#
# _framework density 16.539784999999998
#
# number of rings (size 3 to 8) (size 9 to 14) (size 15 to 20)
#    1.200    0.400    0.000    7.200    0.000    0.000 
#    0.000    0.000    0.000    1.200    0.000    0.000 
#    0.000    0.000    0.000    0.000    0.000    0.000 
#
# Total GULP energy -111489.610764 kJ/mol
# GULP energy per Si atom -5574.480538 kJ/mol
# Density = 1.650214 g / cm^3
# Si number density = 16.539785 Si / 1000 Ang^3
#
#
#
# Elastic Constant Matrix: (Units=GPa)
#
#
# Indices 1 2 3 4 5 6 
#
# 1 130.9066 70.4192 57.7166 0.0000 9.6060 0.0000
# 2 70.4192 185.1589 63.1516 0.0000 5.8580 0.0000
# 3 57.7166 63.1516 104.6208 0.0000 11.4117 0.0000
# 4 0.0000 0.0000 0.0000 32.6978 0.0000 0.5096
# 5 9.6060 5.8580 11.4117 0.0000 20.5720 0.0000
# 6 0.0000 0.0000 0.0000 0.5096 0.0000 30.9165
#
#
#
# Elastic Compliance Matrix: (Units=1/GPa)
#
#
# Indices 1 2 3 4 5 6 
#
# 1 0.011136 -0.002709 -0.004284 0.000000 -0.002052 0.000000
# 2 -0.002709 0.007462 -0.003104 0.000000 0.000862 0.000000
# 3 -0.004284 -0.003104 0.014349 0.000000 -0.005075 0.000000
# 4 0.000000 0.000000 0.000000 0.030591 0.000000 -0.000504
# 5 -0.002052 0.000862 -0.005075 0.000000 0.052138 0.000000
# 6 0.000000 0.000000 0.000000 -0.000504 0.000000 0.032353
#
#
# Mechanical properties :
#
#
# Convention : Reuss Voigt Hill
#
# Bulk Modulus (GPa) = 78.41471 89.25123 83.83297
# Shear Modulus (GPa) = 28.98967 32.13053 30.56010
#
# Velocity S-wave (km/s) = 4.19110 4.41230 4.30312
# Velocity P-wave (km/s) = 8.42218 8.94631 8.68820
#
# Compressibility (1/GPa) = 0.01275271
#
# Stress axis : x y z
#
# Youngs Moduli (GPa) = 89.80027 134.00402 69.69049
#
# Poissons Ratio (x) = 0.36302 0.29858
# Poissons Ratio (y) = 0.24327 0.21632
# Poissons Ratio (z) = 0.38473 0.41595
#
# Static dielectric constant tensor:
#      x y z
#    x 1.538390 0.000000 -0.007610 
#    y 0.000000 1.544870 0.000000 
#    z -0.007610 0.000000 1.578950 
# 
# From -- ./inp_files/27356.got.cif
#   From: 2010.05.17/outbox.cif.g08.bks.cpg/sg11_14_cif.got.tgz:27356.got - 2010.06.03 12:22:45.
