data_PCOD9159821
_publ_section_title
;
Structure prediction by ZEFSAII (Michael W. Deem and Ramdas Pophale) SiO2 
 PCOD9159821
Probable space group: P 21/M
;
_chemical_formula_sum "Si O2"
_cell_formula_units_Z 32
_cell_length_a 21.651797
_cell_length_b 7.998121
_cell_length_c 19.470957
_cell_angle_alpha 90.000000
_cell_angle_beta 21.642917
_cell_angle_gamma 90.000000
_cell_volume 1243.611496
_symmetry_space_group_name_H-M "P 21/M"
_symmetry_group_IT_number 11
_symmetry_cell_setting 'monoclinic'
loop_
_space_group_symop_operation_xyz
x,y,z
-x,1/2+y,-z
-x,-y,-z
x,1/2-y,z
loop_
_atom_site_type_symbol
_atom_site_label
_atom_site_fract_x
_atom_site_fract_y
_atom_site_fract_z
Si Si1 0.044059 0.047908 0.558008
Si Si2 0.818142 0.045107 0.908846
Si Si3 0.766416 0.050802 0.218551
Si Si4 0.277511 0.449849 0.203079
Si Si5 0.278644 0.936836 0.494091
Si Si6 0.501432 0.051387 0.145619
Si Si7 0.459486 0.439895 0.430142
Si Si8 0.041525 0.945348 0.100447
O O1 0.055761 0.250000 0.547759
O O2 0.210873 0.987597 0.346441
O O3 0.983104 0.991904 0.695648
O O4 0.883522 0.999905 0.677206
O O5 0.815393 0.250000 0.912500
O O6 0.833757 0.985234 0.970130
O O7 0.658417 0.992310 0.030201
O O8 0.773878 0.250000 0.227413
O O9 0.615963 0.025926 0.318068
O O10 0.701641 0.958825 0.353137
O O11 0.924468 0.984377 0.010599
O O12 0.291878 0.250000 0.191186
O O13 0.437626 0.513537 0.995032
O O14 0.214147 0.750000 0.560550
O O15 0.344520 0.984410 0.350807
O O16 0.429473 0.951989 0.393616
O O17 0.135610 0.044850 0.678566
O O18 0.486580 0.250000 0.164211
O O19 0.476326 0.250000 0.387942
O O20 0.081069 0.750000 0.050539
#
# Coordination Sequence:
#
# PCOD9159821 Si02
#       8
#     4   4   4   4   4   4   4   4
#     4   8  14  25  43  70 104 138 171 210 258 310
#     4   8  15  30  54  79 101 132 174 215 255 306
#     4   9  19  36  59  86 111 136 171 214 256 302
#     4   9  15  24  42  72 106 135 167 212 262 308
#     4  12  25  38  52  75 107 139 174 216 260 307
#     4  10  19  34  55  77 102 135 175 216 263 317
#     4  10  20  37  61  85 108 137 172 210 256 308
#     4  10  20  36  56  76 103 139 176 213 256 306
#
# _framework density 25.73151
#
# number of rings (size 3 to 8) (size 9 to 14) (size 15 to 20)
#    0.000    2.500    0.000    3.750    0.000    4.000 
#    0.000    4.375    0.000    0.750    0.000    0.000 
#    0.000    0.000    0.000    0.000    0.000    0.000 
#
# Total GULP energy -178810.702236 kJ/mol
# GULP energy per Si atom -5587.834445 kJ/mol
# Density = 2.567294 g / cm^3
# Si number density = 25.731510 Si / 1000 Ang^3
#
#
#
# Elastic Constant Matrix: (Units=GPa)
#
#
# Indices 1 2 3 4 5 6 
#
# 1 91.6320 -1.4727 32.3352 0.0000 34.2926 0.0000
# 2 -1.4727 41.7624 -5.1493 0.0000 5.3070 0.0000
# 3 32.3352 -5.1493 182.0278 0.0000 25.5623 0.0000
# 4 0.0000 0.0000 0.0000 22.9146 0.0000 6.7874
# 5 34.2926 5.3070 25.5623 0.0000 62.2213 0.0000
# 6 0.0000 0.0000 0.0000 6.7874 0.0000 14.1735
#
#
#
# Elastic Compliance Matrix: (Units=1/GPa)
#
#
# Indices 1 2 3 4 5 6 
#
# 1 0.014190 0.001252 -0.001456 0.000000 -0.007329 0.000000
# 2 0.001252 0.024503 0.000914 0.000000 -0.003155 0.000000
# 3 -0.001456 0.000914 0.006024 0.000000 -0.001750 0.000000
# 4 0.000000 0.000000 0.000000 0.050854 0.000000 -0.024353
# 5 -0.007329 -0.003155 -0.001750 0.000000 0.021099 0.000000
# 6 0.000000 0.000000 0.000000 -0.024353 0.000000 0.082216
#
#
# Mechanical properties :
#
#
# Convention : Reuss Voigt Hill
#
# Bulk Modulus (GPa) = 21.67460 40.76096 31.21778
# Shear Modulus (GPa) = 23.49125 39.17582 31.33354
#
# Velocity S-wave (km/s) = 3.02476 3.90614 3.49336
# Velocity P-wave (km/s) = 4.54319 6.01823 5.33196
#
# Compressibility (1/GPa) = 0.04613695
#
# Stress axis : x y z
#
# Youngs Moduli (GPa) = 70.47167 40.81169 166.00375
#
# Poissons Ratio (x) = -0.05111 0.24171
# Poissons Ratio (y) = -0.08825 -0.15170
# Poissons Ratio (z) = 0.10261 -0.03730
#
# Static dielectric constant tensor:
#      x y z
#    x 2.186010 0.000000 -0.055540 
#    y 0.000000 1.894840 0.000000 
#    z -0.055540 0.000000 2.112950 
# 
# From -- ./inp_files/67071.got.cif
#   From: 2010.05.17/outbox.cif.g08.bks.cpg/sg11_34_cif.got.tgz:67071.got - 2010.06.03 12:22:45.
