data_PCOD9159126
_publ_section_title
;
Structure prediction by ZEFSAII (Michael W. Deem and Ramdas Pophale) SiO2 
 PCOD9159126
Probable space group: P 21/M
;
_chemical_formula_sum "Si O2"
_cell_formula_units_Z 28
_cell_length_a 7.015939
_cell_length_b 18.314591
_cell_length_c 16.981762
_cell_angle_alpha 90.000000
_cell_angle_beta 35.748919
_cell_angle_gamma 90.000000
_cell_volume 1274.831744
_symmetry_space_group_name_H-M "P 21/M"
_symmetry_group_IT_number 11
_symmetry_cell_setting 'monoclinic'
loop_
_space_group_symop_operation_xyz
x,y,z
-x,1/2+y,-z
-x,-y,-z
x,1/2-y,z
loop_
_atom_site_type_symbol
_atom_site_label
_atom_site_fract_x
_atom_site_fract_y
_atom_site_fract_z
Si Si1 0.581890 0.831091 0.812849
Si Si2 0.116290 0.331852 0.599115
Si Si3 0.193804 0.535890 0.009792
Si Si4 0.248082 0.582707 0.553953
Si Si5 0.764993 0.468850 0.750694
Si Si6 0.554395 0.330658 0.320709
Si Si7 0.425479 0.500020 0.697866
O O1 0.605344 0.750000 0.839146
O O2 0.356536 0.886019 0.937589
O O3 0.424754 0.825906 0.779353
O O4 0.937673 0.864775 0.674530
O O5 0.075176 0.250000 0.641094
O O6 0.445774 0.368674 0.522023
O O7 0.191399 0.331056 0.480266
O O8 0.823219 0.384214 0.718466
O O9 0.512832 0.484690 0.904649
O O10 0.000000 0.500000 0.000000
O O11 0.921823 0.537121 0.167702
O O12 0.350524 0.547666 0.435545
O O13 0.112316 0.509441 0.643281
O O14 0.619105 0.501210 0.717176
O O15 0.686033 0.250000 0.306079
O O16 0.651556 0.415800 0.301715
#
# Coordination Sequence:
#
# PCOD9159126 Si02
#       7
#     4   4   4   4   4   4   4
#     4  10  19  35  58  83 109 144 186 233 280 325
#     4  11  23  36  51  82 117 147 187 235 283 327
#     4   9  18  34  55  86 112 141 182 228 276 333
#     4  11  20  34  59  81 107 147 186 231 272 329
#     4  10  19  35  58  83 108 145 182 233 276 333
#     4  10  19  32  55  83 113 141 180 238 282 319
#     4  11  19  36  60  87 112 142 192 232 276 342
#
# _framework density 21.963681000000001
#
# number of rings (size 3 to 8) (size 9 to 14) (size 15 to 20)
#    0.000    1.714    5.714    2.143    0.000    0.000 
#    0.000    6.429    0.000    0.000    0.000    0.000 
#    0.000    0.000    0.000    0.000    0.000    0.000 
#
# Total GULP energy -155912.945186 kJ/mol
# GULP energy per Si atom -5568.319471 kJ/mol
# Density = 2.191369 g / cm^3
# Si number density = 21.963681 Si / 1000 Ang^3
#
#
#
# Elastic Constant Matrix: (Units=GPa)
#
#
# Indices 1 2 3 4 5 6 
#
# 1 40.2498 25.6808 7.1041 0.0000 -6.0704 0.0000
# 2 25.6808 213.7967 82.7592 0.0000 -9.2028 0.0000
# 3 7.1041 82.7592 154.3643 0.0000 -1.2873 0.0000
# 4 0.0000 0.0000 0.0000 27.1873 0.0000 1.2772
# 5 -6.0704 -9.2028 -1.2873 0.0000 19.4321 0.0000
# 6 0.0000 0.0000 0.0000 1.2772 0.0000 19.6563
#
#
#
# Elastic Compliance Matrix: (Units=1/GPa)
#
#
# Indices 1 2 3 4 5 6 
#
# 1 0.027910 -0.003240 0.000513 0.000000 0.007218 0.000000
# 2 -0.003240 0.006411 -0.003273 0.000000 0.001807 0.000000
# 3 0.000513 -0.003273 0.008202 0.000000 -0.000846 0.000000
# 4 0.000000 0.000000 0.000000 0.036895 0.000000 -0.002397
# 5 0.007218 0.001807 -0.000846 0.000000 0.054516 0.000000
# 6 0.000000 0.000000 0.000000 -0.002397 0.000000 0.051030
#
#
# Mechanical properties :
#
#
# Convention : Reuss Voigt Hill
#
# Bulk Modulus (GPa) = 32.76210 71.05544 51.90877
# Shear Modulus (GPa) = 24.13822 32.77957 28.45889
#
# Velocity S-wave (km/s) = 3.31872 3.86741 3.60352
# Velocity P-wave (km/s) = 5.44372 7.23630 6.40305
#
# Compressibility (1/GPa) = 0.03052307
#
# Stress axis : x y z
#
# Youngs Moduli (GPa) = 35.82888 155.97312 121.91665
#
# Poissons Ratio (x) = 0.50541 -0.06254
# Poissons Ratio (y) = 0.11610 0.39905
# Poissons Ratio (z) = -0.01838 0.51052
#
# Static dielectric constant tensor:
#      x y z
#    x 1.989940 0.000000 -0.000460 
#    y 0.000000 1.852940 0.000000 
#    z -0.000460 0.000000 1.790920 
# 
# From -- ./inp_files/63927.got.cif
#   From: 2010.05.17/outbox.cif.g08.bks.cpg/sg11_32_cif.got.tgz:63927.got - 2010.06.03 12:22:45.
