data_PCOD9159727
_publ_section_title
;
Structure prediction by ZEFSAII (Michael W. Deem and Ramdas Pophale) SiO2 
 PCOD9159727
Probable space group: P 21/M
;
_chemical_formula_sum "Si O2"
_cell_formula_units_Z 18
_cell_length_a 7.093604
_cell_length_b 8.100037
_cell_length_c 12.706102
_cell_angle_alpha 90.000000
_cell_angle_beta 84.961575
_cell_angle_gamma 90.000000
_cell_volume 727.252004
_symmetry_space_group_name_H-M "P 21/M"
_symmetry_group_IT_number 11
_symmetry_cell_setting 'monoclinic'
loop_
_space_group_symop_operation_xyz
x,y,z
-x,1/2+y,-z
-x,-y,-z
x,1/2-y,z
loop_
_atom_site_type_symbol
_atom_site_label
_atom_site_fract_x
_atom_site_fract_y
_atom_site_fract_z
Si Si1 0.618727 0.431967 0.592978
Si Si2 0.146326 0.250000 0.114776
Si Si3 0.713343 0.050455 0.023873
Si Si4 0.824383 0.250000 0.306538
Si Si5 0.637025 0.750000 0.692797
Si Si6 0.244928 0.071386 0.738775
O O1 0.500000 0.500000 0.500000
O O2 0.702507 0.250000 0.566770
O O3 0.726924 0.589951 0.632519
O O4 0.459952 0.409054 0.690554
O O5 0.160104 0.419054 0.048293
O O6 0.322143 0.250000 0.186483
O O7 0.968418 0.250000 0.200718
O O8 0.742135 0.250000 0.006347
O O9 0.500000 0.000000 0.000000
O O10 0.741424 0.998811 0.144045
O O11 0.592156 0.250000 0.307126
O O12 0.847514 0.440493 0.337688
O O13 0.150125 0.250000 0.742472
#
# Coordination Sequence:
#
# PCOD9159727 Si02
#       6
#     4   2   4   2   2   4
#     4  10  19  33  63  96 114 153 204 244 306 373
#     4  12  26  40  63  91 121 171 208 246 301 370
#     4  12  22  37  59  87 125 165 205 252 302 354
#     4  10  22  40  62  86 122 168 202 252 304 354
#     4  10  22  42  63  89 131 153 198 262 301 352
#     4  10  20  37  57  85 123 159 199 259 306 349
#
# _framework density 24.750706999999998
#
# number of rings (size 3 to 8) (size 9 to 14) (size 15 to 20)
#    0.000    1.333    4.444    2.667    0.000    4.444 
#    0.000    0.000    0.000    5.333    0.000    0.000 
#    0.000    0.000    0.000    0.000    0.000    0.000 
#
# Total GULP energy -100245.348218 kJ/mol
# GULP energy per Si atom -5569.186012 kJ/mol
# Density = 2.469437 g / cm^3
# Si number density = 24.750707 Si / 1000 Ang^3
#
#
#
# Elastic Constant Matrix: (Units=GPa)
#
#
# Indices 1 2 3 4 5 6 
#
# 1 66.4322 -2.3914 -7.6634 0.0000 -5.2026 0.0000
# 2 -2.3914 302.2684 21.5041 0.0000 11.7287 0.0000
# 3 -7.6634 21.5041 56.8687 0.0000 15.8194 0.0000
# 4 0.0000 0.0000 0.0000 43.5194 0.0000 -6.2203
# 5 -5.2026 11.7287 15.8194 0.0000 13.9027 0.0000
# 6 0.0000 0.0000 0.0000 -6.2203 0.0000 17.6707
#
#
#
# Elastic Compliance Matrix: (Units=1/GPa)
#
#
# Indices 1 2 3 4 5 6 
#
# 1 0.015531 -0.000126 0.000723 0.000000 0.005095 0.000000
# 2 -0.000126 0.003441 -0.000728 0.000000 -0.002122 0.000000
# 3 0.000723 -0.000728 0.025913 0.000000 -0.028601 0.000000
# 4 0.000000 0.000000 0.000000 0.024196 0.000000 0.008517
# 5 0.005095 -0.002122 -0.028601 0.000000 0.108169 0.000000
# 6 0.000000 0.000000 0.000000 0.008517 0.000000 0.059589
#
#
# Mechanical properties :
#
#
# Convention : Reuss Voigt Hill
#
# Bulk Modulus (GPa) = 22.40986 49.82977 36.11982
# Shear Modulus (GPa) = 19.84318 42.62657 31.23487
#
# Velocity S-wave (km/s) = 2.83454 4.15449 3.55629
# Velocity P-wave (km/s) = 4.44823 6.57186 5.61142
#
# Compressibility (1/GPa) = 0.04462321
#
# Stress axis : x y z
#
# Youngs Moduli (GPa) = 64.38788 290.57458 38.59050
#
# Poissons Ratio (x) = 0.03670 -0.02791
# Poissons Ratio (y) = 0.00813 0.02810
# Poissons Ratio (z) = -0.04657 0.21155
#
# Static dielectric constant tensor:
#      x y z
#    x 1.970430 0.000000 0.001480 
#    y 0.000000 1.805070 0.000000 
#    z 0.001480 0.000000 1.995350 
# 
# From -- ./inp_files/15981.got.cif
#   From: 2010.05.17/outbox.cif.g08.bks.cpg/sg11_8_cif.got.tgz:15981.got - 2010.06.03 12:22:45.
