data_PCOD9159742
_publ_section_title
;
Structure prediction by ZEFSAII (Michael W. Deem and Ramdas Pophale) SiO2 
 PCOD9159742
Probable space group: P 21/M
;
_chemical_formula_sum "Si O2"
_cell_formula_units_Z 28
_cell_length_a 14.073760
_cell_length_b 17.379119
_cell_length_c 9.503524
_cell_angle_alpha 90.000000
_cell_angle_beta 31.945443
_cell_angle_gamma 90.000000
_cell_volume 1229.899954
_symmetry_space_group_name_H-M "P 21/M"
_symmetry_group_IT_number 11
_symmetry_cell_setting 'monoclinic'
loop_
_space_group_symop_operation_xyz
x,y,z
-x,1/2+y,-z
-x,-y,-z
x,1/2-y,z
loop_
_atom_site_type_symbol
_atom_site_label
_atom_site_fract_x
_atom_site_fract_y
_atom_site_fract_z
Si Si1 0.427069 0.166627 0.000764
Si Si2 0.144520 0.836075 0.029778
Si Si3 0.275376 0.070471 0.716599
Si Si4 0.739348 0.990880 0.805754
Si Si5 0.606247 0.099907 0.510061
Si Si6 0.525819 0.374532 0.176853
Si Si7 0.000148 0.499123 0.252953
O O1 0.358025 0.250000 0.044179
O O2 0.281732 0.099479 0.188210
O O3 0.503391 0.170197 0.061460
O O4 0.565938 0.136054 0.710470
O O5 0.066226 0.750000 0.141453
O O6 0.263934 0.844297 0.739763
O O7 0.297156 0.848794 0.959321
O O8 0.013651 0.910875 0.190034
O O9 0.416303 0.088577 0.665613
O O10 0.352159 0.125408 0.496915
O O11 0.308982 0.984912 0.612372
O O12 0.081727 0.059148 0.034503
O O13 0.817231 0.022343 0.561141
O O14 0.866757 0.999131 0.780162
O O15 0.565876 0.038530 0.071098
#
# Coordination Sequence:
#
# PCOD9159742 Si02
#       7
#     4   4   4   4   4   4   4
#     4  12  22  32  50  80 109 133 165 211 262 304
#     4   9  17  31  51  77 104 134 166 208 257 301
#     4   9  15  32  55  77  97 127 178 213 245 294
#     4  10  19  34  52  79 103 131 170 215 254 291
#     4   9  16  29  51  78 101 128 168 216 249 293
#     4  10  20  33  54  74 102 137 174 210 243 304
#     4   9  18  32  56  78 100 131 173 212 248 303
#
# _framework density 22.766079000000001
#
# number of rings (size 3 to 8) (size 9 to 14) (size 15 to 20)
#    0.000    2.286    2.857    3.000    0.000    0.571 
#    0.000    0.714    0.000    0.000    0.000    0.000 
#    0.000    0.000    0.000    0.000    0.000    0.000 
#
# Total GULP energy -156144.641751 kJ/mol
# GULP energy per Si atom -5576.594348 kJ/mol
# Density = 2.271426 g / cm^3
# Si number density = 22.766079 Si / 1000 Ang^3
#
#
#
# Elastic Constant Matrix: (Units=GPa)
#
#
# Indices 1 2 3 4 5 6 
#
# 1 43.6865 -9.4643 15.8576 0.0000 16.6178 0.0000
# 2 -9.4643 75.2589 1.7797 0.0000 9.1735 0.0000
# 3 15.8576 1.7797 137.3387 0.0000 36.5925 0.0000
# 4 0.0000 0.0000 0.0000 8.2045 0.0000 -3.1207
# 5 16.6178 9.1735 36.5925 0.0000 33.9976 0.0000
# 6 0.0000 0.0000 0.0000 -3.1207 0.0000 5.9326
#
#
#
# Elastic Compliance Matrix: (Units=1/GPa)
#
#
# Indices 1 2 3 4 5 6 
#
# 1 0.030526 0.005975 0.001126 0.000000 -0.017745 0.000000
# 2 0.005975 0.015036 0.001366 0.000000 -0.008448 0.000000
# 3 0.001126 0.001366 0.010345 0.000000 -0.012054 0.000000
# 4 0.000000 0.000000 0.000000 0.152371 0.000000 0.080152
# 5 -0.017745 -0.008448 -0.012054 0.000000 0.053341 0.000000
# 6 0.000000 0.000000 0.000000 0.080152 0.000000 0.210724
#
#
# Mechanical properties :
#
#
# Convention : Reuss Voigt Hill
#
# Bulk Modulus (GPa) = 13.72824 30.29223 22.01024
# Shear Modulus (GPa) = 10.42341 26.16767 18.29554
#
# Velocity S-wave (km/s) = 2.14206 3.39398 2.83792
# Velocity P-wave (km/s) = 3.48728 5.35664 4.51966
#
# Compressibility (1/GPa) = 0.07284253
#
# Stress axis : x y z
#
# Youngs Moduli (GPa) = 32.75875 66.50534 96.66355
#
# Poissons Ratio (x) = -0.39739 -0.10884
# Poissons Ratio (y) = -0.19574 -0.13206
# Poissons Ratio (z) = -0.03688 -0.09086
#
# Static dielectric constant tensor:
#      x y z
#    x 1.922840 0.000000 -0.009280 
#    y 0.000000 1.848750 0.000000 
#    z -0.009280 0.000000 1.885480 
# 
# From -- ./inp_files/22730.got.cif
#   From: 2010.05.17/outbox.cif.g08.bks.cpg/sg11_12_cif.got.tgz:22730.got - 2010.06.03 12:22:45.
