data_PCOD9159598
_publ_section_title
;
Structure prediction by ZEFSAII (Michael W. Deem and Ramdas Pophale) SiO2 
 PCOD9159598
Probable space group: P 21/M
;
_chemical_formula_sum "Si O2"
_cell_formula_units_Z 28
_cell_length_a 10.516870
_cell_length_b 8.755772
_cell_length_c 30.835360
_cell_angle_alpha 90.000000
_cell_angle_beta 33.768721
_cell_angle_gamma 90.000000
_cell_volume 1578.269772
_symmetry_space_group_name_H-M "P 21/M"
_symmetry_group_IT_number 11
_symmetry_cell_setting 'monoclinic'
loop_
_space_group_symop_operation_xyz
x,y,z
-x,1/2+y,-z
-x,-y,-z
x,1/2-y,z
loop_
_atom_site_type_symbol
_atom_site_label
_atom_site_fract_x
_atom_site_fract_y
_atom_site_fract_z
Si Si1 0.089846 0.068033 0.406527
Si Si2 0.402988 0.932918 0.244660
Si Si3 0.682391 0.934530 0.825646
Si Si4 0.134891 0.434319 0.837864
Si Si5 0.628666 0.434314 0.005419
Si Si6 0.157614 0.565620 0.734623
Si Si7 0.664761 0.566556 0.572119
O O1 0.093456 0.250000 0.400631
O O2 0.241932 0.028020 0.406027
O O3 0.202423 0.991379 0.332982
O O4 0.835629 0.011433 0.489932
O O5 0.400962 0.750000 0.244222
O O6 0.643579 0.984112 0.197835
O O7 0.374124 0.996890 0.204781
O O8 0.677778 0.750000 0.824049
O O9 0.501829 0.982062 0.913934
O O10 0.934967 0.980352 0.770579
O O11 0.139399 0.250000 0.833969
O O12 0.143531 0.499804 0.786978
O O13 0.894426 0.479792 0.927781
O O14 0.616839 0.250000 0.006594
O O15 0.500000 0.500000 0.000000
O O16 0.157148 0.750000 0.738067
O O17 0.400025 0.520450 0.644923
O O18 0.681825 0.750000 0.562556
#
# Coordination Sequence:
#
# PCOD9159598 Si02
#       7
#     4   4   4   4   4   4   4
#     4  10  19  33  56  83 112 145 184 228 279 330
#     4  11  23  38  55  80 116 152 187 228 279 331
#     4  10  22  38  57  81 113 149 187 229 277 332
#     4  10  21  35  56  84 113 145 185 232 276 327
#     4  10  20  36  58  84 113 144 184 232 279 327
#     4  10  19  35  58  85 111 145 187 228 275 332
#     4   9  18  32  54  84 114 141 180 229 278 329
#
# _framework density 17.740946999999998
#
# number of rings (size 3 to 8) (size 9 to 14) (size 15 to 20)
#    0.000    2.000    2.857    0.857    0.000    3.429 
#    0.000    0.714    0.000    0.000    0.000    0.000 
#    0.000    0.000    0.000    0.000    0.000    0.000 
#
# Total GULP energy -156310.146172 kJ/mol
# GULP energy per Si atom -5582.505220 kJ/mol
# Density = 1.770057 g / cm^3
# Si number density = 17.740947 Si / 1000 Ang^3
#
#
#
# Elastic Constant Matrix: (Units=GPa)
#
#
# Indices 1 2 3 4 5 6 
#
# 1 132.0174 31.0889 87.4613 0.0000 4.3896 0.0000
# 2 31.0889 14.6092 36.0971 0.0000 2.5978 0.0000
# 3 87.4613 36.0971 174.6169 0.0000 -2.6826 0.0000
# 4 0.0000 0.0000 0.0000 25.2915 0.0000 6.5366
# 5 4.3896 2.5978 -2.6826 0.0000 31.8594 0.0000
# 6 0.0000 0.0000 0.0000 6.5366 0.0000 27.1137
#
#
#
# Elastic Compliance Matrix: (Units=1/GPa)
#
#
# Indices 1 2 3 4 5 6 
#
# 1 0.015496 -0.028206 -0.001931 0.000000 0.000002 0.000000
# 2 -0.028206 0.197651 -0.026954 0.000000 -0.014499 0.000000
# 3 -0.001931 -0.026954 0.012320 0.000000 0.003501 0.000000
# 4 0.000000 0.000000 0.000000 0.042166 0.000000 -0.010166
# 5 0.000002 -0.014499 0.003501 0.000000 0.032865 0.000000
# 6 0.000000 0.000000 0.000000 -0.010166 0.000000 0.039332
#
#
# Mechanical properties :
#
#
# Convention : Reuss Voigt Hill
#
# Bulk Modulus (GPa) = 8.98591 70.05979 39.52285
# Shear Modulus (GPa) = 10.18110 27.95932 19.07021
#
# Velocity S-wave (km/s) = 2.39817 3.97416 3.28216
# Velocity P-wave (km/s) = 3.56992 7.78684 6.05719
#
# Compressibility (1/GPa) = 0.11128536
#
# Stress axis : x y z
#
# Youngs Moduli (GPa) = 64.53258 5.05943 81.17115
#
# Poissons Ratio (x) = 0.14271 0.15672
# Poissons Ratio (y) = 1.82020 2.18788
# Poissons Ratio (z) = 0.12460 0.13637
#
# Static dielectric constant tensor:
#      x y z
#    x 1.575850 0.000000 -0.026660 
#    y 0.000000 1.599520 0.000000 
#    z -0.026660 0.000000 1.602280 
# 
# From -- ./inp_files/28598.got.cif
#   From: 2010.05.17/outbox.cif.g08.bks.cpg/sg11_15_cif.got.tgz:28598.got - 2010.06.03 12:22:45.
