data_PCOD9159655
_publ_section_title
;
Structure prediction by ZEFSAII (Michael W. Deem and Ramdas Pophale) SiO2 
 PCOD9159655
Probable space group: P 21/M
;
_chemical_formula_sum "Si O2"
_cell_formula_units_Z 32
_cell_length_a 24.263666
_cell_length_b 10.499275
_cell_length_c 11.988100
_cell_angle_alpha 90.000000
_cell_angle_beta 143.451772
_cell_angle_gamma 90.000000
_cell_volume 1818.642259
_symmetry_space_group_name_H-M "P 21/M"
_symmetry_group_IT_number 11
_symmetry_cell_setting 'monoclinic'
loop_
_space_group_symop_operation_xyz
x,y,z
-x,1/2+y,-z
-x,-y,-z
x,1/2-y,z
loop_
_atom_site_type_symbol
_atom_site_label
_atom_site_fract_x
_atom_site_fract_y
_atom_site_fract_z
Si Si1 0.990884 0.105078 0.390981
Si Si2 0.307727 0.596687 0.363506
Si Si3 0.493811 0.102948 0.389708
Si Si4 0.327552 0.479134 0.966622
Si Si5 0.219049 0.599856 0.992952
Si Si6 0.430454 0.893058 0.932484
Si Si7 0.175702 0.108604 0.546375
Si Si8 0.239875 0.603490 0.487093
O O1 0.989756 0.250000 0.435114
O O2 0.890769 0.084043 0.173051
O O3 0.078498 0.096789 0.452423
O O4 0.000000 0.000000 0.500000
O O5 0.295689 0.750000 0.344434
O O6 0.417401 0.574804 0.544005
O O7 0.252791 0.553292 0.382624
O O8 0.270030 0.545900 0.184764
O O9 0.503146 0.250000 0.445786
O O10 0.401818 0.091944 0.165605
O O11 0.500000 0.000000 0.500000
O O12 0.258422 0.545008 0.942148
O O13 0.387877 0.570962 0.984182
O O14 0.260498 0.403952 0.772694
O O15 0.238906 0.750000 0.021488
O O16 0.471027 0.750000 0.000097
O O17 0.342566 0.891570 0.706985
O O18 0.500000 0.000000 0.000000
O O19 0.180824 0.250000 0.503969
O O20 0.184582 0.994786 0.473128
O O21 0.204491 0.750000 0.431213
#
# Coordination Sequence:
#
# PCOD9159655 Si02
#       8
#     4   4   4   4   4   4   4   4
#     4  10  20  35  56  84 111 142 178 222 276 334
#     4   9  18  35  56  78 107 144 186 226 262 314
#     4  11  22  35  53  79 111 146 183 224 270 324
#     4  11  20  34  56  80 111 143 186 221 277 324
#     4  10  19  33  57  83 109 142 181 224 272 326
#     4  10  21  34  52  78 107 143 185 231 274 325
#     4  10  21  36  55  82 115 142 174 225 283 326
#     4   9  19  36  57  77 102 142 190 224 262 321
#
# _framework density 17.595545000000001
#
# number of rings (size 3 to 8) (size 9 to 14) (size 15 to 20)
#    0.000    2.000    2.500    1.500    0.000    5.000 
#    0.000    1.250    0.000    0.000    0.000    0.000 
#    0.000    0.000    0.000    0.000    0.000    0.000 
#
# Total GULP energy -178303.481139 kJ/mol
# GULP energy per Si atom -5571.983786 kJ/mol
# Density = 1.755550 g / cm^3
# Si number density = 17.595545 Si / 1000 Ang^3
#
#
#
# Elastic Constant Matrix: (Units=GPa)
#
#
# Indices 1 2 3 4 5 6 
#
# 1 98.3196 58.1908 26.2101 0.0000 -0.5693 0.0000
# 2 58.1908 93.3938 21.8843 0.0000 10.8691 0.0000
# 3 26.2101 21.8843 40.3641 0.0000 9.8856 0.0000
# 4 0.0000 0.0000 0.0000 19.5436 0.0000 4.2490
# 5 -0.5693 10.8691 9.8856 0.0000 27.1587 0.0000
# 6 0.0000 0.0000 0.0000 4.2490 0.0000 26.5701
#
#
#
# Elastic Compliance Matrix: (Units=1/GPa)
#
#
# Indices 1 2 3 4 5 6 
#
# 1 0.018690 -0.010599 -0.008261 0.000000 0.007641 0.000000
# 2 -0.010599 0.018463 -0.001388 0.000000 -0.007106 0.000000
# 3 -0.008261 -0.001388 0.033812 0.000000 -0.011925 0.000000
# 4 0.000000 0.000000 0.000000 0.053011 0.000000 -0.008477
# 5 0.007641 -0.007106 -0.011925 0.000000 0.044165 0.000000
# 6 0.000000 0.000000 0.000000 -0.008477 0.000000 0.038992
#
#
# Mechanical properties :
#
#
# Convention : Reuss Voigt Hill
#
# Bulk Modulus (GPa) = 32.81916 49.40532 41.11224
# Shear Modulus (GPa) = 19.39593 23.04063 21.21828
#
# Velocity S-wave (km/s) = 3.32372 3.62257 3.47636
# Velocity P-wave (km/s) = 5.78117 6.75549 6.28723
#
# Compressibility (1/GPa) = 0.03047000
#
# Stress axis : x y z
#
# Youngs Moduli (GPa) = 53.50342 54.16154 29.57536
#
# Poissons Ratio (x) = 0.57405 0.24433
# Poissons Ratio (y) = 0.56707 0.04104
# Poissons Ratio (z) = 0.44201 0.07516
#
# Static dielectric constant tensor:
#      x y z
#    x 1.597630 0.000000 -0.003730 
#    y 0.000000 1.609600 0.000000 
#    z -0.003730 0.000000 1.611650 
# 
# From -- ./inp_files/43159.got.cif
#   From: 2010.05.17/outbox.cif.g08.bks.cpg/sg11_22_cif.got.tgz:43159.got - 2010.06.03 12:22:45.
