data_PCOD9159100
_publ_section_title
;
Structure prediction by ZEFSAII (Michael W. Deem and Ramdas Pophale) SiO2 
 PCOD9159100
Probable space group: P 21/M
;
_chemical_formula_sum "Si O2"
_cell_formula_units_Z 32
_cell_length_a 19.952667
_cell_length_b 9.682670
_cell_length_c 10.351997
_cell_angle_alpha 90.000000
_cell_angle_beta 131.269102
_cell_angle_gamma 90.000000
_cell_volume 1503.206062
_symmetry_space_group_name_H-M "P 21/M"
_symmetry_group_IT_number 11
_symmetry_cell_setting 'monoclinic'
loop_
_space_group_symop_operation_xyz
x,y,z
-x,1/2+y,-z
-x,-y,-z
x,1/2-y,z
loop_
_atom_site_type_symbol
_atom_site_label
_atom_site_fract_x
_atom_site_fract_y
_atom_site_fract_z
Si Si1 0.252207 0.591530 0.246857
Si Si2 0.298728 0.592217 0.733840
Si Si3 0.859342 0.461660 0.281152
Si Si4 0.182979 0.087269 0.381249
Si Si5 0.539949 0.088660 0.431616
Si Si6 0.262426 0.393220 0.031330
Si Si7 0.029605 0.097769 0.367233
Si Si8 0.429546 0.092209 0.051779
O O1 0.222815 0.750000 0.212774
O O2 0.194877 0.491142 0.262689
O O3 0.353810 0.583690 0.426210
O O4 0.256507 0.527759 0.110380
O O5 0.314241 0.750000 0.707176
O O6 0.229300 0.602622 0.767449
O O7 0.246361 0.495050 0.564605
O O8 0.389153 0.515329 0.896722
O O9 0.925994 0.483962 0.484661
O O10 0.923758 0.403165 0.251612
O O11 0.820520 0.600115 0.170398
O O12 0.207038 0.250000 0.407842
O O13 0.080032 0.077873 0.296803
O O14 0.512674 0.250000 0.412752
O O15 0.508578 0.044889 0.248044
O O16 0.500000 0.000000 0.500000
O O17 0.262856 0.250000 0.108950
O O18 0.349536 0.396944 0.054673
O O19 0.059570 0.250000 0.449797
O O20 0.444977 0.250000 0.022174
#
# Coordination Sequence:
#
# PCOD9159100 Si02
#       8
#     4   4   4   4   4   4   4   4
#     4  11  23  37  55  79 108 140 180 225 267 313
#     4  10  19  32  54  83 112 139 173 220 270 315
#     4   9  18  31  52  83 113 137 171 219 271 315
#     4  10  21  38  57  75 103 146 187 217 261 324
#     4  10  20  35  55  81 109 139 175 220 268 317
#     4  10  19  33  54  79 110 144 178 214 264 323
#     4   9  17  32  54  79 106 139 177 218 263 317
#     4   9  18  33  53  79 110 140 172 214 265 320
#
# _framework density 21.287832999999999
#
# number of rings (size 3 to 8) (size 9 to 14) (size 15 to 20)
#    0.000    2.250    1.250    1.875    0.000    6.500 
#    0.000    3.125    0.000    0.000    0.000    0.000 
#    0.000    0.000    0.000    0.000    0.000    0.000 
#
# Total GULP energy -178219.550802 kJ/mol
# GULP energy per Si atom -5569.360963 kJ/mol
# Density = 2.123938 g / cm^3
# Si number density = 21.287833 Si / 1000 Ang^3
#
#
#
# Elastic Constant Matrix: (Units=GPa)
#
#
# Indices 1 2 3 4 5 6 
#
# 1 47.7524 20.0526 -7.5795 0.0000 -8.4966 0.0000
# 2 20.0526 112.5042 0.2038 0.0000 -8.9877 0.0000
# 3 -7.5795 0.2038 27.5729 0.0000 5.0382 0.0000
# 4 0.0000 0.0000 0.0000 35.7400 0.0000 10.8344
# 5 -8.4966 -8.9877 5.0382 0.0000 20.0581 0.0000
# 6 0.0000 0.0000 0.0000 10.8344 0.0000 41.5055
#
#
#
# Elastic Compliance Matrix: (Units=1/GPa)
#
#
# Indices 1 2 3 4 5 6 
#
# 1 0.024732 -0.003828 0.005477 0.000000 0.007385 0.000000
# 2 -0.003828 0.009831 -0.001712 0.000000 0.003213 0.000000
# 3 0.005477 -0.001712 0.039306 0.000000 -0.008320 0.000000
# 4 0.000000 0.000000 0.000000 0.030384 0.000000 -0.007931
# 5 0.007385 0.003213 -0.008320 0.000000 0.056513 0.000000
# 6 0.000000 0.000000 0.000000 -0.007931 0.000000 0.026164
#
#
# Mechanical properties :
#
#
# Convention : Reuss Voigt Hill
#
# Bulk Modulus (GPa) = 13.56051 23.68702 18.62377
# Shear Modulus (GPa) = 23.62533 31.13756 27.38144
#
# Velocity S-wave (km/s) = 3.33499 3.82867 3.59032
# Velocity P-wave (km/s) = 4.60580 5.54041 5.09458
#
# Compressibility (1/GPa) = 0.07374354
#
# Stress axis : x y z
#
# Youngs Moduli (GPa) = 40.43270 101.72209 25.44132
#
# Poissons Ratio (x) = 0.38941 -0.13935
# Poissons Ratio (y) = 0.15478 0.04356
# Poissons Ratio (z) = -0.22147 0.17417
#
# Static dielectric constant tensor:
#      x y z
#    x 1.821200 0.000000 -0.001070 
#    y 0.000000 1.699380 0.000000 
#    z -0.001070 0.000000 1.789490 
# 
# From -- ./inp_files/42853.got.cif
#   From: 2010.05.17/outbox.cif.g08.bks.cpg/sg11_22_cif.got.tgz:42853.got - 2010.06.03 12:22:45.
