data_PCOD9159640
_publ_section_title
;
Structure prediction by ZEFSAII (Michael W. Deem and Ramdas Pophale) SiO2 
 PCOD9159640
Probable space group: P 21/M
;
_chemical_formula_sum "Si O2"
_cell_formula_units_Z 28
_cell_length_a 16.601907
_cell_length_b 9.916699
_cell_length_c 8.993711
_cell_angle_alpha 90.000000
_cell_angle_beta 66.877291
_cell_angle_gamma 90.000000
_cell_volume 1361.739800
_symmetry_space_group_name_H-M "P 21/M"
_symmetry_group_IT_number 11
_symmetry_cell_setting 'monoclinic'
loop_
_space_group_symop_operation_xyz
x,y,z
-x,1/2+y,-z
-x,-y,-z
x,1/2-y,z
loop_
_atom_site_type_symbol
_atom_site_label
_atom_site_fract_x
_atom_site_fract_y
_atom_site_fract_z
Si Si1 0.371654 0.093605 0.683633
Si Si2 0.219597 0.099843 0.039173
Si Si3 0.710216 0.400440 0.488825
Si Si4 0.643315 0.495038 0.839702
Si Si5 0.072018 0.908268 0.249635
Si Si6 0.090200 0.906144 0.592948
Si Si7 0.472592 0.897706 0.811371
O O1 0.392325 0.250000 0.643127
O O2 0.344722 0.011827 0.557994
O O3 0.448715 0.015938 0.714328
O O4 0.286162 0.087003 0.853054
O O5 0.180326 0.250000 0.065974
O O6 0.281652 0.083579 0.138605
O O7 0.147029 0.984554 0.103117
O O8 0.694110 0.250000 0.440674
O O9 0.683550 0.406140 0.680477
O O10 0.813904 0.428946 0.408841
O O11 0.565684 0.581039 0.822086
O O12 0.598364 0.411190 0.004574
O O13 0.065714 0.750000 0.218671
O O14 0.094788 0.920141 0.409689
O O15 0.981181 0.988576 0.297354
O O16 0.064641 0.750000 0.640408
O O17 0.466581 0.750000 0.746738
#
# Coordination Sequence:
#
# PCOD9159640 Si02
#       7
#     4   4   4   4   4   4   4
#     4  10  24  41  57  82 118 155 194 237 286 341
#     4  10  20  37  59  84 115 153 191 235 286 337
#     4  11  22  39  61  86 115 152 191 235 286 340
#     4  10  21  36  61  91 116 143 191 243 287 338
#     4  10  19  33  56  87 117 147 187 234 284 335
#     4   9  19  35  54  84 119 147 183 232 286 338
#     4  10  21  39  62  87 115 151 192 237 288 343
#
# _framework density 20.561933
#
# number of rings (size 3 to 8) (size 9 to 14) (size 15 to 20)
#    0.000    2.000    1.429    1.714    0.000    9.714 
#    0.000    0.714    0.000    0.000    0.000    0.000 
#    0.000    0.000    0.000    0.000    0.000    0.000 
#
# Total GULP energy -156440.251111 kJ/mol
# GULP energy per Si atom -5587.151825 kJ/mol
# Density = 2.051513 g / cm^3
# Si number density = 20.561933 Si / 1000 Ang^3
#
#
#
# Elastic Constant Matrix: (Units=GPa)
#
#
# Indices 1 2 3 4 5 6 
#
# 1 56.5727 39.6616 22.4441 0.0000 -4.9845 0.0000
# 2 39.6616 138.6133 34.8958 0.0000 -7.9956 0.0000
# 3 22.4441 34.8958 56.0503 0.0000 -3.0631 0.0000
# 4 0.0000 0.0000 0.0000 1.1934 0.0000 18.8618
# 5 -4.9845 -7.9956 -3.0631 0.0000 28.4671 0.0000
# 6 0.0000 0.0000 0.0000 18.8618 0.0000 10.0801
#
#
#
# Elastic Compliance Matrix: (Units=1/GPa)
#
#
# Indices 1 2 3 4 5 6 
#
# 1 0.023963 -0.005158 -0.006271 0.000000 0.002072 0.000000
# 2 -0.005158 0.009763 -0.003935 0.000000 0.001415 0.000000
# 3 -0.006271 -0.003935 0.022816 0.000000 0.000252 0.000000
# 4 0.000000 0.000000 0.000000 -0.029325 0.000000 0.054873
# 5 0.002072 0.001415 0.000252 0.000000 0.035916 0.000000
# 6 0.000000 0.000000 0.000000 0.054873 0.000000 -0.003472
#
#
# Mechanical properties :
#
#
# Convention : Reuss Voigt Hill
#
# Bulk Modulus (GPa) = 38.74010 49.47105 44.10558
# Shear Modulus (GPa) = 50.50827 18.23042 34.36935
#
# Velocity S-wave (km/s) = 4.96158 2.98083 4.09284
# Velocity P-wave (km/s) = 7.19059 5.99657 6.62056
#
# Compressibility (1/GPa) = 0.02581305
#
# Stress axis : x y z
#
# Youngs Moduli (GPa) = 41.73067 102.43178 43.82930
#
# Poissons Ratio (x) = 0.52839 0.27484
# Poissons Ratio (y) = 0.21526 0.17247
# Poissons Ratio (z) = 0.26168 0.40308
#
# Static dielectric constant tensor:
#      x y z
#    x 1.700770 0.000000 -0.006750 
#    y 0.000000 1.711330 0.000000 
#    z -0.006750 0.000000 1.742250 
# 
# From -- ./inp_files/21415.got.cif
#   From: 2010.05.17/outbox.cif.g08.bks.cpg/sg11_11_cif.got.tgz:21415.got - 2010.06.03 12:22:45.
