data_PCOD9159210
_publ_section_title
;
Structure prediction by ZEFSAII (Michael W. Deem and Ramdas Pophale) SiO2 
 PCOD9159210
Probable space group: P 21/M
;
_chemical_formula_sum "Si O2"
_cell_formula_units_Z 24
_cell_length_a 14.457121
_cell_length_b 7.614850
_cell_length_c 16.948720
_cell_angle_alpha 90.000000
_cell_angle_beta 152.360807
_cell_angle_gamma 90.000000
_cell_volume 865.578463
_symmetry_space_group_name_H-M "P 21/M"
_symmetry_group_IT_number 11
_symmetry_cell_setting 'monoclinic'
loop_
_space_group_symop_operation_xyz
x,y,z
-x,1/2+y,-z
-x,-y,-z
x,1/2-y,z
loop_
_atom_site_type_symbol
_atom_site_label
_atom_site_fract_x
_atom_site_fract_y
_atom_site_fract_z
Si Si1 0.887143 0.965952 0.616420
Si Si2 0.498504 0.042540 0.598507
Si Si3 0.725962 0.052495 0.157444
Si Si4 0.705129 0.956307 0.309983
Si Si5 0.098709 0.960942 0.160380
Si Si6 0.303962 0.460550 0.082439
O O1 0.884643 0.750000 0.618534
O O2 0.724757 0.032494 0.557100
O O3 0.794827 0.012890 0.461037
O O4 0.111329 0.038100 0.775544
O O5 0.484042 0.250000 0.573814
O O6 0.673818 0.967922 0.674493
O O7 0.597740 0.022739 0.760729
O O8 0.722810 0.250000 0.127564
O O9 0.796299 0.046460 0.302123
O O10 0.500000 0.000000 0.000000
O O11 0.736037 0.750000 0.323121
O O12 0.466137 0.986271 0.139888
O O13 0.111051 0.750000 0.176503
O O14 0.925553 0.028769 0.088837
O O15 0.000000 0.000000 0.000000
O O16 0.296094 0.250000 0.077938
#
# Coordination Sequence:
#
# PCOD9159210 Si02
#       6
#     4   4   4   4   4   4
#     4   8  16  30  50  72  95 122 156 192 230 273
#     4   8  13  24  40  61  89 122 154 186 222 267
#     4  11  22  36  51  70  94 122 154 193 236 282
#     4  10  19  33  51  71  93 123 158 194 232 274
#     4   8  13  20  34  57  89 122 150 179 219 265
#     4   9  15  23  37  63  94 123 151 184 224 269
#
# _framework density 27.727125000000001
#
# number of rings (size 3 to 8) (size 9 to 14) (size 15 to 20)
#    0.000    3.000    0.000    3.000    0.000    0.667 
#    0.000    7.500    0.000    0.000    0.000    1.167 
#    0.000    0.000    0.000    0.000    0.000    0.000 
#
# Total GULP energy -134198.890450 kJ/mol
# GULP energy per Si atom -5591.620435 kJ/mol
# Density = 2.766402 g / cm^3
# Si number density = 27.727125 Si / 1000 Ang^3
#
#
#
# Elastic Constant Matrix: (Units=GPa)
#
#
# Indices 1 2 3 4 5 6 
#
# 1 208.3394 4.2918 62.3228 0.0000 62.6996 0.0000
# 2 4.2918 100.3325 17.2176 0.0000 -4.6755 0.0000
# 3 62.3228 17.2176 204.7228 0.0000 69.1319 0.0000
# 4 0.0000 0.0000 0.0000 24.3037 0.0000 -8.2345
# 5 62.6996 -4.6755 69.1319 0.0000 68.3996 0.0000
# 6 0.0000 0.0000 0.0000 -8.2345 0.0000 32.3806
#
#
#
# Elastic Compliance Matrix: (Units=1/GPa)
#
#
# Indices 1 2 3 4 5 6 
#
# 1 0.006664 -0.000604 0.000150 0.000000 -0.006302 0.000000
# 2 -0.000604 0.010424 -0.001701 0.000000 0.002986 0.000000
# 3 0.000150 -0.001701 0.007694 0.000000 -0.008030 0.000000
# 4 0.000000 0.000000 0.000000 0.045026 0.000000 0.011450
# 5 -0.006302 0.002986 -0.008030 0.000000 0.028716 0.000000
# 6 0.000000 0.000000 0.000000 0.011450 0.000000 0.033795
#
#
# Mechanical properties :
#
#
# Convention : Reuss Voigt Hill
#
# Bulk Modulus (GPa) = 48.85015 75.67325 62.26170
# Shear Modulus (GPa) = 34.85497 53.65427 44.25462
#
# Velocity S-wave (km/s) = 3.54937 4.40373 3.99943
# Velocity P-wave (km/s) = 5.86973 7.29442 6.62051
#
# Compressibility (1/GPa) = 0.02047077
#
# Stress axis : x y z
#
# Youngs Moduli (GPa) = 150.06306 95.93501 129.97910
#
# Poissons Ratio (x) = 0.05799 -0.01952
# Poissons Ratio (y) = 0.09071 0.22108
# Poissons Ratio (z) = -0.02253 0.16317
#
# Static dielectric constant tensor:
#      x y z
#    x 2.253020 0.000000 -0.010090 
#    y 0.000000 1.900340 0.000000 
#    z -0.010090 0.000000 2.401010 
# 
# From -- ./inp_files/25731.got.cif
#   From: 2010.05.17/outbox.cif.g08.bks.cpg/sg11_13_cif.got.tgz:25731.got - 2010.06.03 12:22:45.
