data_PCOD9159978
_publ_section_title
;
Structure prediction by ZEFSAII (Michael W. Deem and Ramdas Pophale) SiO2 
 PCOD9159978
Probable space group: P 21/M
;
_chemical_formula_sum "Si O2"
_cell_formula_units_Z 28
_cell_length_a 26.672911
_cell_length_b 10.069232
_cell_length_c 8.140241
_cell_angle_alpha 90.000000
_cell_angle_beta 138.555301
_cell_angle_gamma 90.000000
_cell_volume 1447.086015
_symmetry_space_group_name_H-M "P 21/M"
_symmetry_group_IT_number 11
_symmetry_cell_setting 'monoclinic'
loop_
_space_group_symop_operation_xyz
x,y,z
-x,1/2+y,-z
-x,-y,-z
x,1/2-y,z
loop_
_atom_site_type_symbol
_atom_site_label
_atom_site_fract_x
_atom_site_fract_y
_atom_site_fract_z
Si Si1 0.074478 0.106578 0.824046
Si Si2 0.920543 0.106761 0.651181
Si Si3 0.572098 0.908070 0.708958
Si Si4 0.829909 0.098617 0.111381
Si Si5 0.837229 0.602598 0.636145
Si Si6 0.330806 0.089476 0.734652
Si Si7 0.688400 0.592205 0.689595
O O1 0.072649 0.250000 0.729020
O O2 0.997089 0.095956 0.735113
O O3 0.096343 0.976739 0.778620
O O4 0.141833 0.114715 0.122252
O O5 0.923267 0.250000 0.744643
O O6 0.849876 0.106454 0.352179
O O7 0.903271 0.985282 0.724123
O O8 0.553481 0.750000 0.673455
O O9 0.629151 0.923027 0.693950
O O10 0.500000 0.000000 0.500000
O O11 0.611085 0.948560 0.978736
O O12 0.821411 0.250000 0.028774
O O13 0.758459 0.005243 0.899713
O O14 0.837250 0.750000 0.561104
O O15 0.753451 0.542770 0.421313
O O16 0.327323 0.250000 0.731512
O O17 0.343273 0.057755 0.571864
O O18 0.710032 0.750000 0.739979
#
# Coordination Sequence:
#
# PCOD9159978 Si02
#       7
#     4   4   4   4   4   4   4
#     4  10  20  36  55  75 106 149 194 237 284 344
#     4  10  22  35  49  76 113 149 187 240 297 341
#     4  10  22  39  62  90 119 150 183 225 280 340
#     4  11  22  35  53  81 114 146 187 240 291 337
#     4  10  19  34  57  80 103 142 195 240 280 334
#     4   9  18  36  60  86 113 146 193 236 272 336
#     4  10  20  39  64  84 112 155 193 231 282 337
#
# _framework density 19.349229999999999
#
# number of rings (size 3 to 8) (size 9 to 14) (size 15 to 20)
#    0.000    2.000    1.429    2.143    0.000    4.571 
#    0.000    1.429    0.000    0.000    0.000    0.000 
#    0.000    0.000    0.000    0.000    0.000    0.000 
#
# Total GULP energy -156001.239228 kJ/mol
# GULP energy per Si atom -5571.472830 kJ/mol
# Density = 1.930519 g / cm^3
# Si number density = 19.349230 Si / 1000 Ang^3
#
#
#
# Elastic Constant Matrix: (Units=GPa)
#
#
# Indices 1 2 3 4 5 6 
#
# 1 66.0259 50.1329 24.2109 0.0000 1.0819 0.0000
# 2 50.1329 104.2739 31.7332 0.0000 3.6305 0.0000
# 3 24.2109 31.7332 115.1052 0.0000 1.7369 0.0000
# 4 0.0000 0.0000 0.0000 8.9942 0.0000 12.8223
# 5 1.0819 3.6305 1.7369 0.0000 18.5666 0.0000
# 6 0.0000 0.0000 0.0000 12.8223 0.0000 20.8999
#
#
#
# Elastic Compliance Matrix: (Units=1/GPa)
#
#
# Indices 1 2 3 4 5 6 
#
# 1 0.024310 -0.011091 -0.002070 0.000000 0.000946 0.000000
# 2 -0.011091 0.015587 -0.001931 0.000000 -0.002221 0.000000
# 3 -0.002070 -0.001931 0.009662 0.000000 -0.000406 0.000000
# 4 0.000000 0.000000 0.000000 0.886798 0.000000 -0.544058
# 5 0.000946 -0.002221 -0.000406 0.000000 0.054277 0.000000
# 6 0.000000 0.000000 0.000000 -0.544058 0.000000 0.381632
#
#
# Mechanical properties :
#
#
# Convention : Reuss Voigt Hill
#
# Bulk Modulus (GPa) = 51.61126 55.28432 53.44779
# Shear Modulus (GPa) = 3.54885 21.64733 12.59809
#
# Velocity S-wave (km/s) = 1.35576 3.34843 2.55441
# Velocity P-wave (km/s) = 5.40206 6.60176 6.03181
#
# Compressibility (1/GPa) = 0.01937562
#
# Stress axis : x y z
#
# Youngs Moduli (GPa) = 41.13470 64.15440 103.50296
#
# Poissons Ratio (x) = 0.71153 0.21425
# Poissons Ratio (y) = 0.45622 0.19986
# Poissons Ratio (z) = 0.08515 0.12388
#
# Static dielectric constant tensor:
#      x y z
#    x 1.680950 0.000000 -0.019850 
#    y 0.000000 1.714660 0.000000 
#    z -0.019850 0.000000 1.707430 
# 
# From -- ./inp_files/28581.got.cif
#   From: 2010.05.17/outbox.cif.g08.bks.cpg/sg11_15_cif.got.tgz:28581.got - 2010.06.03 12:22:45.
