data_PCOD9159389
_publ_section_title
;
Structure prediction by ZEFSAII (Michael W. Deem and Ramdas Pophale) SiO2 
 PCOD9159389
Probable space group: P 21/M
;
_chemical_formula_sum "Si O2"
_cell_formula_units_Z 24
_cell_length_a 5.157915
_cell_length_b 19.675450
_cell_length_c 15.532242
_cell_angle_alpha 90.000000
_cell_angle_beta 57.914814
_cell_angle_gamma 90.000000
_cell_volume 1335.516757
_symmetry_space_group_name_H-M "P 21/M"
_symmetry_group_IT_number 11
_symmetry_cell_setting 'monoclinic'
loop_
_space_group_symop_operation_xyz
x,y,z
-x,1/2+y,-z
-x,-y,-z
x,1/2-y,z
loop_
_atom_site_type_symbol
_atom_site_label
_atom_site_fract_x
_atom_site_fract_y
_atom_site_fract_z
Si Si1 0.955694 0.447203 0.384986
Si Si2 0.119751 0.671013 0.302526
Si Si3 0.772981 0.607205 0.203574
Si Si4 0.732565 0.907688 0.496787
Si Si5 0.233150 0.438057 0.972949
Si Si6 0.855285 0.520850 0.833426
O O1 0.631351 0.409581 0.439255
O O2 0.865498 0.525062 0.424877
O O3 0.151581 0.415375 0.426753
O O4 0.126644 0.448173 0.263909
O O5 0.199137 0.750000 0.285420
O O6 0.421262 0.628341 0.274907
O O7 0.978265 0.647721 0.235771
O O8 0.869245 0.654495 0.419288
O O9 0.838368 0.615540 0.089616
O O10 0.845410 0.527572 0.209019
O O11 0.571269 0.468563 0.896140
O O12 0.188884 0.424741 0.082008
O O13 0.000000 0.500000 0.000000
#
# Coordination Sequence:
#
# PCOD9159389 Si02
#       6
#     4   4   4   4   4   4
#     4  10  20  31  54  76 113 140 175 218 284 326
#     4  12  24  38  56  77 109 152 190 229 274 323
#     4  11  20  36  54  79 113 142 180 227 265 334
#     4  10  21  33  49  78 107 144 178 230 263 326
#     4   9  19  31  55  81 117 143 171 215 276 335
#     4  10  19  33  53  85 115 149 169 218 284 345
#
# _framework density 17.970573000000002
#
# number of rings (size 3 to 8) (size 9 to 14) (size 15 to 20)
#    0.000    1.667    3.333    1.500    9.333    0.000 
#    0.000    0.000    0.000    0.000    0.000    7.000 
#    0.000    0.000    0.000    0.000    0.000    0.000 
#
# Total GULP energy -133822.129549 kJ/mol
# GULP energy per Si atom -5575.922065 kJ/mol
# Density = 1.792967 g / cm^3
# Si number density = 17.970573 Si / 1000 Ang^3
#
#
#
# Elastic Constant Matrix: (Units=GPa)
#
#
# Indices 1 2 3 4 5 6 
#
# 1 84.4716 8.7851 23.7784 0.0000 -1.8001 0.0000
# 2 8.7851 22.4701 17.8193 0.0000 -5.4027 0.0000
# 3 23.7784 17.8193 120.5837 0.0000 22.0041 0.0000
# 4 0.0000 0.0000 0.0000 10.7521 0.0000 4.3124
# 5 -1.8001 -5.4027 22.0041 0.0000 33.1015 0.0000
# 6 0.0000 0.0000 0.0000 4.3124 0.0000 12.6462
#
#
#
# Elastic Compliance Matrix: (Units=1/GPa)
#
#
# Indices 1 2 3 4 5 6 
#
# 1 0.012854 -0.002565 -0.002511 0.000000 0.001950 0.000000
# 2 -0.002565 0.058443 -0.011205 0.000000 0.016848 0.000000
# 3 -0.002511 -0.011205 0.012294 0.000000 -0.010138 0.000000
# 4 0.000000 0.000000 0.000000 0.107740 0.000000 -0.036740
# 5 0.001950 0.016848 -0.010138 0.000000 0.039805 0.000000
# 6 0.000000 0.000000 0.000000 -0.036740 0.000000 0.091604
#
#
# Mechanical properties :
#
#
# Convention : Reuss Voigt Hill
#
# Bulk Modulus (GPa) = 19.59706 36.47675 28.03691
# Shear Modulus (GPa) = 13.42960 23.10946 18.26953
#
# Velocity S-wave (km/s) = 2.73666 3.58992 3.19193
# Velocity P-wave (km/s) = 4.57324 6.12581 5.40555
#
# Compressibility (1/GPa) = 0.05102806
#
# Stress axis : x y z
#
# Youngs Moduli (GPa) = 77.79947 17.11059 81.34028
#
# Poissons Ratio (x) = 0.04389 0.20428
# Poissons Ratio (y) = 0.19955 0.91143
# Poissons Ratio (z) = 0.19539 0.19173
#
# Static dielectric constant tensor:
#      x y z
#    x 1.691700 0.000000 0.015610 
#    y 0.000000 1.621960 0.000000 
#    z 0.015610 0.000000 1.665110 
# 
# From -- ./inp_files/46131.got.cif
#   From: 2010.05.17/outbox.cif.g08.bks.cpg/sg11_24_cif.got.tgz:46131.got - 2010.06.03 12:22:45.
