data_PCOD9159884
_publ_section_title
;
Structure prediction by ZEFSAII (Michael W. Deem and Ramdas Pophale) SiO2 
 PCOD9159884
Probable space group: P 21/M
;
_chemical_formula_sum "Si O2"
_cell_formula_units_Z 24
_cell_length_a 5.167256
_cell_length_b 22.903382
_cell_length_c 8.724967
_cell_angle_alpha 90.000000
_cell_angle_beta 79.995586
_cell_angle_gamma 90.000000
_cell_volume 1016.878221
_symmetry_space_group_name_H-M "P 21/M"
_symmetry_group_IT_number 11
_symmetry_cell_setting 'monoclinic'
loop_
_space_group_symop_operation_xyz
x,y,z
-x,1/2+y,-z
-x,-y,-z
x,1/2-y,z
loop_
_atom_site_type_symbol
_atom_site_label
_atom_site_fract_x
_atom_site_fract_y
_atom_site_fract_z
Si Si1 0.362661 0.816017 0.494871
Si Si2 0.982654 0.403241 0.038769
Si Si3 0.627159 0.507621 0.179374
Si Si4 0.796446 0.952377 0.470657
Si Si5 0.237660 0.603524 0.235856
Si Si6 0.203691 0.145956 0.315482
O O1 0.361249 0.750000 0.436081
O O2 0.405618 0.860244 0.344936
O O3 0.078615 0.831882 0.594640
O O4 0.571151 0.819618 0.614111
O O5 0.763424 0.444716 0.142356
O O6 0.147920 0.364166 0.141189
O O7 0.833751 0.367783 0.919432
O O8 0.183761 0.447354 0.932886
O O9 0.347827 0.539115 0.171781
O O10 0.617574 0.519129 0.361723
O O11 0.968378 0.906584 0.353985
O O12 0.721018 0.918497 0.629997
O O13 0.000000 0.000000 0.500000
#
# Coordination Sequence:
#
# PCOD9159884 Si02
#       6
#     4   4   4   4   4   4
#     4  11  25  46  68  88 117 163 220 274 317 362
#     4  10  22  35  59  93 134 164 197 250 312 386
#     4  10  19  36  56  90 134 168 203 235 312 385
#     4  10  19  34  55  91 129 166 208 242 304 379
#     4  10  22  37  60  89 125 173 208 255 311 379
#     4  11  23  41  67  94 124 162 207 266 315 368
#
# _framework density 23.601648000000001
#
# number of rings (size 3 to 8) (size 9 to 14) (size 15 to 20)
#    0.000    1.667    3.333    1.000    2.333    2.000 
#    0.000    1.667    0.000    0.000    0.000    0.000 
#    0.000    0.000    0.000    0.000    0.000    0.000 
#
# Total GULP energy -133683.099807 kJ/mol
# GULP energy per Si atom -5570.129159 kJ/mol
# Density = 2.354793 g / cm^3
# Si number density = 23.601648 Si / 1000 Ang^3
#
#
#
# Elastic Constant Matrix: (Units=GPa)
#
#
# Indices 1 2 3 4 5 6 
#
# 1 121.0954 10.9826 50.9198 0.0000 18.6917 0.0000
# 2 10.9826 71.4975 24.9378 0.0000 11.2010 0.0000
# 3 50.9198 24.9378 136.2480 0.0000 33.5063 0.0000
# 4 0.0000 0.0000 0.0000 20.3411 0.0000 0.0398
# 5 18.6917 11.2010 33.5063 0.0000 53.7046 0.0000
# 6 0.0000 0.0000 0.0000 0.0398 0.0000 -4.5034
#
#
#
# Elastic Compliance Matrix: (Units=1/GPa)
#
#
# Indices 1 2 3 4 5 6 
#
# 1 0.009880 -0.000145 -0.003340 0.000000 -0.001325 0.000000
# 2 -0.000145 0.015070 -0.002296 0.000000 -0.001660 0.000000
# 3 -0.003340 -0.002296 0.010164 0.000000 -0.004700 0.000000
# 4 0.000000 0.000000 0.000000 0.049161 0.000000 0.000435
# 5 -0.001325 -0.001660 -0.004700 0.000000 0.022360 0.000000
# 6 0.000000 0.000000 0.000000 0.000435 0.000000 -0.222048
#
#
# Mechanical properties :
#
#
# Convention : Reuss Voigt Hill
#
# Bulk Modulus (GPa) = 42.46003 55.83570 49.14787
# Shear Modulus (GPa) = -52.08250 30.04183 -11.02033
#
# Velocity S-wave (km/s) = -4.70268 3.57160 -2.16320
# Velocity P-wave (km/s) = 3.38491 6.38101 3.82490
#
# Compressibility (1/GPa) = 0.02355156
#
# Stress axis : x y z
#
# Youngs Moduli (GPa) = 101.21367 66.35864 98.38768
#
# Poissons Ratio (x) = 0.00963 0.32863
# Poissons Ratio (y) = 0.01469 0.22587
# Poissons Ratio (z) = 0.33807 0.15234
#
# Static dielectric constant tensor:
#      x y z
#    x 1.889820 0.000000 -0.033750 
#    y 0.000000 1.879030 0.000000 
#    z -0.033750 0.000000 1.955540 
# 
# From -- ./inp_files/2724.got.cif
#   From: 2010.05.17/outbox.cif.g08.bks.cpg/sg11_2_cif.got.tgz:2724.got - 2010.06.03 12:22:45.
