data_PCOD9159852
_publ_section_title
;
Structure prediction by ZEFSAII (Michael W. Deem and Ramdas Pophale) SiO2 
 PCOD9159852
Probable space group: P 21/M
;
_chemical_formula_sum "Si O2"
_cell_formula_units_Z 32
_cell_length_a 14.517680
_cell_length_b 12.850272
_cell_length_c 10.056784
_cell_angle_alpha 90.000000
_cell_angle_beta 121.348525
_cell_angle_gamma 90.000000
_cell_volume 1602.270944
_symmetry_space_group_name_H-M "P 21/M"
_symmetry_group_IT_number 11
_symmetry_cell_setting 'monoclinic'
loop_
_space_group_symop_operation_xyz
x,y,z
-x,1/2+y,-z
-x,-y,-z
x,1/2-y,z
loop_
_atom_site_type_symbol
_atom_site_label
_atom_site_fract_x
_atom_site_fract_y
_atom_site_fract_z
Si Si1 0.652370 0.555213 0.400444
Si Si2 0.421225 0.629633 0.153568
Si Si3 0.117865 0.068088 0.497950
Si Si4 0.105984 0.863789 0.302913
Si Si5 0.090006 0.450611 0.973607
Si Si6 0.723366 0.483223 0.737375
Si Si7 0.660409 0.132871 0.196733
Si Si8 0.887791 0.425828 0.266870
O O1 0.546084 0.618062 0.285358
O O2 0.765342 0.612110 0.448813
O O3 0.660026 0.524515 0.561122
O O4 0.649106 0.450691 0.305955
O O5 0.386722 0.750000 0.138748
O O6 0.353481 0.560637 0.206135
O O7 0.402077 0.599611 0.984841
O O8 0.006110 0.123092 0.376656
O O9 0.114063 0.959413 0.411191
O O10 0.112523 0.032125 0.645821
O O11 0.130556 0.750000 0.376973
O O12 0.194527 0.894305 0.257476
O O13 0.983373 0.866230 0.155977
O O14 0.124292 0.538244 0.892966
O O15 0.195815 0.429755 0.139860
O O16 0.000000 0.500000 0.000000
O O17 0.627282 0.250000 0.210331
O O18 0.785198 0.134259 0.243541
#
# Coordination Sequence:
#
# PCOD9159852 Si02
#       8
#     4   4   4   4   4   4   4   4
#     4  10  21  37  56  81 113 152 185 228 283 331
#     4  11  22  37  57  82 110 144 191 238 280 328
#     4   8  17  29  52  76 104 143 177 212 274 330
#     4   9  17  30  51  80 111 141 177 226 274 324
#     4   9  17  30  50  75 108 142 175 213 268 334
#     4  10  19  34  55  80 107 144 189 227 274 328
#     4  10  21  36  59  85 106 139 189 236 278 328
#     4   9  15  31  50  76 105 134 171 221 266 318
#
# _framework density 19.971654000000001
#
# number of rings (size 3 to 8) (size 9 to 14) (size 15 to 20)
#    0.000    2.500    1.250    1.875    0.000    5.000 
#    0.000    1.250    0.000   15.750    0.000    0.000 
#    0.000    0.000    0.000    0.000    0.000    0.000 
#
# Total GULP energy -178276.349979 kJ/mol
# GULP energy per Si atom -5571.135937 kJ/mol
# Density = 1.992620 g / cm^3
# Si number density = 19.971654 Si / 1000 Ang^3
#
#
#
# Elastic Constant Matrix: (Units=GPa)
#
#
# Indices 1 2 3 4 5 6 
#
# 1 60.9080 -3.1263 18.4238 0.0000 13.2170 0.0000
# 2 -3.1263 28.6021 4.5041 0.0000 -1.9050 0.0000
# 3 18.4238 4.5041 128.7834 0.0000 10.6429 0.0000
# 4 0.0000 0.0000 0.0000 8.0732 0.0000 0.4515
# 5 13.2170 -1.9050 10.6429 0.0000 43.0378 0.0000
# 6 0.0000 0.0000 0.0000 0.4515 0.0000 10.1943
#
#
#
# Elastic Compliance Matrix: (Units=1/GPa)
#
#
# Indices 1 2 3 4 5 6 
#
# 1 0.018288 0.002027 -0.002277 0.000000 -0.004964 0.000000
# 2 0.002027 0.035533 -0.001645 0.000000 0.001357 0.000000
# 3 -0.002277 -0.001645 0.008265 0.000000 -0.001418 0.000000
# 4 0.000000 0.000000 0.000000 0.124175 0.000000 -0.005500
# 5 -0.004964 0.001357 -0.001418 0.000000 0.025170 0.000000
# 6 0.000000 0.000000 0.000000 -0.005500 0.000000 0.098338
#
#
# Mechanical properties :
#
#
# Convention : Reuss Voigt Hill
#
# Bulk Modulus (GPa) = 17.15352 28.65518 22.90435
# Shear Modulus (GPa) = 15.01537 25.49384 20.25461
#
# Velocity S-wave (km/s) = 2.74493 3.57669 3.18805
# Velocity P-wave (km/s) = 4.31900 5.60679 5.00449
#
# Compressibility (1/GPa) = 0.05829708
#
# Stress axis : x y z
#
# Youngs Moduli (GPa) = 54.68045 28.14248 120.98633
#
# Poissons Ratio (x) = -0.05704 0.27548
# Poissons Ratio (y) = -0.11083 0.19901
# Poissons Ratio (z) = 0.12451 0.04629
#
# Static dielectric constant tensor:
#      x y z
#    x 1.722600 0.000000 0.023530 
#    y 0.000000 1.688890 0.000000 
#    z 0.023530 0.000000 1.760790 
# 
# From -- ./inp_files/22207.got.cif
#   From: 2010.05.17/outbox.cif.g08.bks.cpg/sg11_12_cif.got.tgz:22207.got - 2010.06.03 12:22:45.
