data_PCOD9159086
_publ_section_title
;
Structure prediction by ZEFSAII (Michael W. Deem and Ramdas Pophale) SiO2 
 PCOD9159086
Probable space group: P 21/M
;
_chemical_formula_sum "Si O2"
_cell_formula_units_Z 32
_cell_length_a 11.772889
_cell_length_b 9.051887
_cell_length_c 32.904806
_cell_angle_alpha 90.000000
_cell_angle_beta 150.407558
_cell_angle_gamma 90.000000
_cell_volume 1731.635516
_symmetry_space_group_name_H-M "P 21/M"
_symmetry_group_IT_number 11
_symmetry_cell_setting 'monoclinic'
loop_
_space_group_symop_operation_xyz
x,y,z
-x,1/2+y,-z
-x,-y,-z
x,1/2-y,z
loop_
_atom_site_type_symbol
_atom_site_label
_atom_site_fract_x
_atom_site_fract_y
_atom_site_fract_z
Si Si1 0.524624 0.576516 0.943079
Si Si2 0.589118 0.073313 0.256886
Si Si3 0.356143 0.073129 0.269540
Si Si4 0.128645 0.426483 0.422897
Si Si5 0.506378 0.927928 0.395211
Si Si6 0.430933 0.073522 0.833803
Si Si7 0.891965 0.073217 0.667868
Si Si8 0.862123 0.923699 0.123255
O O1 0.476543 0.750000 0.922944
O O2 0.566488 0.500759 0.912890
O O3 0.308364 0.496685 0.897128
O O4 0.734009 0.561590 0.039963
O O5 0.569715 0.250000 0.244338
O O6 0.453820 0.033886 0.255564
O O7 0.860277 0.039333 0.346980
O O8 0.506942 0.989233 0.191057
O O9 0.346402 0.250000 0.269454
O O10 0.512720 0.007928 0.354181
O O11 0.105307 0.003310 0.197383
O O12 0.151261 0.250000 0.425015
O O13 0.289163 0.469541 0.510412
O O14 0.194070 0.502268 0.400839
O O15 0.509561 0.750000 0.390668
O O16 0.269280 0.968737 0.344720
O O17 0.451909 0.250000 0.841422
O O18 0.160114 0.033570 0.756243
O O19 0.878884 0.250000 0.659905
O O20 0.890064 0.750000 0.141374
#
# Coordination Sequence:
#
# PCOD9159086 Si02
#       8
#     4   4   4   4   4   4   4   4
#     4  10  20  35  58  86 113 140 169 206 258 315
#     4   9  20  38  54  72 103 140 182 229 268 309
#     4  11  23  37  54  75 102 140 182 223 269 316
#     4   9  18  33  53  75 101 137 176 216 265 315
#     4  10  20  33  51  76 106 138 172 216 270 323
#     4  10  19  32  54  81 107 140 180 218 260 312
#     4   9  18  31  48  75 108 136 166 210 261 312
#     4  10  21  37  57  82 112 141 171 212 259 311
#
# _framework density 18.479638000000001
#
# number of rings (size 3 to 8) (size 9 to 14) (size 15 to 20)
#    0.000    2.250    0.000    2.625    0.000    5.500 
#    0.000    0.625    0.000    0.000    0.000    0.000 
#    0.000    0.000    0.000    0.000    0.000    0.000 
#
# Total GULP energy -178697.119255 kJ/mol
# GULP energy per Si atom -5584.284977 kJ/mol
# Density = 1.843758 g / cm^3
# Si number density = 18.479638 Si / 1000 Ang^3
#
#
#
# Elastic Constant Matrix: (Units=GPa)
#
#
# Indices 1 2 3 4 5 6 
#
# 1 72.5365 33.4215 33.3818 0.0000 -30.8112 0.0000
# 2 33.4215 46.0191 33.5891 0.0000 -21.1212 0.0000
# 3 33.3818 33.5891 51.9921 0.0000 -28.5776 0.0000
# 4 0.0000 0.0000 0.0000 29.8416 0.0000 -8.9620
# 5 -30.8112 -21.1212 -28.5776 0.0000 29.8685 0.0000
# 6 0.0000 0.0000 0.0000 -8.9620 0.0000 27.2267
#
#
#
# Elastic Compliance Matrix: (Units=1/GPa)
#
#
# Indices 1 2 3 4 5 6 
#
# 1 0.027523 -0.010994 0.001611 0.000000 0.022158 0.000000
# 2 -0.010994 0.046374 -0.023433 0.000000 -0.000969 0.000000
# 3 0.001611 -0.023433 0.053034 0.000000 0.035834 0.000000
# 4 0.000000 0.000000 0.000000 0.037186 0.000000 0.012240
# 5 0.022158 -0.000969 0.035834 0.000000 0.089937 0.000000
# 6 0.000000 0.000000 0.000000 0.012240 0.000000 0.040758
#
#
# Mechanical properties :
#
#
# Convention : Reuss Voigt Hill
#
# Bulk Modulus (GPa) = 16.31382 41.25918 28.78650
# Shear Modulus (GPa) = 13.12764 22.06437 17.59600
#
# Velocity S-wave (km/s) = 2.66819 3.45915 3.08909
# Velocity P-wave (km/s) = 4.28247 6.19109 5.32302
#
# Compressibility (1/GPa) = 0.06129774
#
# Stress axis : x y z
#
# Youngs Moduli (GPa) = 36.33390 21.56399 18.85591
#
# Poissons Ratio (x) = 0.23708 -0.03038
# Poissons Ratio (y) = 0.39947 0.44185
# Poissons Ratio (z) = -0.05854 0.50530
#
# Static dielectric constant tensor:
#      x y z
#    x 1.616520 0.000000 -0.000610 
#    y 0.000000 1.610140 0.000000 
#    z -0.000610 0.000000 1.646030 
# 
# From -- ./inp_files/73158.got.cif
#   From: 2010.05.17/outbox.cif.g08.bks.cpg/sg11_37_cif.got.tgz:73158.got - 2010.06.03 12:22:45.
