data_PCOD9159090
_publ_section_title
;
Structure prediction by ZEFSAII (Michael W. Deem and Ramdas Pophale) SiO2 
 PCOD9159090
Probable space group: P 21/M
;
_chemical_formula_sum "Si O2"
_cell_formula_units_Z 24
_cell_length_a 13.547327
_cell_length_b 7.825243
_cell_length_c 30.243595
_cell_angle_alpha 90.000000
_cell_angle_beta 20.113903
_cell_angle_gamma 90.000000
_cell_volume 1102.557694
_symmetry_space_group_name_H-M "P 21/M"
_symmetry_group_IT_number 11
_symmetry_cell_setting 'monoclinic'
loop_
_space_group_symop_operation_xyz
x,y,z
-x,1/2+y,-z
-x,-y,-z
x,1/2-y,z
loop_
_atom_site_type_symbol
_atom_site_label
_atom_site_fract_x
_atom_site_fract_y
_atom_site_fract_z
Si Si1 0.589749 0.750000 0.105011
Si Si2 0.110700 0.250000 0.502428
Si Si3 0.894084 0.447564 0.329009
Si Si4 0.389034 0.944167 0.738381
Si Si5 0.584150 0.438169 0.045763
Si Si6 0.421567 0.250000 0.788782
Si Si7 0.065626 0.955977 0.785214
Si Si8 0.890811 0.750000 0.394711
O O1 0.678023 0.583074 0.040583
O O2 0.678281 0.750000 0.118608
O O3 0.239150 0.750000 0.251016
O O4 0.271013 0.411008 0.412680
O O5 0.771079 0.250000 0.642408
O O6 0.208076 0.250000 0.513085
O O7 0.805547 0.250000 0.373392
O O8 0.243215 0.448322 0.182753
O O9 0.823165 0.509753 0.309364
O O10 0.801004 0.582117 0.405199
O O11 0.283807 0.750000 0.792675
O O12 0.260403 0.000154 0.745399
O O13 0.331557 0.081493 0.799924
O O14 0.652889 0.250000 0.034032
O O15 0.757074 0.468715 0.927987
O O16 0.041091 0.750000 0.793264
#
# Coordination Sequence:
#
# PCOD9159090 Si02
#       8
#     2   2   4   4   4   2   4   2
#     4   9  20  35  52  80 109 137 174 231 269 300
#     4   9  20  41  58  82 104 131 176 235 274 318
#     4   9  19  32  52  83 110 147 182 209 252 310
#     4   9  22  37  57  81 106 134 179 222 279 315
#     4  10  19  32  54  81 110 147 184 208 253 313
#     4  11  20  39  64  78 100 135 182 227 276 330
#     4  10  19  35  55  76 118 144 175 223 254 307
#     4   9  18  35  54  76 113 137 174 225 267 310
#
# _framework density 21.767567
#
# number of rings (size 3 to 8) (size 9 to 14) (size 15 to 20)
#    0.500    2.000    0.833    1.000    2.333    0.667 
#    1.500    3.333    0.000    0.000    0.000    0.000 
#    0.000    0.000    0.000    0.000    0.000    0.000 
#
# Total GULP energy -134048.622785 kJ/mol
# GULP energy per Si atom -5585.359283 kJ/mol
# Density = 2.171802 g / cm^3
# Si number density = 21.767567 Si / 1000 Ang^3
#
#
#
# Elastic Constant Matrix: (Units=GPa)
#
#
# Indices 1 2 3 4 5 6 
#
# 1 133.2123 76.6683 4.3895 0.0000 20.1379 0.0000
# 2 76.6683 112.3150 10.2698 0.0000 18.0425 0.0000
# 3 4.3895 10.2698 50.2472 0.0000 -8.5957 0.0000
# 4 0.0000 0.0000 0.0000 14.9466 0.0000 -1.8508
# 5 20.1379 18.0425 -8.5957 0.0000 32.2736 0.0000
# 6 0.0000 0.0000 0.0000 -1.8508 0.0000 23.8438
#
#
#
# Elastic Compliance Matrix: (Units=1/GPa)
#
#
# Indices 1 2 3 4 5 6 
#
# 1 0.012691 -0.008116 -0.000030 0.000000 -0.003390 0.000000
# 2 -0.008116 0.015448 -0.003205 0.000000 -0.004426 0.000000
# 3 -0.000030 -0.003205 0.021865 0.000000 0.007634 0.000000
# 4 0.000000 0.000000 0.000000 0.067554 0.000000 0.005244
# 5 -0.003390 -0.004426 0.007634 0.000000 0.037608 0.000000
# 6 0.000000 0.000000 0.000000 0.005244 0.000000 0.042347
#
#
# Mechanical properties :
#
#
# Convention : Reuss Voigt Hill
#
# Bulk Modulus (GPa) = 36.62740 53.15887 44.89313
# Shear Modulus (GPa) = 21.80399 27.84258 24.82329
#
# Velocity S-wave (km/s) = 3.16836 3.58031 3.38061
# Velocity P-wave (km/s) = 5.49980 6.44714 5.99222
#
# Compressibility (1/GPa) = 0.02730197
#
# Stress axis : x y z
#
# Youngs Moduli (GPa) = 78.79419 64.73449 45.73455
#
# Poissons Ratio (x) = 0.52539 0.00136
# Poissons Ratio (y) = 0.63950 0.14660
# Poissons Ratio (z) = 0.00235 0.20750
#
# Static dielectric constant tensor:
#      x y z
#    x 1.777250 0.000000 -0.052620 
#    y 0.000000 1.760930 0.000000 
#    z -0.052620 0.000000 1.825300 
# 
# From -- ./inp_files/71220.got.cif
#   From: 2010.05.17/outbox.cif.g08.bks.cpg/sg11_36_cif.got.tgz:71220.got - 2010.06.03 12:22:45.
