data_PCOD9159961
_publ_section_title
;
Structure prediction by ZEFSAII (Michael W. Deem and Ramdas Pophale) SiO2 
 PCOD9159961
Probable space group: P 21/M
;
_chemical_formula_sum "Si O2"
_cell_formula_units_Z 28
_cell_length_a 12.325048
_cell_length_b 10.887480
_cell_length_c 10.714426
_cell_angle_alpha 90.000000
_cell_angle_beta 89.561554
_cell_angle_gamma 90.000000
_cell_volume 1437.712946
_symmetry_space_group_name_H-M "P 21/M"
_symmetry_group_IT_number 11
_symmetry_cell_setting 'monoclinic'
loop_
_space_group_symop_operation_xyz
x,y,z
-x,1/2+y,-z
-x,-y,-z
x,1/2-y,z
loop_
_atom_site_type_symbol
_atom_site_label
_atom_site_fract_x
_atom_site_fract_y
_atom_site_fract_z
Si Si1 0.395290 0.614908 0.078411
Si Si2 0.719771 0.109308 0.544396
Si Si3 0.408704 0.119698 0.394990
Si Si4 0.570871 0.466897 0.195504
Si Si5 0.207361 0.892333 0.728107
Si Si6 0.994990 0.892901 0.895925
Si Si7 0.771682 0.533171 0.776846
O O1 0.353210 0.750000 0.101674
O O2 0.494574 0.584020 0.170406
O O3 0.299236 0.520460 0.108779
O O4 0.435551 0.602709 0.936782
O O5 0.681272 0.250000 0.550063
O O6 0.623497 0.007394 0.536215
O O7 0.794241 0.095426 0.421428
O O8 0.782037 0.074051 0.671646
O O9 0.411303 0.250000 0.464744
O O10 0.514647 0.104461 0.309128
O O11 0.309129 0.122664 0.296429
O O12 0.697027 0.479812 0.223677
O O13 0.241287 0.750000 0.754014
O O14 0.095534 0.911324 0.800471
O O15 0.000901 0.750000 0.941789
O O16 0.882792 0.911376 0.822515
O O17 0.000000 0.000000 0.000000
#
# Coordination Sequence:
#
# PCOD9159961 Si02
#       7
#     4   4   4   4   4   4   4
#     4  10  19  34  56  84 114 151 198 245 291 341
#     4   9  20  37  59  85 112 152 200 238 283 345
#     4   9  18  33  54  82 114 149 189 237 290 336
#     4  10  20  32  54  82 113 155 192 235 291 354
#     4  10  21  39  59  83 118 155 195 238 293 350
#     4  11  24  42  64  89 118 154 192 240 295 350
#     4   9  20  35  61  81 112 147 195 237 286 339
#
# _framework density 19.475375
#
# number of rings (size 3 to 8) (size 9 to 14) (size 15 to 20)
#    0.857    1.429    0.000    3.000    0.000    3.429 
#    0.000    7.143    0.000    0.000    0.000    0.000 
#    0.000    0.000    0.000    0.000    0.000    0.000 
#
# Total GULP energy -155904.367726 kJ/mol
# GULP energy per Si atom -5568.013133 kJ/mol
# Density = 1.943105 g / cm^3
# Si number density = 19.475375 Si / 1000 Ang^3
#
#
#
# Elastic Constant Matrix: (Units=GPa)
#
#
# Indices 1 2 3 4 5 6 
#
# 1 117.6443 28.3016 30.5155 0.0000 -8.0102 0.0000
# 2 28.3016 115.6547 36.5711 0.0000 -20.6289 0.0000
# 3 30.5155 36.5711 76.4960 0.0000 -14.0947 0.0000
# 4 0.0000 0.0000 0.0000 12.1588 0.0000 -14.9961
# 5 -8.0102 -20.6289 -14.0947 0.0000 33.5557 0.0000
# 6 0.0000 0.0000 0.0000 -14.9961 0.0000 -2.7669
#
#
#
# Elastic Compliance Matrix: (Units=1/GPa)
#
#
# Indices 1 2 3 4 5 6 
#
# 1 0.009657 -0.001328 -0.003190 0.000000 0.000149 0.000000
# 2 -0.001328 0.011059 -0.003862 0.000000 0.004860 0.000000
# 3 -0.003190 -0.003862 0.016924 0.000000 0.003973 0.000000
# 4 0.000000 0.000000 0.000000 0.010703 0.000000 -0.058006
# 5 0.000149 0.004860 0.003973 0.000000 0.034493 0.000000
# 6 0.000000 0.000000 0.000000 -0.058006 0.000000 -0.047032
#
#
# Mechanical properties :
#
#
# Convention : Reuss Voigt Hill
#
# Bulk Modulus (GPa) = 47.89285 55.61903 51.75594
# Shear Modulus (GPa) = 83.99885 22.88332 53.44109
#
# Velocity S-wave (km/s) = 6.57453 3.43153 5.24404
# Velocity P-wave (km/s) = 9.07069 6.65741 7.95609
#
# Compressibility (1/GPa) = 0.02087994
#
# Stress axis : x y z
#
# Youngs Moduli (GPa) = 103.54885 90.42061 59.08917
#
# Poissons Ratio (x) = 0.12007 0.18850
# Poissons Ratio (y) = 0.13750 0.22821
# Poissons Ratio (z) = 0.33034 0.34922
#
# Static dielectric constant tensor:
#      x y z
#    x 1.658970 0.000000 0.015410 
#    y 0.000000 1.915970 0.000000 
#    z 0.015410 0.000000 1.701930 
# 
# From -- ./inp_files/34393.got.cif
#   From: 2010.05.17/outbox.cif.g08.bks.cpg/sg11_18_cif.got.tgz:34393.got - 2010.06.03 12:22:45.
