data_PCOD9159855
_publ_section_title
;
Structure prediction by ZEFSAII (Michael W. Deem and Ramdas Pophale) SiO2 
 PCOD9159855
Probable space group: P 21/M
;
_chemical_formula_sum "Si O2"
_cell_formula_units_Z 28
_cell_length_a 9.152281
_cell_length_b 8.784054
_cell_length_c 30.007736
_cell_angle_alpha 90.000000
_cell_angle_beta 140.847400
_cell_angle_gamma 90.000000
_cell_volume 1523.189323
_symmetry_space_group_name_H-M "P 21/M"
_symmetry_group_IT_number 11
_symmetry_cell_setting 'monoclinic'
loop_
_space_group_symop_operation_xyz
x,y,z
-x,1/2+y,-z
-x,-y,-z
x,1/2-y,z
loop_
_atom_site_type_symbol
_atom_site_label
_atom_site_fract_x
_atom_site_fract_y
_atom_site_fract_z
Si Si1 0.822594 0.066200 0.494823
Si Si2 0.813697 0.572509 0.352287
Si Si3 0.084985 0.432697 0.200848
Si Si4 0.743698 0.565955 0.933944
Si Si5 0.450029 0.571641 0.349105
Si Si6 0.439827 0.067948 0.206031
Si Si7 0.580485 0.932228 0.066148
O O1 0.823384 0.250000 0.492455
O O2 0.938955 0.020568 0.569487
O O3 0.575260 0.001345 0.421534
O O4 0.000000 0.000000 0.500000
O O5 0.832405 0.750000 0.345693
O O6 0.635460 0.558711 0.352067
O O7 0.687234 0.489463 0.282029
O O8 0.058162 0.250000 0.194571
O O9 0.224526 0.486127 0.277605
O O10 0.245113 0.477228 0.196283
O O11 0.839838 0.512981 0.137985
O O12 0.749587 0.750000 0.937065
O O13 0.636363 0.518027 0.860921
O O14 0.586374 0.499911 0.935749
O O15 0.000000 0.500000 0.000000
O O16 0.405611 0.750000 0.345611
O O17 0.445961 0.250000 0.207660
O O18 0.566940 0.750000 0.061943
O O19 0.500000 0.000000 0.000000
#
# Coordination Sequence:
#
# PCOD9159855 Si02
#       7
#     4   4   4   4   4   4   4
#     4   9  15  23  36  60  94 133 174 218 264 312
#     4   8  15  25  40  64  97 134 173 214 260 308
#     4  10  19  34  55  80 109 142 178 221 269 319
#     4  11  23  40  60  84 111 141 177 220 267 321
#     4   9  16  26  41  66  99 137 176 216 262 314
#     4   9  19  33  52  77 106 138 175 216 264 317
#     4  12  25  41  60  83 109 141 179 221 268 321
#
# _framework density 18.382480999999999
#
# number of rings (size 3 to 8) (size 9 to 14) (size 15 to 20)
#    0.000    2.286    0.000    4.714    0.000    6.857 
#    0.000    0.000    0.000    0.000    0.000    1.000 
#    0.000    0.000    0.000    0.000    0.000    0.000 
#
# Total GULP energy -156164.877844 kJ/mol
# GULP energy per Si atom -5577.317066 kJ/mol
# Density = 1.834064 g / cm^3
# Si number density = 18.382481 Si / 1000 Ang^3
#
#
#
# Elastic Constant Matrix: (Units=GPa)
#
#
# Indices 1 2 3 4 5 6 
#
# 1 60.2107 33.3143 69.8530 0.0000 -2.7168 0.0000
# 2 33.3143 83.8341 67.4572 0.0000 -0.0861 0.0000
# 3 69.8530 67.4572 215.4809 0.0000 -3.8699 0.0000
# 4 0.0000 0.0000 0.0000 40.2170 0.0000 3.1468
# 5 -2.7168 -0.0861 -3.8699 0.0000 17.2281 0.0000
# 6 0.0000 0.0000 0.0000 3.1468 0.0000 19.0671
#
#
#
# Elastic Compliance Matrix: (Units=1/GPa)
#
#
# Indices 1 2 3 4 5 6 
#
# 1 0.028317 -0.005218 -0.007497 0.000000 0.002755 0.000000
# 2 -0.005218 0.016925 -0.003635 0.000000 -0.001555 0.000000
# 3 -0.007497 -0.003635 0.008221 0.000000 0.000646 0.000000
# 4 0.000000 0.000000 0.000000 0.025190 0.000000 -0.004157
# 5 0.002755 -0.001555 0.000646 0.000000 0.058617 0.000000
# 6 0.000000 0.000000 0.000000 -0.004157 0.000000 0.053132
#
#
# Mechanical properties :
#
#
# Convention : Reuss Voigt Hill
#
# Bulk Modulus (GPa) = 48.16061 77.86385 63.01223
# Shear Modulus (GPa) = 21.73710 27.89585 24.81648
#
# Velocity S-wave (km/s) = 3.44247 3.89977 3.67823
# Velocity P-wave (km/s) = 6.48512 7.92005 7.23823
#
# Compressibility (1/GPa) = 0.02076386
#
# Stress axis : x y z
#
# Youngs Moduli (GPa) = 35.31486 59.08427 121.64666
#
# Poissons Ratio (x) = 0.30828 0.91194
# Poissons Ratio (y) = 0.18426 0.44218
# Poissons Ratio (z) = 0.26474 0.21477
#
# Static dielectric constant tensor:
#      x y z
#    x 1.640800 0.000000 0.002860 
#    y 0.000000 1.589380 0.000000 
#    z 0.002860 0.000000 1.660350 
# 
# From -- ./inp_files/28463.got.cif
#   From: 2010.05.17/outbox.cif.g08.bks.cpg/sg11_15_cif.got.tgz:28463.got - 2010.06.03 12:22:45.
