data_PCOD9159179
_publ_section_title
;
Structure prediction by ZEFSAII (Michael W. Deem and Ramdas Pophale) SiO2 
 PCOD9159179
Probable space group: P 21/M
;
_chemical_formula_sum "Si O2"
_cell_formula_units_Z 28
_cell_length_a 16.729133
_cell_length_b 18.876949
_cell_length_c 5.220264
_cell_angle_alpha 90.000000
_cell_angle_beta 127.438348
_cell_angle_gamma 90.000000
_cell_volume 1308.948444
_symmetry_space_group_name_H-M "P 21/M"
_symmetry_group_IT_number 11
_symmetry_cell_setting 'monoclinic'
loop_
_space_group_symop_operation_xyz
x,y,z
-x,1/2+y,-z
-x,-y,-z
x,1/2-y,z
loop_
_atom_site_type_symbol
_atom_site_label
_atom_site_fract_x
_atom_site_fract_y
_atom_site_fract_z
Si Si1 0.205290 0.921585 0.884732
Si Si2 0.325743 0.826295 0.838377
Si Si3 0.991858 0.450593 0.234349
Si Si4 0.334980 0.404606 0.482983
Si Si5 0.204325 0.424178 0.717437
Si Si6 0.594238 0.059310 0.397618
Si Si7 0.517564 0.673792 0.558762
O O1 0.220000 0.850750 0.750358
O O2 0.118046 0.917533 0.927506
O O3 0.194664 0.990073 0.680750
O O4 0.312650 0.935308 0.224537
O O5 0.320445 0.750000 0.692135
O O6 0.367724 0.891191 0.756368
O O7 0.408038 0.818803 0.221239
O O8 0.089407 0.399973 0.445071
O O9 0.000000 0.500000 0.500000
O O10 0.000000 0.500000 0.000000
O O11 0.276711 0.396332 0.635865
O O12 0.406063 0.475090 0.648221
O O13 0.404896 0.341746 0.518201
O O14 0.251693 0.412243 0.091304
O O15 0.495294 0.100674 0.306549
O O16 0.541198 0.750000 0.733006
#
# Coordination Sequence:
#
# PCOD9159179 Si02
#       7
#     4   4   4   4   4   4   4
#     4   9  19  33  54  82 118 143 183 231 293 340
#     4  10  20  35  55  79 113 150 192 238 291 354
#     4  10  19  32  58  88 116 145 180 229 285 338
#     4  11  22  37  59  83 118 149 193 237 290 334
#     4  10  20  36  55  90 114 146 188 237 278 336
#     4  10  19  35  55  84 112 146 189 242 287 343
#     4  10  23  38  54  80 110 153 197 238 289 348
#
# _framework density 21.391217999999999
#
# number of rings (size 3 to 8) (size 9 to 14) (size 15 to 20)
#    0.000    2.000    1.429    3.429    4.000    1.143 
#    0.000    0.000    0.000    1.714    0.000    0.000 
#    0.000    0.000    0.000    0.000    0.000    0.000 
#
# Total GULP energy -155980.107972 kJ/mol
# GULP energy per Si atom -5570.718142 kJ/mol
# Density = 2.134253 g / cm^3
# Si number density = 21.391218 Si / 1000 Ang^3
#
#
#
# Elastic Constant Matrix: (Units=GPa)
#
#
# Indices 1 2 3 4 5 6 
#
# 1 128.9096 10.5303 6.4312 0.0000 1.6989 0.0000
# 2 10.5303 55.2792 -3.2262 0.0000 2.1852 0.0000
# 3 6.4312 -3.2262 53.7961 0.0000 -8.8353 0.0000
# 4 0.0000 0.0000 0.0000 5.6599 0.0000 -18.8701
# 5 1.6989 2.1852 -8.8353 0.0000 34.2747 0.0000
# 6 0.0000 0.0000 0.0000 -18.8701 0.0000 -184.4222
#
#
#
# Elastic Compliance Matrix: (Units=1/GPa)
#
#
# Indices 1 2 3 4 5 6 
#
# 1 0.007949 -0.001558 -0.001140 0.000000 -0.000589 0.000000
# 2 -0.001558 0.018486 0.001163 0.000000 -0.000802 0.000000
# 3 -0.001140 0.001163 0.019623 0.000000 0.005041 0.000000
# 4 0.000000 0.000000 0.000000 0.131741 0.000000 -0.013480
# 5 -0.000589 -0.000802 0.005041 0.000000 0.030556 0.000000
# 6 0.000000 0.000000 0.000000 -0.013480 0.000000 -0.004043
#
#
# Mechanical properties :
#
#
# Convention : Reuss Voigt Hill
#
# Bulk Modulus (GPa) = 23.26195 29.49505 26.37850
# Shear Modulus (GPa) = 22.55191 -13.94756 4.30218
#
# Velocity S-wave (km/s) = 3.25046 -2.55624 1.41970
# Velocity P-wave (km/s) = 4.99855 2.25960 3.87887
#
# Compressibility (1/GPa) = 0.04298866
#
# Stress axis : x y z
#
# Youngs Moduli (GPa) = 125.79792 54.09419 50.96144
#
# Poissons Ratio (x) = 0.08425 0.05812
# Poissons Ratio (y) = 0.19594 -0.05928
# Poissons Ratio (z) = 0.14346 -0.06292
#
# Static dielectric constant tensor:
#      x y z
#    x 1.856380 0.000000 0.003490 
#    y 0.000000 1.849570 0.000000 
#    z 0.003490 0.000000 1.887880 
# 
# From -- ./inp_files/8316.got.cif
#   From: 2010.05.17/outbox.cif.g08.bks.cpg/sg11_5_cif.got.tgz:8316.got - 2010.06.03 12:22:45.
