data_PCOD9159874
_publ_section_title
;
Structure prediction by ZEFSAII (Michael W. Deem and Ramdas Pophale) SiO2 
 PCOD9159874
Probable space group: P 21/M
;
_chemical_formula_sum "Si O2"
_cell_formula_units_Z 32
_cell_length_a 18.804759
_cell_length_b 7.681586
_cell_length_c 14.828304
_cell_angle_alpha 90.000000
_cell_angle_beta 42.771814
_cell_angle_gamma 90.000000
_cell_volume 1454.558740
_symmetry_space_group_name_H-M "P 21/M"
_symmetry_group_IT_number 11
_symmetry_cell_setting 'monoclinic'
loop_
_space_group_symop_operation_xyz
x,y,z
-x,1/2+y,-z
-x,-y,-z
x,1/2-y,z
loop_
_atom_site_type_symbol
_atom_site_label
_atom_site_fract_x
_atom_site_fract_y
_atom_site_fract_z
Si Si1 0.110710 0.459297 0.351311
Si Si2 0.885980 0.955103 0.855951
Si Si3 0.504860 0.541875 0.890864
Si Si4 0.737384 0.536979 0.633554
Si Si5 0.249383 0.041269 0.576336
Si Si6 0.040943 0.955440 0.862882
Si Si7 0.520230 0.541039 0.584752
Si Si8 0.652250 0.461312 0.111842
O O1 0.123350 0.250000 0.335089
O O2 0.114409 0.528757 0.245576
O O3 0.199656 0.524993 0.337541
O O4 0.000000 0.500000 0.500000
O O5 0.909457 0.750000 0.824019
O O6 0.969479 0.032290 0.848630
O O7 0.770074 0.973169 0.004591
O O8 0.505390 0.750000 0.879773
O O9 0.616549 0.480250 0.749557
O O10 0.500000 0.500000 0.000000
O O11 0.406051 0.478868 0.925518
O O12 0.739148 0.750000 0.634368
O O13 0.782824 0.481353 0.494407
O O14 0.256822 0.250000 0.565095
O O15 0.365311 0.974482 0.492324
O O16 0.161247 0.999791 0.731157
O O17 0.031364 0.750000 0.865046
O O18 0.000000 0.000000 0.000000
O O19 0.500000 0.500000 0.500000
O O20 0.522919 0.750000 0.593586
O O21 0.424595 0.479935 0.736389
O O22 0.657440 0.250000 0.108120
#
# Coordination Sequence:
#
# PCOD9159874 Si02
#       8
#     4   4   4   4   4   4   4   4
#     4  10  20  35  57  84 113 149 191 234 284 342
#     4  10  23  41  59  85 121 156 192 242 297 347
#     4  10  19  34  55  82 116 154 194 233 278 336
#     4   9  17  33  58  82 110 150 187 222 278 345
#     4  10  20  39  64  88 117 152 194 242 292 349
#     4  11  25  43  62  86 117 153 196 246 297 349
#     4  10  22  39  60  88 119 153 195 245 296 349
#     4  10  21  38  60  87 120 156 196 240 286 348
#
# _framework density 21.999798999999999
#
# number of rings (size 3 to 8) (size 9 to 14) (size 15 to 20)
#    0.000    2.000    1.250    1.875    1.750    4.000 
#    0.000    1.250    0.000    0.000    0.000    0.000 
#    0.000    0.000    0.000    0.000    0.000    0.000 
#
# Total GULP energy -178796.891040 kJ/mol
# GULP energy per Si atom -5587.402845 kJ/mol
# Density = 2.194973 g / cm^3
# Si number density = 21.999799 Si / 1000 Ang^3
#
#
#
# Elastic Constant Matrix: (Units=GPa)
#
#
# Indices 1 2 3 4 5 6 
#
# 1 116.0682 3.4600 43.4470 0.0000 12.7360 0.0000
# 2 3.4600 36.9092 -9.6197 0.0000 2.7407 0.0000
# 3 43.4470 -9.6197 131.9869 0.0000 14.3811 0.0000
# 4 0.0000 0.0000 0.0000 26.1306 0.0000 0.2167
# 5 12.7360 2.7407 14.3811 0.0000 40.6930 0.0000
# 6 0.0000 0.0000 0.0000 0.2167 0.0000 17.3558
#
#
#
# Elastic Compliance Matrix: (Units=1/GPa)
#
#
# Indices 1 2 3 4 5 6 
#
# 1 0.010083 -0.001646 -0.003232 0.000000 -0.001903 0.000000
# 2 -0.001646 0.028170 0.002856 0.000000 -0.002391 0.000000
# 3 -0.003232 0.002856 0.009110 0.000000 -0.002400 0.000000
# 4 0.000000 0.000000 0.000000 0.038273 0.000000 -0.000478
# 5 -0.001903 -0.002391 -0.002400 0.000000 0.026179 0.000000
# 6 0.000000 0.000000 0.000000 -0.000478 0.000000 0.057623
#
#
# Mechanical properties :
#
#
# Convention : Reuss Voigt Hill
#
# Bulk Modulus (GPa) = 23.08515 39.94875 31.51695
# Shear Modulus (GPa) = 26.60663 33.34769 29.97716
#
# Velocity S-wave (km/s) = 3.48142 3.89757 3.69536
# Velocity P-wave (km/s) = 5.16493 6.20104 5.70655
#
# Compressibility (1/GPa) = 0.04331789
#
# Stress axis : x y z
#
# Youngs Moduli (GPa) = 99.17448 35.49916 109.76923
#
# Poissons Ratio (x) = 0.05844 0.35476
# Poissons Ratio (y) = 0.16327 -0.31345
# Poissons Ratio (z) = 0.32051 -0.10137
#
# Static dielectric constant tensor:
#      x y z
#    x 1.813470 0.000000 -0.003560 
#    y 0.000000 1.834660 0.000000 
#    z -0.003560 0.000000 1.759620 
# 
# From -- ./inp_files/53623.got.cif
#   From: 2010.05.17/outbox.cif.g08.bks.cpg/sg11_27_cif.got.tgz:53623.got - 2010.06.03 12:22:45.
