data_PCOD9159428
_publ_section_title
;
Structure prediction by ZEFSAII (Michael W. Deem and Ramdas Pophale) SiO2 
 PCOD9159428
Probable space group: P 21/M
;
_chemical_formula_sum "Si O2"
_cell_formula_units_Z 24
_cell_length_a 10.534443
_cell_length_b 24.630692
_cell_length_c 10.221469
_cell_angle_alpha 90.000000
_cell_angle_beta 152.465588
_cell_angle_gamma 90.000000
_cell_volume 1226.048938
_symmetry_space_group_name_H-M "P 21/M"
_symmetry_group_IT_number 11
_symmetry_cell_setting 'monoclinic'
loop_
_space_group_symop_operation_xyz
x,y,z
-x,1/2+y,-z
-x,-y,-z
x,1/2-y,z
loop_
_atom_site_type_symbol
_atom_site_label
_atom_site_fract_x
_atom_site_fract_y
_atom_site_fract_z
Si Si1 0.399043 0.052242 0.491217
Si Si2 0.591667 0.550674 0.966519
Si Si3 0.795685 0.314038 0.556973
Si Si4 0.752789 0.874167 0.883456
Si Si5 0.165462 0.940695 0.890409
Si Si6 0.951214 0.391609 0.474299
O O1 0.304898 0.100970 0.310368
O O2 0.128812 0.038112 0.328351
O O3 0.500000 0.000000 0.500000
O O4 0.642678 0.070587 0.810117
O O5 0.675057 0.488325 0.042007
O O6 0.749773 0.584131 0.223449
O O7 0.722464 0.574889 0.953314
O O8 0.273874 0.566657 0.671241
O O9 0.831031 0.250000 0.596610
O O10 0.481591 0.331890 0.287161
O O11 0.905373 0.337831 0.518340
O O12 0.962210 0.345398 0.822849
O O13 0.108644 0.892710 0.734704
#
# Coordination Sequence:
#
# PCOD9159428 Si02
#       6
#     4   4   4   4   4   4
#     4  12  24  36  55  82 123 163 194 220 269 351
#     4  10  19  33  54  79 117 151 187 229 270 340
#     4  10  21  39  64  83 105 141 190 255 300 325
#     4  10  21  36  57  85 113 145 195 236 277 332
#     4  12  22  34  55  80 123 162 188 217 282 338
#     4  10  21  35  54  85 112 144 191 236 286 336
#
# _framework density 19.575074999999998
#
# number of rings (size 3 to 8) (size 9 to 14) (size 15 to 20)
#    0.000    1.333    1.667    5.000    4.667    0.000 
#    0.000    0.000    0.000    6.000    0.000    0.000 
#    0.000    0.000    0.000    0.000    0.000    0.000 
#
# Total GULP energy -134064.829683 kJ/mol
# GULP energy per Si atom -5586.034570 kJ/mol
# Density = 1.953052 g / cm^3
# Si number density = 19.575075 Si / 1000 Ang^3
#
#
#
# Elastic Constant Matrix: (Units=GPa)
#
#
# Indices 1 2 3 4 5 6 
#
# 1 55.9215 11.8206 17.5949 0.0000 -14.1530 0.0000
# 2 11.8206 59.6249 -8.7872 0.0000 -9.4089 0.0000
# 3 17.5949 -8.7872 92.9736 0.0000 -10.9002 0.0000
# 4 0.0000 0.0000 0.0000 15.7331 0.0000 0.6749
# 5 -14.1530 -9.4089 -10.9002 0.0000 51.5653 0.0000
# 6 0.0000 0.0000 0.0000 0.6749 0.0000 12.1705
#
#
#
# Elastic Compliance Matrix: (Units=1/GPa)
#
#
# Indices 1 2 3 4 5 6 
#
# 1 0.021027 -0.004075 -0.003871 0.000000 0.004209 0.000000
# 2 -0.004075 0.018449 0.002849 0.000000 0.002850 0.000000
# 3 -0.003871 0.002849 0.011991 0.000000 0.001992 0.000000
# 4 0.000000 0.000000 0.000000 0.063712 0.000000 -0.003533
# 5 0.004209 0.002850 0.001992 0.000000 0.021489 0.000000
# 6 0.000000 0.000000 0.000000 -0.003533 0.000000 0.082362
#
#
# Mechanical properties :
#
#
# Convention : Reuss Voigt Hill
#
# Bulk Modulus (GPa) = 24.22862 27.75295 25.99079
# Shear Modulus (GPa) = 20.57773 28.41990 24.49882
#
# Velocity S-wave (km/s) = 3.24577 3.81444 3.54154
# Velocity P-wave (km/s) = 5.14304 5.79727 5.47993
#
# Compressibility (1/GPa) = 0.04127350
#
# Stress axis : x y z
#
# Youngs Moduli (GPa) = 47.55845 54.20367 83.39519
#
# Poissons Ratio (x) = 0.22087 0.32281
# Poissons Ratio (y) = 0.19379 -0.23759
# Poissons Ratio (z) = 0.18409 -0.15442
#
# Static dielectric constant tensor:
#      x y z
#    x 1.767150 0.000000 -0.008090 
#    y 0.000000 1.645290 0.000000 
#    z -0.008090 0.000000 1.691280 
# 
# From -- ./inp_files/5301.got.cif
#   From: 2010.05.17/outbox.cif.g08.bks.cpg/sg11_3_cif.got.tgz:5301.got - 2010.06.03 12:22:45.
