data_PCOD9159900
_publ_section_title
;
Structure prediction by ZEFSAII (Michael W. Deem and Ramdas Pophale) SiO2 
 PCOD9159900
Probable space group: P 21/M
;
_chemical_formula_sum "Si O2"
_cell_formula_units_Z 28
_cell_length_a 18.308076
_cell_length_b 8.732160
_cell_length_c 15.802773
_cell_angle_alpha 90.000000
_cell_angle_beta 142.480116
_cell_angle_gamma 90.000000
_cell_volume 1538.654708
_symmetry_space_group_name_H-M "P 21/M"
_symmetry_group_IT_number 11
_symmetry_cell_setting 'monoclinic'
loop_
_space_group_symop_operation_xyz
x,y,z
-x,1/2+y,-z
-x,-y,-z
x,1/2-y,z
loop_
_atom_site_type_symbol
_atom_site_label
_atom_site_fract_x
_atom_site_fract_y
_atom_site_fract_z
Si Si1 0.397839 0.565384 0.844101
Si Si2 0.169077 0.572848 0.123260
Si Si3 0.125246 0.569568 0.583083
Si Si4 0.149516 0.427588 0.425101
Si Si5 0.968993 0.072777 0.834290
Si Si6 0.599189 0.066795 0.351955
Si Si7 0.452626 0.929603 0.368669
O O1 0.399354 0.750000 0.851892
O O2 0.259146 0.514598 0.736296
O O3 0.423674 0.527582 0.768447
O O4 0.500000 0.500000 0.000000
O O5 0.132786 0.750000 0.073175
O O6 0.129234 0.541517 0.182921
O O7 0.309364 0.558827 0.239871
O O8 0.094554 0.462865 0.994141
O O9 0.121724 0.750000 0.596269
O O10 0.127254 0.532641 0.485645
O O11 0.000000 0.500000 0.500000
O O12 0.149462 0.250000 0.449239
O O13 0.053951 0.464151 0.265487
O O14 0.279255 0.479527 0.511106
O O15 0.959037 0.250000 0.799627
O O16 0.616765 0.250000 0.372442
O O17 0.501850 0.014879 0.330839
O O18 0.485752 0.750000 0.394779
O O19 0.500000 0.000000 0.500000
#
# Coordination Sequence:
#
# PCOD9159900 Si02
#       7
#     4   4   4   4   4   4   4
#     4   9  20  38  61  86 115 152 193 239 293 348
#     4   9  20  36  52  75 109 145 185 231 276 328
#     4  10  21  39  60  87 118 150 190 240 289 345
#     4  11  21  35  58  84 110 145 186 229 280 338
#     4  10  19  34  56  79 106 144 185 229 280 332
#     4  10  21  38  57  82 115 148 190 239 280 339
#     4  11  22  36  56  82 113 151 190 234 284 335
#
# _framework density 18.197714000000001
#
# number of rings (size 3 to 8) (size 9 to 14) (size 15 to 20)
#    0.000    2.000    0.000    4.714    0.000    6.286 
#    2.571    0.000    0.000    0.000    0.000    0.000 
#    0.000    0.000    0.000    0.000    0.000    0.000 
#
# Total GULP energy -156176.285917 kJ/mol
# GULP energy per Si atom -5577.724497 kJ/mol
# Density = 1.815630 g / cm^3
# Si number density = 18.197714 Si / 1000 Ang^3
#
#
#
# Elastic Constant Matrix: (Units=GPa)
#
#
# Indices 1 2 3 4 5 6 
#
# 1 73.8162 19.2401 45.9861 0.0000 17.0205 0.0000
# 2 19.2401 30.7510 22.2674 0.0000 4.0108 0.0000
# 3 45.9861 22.2674 80.5215 0.0000 -1.5399 0.0000
# 4 0.0000 0.0000 0.0000 33.7103 0.0000 0.5313
# 5 17.0205 4.0108 -1.5399 0.0000 18.2453 0.0000
# 6 0.0000 0.0000 0.0000 0.5313 0.0000 30.3032
#
#
#
# Elastic Compliance Matrix: (Units=1/GPa)
#
#
# Indices 1 2 3 4 5 6 
#
# 1 0.033597 -0.003091 -0.018949 0.000000 -0.032261 0.000000
# 2 -0.003091 0.042815 -0.010216 0.000000 -0.007390 0.000000
# 3 -0.018949 -0.010216 0.026490 0.000000 0.022159 0.000000
# 4 0.000000 0.000000 0.000000 0.029673 0.000000 -0.000520
# 5 -0.032261 -0.007390 0.022159 0.000000 0.088399 0.000000
# 6 0.000000 0.000000 0.000000 -0.000520 0.000000 0.033009
#
#
# Mechanical properties :
#
#
# Convention : Reuss Voigt Hill
#
# Bulk Modulus (GPa) = 26.04948 40.00841 33.02895
# Shear Modulus (GPa) = 15.09248 22.95811 19.02530
#
# Velocity S-wave (km/s) = 2.88299 3.55574 3.23689
# Velocity P-wave (km/s) = 5.04261 6.23626 5.67093
#
# Compressibility (1/GPa) = 0.03838848
#
# Stress axis : x y z
#
# Youngs Moduli (GPa) = 29.76486 23.35645 37.75029
#
# Poissons Ratio (x) = 0.07220 0.71534
# Poissons Ratio (y) = 0.09201 0.38565
# Poissons Ratio (z) = 0.56402 0.23861
#
# Static dielectric constant tensor:
#      x y z
#    x 1.648360 0.000000 0.020590 
#    y 0.000000 1.620500 0.000000 
#    z 0.020590 0.000000 1.621830 
# 
# From -- ./inp_files/53296.got.cif
#   From: 2010.05.17/outbox.cif.g08.bks.cpg/sg11_27_cif.got.tgz:53296.got - 2010.06.03 12:22:45.
