data_PCOD9159902
_publ_section_title
;
Structure prediction by ZEFSAII (Michael W. Deem and Ramdas Pophale) SiO2 
 PCOD9159902
Probable space group: P 21/M
;
_chemical_formula_sum "Si O2"
_cell_formula_units_Z 28
_cell_length_a 20.160419
_cell_length_b 9.685326
_cell_length_c 23.941126
_cell_angle_alpha 90.000000
_cell_angle_beta 18.222098
_cell_angle_gamma 90.000000
_cell_volume 1461.800254
_symmetry_space_group_name_H-M "P 21/M"
_symmetry_group_IT_number 11
_symmetry_cell_setting 'monoclinic'
loop_
_space_group_symop_operation_xyz
x,y,z
-x,1/2+y,-z
-x,-y,-z
x,1/2-y,z
loop_
_atom_site_type_symbol
_atom_site_label
_atom_site_fract_x
_atom_site_fract_y
_atom_site_fract_z
Si Si1 0.640801 0.586142 0.930069
Si Si2 0.928142 0.601825 0.103318
Si Si3 0.226170 0.589519 0.955723
Si Si4 0.443243 0.905836 0.491959
Si Si5 0.546714 0.586264 0.133820
Si Si6 0.642051 0.586128 0.546039
Si Si7 0.138395 0.587048 0.534445
O O1 0.598811 0.750000 0.957635
O O2 0.891718 0.564739 0.718283
O O3 0.500000 0.500000 0.000000
O O4 0.582989 0.547768 0.040370
O O5 0.038297 0.750000 0.009829
O O6 0.686148 0.619185 0.282069
O O7 0.000000 0.500000 0.000000
O O8 0.002318 0.553234 0.105326
O O9 0.222585 0.750000 0.976232
O O10 0.294757 0.495392 0.952277
O O11 0.409542 0.573265 0.761555
O O12 0.349525 0.750000 0.576440
O O13 0.500000 0.000000 0.500000
O O14 0.345762 0.997745 0.520497
O O15 0.587288 0.750000 0.106231
O O16 0.308223 0.561643 0.348690
O O17 0.682321 0.750000 0.505177
O O18 0.796585 0.513923 0.467206
O O19 0.162881 0.750000 0.530945
#
# Coordination Sequence:
#
# PCOD9159902 Si02
#       7
#     4   4   4   4   4   4   4
#     4  10  22  39  59  86 117 147 182 225 276 334
#     4  10  20  34  53  77 105 141 184 231 281 331
#     4   9  18  33  54  80 108 139 182 233 278 328
#     4  11  23  36  51  74 108 148 189 234 286 339
#     4   9  19  36  57  82 111 146 188 227 271 334
#     4  10  19  34  56  79 107 142 183 231 281 335
#     4   9  19  37  59  82 112 147 183 226 277 332
#
# _framework density 19.154464999999998
#
# number of rings (size 3 to 8) (size 9 to 14) (size 15 to 20)
#    0.000    2.286    1.429    0.857    0.000    4.571 
#    0.000    2.857    0.000    0.000    0.000    0.000 
#    0.000    0.000    0.000    0.000    0.000    0.000 
#
# Total GULP energy -155939.609970 kJ/mol
# GULP energy per Si atom -5569.271785 kJ/mol
# Density = 1.911087 g / cm^3
# Si number density = 19.154465 Si / 1000 Ang^3
#
#
#
# Elastic Constant Matrix: (Units=GPa)
#
#
# Indices 1 2 3 4 5 6 
#
# 1 123.3249 55.4132 29.6801 0.0000 0.8135 0.0000
# 2 55.4132 75.5401 18.4656 0.0000 3.4556 0.0000
# 3 29.6801 18.4656 40.2775 0.0000 -4.1971 0.0000
# 4 0.0000 0.0000 0.0000 14.9424 0.0000 -6.2409
# 5 0.8135 3.4556 -4.1971 0.0000 28.9633 0.0000
# 6 0.0000 0.0000 0.0000 -6.2409 0.0000 40.3953
#
#
#
# Elastic Compliance Matrix: (Units=1/GPa)
#
#
# Indices 1 2 3 4 5 6 
#
# 1 0.013265 -0.008247 -0.006021 0.000000 -0.000261 0.000000
# 2 -0.008247 0.020265 -0.003494 0.000000 -0.002692 0.000000
# 3 -0.006021 -0.003494 0.031402 0.000000 0.005136 0.000000
# 4 0.000000 0.000000 0.000000 0.071540 0.000000 0.011053
# 5 -0.000261 -0.002692 0.005136 0.000000 0.035599 0.000000
# 6 0.000000 0.000000 0.000000 0.011053 0.000000 0.026463
#
#
# Mechanical properties :
#
#
# Convention : Reuss Voigt Hill
#
# Bulk Modulus (GPa) = 34.00517 49.58449 41.79483
# Shear Modulus (GPa) = 20.50346 25.89908 23.20127
#
# Velocity S-wave (km/s) = 3.27529 3.68110 3.48411
# Velocity P-wave (km/s) = 5.66525 6.63402 6.16868
#
# Compressibility (1/GPa) = 0.02940729
#
# Stress axis : x y z
#
# Youngs Moduli (GPa) = 75.38615 49.34640 31.84522
#
# Poissons Ratio (x) = 0.40695 0.19175
# Poissons Ratio (y) = 0.62170 0.11127
# Poissons Ratio (z) = 0.45392 0.17242
#
# Static dielectric constant tensor:
#      x y z
#    x 1.651240 0.000000 -0.009640 
#    y 0.000000 2.365300 0.000000 
#    z -0.009640 0.000000 1.739290 
# 
# From -- ./inp_files/69772.got.cif
#   From: 2010.05.17/outbox.cif.g08.bks.cpg/sg11_35_cif.got.tgz:69772.got - 2010.06.03 12:22:45.
