data_PCOD9159896
_publ_section_title
;
Structure prediction by ZEFSAII (Michael W. Deem and Ramdas Pophale) SiO2 
 PCOD9159896
Probable space group: P 21/M
;
_chemical_formula_sum "Si O2"
_cell_formula_units_Z 28
_cell_length_a 24.090978
_cell_length_b 7.477321
_cell_length_c 21.050594
_cell_angle_alpha 90.000000
_cell_angle_beta 20.047689
_cell_angle_gamma 90.000000
_cell_volume 1299.895260
_symmetry_space_group_name_H-M "P 21/M"
_symmetry_group_IT_number 11
_symmetry_cell_setting 'monoclinic'
loop_
_space_group_symop_operation_xyz
x,y,z
-x,1/2+y,-z
-x,-y,-z
x,1/2-y,z
loop_
_atom_site_type_symbol
_atom_site_label
_atom_site_fract_x
_atom_site_fract_y
_atom_site_fract_z
Si Si1 0.677454 0.536729 0.829054
Si Si2 0.118816 0.455395 0.025189
Si Si3 0.026817 0.039112 0.547516
Si Si4 0.708602 0.952589 0.936047
Si Si5 0.235769 0.968697 0.630519
Si Si6 0.588965 0.969749 0.198638
Si Si7 0.308503 0.536967 0.695519
O O1 0.711096 0.750000 0.798497
O O2 0.789930 0.473533 0.650133
O O3 0.691461 0.459455 0.885180
O O4 0.500000 0.500000 0.000000
O O5 0.097889 0.250000 0.068629
O O6 0.261970 0.531078 0.916537
O O7 0.199802 0.458220 0.868415
O O8 0.935194 0.530071 0.216508
O O9 0.012927 0.250000 0.573703
O O10 0.000000 0.000000 0.500000
O O11 0.904031 0.948358 0.727398
O O12 0.645793 0.750000 0.999079
O O13 0.630424 0.030300 0.082676
O O14 0.232397 0.750000 0.633224
O O15 0.407711 0.023010 0.414302
O O16 0.250467 0.024036 0.688492
O O17 0.590671 0.750000 0.198890
O O18 0.500000 0.500000 0.500000
O O19 0.288539 0.750000 0.719727
#
# Coordination Sequence:
#
# PCOD9159896 Si02
#       7
#     4   4   4   4   4   4   4
#     4   9  18  31  48  74 102 128 161 205 250 294
#     4  10  19  34  56  79 103 137 176 216 268 313
#     4   9  17  31  51  73  97 126 162 204 247 295
#     4   9  18  33  52  75 101 132 169 207 250 301
#     4   9  18  32  53  79 105 135 174 219 262 307
#     4   9  17  33  53  76 108 138 172 216 255 309
#     4  11  20  33  54  79 106 138 176 221 266 309
#
# _framework density 21.540198
#
# number of rings (size 3 to 8) (size 9 to 14) (size 15 to 20)
#    0.000    2.571    1.429    2.143    0.000    2.857 
#    2.571    1.429    0.000    0.000    0.000    0.000 
#    0.000    0.000    0.000    0.000    0.000    0.000 
#
# Total GULP energy -155879.344735 kJ/mol
# GULP energy per Si atom -5567.119455 kJ/mol
# Density = 2.149117 g / cm^3
# Si number density = 21.540198 Si / 1000 Ang^3
#
#
#
# Elastic Constant Matrix: (Units=GPa)
#
#
# Indices 1 2 3 4 5 6 
#
# 1 75.5141 2.2303 72.4243 0.0000 8.3982 0.0000
# 2 2.2303 67.7446 -4.8476 0.0000 -1.7754 0.0000
# 3 72.4243 -4.8476 160.5355 0.0000 -7.9545 0.0000
# 4 0.0000 0.0000 0.0000 12.4508 0.0000 2.4564
# 5 8.3982 -1.7754 -7.9545 0.0000 41.4464 0.0000
# 6 0.0000 0.0000 0.0000 2.4564 0.0000 8.3505
#
#
#
# Elastic Compliance Matrix: (Units=1/GPa)
#
#
# Indices 1 2 3 4 5 6 
#
# 1 0.025661 -0.001903 -0.012010 0.000000 -0.007586 0.000000
# 2 -0.001903 0.014956 0.001374 0.000000 0.001290 0.000000
# 3 -0.012010 0.001374 0.011926 0.000000 0.004781 0.000000
# 4 0.000000 0.000000 0.000000 0.085264 0.000000 -0.025081
# 5 -0.007586 0.001290 0.004781 0.000000 0.026638 0.000000
# 6 0.000000 0.000000 0.000000 -0.025081 0.000000 0.127131
#
#
# Mechanical properties :
#
#
# Convention : Reuss Voigt Hill
#
# Bulk Modulus (GPa) = 36.41012 49.26754 42.83883
# Shear Modulus (GPa) = 15.34637 28.04868 21.69753
#
# Velocity S-wave (km/s) = 2.67208 3.61245 3.17725
# Velocity P-wave (km/s) = 5.14393 6.34994 5.77849
#
# Compressibility (1/GPa) = 0.02746489
#
# Stress axis : x y z
#
# Youngs Moduli (GPa) = 38.96915 66.86226 83.85114
#
# Poissons Ratio (x) = 0.12724 1.00707
# Poissons Ratio (y) = 0.07416 -0.11522
# Poissons Ratio (z) = 0.46803 -0.09187
#
# Static dielectric constant tensor:
#      x y z
#    x 1.773740 0.000000 -0.055470 
#    y 0.000000 1.892810 0.000000 
#    z -0.055470 0.000000 1.869040 
# 
# From -- ./inp_files/66663.got.cif
#   From: 2010.05.17/outbox.cif.g08.bks.cpg/sg11_34_cif.got.tgz:66663.got - 2010.06.03 12:22:45.
