data_PCOD9159483
_publ_section_title
;
Structure prediction by ZEFSAII (Michael W. Deem and Ramdas Pophale) SiO2 
 PCOD9159483
Probable space group: P 21/M
;
_chemical_formula_sum "Si O2"
_cell_formula_units_Z 32
_cell_length_a 22.921941
_cell_length_b 17.520511
_cell_length_c 9.128911
_cell_angle_alpha 90.000000
_cell_angle_beta 150.395803
_cell_angle_gamma 90.000000
_cell_volume 1811.127255
_symmetry_space_group_name_H-M "P 21/M"
_symmetry_group_IT_number 11
_symmetry_cell_setting 'monoclinic'
loop_
_space_group_symop_operation_xyz
x,y,z
-x,1/2+y,-z
-x,-y,-z
x,1/2-y,z
loop_
_atom_site_type_symbol
_atom_site_label
_atom_site_fract_x
_atom_site_fract_y
_atom_site_fract_z
Si Si1 0.817016 0.563320 0.119608
Si Si2 0.029007 0.162141 0.746270
Si Si3 0.240574 0.664231 0.799350
Si Si4 0.027290 0.498388 0.275716
Si Si5 0.582852 0.553161 0.784766
Si Si6 0.780435 0.053327 0.774905
Si Si7 0.374936 0.659559 0.381212
Si Si8 0.741077 0.025967 0.369504
O O1 0.888968 0.634396 0.208592
O O2 0.902786 0.516946 0.418282
O O3 0.696059 0.581821 0.939413
O O4 0.781231 0.508333 0.907330
O O5 0.060211 0.250000 0.861912
O O6 0.889004 0.165584 0.409831
O O7 0.026852 0.084970 0.843892
O O8 0.271369 0.750000 0.823925
O O9 0.242203 0.610032 0.663399
O O10 0.326773 0.636965 0.114845
O O11 0.130409 0.488282 0.382363
O O12 0.918517 0.440212 0.033576
O O13 0.500000 0.500000 0.500000
O O14 0.500994 0.619991 0.667473
O O15 0.640452 0.510350 0.049012
O O16 0.715712 0.126406 0.698327
O O17 0.717101 0.026420 0.488501
O O18 0.380242 0.750000 0.399720
#
# Coordination Sequence:
#
# PCOD9159483 Si02
#       8
#     4   4   4   4   4   4   4   4
#     4  10  19  33  55  75 104 138 179 219 259 311
#     4   9  16  27  49  78 103 127 166 216 262 306
#     4   9  17  32  52  76 106 138 170 211 265 320
#     4   9  18  34  52  78 110 141 171 210 261 322
#     4  11  20  38  55  72 102 140 185 220 257 308
#     4  11  19  32  54  83 108 132 172 222 268 314
#     4  11  22  36  55  77 104 139 179 223 268 311
#     4  10  20  32  55  81 106 140 176 215 263 316
#
# _framework density 17.668552999999999
#
# number of rings (size 3 to 8) (size 9 to 14) (size 15 to 20)
#    0.000    2.000    2.500    4.125    0.000    1.500 
#    0.000    0.000    0.000    3.750    0.000    0.000 
#    0.000    0.000    0.000    0.000    0.000    0.000 
#
# Total GULP energy -178146.797069 kJ/mol
# GULP energy per Si atom -5567.087408 kJ/mol
# Density = 1.762834 g / cm^3
# Si number density = 17.668553 Si / 1000 Ang^3
#
#
#
# Elastic Constant Matrix: (Units=GPa)
#
#
# Indices 1 2 3 4 5 6 
#
# 1 54.0936 30.4023 35.2898 0.0000 -11.9219 0.0000
# 2 30.4023 64.7488 28.2555 0.0000 2.6986 0.0000
# 3 35.2898 28.2555 74.6050 0.0000 -3.9609 0.0000
# 4 0.0000 0.0000 0.0000 17.7680 0.0000 8.5002
# 5 -11.9219 2.6986 -3.9609 0.0000 26.8578 0.0000
# 6 0.0000 0.0000 0.0000 8.5002 0.0000 22.3990
#
#
#
# Elastic Compliance Matrix: (Units=1/GPa)
#
#
# Indices 1 2 3 4 5 6 
#
# 1 0.036877 -0.012862 -0.011726 0.000000 0.015932 0.000000
# 2 -0.012862 0.023218 -0.003161 0.000000 -0.008508 0.000000
# 3 -0.011726 -0.003161 0.020045 0.000000 -0.001931 0.000000
# 4 0.000000 0.000000 0.000000 0.068765 0.000000 -0.026096
# 5 0.015932 -0.008508 -0.001931 0.000000 0.044875 0.000000
# 6 0.000000 0.000000 0.000000 -0.026096 0.000000 0.054548
#
#
# Mechanical properties :
#
#
# Convention : Reuss Voigt Hill
#
# Bulk Modulus (GPa) = 40.58279 42.37142 41.47711
# Shear Modulus (GPa) = 16.02354 20.03827 18.03090
#
# Velocity S-wave (km/s) = 3.01474 3.37132 3.19801
# Velocity P-wave (km/s) = 5.92765 6.26001 6.09610
#
# Compressibility (1/GPa) = 0.02464098
#
# Stress axis : x y z
#
# Youngs Moduli (GPa) = 27.11732 43.07075 49.88674
#
# Poissons Ratio (x) = 0.55398 0.58499
# Poissons Ratio (y) = 0.34878 0.15769
# Poissons Ratio (z) = 0.31799 0.13615
#
# Static dielectric constant tensor:
#      x y z
#    x 1.623600 0.000000 0.005730 
#    y 0.000000 1.620160 0.000000 
#    z 0.005730 0.000000 1.621790 
# 
# From -- ./inp_files/27854.got.cif
#   From: 2010.05.17/outbox.cif.g08.bks.cpg/sg11_14_cif.got.tgz:27854.got - 2010.06.03 12:22:45.
