data_PCOD9159818
_publ_section_title
;
Structure prediction by ZEFSAII (Michael W. Deem and Ramdas Pophale) SiO2 
 PCOD9159818
Probable space group: P 21/M
;
_chemical_formula_sum "Si O2"
_cell_formula_units_Z 32
_cell_length_a 19.751265
_cell_length_b 8.480100
_cell_length_c 27.636011
_cell_angle_alpha 90.000000
_cell_angle_beta 24.399892
_cell_angle_gamma 90.000000
_cell_volume 1912.182300
_symmetry_space_group_name_H-M "P 21/M"
_symmetry_group_IT_number 11
_symmetry_cell_setting 'monoclinic'
loop_
_space_group_symop_operation_xyz
x,y,z
-x,1/2+y,-z
-x,-y,-z
x,1/2-y,z
loop_
_atom_site_type_symbol
_atom_site_label
_atom_site_fract_x
_atom_site_fract_y
_atom_site_fract_z
Si Si1 0.179684 0.435308 0.225218
Si Si2 0.595202 0.064941 0.838725
Si Si3 0.817172 0.560760 0.608252
Si Si4 0.833149 0.940747 0.487786
Si Si5 0.237731 0.562761 0.081186
Si Si6 0.623886 0.061087 0.377911
Si Si7 0.647858 0.941709 0.513740
Si Si8 0.891274 0.560037 0.268462
O O1 0.178058 0.250000 0.215678
O O2 0.325402 0.474828 0.167399
O O3 0.200417 0.528629 0.161774
O O4 0.009942 0.486069 0.360909
O O5 0.618058 0.250000 0.832145
O O6 0.693301 0.013524 0.727163
O O7 0.404723 0.023152 0.958721
O O8 0.813839 0.750000 0.615608
O O9 0.779524 0.519690 0.576990
O O10 0.000000 0.500000 0.500000
O O11 0.850583 0.750000 0.473933
O O12 0.707715 0.992353 0.527458
O O13 0.258500 0.750000 0.060881
O O14 0.077664 0.509387 0.155449
O O15 0.628249 0.250000 0.376284
O O16 0.531810 0.010288 0.388546
O O17 0.500000 0.000000 0.500000
O O18 0.799689 0.997489 0.279873
O O19 0.649479 0.750000 0.512600
O O20 0.782187 0.992190 0.385996
O O21 0.887987 0.750000 0.270885
#
# Coordination Sequence:
#
# PCOD9159818 Si02
#       8
#     4   4   4   4   4   4   4   4
#     4  12  23  35  53  78 106 135 174 214 259 311
#     4  12  25  40  55  73 102 138 177 219 263 308
#     4  11  22  36  57  79 101 134 175 220 264 309
#     4  10  19  34  55  76 102 138 176 212 259 307
#     4  11  22  38  56  75 104 138 176 215 259 313
#     4   9  16  26  43  68 101 136 169 203 245 300
#     4   8  14  28  47  71 100 134 168 202 248 302
#     4   9  17  30  49  71 101 137 167 202 252 308
#
# _framework density 16.734805999999999
#
# number of rings (size 3 to 8) (size 9 to 14) (size 15 to 20)
#    0.000    1.750    2.500    4.500    0.000    1.500 
#    0.000    0.625    0.000    0.000    0.000    0.875 
#    0.000    0.000    0.000    0.000    0.000    0.000 
#
# Total GULP energy -178562.393976 kJ/mol
# GULP energy per Si atom -5580.074812 kJ/mol
# Density = 1.669672 g / cm^3
# Si number density = 16.734806 Si / 1000 Ang^3
#
#
#
# Elastic Constant Matrix: (Units=GPa)
#
#
# Indices 1 2 3 4 5 6 
#
# 1 92.0119 0.9691 28.1484 0.0000 -37.1214 0.0000
# 2 0.9691 14.7249 -4.3765 0.0000 -0.5070 0.0000
# 3 28.1484 -4.3765 62.4822 0.0000 -18.4754 0.0000
# 4 0.0000 0.0000 0.0000 25.2517 0.0000 -2.8787
# 5 -37.1214 -0.5070 -18.4754 0.0000 26.3663 0.0000
# 6 0.0000 0.0000 0.0000 -2.8787 0.0000 18.9750
#
#
#
# Elastic Compliance Matrix: (Units=1/GPa)
#
#
# Indices 1 2 3 4 5 6 
#
# 1 0.025226 -0.000813 -0.001166 0.000000 0.034684 0.000000
# 2 -0.000813 0.070137 0.006735 0.000000 0.004924 0.000000
# 3 -0.001166 0.006735 0.020881 0.000000 0.013120 0.000000
# 4 0.000000 0.000000 0.000000 0.040298 0.000000 0.006114
# 5 0.034684 0.004924 0.013120 0.000000 0.096047 0.000000
# 6 0.000000 0.000000 0.000000 0.006114 0.000000 0.053628
#
#
# Mechanical properties :
#
#
# Convention : Reuss Voigt Hill
#
# Bulk Modulus (GPa) = 7.95187 24.30012 16.12600
# Shear Modulus (GPa) = 14.76565 23.75046 19.25806
#
# Velocity S-wave (km/s) = 2.97363 3.77135 3.39599
# Velocity P-wave (km/s) = 4.06841 5.78933 5.00341
#
# Compressibility (1/GPa) = 0.12575652
#
# Stress axis : x y z
#
# Youngs Moduli (GPa) = 39.64123 14.25787 47.89066
#
# Poissons Ratio (x) = 0.01159 0.05583
# Poissons Ratio (y) = 0.03221 -0.32252
# Poissons Ratio (z) = 0.04621 -0.09602
#
# Static dielectric constant tensor:
#      x y z
#    x 1.583780 0.000000 -0.032060 
#    y 0.000000 1.573340 0.000000 
#    z -0.032060 0.000000 1.533280 
# 
# From -- ./inp_files/68328.got.cif
#   From: 2010.05.17/outbox.cif.g08.bks.cpg/sg11_35_cif.got.tgz:68328.got - 2010.06.03 12:22:45.
