data_PCOD9159993
_publ_section_title
;
Structure prediction by ZEFSAII (Michael W. Deem and Ramdas Pophale) SiO2 
 PCOD9159993
Probable space group: P 21/M
;
_chemical_formula_sum "Si O2"
_cell_formula_units_Z 32
_cell_length_a 12.202838
_cell_length_b 11.535023
_cell_length_c 11.804750
_cell_angle_alpha 90.000000
_cell_angle_beta 74.346935
_cell_angle_gamma 90.000000
_cell_volume 1600.011838
_symmetry_space_group_name_H-M "P 21/M"
_symmetry_group_IT_number 11
_symmetry_cell_setting 'monoclinic'
loop_
_space_group_symop_operation_xyz
x,y,z
-x,1/2+y,-z
-x,-y,-z
x,1/2-y,z
loop_
_atom_site_type_symbol
_atom_site_label
_atom_site_fract_x
_atom_site_fract_y
_atom_site_fract_z
Si Si1 0.293859 0.541512 0.811055
Si Si2 0.980915 0.379146 0.569945
Si Si3 0.335552 0.502102 0.148155
Si Si4 0.091648 0.116743 0.787606
Si Si5 0.425940 0.616176 0.554882
Si Si6 0.436025 0.124037 0.935416
Si Si7 0.288860 0.623365 0.370534
Si Si8 0.147074 0.617904 0.059381
O O1 0.202268 0.460326 0.773535
O O2 0.370477 0.602838 0.694667
O O3 0.377953 0.467253 0.867569
O O4 0.213855 0.611372 0.921796
O O5 0.017571 0.250000 0.513738
O O6 0.039764 0.390422 0.675986
O O7 0.000000 0.500000 0.500000
O O8 0.844812 0.373059 0.611947
O O9 0.432364 0.593902 0.083159
O O10 0.334390 0.517600 0.282422
O O11 0.216363 0.538396 0.127241
O O12 0.376077 0.387354 0.074401
O O13 0.122629 0.250000 0.802034
O O14 0.985969 0.085794 0.899961
O O15 0.500000 0.500000 0.500000
O O16 0.475767 0.750000 0.531886
O O17 0.325336 0.612809 0.489576
O O18 0.420208 0.250000 0.890993
O O19 0.334519 0.750000 0.318230
O O20 0.151821 0.750000 0.100585
#
# Coordination Sequence:
#
# PCOD9159993 Si02
#       8
#     4   4   4   4   4   4   4   4
#     4  11  22  37  58  87 123 160 202 251 306 370
#     4  10  20  36  59  85 115 154 201 245 294 352
#     4  10  19  34  57  82 107 146 201 248 294 358
#     4  10  20  35  58  87 120 161 203 249 303 366
#     4  11  25  43  63  91 124 164 212 259 311 368
#     4  10  21  35  55  83 118 156 194 246 311 366
#     4  10  19  36  61  82 111 153 199 249 299 358
#     4  10  19  34  58  86 116 153 201 252 301 361
#
# _framework density 19.999853000000002
#
# number of rings (size 3 to 8) (size 9 to 14) (size 15 to 20)
#    0.000    1.750    1.250    3.750    0.000    2.000 
#    0.000    6.875    0.000    0.750    0.000    0.000 
#    0.000    0.000    0.000    0.000    0.000    0.000 
#
# Total GULP energy -178211.900929 kJ/mol
# GULP energy per Si atom -5569.121904 kJ/mol
# Density = 1.995433 g / cm^3
# Si number density = 19.999853 Si / 1000 Ang^3
#
#
#
# Elastic Constant Matrix: (Units=GPa)
#
#
# Indices 1 2 3 4 5 6 
#
# 1 58.5766 21.1749 -1.8707 0.0000 4.6446 0.0000
# 2 21.1749 97.7785 33.0914 0.0000 -3.9660 0.0000
# 3 -1.8707 33.0914 83.2825 0.0000 5.1861 0.0000
# 4 0.0000 0.0000 0.0000 24.8744 0.0000 -0.5617
# 5 4.6446 -3.9660 5.1861 0.0000 28.6768 0.0000
# 6 0.0000 0.0000 0.0000 -0.5617 0.0000 9.5300
#
#
#
# Elastic Compliance Matrix: (Units=1/GPa)
#
#
# Indices 1 2 3 4 5 6 
#
# 1 0.019445 -0.005350 0.002837 0.000000 -0.004402 0.000000
# 2 -0.005350 0.013469 -0.005706 0.000000 0.003761 0.000000
# 3 0.002837 -0.005706 0.014580 0.000000 -0.003885 0.000000
# 4 0.000000 0.000000 0.000000 0.040255 0.000000 0.002373
# 5 -0.004402 0.003761 -0.003885 0.000000 0.036807 0.000000
# 6 0.000000 0.000000 0.000000 0.002373 0.000000 0.105071
#
#
# Mechanical properties :
#
#
# Convention : Reuss Voigt Hill
#
# Bulk Modulus (GPa) = 32.19973 38.26987 35.23480
# Shear Modulus (GPa) = 19.49929 25.09906 22.29917
#
# Velocity S-wave (km/s) = 3.12584 3.54639 3.34273
# Velocity P-wave (km/s) = 5.40026 5.99548 5.70564
#
# Compressibility (1/GPa) = 0.03105616
#
# Stress axis : x y z
#
# Youngs Moduli (GPa) = 51.42677 74.24205 68.58554
#
# Poissons Ratio (x) = 0.39716 -0.19454
# Poissons Ratio (y) = 0.27511 0.39137
# Poissons Ratio (z) = -0.14587 0.42365
#
# Static dielectric constant tensor:
#      x y z
#    x 1.682460 0.000000 -0.028620 
#    y 0.000000 1.735960 0.000000 
#    z -0.028620 0.000000 1.757160 
# 
# From -- ./inp_files/35048.got.cif
#   From: 2010.05.17/outbox.cif.g08.bks.cpg/sg11_18_cif.got.tgz:35048.got - 2010.06.03 12:22:45.
