data_PCOD9159301
_publ_section_title
;
Structure prediction by ZEFSAII (Michael W. Deem and Ramdas Pophale) SiO2 
 PCOD9159301
Probable space group: P 21/M
;
_chemical_formula_sum "Si O2"
_cell_formula_units_Z 30
_cell_length_a 21.890093
_cell_length_b 7.982187
_cell_length_c 9.567425
_cell_angle_alpha 90.000000
_cell_angle_beta 131.875581
_cell_angle_gamma 90.000000
_cell_volume 1244.759158
_symmetry_space_group_name_H-M "P 21/M"
_symmetry_group_IT_number 11
_symmetry_cell_setting 'monoclinic'
loop_
_space_group_symop_operation_xyz
x,y,z
-x,1/2+y,-z
-x,-y,-z
x,1/2-y,z
loop_
_atom_site_type_symbol
_atom_site_label
_atom_site_fract_x
_atom_site_fract_y
_atom_site_fract_z
Si Si1 0.274008 0.554614 0.503042
Si Si2 0.527207 0.560158 0.332117
Si Si3 0.210786 0.056478 0.117759
Si Si4 0.028087 0.050864 0.887534
Si Si5 0.603917 0.046153 0.082996
Si Si6 0.569627 0.250000 0.582610
Si Si7 0.749097 0.055073 0.107396
Si Si8 0.134119 0.443638 0.499170
O O1 0.280824 0.750000 0.480244
O O2 0.251959 0.457626 0.330349
O O3 0.354509 0.492313 0.707976
O O4 0.197435 0.537167 0.493212
O O5 0.565570 0.750000 0.379466
O O6 0.574035 0.402881 0.471235
O O7 0.453292 0.606762 0.329567
O O8 0.481968 0.502238 0.119758
O O9 0.207410 0.250000 0.069334
O O10 0.118646 0.984424 0.991553
O O11 0.258630 0.961742 0.069458
O O12 0.034873 0.250000 0.898182
O O13 0.957995 0.999017 0.672156
O O14 0.000000 0.000000 0.000000
O O15 0.603849 0.250000 0.086298
O O16 0.672771 0.984747 0.076710
O O17 0.754401 0.250000 0.150134
O O18 0.831933 0.972583 0.293368
O O19 0.140554 0.250000 0.472360
#
# Coordination Sequence:
#
# PCOD9159301 Si02
#       8
#     4   4   4   4   4   2   4   4
#     4  10  19  33  53  73  96 133 169 206 251 304
#     4   8  13  26  42  69 108 136 164 204 243 294
#     4  11  23  37  51  72 101 126 162 215 262 297
#     4  11  22  35  54  74  93 124 163 206 258 316
#     4   8  16  31  51  73 102 133 167 203 244 293
#     4   8  14  22  44  72 104 140 162 198 254 282
#     4  10  21  37  54  72  97 136 169 205 251 307
#     4  11  21  35  53  75 100 122 159 209 262 304
#
# _framework density 24.101046
#
# number of rings (size 3 to 8) (size 9 to 14) (size 15 to 20)
#    0.400    1.867    1.333    3.600    0.000    2.133 
#    7.200    0.000    0.000    0.000    0.000    0.000 
#    0.000    6.400    0.000    0.400    0.000    0.000 
#
# Total GULP energy -167196.368039 kJ/mol
# GULP energy per Si atom -5573.212268 kJ/mol
# Density = 2.404619 g / cm^3
# Si number density = 24.101046 Si / 1000 Ang^3
#
#
#
# Elastic Constant Matrix: (Units=GPa)
#
#
# Indices 1 2 3 4 5 6 
#
# 1 79.7656 8.2840 31.7793 0.0000 20.2139 0.0000
# 2 8.2840 79.3724 -0.0907 0.0000 2.3078 0.0000
# 3 31.7793 -0.0907 131.4066 0.0000 5.5026 0.0000
# 4 0.0000 0.0000 0.0000 34.4398 0.0000 -9.3667
# 5 20.2139 2.3078 5.5026 0.0000 36.5548 0.0000
# 6 0.0000 0.0000 0.0000 -9.3667 0.0000 16.0157
#
#
#
# Elastic Compliance Matrix: (Units=1/GPa)
#
#
# Indices 1 2 3 4 5 6 
#
# 1 0.016227 -0.001455 -0.003576 0.000000 -0.008343 0.000000
# 2 -0.001455 0.012753 0.000363 0.000000 -0.000055 0.000000
# 3 -0.003576 0.000363 0.008446 0.000000 0.000683 0.000000
# 4 0.000000 0.000000 0.000000 0.034528 0.000000 0.020194
# 5 -0.008343 -0.000055 0.000683 0.000000 0.031870 0.000000
# 6 0.000000 0.000000 0.000000 0.020194 0.000000 0.074249
#
#
# Mechanical properties :
#
#
# Convention : Reuss Voigt Hill
#
# Bulk Modulus (GPa) = 35.59999 41.16553 38.38276
# Shear Modulus (GPa) = 25.41004 34.10686 29.75845
#
# Velocity S-wave (km/s) = 3.25054 3.76594 3.51769
# Velocity P-wave (km/s) = 5.37506 6.00227 5.69730
#
# Compressibility (1/GPa) = 0.02808990
#
# Stress axis : x y z
#
# Youngs Moduli (GPa) = 61.62667 78.41463 118.39343
#
# Poissons Ratio (x) = 0.11410 0.42336
# Poissons Ratio (y) = 0.08967 -0.04298
# Poissons Ratio (z) = 0.22037 -0.02847
#
# Static dielectric constant tensor:
#      x y z
#    x 2.014230 0.000000 0.008990 
#    y 0.000000 1.833870 0.000000 
#    z 0.008990 0.000000 1.922470 
# 
# From -- ./inp_files/28912.got.cif
#   From: 2010.05.17/outbox.cif.g08.bks.cpg/sg11_15_cif.got.tgz:28912.got - 2010.06.03 12:22:45.
