data_PCOD9159174
_publ_section_title
;
Structure prediction by ZEFSAII (Michael W. Deem and Ramdas Pophale) SiO2 
 PCOD9159174
Probable space group: P 21/M
;
_chemical_formula_sum "Si O2"
_cell_formula_units_Z 24
_cell_length_a 10.278270
_cell_length_b 14.424923
_cell_length_c 9.087621
_cell_angle_alpha 90.000000
_cell_angle_beta 46.361799
_cell_angle_gamma 90.000000
_cell_volume 975.100661
_symmetry_space_group_name_H-M "P 21/M"
_symmetry_group_IT_number 11
_symmetry_cell_setting 'monoclinic'
loop_
_space_group_symop_operation_xyz
x,y,z
-x,1/2+y,-z
-x,-y,-z
x,1/2-y,z
loop_
_atom_site_type_symbol
_atom_site_label
_atom_site_fract_x
_atom_site_fract_y
_atom_site_fract_z
Si Si1 0.870134 0.853829 0.275173
Si Si2 0.618913 0.536518 0.271499
Si Si3 0.725550 0.348675 0.128872
Si Si4 0.799744 0.526908 0.602941
Si Si5 0.278268 0.356184 0.071096
Si Si6 0.844269 0.352950 0.378595
O O1 0.802588 0.750000 0.292550
O O2 0.798885 0.929666 0.216316
O O3 0.811122 0.888269 0.479978
O O4 0.084122 0.850616 0.100629
O O5 0.500000 0.500000 0.500000
O O6 0.629655 0.443429 0.167024
O O7 0.607694 0.619285 0.162782
O O8 0.633956 0.250000 0.171830
O O9 0.771521 0.352911 0.268043
O O10 0.694063 0.567290 0.824107
O O11 0.755401 0.435411 0.541892
O O12 0.000000 0.500000 0.500000
O O13 0.310346 0.250000 0.091849
O O14 0.062129 0.363549 0.203285
O O15 0.809904 0.250000 0.467834
#
# Coordination Sequence:
#
# PCOD9159174 Si02
#       6
#     4   4   4   4   4   4
#     4  11  21  37  63  89 117 156 204 250 297 357
#     4  12  24  38  58  86 117 160 200 251 297 356
#     4  10  19  34  59  87 114 149 197 249 296 345
#     4  10  19  32  57  91 121 149 190 249 297 357
#     4  10  20  36  56  83 118 154 190 235 300 359
#     4   9  16  30  56  86 116 150 187 237 293 344
#
# _framework density 24.612842000000001
#
# number of rings (size 3 to 8) (size 9 to 14) (size 15 to 20)
#    0.000    1.667    3.333    3.500    0.000    2.000 
#    0.000    1.667    0.000    0.000    0.000    0.000 
#    0.000    0.000    0.000    0.000    0.000    0.000 
#
# Total GULP energy -134007.231571 kJ/mol
# GULP energy per Si atom -5583.634649 kJ/mol
# Density = 2.455682 g / cm^3
# Si number density = 24.612842 Si / 1000 Ang^3
#
#
#
# Elastic Constant Matrix: (Units=GPa)
#
#
# Indices 1 2 3 4 5 6 
#
# 1 28.9389 3.8110 10.4798 0.0000 0.2944 0.0000
# 2 3.8110 174.8672 54.6715 0.0000 -4.3673 0.0000
# 3 10.4798 54.6715 111.1116 0.0000 10.2650 0.0000
# 4 0.0000 0.0000 0.0000 40.9101 0.0000 10.7850
# 5 0.2944 -4.3673 10.2650 0.0000 29.6323 0.0000
# 6 0.0000 0.0000 0.0000 10.7850 0.0000 16.6603
#
#
#
# Elastic Compliance Matrix: (Units=1/GPa)
#
#
# Indices 1 2 3 4 5 6 
#
# 1 0.035820 0.000387 -0.003659 0.000000 0.000969 0.000000
# 2 0.000387 0.006907 -0.003645 0.000000 0.002277 0.000000
# 3 -0.003659 -0.003645 0.011555 0.000000 -0.004504 0.000000
# 4 0.000000 0.000000 0.000000 0.029474 0.000000 -0.019080
# 5 0.000969 0.002277 -0.004504 0.000000 0.035633 0.000000
# 6 0.000000 0.000000 0.000000 -0.019080 0.000000 0.072374
#
#
# Mechanical properties :
#
#
# Convention : Reuss Voigt Hill
#
# Bulk Modulus (GPa) = 24.72299 50.31580 37.51939
# Shear Modulus (GPa) = 22.82295 33.83756 28.33026
#
# Velocity S-wave (km/s) = 3.04843 3.71184 3.39637
# Velocity P-wave (km/s) = 4.73889 6.23359 5.53691
#
# Compressibility (1/GPa) = 0.04044819
#
# Stress axis : x y z
#
# Youngs Moduli (GPa) = 27.91769 144.78628 86.54469
#
# Poissons Ratio (x) = -0.05609 0.31662
# Poissons Ratio (y) = -0.01081 0.31548
# Poissons Ratio (z) = 0.10214 0.52779
#
# Static dielectric constant tensor:
#      x y z
#    x 2.073170 0.000000 -0.054030 
#    y 0.000000 1.964340 0.000000 
#    z -0.054030 0.000000 1.850660 
# 
# From -- ./inp_files/22004.got.cif
#   From: 2010.05.17/outbox.cif.g08.bks.cpg/sg11_12_cif.got.tgz:22004.got - 2010.06.03 12:22:45.
