data_PCOD9159279
_publ_section_title
;
Structure prediction by ZEFSAII (Michael W. Deem and Ramdas Pophale) SiO2 
 PCOD9159279
Probable space group: P 21/M
;
_chemical_formula_sum "Si O2"
_cell_formula_units_Z 32
_cell_length_a 21.046303
_cell_length_b 7.961828
_cell_length_c 25.431511
_cell_angle_alpha 90.000000
_cell_angle_beta 162.976167
_cell_angle_gamma 90.000000
_cell_volume 1247.632151
_symmetry_space_group_name_H-M "P 21/M"
_symmetry_group_IT_number 11
_symmetry_cell_setting 'monoclinic'
loop_
_space_group_symop_operation_xyz
x,y,z
-x,1/2+y,-z
-x,-y,-z
x,1/2-y,z
loop_
_atom_site_type_symbol
_atom_site_label
_atom_site_fract_x
_atom_site_fract_y
_atom_site_fract_z
Si Si1 0.006845 0.546556 0.174424
Si Si2 0.021495 0.449313 0.732956
Si Si3 0.918285 0.049701 0.376825
Si Si4 0.465551 0.055497 0.667865
Si Si5 0.485861 0.443978 0.408798
Si Si6 0.373594 0.043995 0.704944
Si Si7 0.533610 0.050420 0.946807
Si Si8 0.051786 0.559280 0.099100
O O1 0.983177 0.750000 0.154276
O O2 0.264442 0.511056 0.384960
O O3 0.956329 0.475754 0.076349
O O4 0.910569 0.490207 0.154033
O O5 0.973221 0.250000 0.697027
O O6 0.797976 0.542690 0.543904
O O7 0.225194 0.479338 0.856245
O O8 0.913755 0.250000 0.368283
O O9 0.121111 0.987272 0.502645
O O10 0.670008 0.991332 0.177134
O O11 0.000000 0.000000 0.500000
O O12 0.527509 0.250000 0.713595
O O13 0.505447 0.984800 0.758148
O O14 0.551008 0.966723 0.683266
O O15 0.452120 0.250000 0.395247
O O16 0.313849 0.547378 0.306238
O O17 0.377245 0.250000 0.706746
O O18 0.459031 0.990036 0.829422
O O19 0.554562 0.250000 0.962829
O O20 0.983969 0.750000 0.047587
O O21 0.000000 0.500000 0.000000
#
# Coordination Sequence:
#
# PCOD9159279 Si02
#       8
#     4   4   4   4   4   4   4   4
#     4   8  18  36  57  76 101 135 174 212 254 305
#     4  10  20  36  54  77 105 136 172 215 258 304
#     4   9  16  30  50  74 102 135 171 213 257 306
#     4  10  19  35  56  79 105 137 171 211 258 308
#     4  10  20  37  57  79 104 136 174 213 252 304
#     4   8  17  32  52  76 104 133 170 214 259 307
#     4  10  19  33  52  77 104 136 174 215 257 306
#     4  11  22  37  55  80 109 138 169 211 259 304
#
# _framework density 25.648586999999999
#
# number of rings (size 3 to 8) (size 9 to 14) (size 15 to 20)
#    0.000    2.500    0.000    4.125    0.000    1.000 
#    0.000   17.500    0.000    0.000    0.000    0.000 
#    0.000    0.000    0.000    0.000    0.000    0.000 
#
# Total GULP energy -178872.246107 kJ/mol
# GULP energy per Si atom -5589.757691 kJ/mol
# Density = 2.559021 g / cm^3
# Si number density = 25.648587 Si / 1000 Ang^3
#
#
#
# Elastic Constant Matrix: (Units=GPa)
#
#
# Indices 1 2 3 4 5 6 
#
# 1 149.3066 -5.9941 12.0126 0.0000 18.5094 0.0000
# 2 -5.9941 48.0605 8.5153 0.0000 -0.6395 0.0000
# 3 12.0126 8.5153 84.3477 0.0000 24.5930 0.0000
# 4 0.0000 0.0000 0.0000 29.7345 0.0000 6.5852
# 5 18.5094 -0.6395 24.5930 0.0000 49.2903 0.0000
# 6 0.0000 0.0000 0.0000 6.5852 0.0000 12.8082
#
#
#
# Elastic Compliance Matrix: (Units=1/GPa)
#
#
# Indices 1 2 3 4 5 6 
#
# 1 0.007069 0.000917 -0.000385 0.000000 -0.002451 0.000000
# 2 0.000917 0.021409 -0.002659 0.000000 0.001260 0.000000
# 3 -0.000385 -0.002659 0.014215 0.000000 -0.006982 0.000000
# 4 0.000000 0.000000 0.000000 0.037952 0.000000 -0.019513
# 5 -0.002451 0.001260 -0.006982 0.000000 0.024708 0.000000
# 6 0.000000 0.000000 0.000000 -0.019513 0.000000 0.088108
#
#
# Mechanical properties :
#
#
# Convention : Reuss Voigt Hill
#
# Bulk Modulus (GPa) = 26.01497 34.53137 30.27317
# Shear Modulus (GPa) = 23.74969 36.17865 29.96417
#
# Velocity S-wave (km/s) = 3.04627 3.75981 3.42169
# Velocity P-wave (km/s) = 4.74741 5.68689 5.23825
#
# Compressibility (1/GPa) = 0.03843941
#
# Stress axis : x y z
#
# Youngs Moduli (GPa) = 141.45822 46.70825 70.34919
#
# Poissons Ratio (x) = -0.04284 0.02707
# Poissons Ratio (y) = -0.12975 0.18709
# Poissons Ratio (z) = 0.05444 0.12422
#
# Static dielectric constant tensor:
#      x y z
#    x 2.103400 0.000000 -0.076320 
#    y 0.000000 2.189350 0.000000 
#    z -0.076320 0.000000 2.111760 
# 
# From -- ./inp_files/72191.got.cif
#   From: 2010.05.17/outbox.cif.g08.bks.cpg/sg11_37_cif.got.tgz:72191.got - 2010.06.03 12:22:45.
