data_PCOD9159614
_publ_section_title
;
Structure prediction by ZEFSAII (Michael W. Deem and Ramdas Pophale) SiO2 
 PCOD9159614
Probable space group: P 21/M
;
_chemical_formula_sum "Si O2"
_cell_formula_units_Z 32
_cell_length_a 20.432601
_cell_length_b 8.955498
_cell_length_c 25.384566
_cell_angle_alpha 90.000000
_cell_angle_beta 23.272851
_cell_angle_gamma 90.000000
_cell_volume 1835.276264
_symmetry_space_group_name_H-M "P 21/M"
_symmetry_group_IT_number 11
_symmetry_cell_setting 'monoclinic'
loop_
_space_group_symop_operation_xyz
x,y,z
-x,1/2+y,-z
-x,-y,-z
x,1/2-y,z
loop_
_atom_site_type_symbol
_atom_site_label
_atom_site_fract_x
_atom_site_fract_y
_atom_site_fract_z
Si Si1 0.739192 0.072018 0.178687
Si Si2 0.927062 0.928651 0.358882
Si Si3 0.031107 0.572302 0.894076
Si Si4 0.767223 0.572715 0.809670
Si Si5 0.571365 0.428592 0.642131
Si Si6 0.553577 0.427844 0.880913
Si Si7 0.944766 0.071768 0.852884
Si Si8 0.417266 0.071064 0.870038
O O1 0.731867 0.250000 0.175869
O O2 0.815369 0.044119 0.180255
O O3 0.562718 0.998662 0.298406
O O4 0.871132 0.001040 0.040426
O O5 0.916349 0.750000 0.371239
O O6 0.984074 0.965863 0.257140
O O7 0.751127 0.002441 0.500648
O O8 0.067944 0.990622 0.293590
O O9 0.004893 0.750000 0.910033
O O10 0.046483 0.502764 0.825138
O O11 0.793551 0.750000 0.789013
O O12 0.694925 0.514770 0.807843
O O13 0.620684 0.540963 0.960444
O O14 0.575988 0.250000 0.632920
O O15 0.505203 0.463134 0.749940
O O16 0.583470 0.250000 0.863287
O O17 0.528703 0.467416 0.838352
O O18 0.945183 0.250000 0.858647
O O19 0.757878 0.010959 0.995832
O O20 0.386789 0.250000 0.894650
#
# Coordination Sequence:
#
# PCOD9159614 Si02
#       8
#     4   4   4   4   4   4   4   4
#     4  10  20  35  56  84 116 150 187 230 281 335
#     4  11  24  40  57  81 116 154 191 234 285 342
#     4  10  20  34  56  85 116 148 186 233 282 332
#     4  10  19  33  56  84 113 147 187 231 281 339
#     4  11  23  38  59  85 114 152 192 232 283 343
#     4   9  18  33  55  83 115 146 179 232 287 334
#     4  11  22  35  57  86 113 146 191 238 283 334
#     4  10  20  36  58  85 114 145 187 235 284 337
#
# _framework density 17.436066
#
# number of rings (size 3 to 8) (size 9 to 14) (size 15 to 20)
#    0.000    1.750    2.500    2.250    0.000    4.500 
#    0.000    1.250    0.000    0.000    0.000    0.000 
#    0.000    0.000    0.000    0.000    0.000    0.000 
#
# Total GULP energy -178724.652761 kJ/mol
# GULP energy per Si atom -5585.145399 kJ/mol
# Density = 1.739638 g / cm^3
# Si number density = 17.436066 Si / 1000 Ang^3
#
#
#
# Elastic Constant Matrix: (Units=GPa)
#
#
# Indices 1 2 3 4 5 6 
#
# 1 136.4856 65.6526 70.2547 0.0000 -17.4153 0.0000
# 2 65.6526 68.2542 66.4821 0.0000 -7.7880 0.0000
# 3 70.2547 66.4821 118.0156 0.0000 -16.4285 0.0000
# 4 0.0000 0.0000 0.0000 29.2823 0.0000 -5.9081
# 5 -17.4153 -7.7880 -16.4285 0.0000 24.9214 0.0000
# 6 0.0000 0.0000 0.0000 -5.9081 0.0000 32.7027
#
#
#
# Elastic Compliance Matrix: (Units=1/GPa)
#
#
# Indices 1 2 3 4 5 6 
#
# 1 0.014473 -0.012523 -0.000768 0.000000 0.005694 0.000000
# 2 -0.012523 0.043401 -0.017974 0.000000 -0.007037 0.000000
# 3 -0.000768 -0.017974 0.020038 0.000000 0.007056 0.000000
# 4 0.000000 0.000000 0.000000 0.035442 0.000000 0.006403
# 5 0.005694 -0.007037 0.007056 0.000000 0.046557 0.000000
# 6 0.000000 0.000000 0.000000 0.006403 0.000000 0.031735
#
#
# Mechanical properties :
#
#
# Convention : Reuss Voigt Hill
#
# Bulk Modulus (GPa) = 65.01275 80.83714 72.92494
# Shear Modulus (GPa) = 19.28237 25.40569 22.34403
#
# Velocity S-wave (km/s) = 3.32910 3.82131 3.58366
# Velocity P-wave (km/s) = 7.22112 8.11989 7.68365
#
# Compressibility (1/GPa) = 0.01538160
#
# Stress axis : x y z
#
# Youngs Moduli (GPa) = 69.09630 23.04093 49.90408
#
# Poissons Ratio (x) = 0.28854 0.03835
# Poissons Ratio (y) = 0.86528 0.89698
# Poissons Ratio (z) = 0.05309 0.41414
#
# Static dielectric constant tensor:
#      x y z
#    x 1.600200 0.000000 0.000860 
#    y 0.000000 1.578240 0.000000 
#    z 0.000860 0.000000 1.556000 
# 
# From -- ./inp_files/72094.got.cif
#   From: 2010.05.17/outbox.cif.g08.bks.cpg/sg11_37_cif.got.tgz:72094.got - 2010.06.03 12:22:45.
