data_PCOD9159540
_publ_section_title
;
Structure prediction by ZEFSAII (Michael W. Deem and Ramdas Pophale) SiO2 
 PCOD9159540
Probable space group: P 21/M
;
_chemical_formula_sum "Si O2"
_cell_formula_units_Z 28
_cell_length_a 13.502622
_cell_length_b 8.415094
_cell_length_c 18.948672
_cell_angle_alpha 90.000000
_cell_angle_beta 143.865829
_cell_angle_gamma 90.000000
_cell_volume 1269.611607
_symmetry_space_group_name_H-M "P 21/M"
_symmetry_group_IT_number 11
_symmetry_cell_setting 'monoclinic'
loop_
_space_group_symop_operation_xyz
x,y,z
-x,1/2+y,-z
-x,-y,-z
x,1/2-y,z
loop_
_atom_site_type_symbol
_atom_site_label
_atom_site_fract_x
_atom_site_fract_y
_atom_site_fract_z
Si Si1 0.317118 0.941824 0.910463
Si Si2 0.418687 0.559830 0.711758
Si Si3 0.092673 0.073427 0.122230
Si Si4 0.273592 0.929388 0.035609
Si Si5 0.194755 0.560250 0.461604
Si Si6 0.691204 0.558891 0.622225
Si Si7 0.137717 0.557635 0.665341
O O1 0.304107 0.750000 0.906522
O O2 0.203776 0.989617 0.780534
O O3 0.286150 0.015035 0.968502
O O4 0.500000 0.000000 0.000000
O O5 0.410568 0.750000 0.709358
O O6 0.607819 0.510627 0.839046
O O7 0.360926 0.509179 0.600733
O O8 0.280903 0.504797 0.691664
O O9 0.154290 0.250000 0.137487
O O10 0.227224 0.001405 0.255582
O O11 0.923459 0.085949 0.069792
O O12 0.000000 0.000000 0.000000
O O13 0.343819 0.750000 0.073005
O O14 0.191796 0.750000 0.451765
O O15 0.201800 0.488158 0.386748
O O16 0.048449 0.513873 0.434115
O O17 0.500000 0.500000 0.500000
O O18 0.691945 0.750000 0.627001
O O19 0.123584 0.750000 0.651112
#
# Coordination Sequence:
#
# PCOD9159540 Si02
#       7
#     4   4   4   4   4   4   4
#     4  10  19  33  55  82 116 156 200 249 302 368
#     4  10  22  38  58  88 126 168 211 259 312 370
#     4  10  24  45  69  98 129 163 207 265 323 382
#     4  10  21  37  59  89 123 160 207 255 313 379
#     4  11  24  40  61  91 126 164 215 266 314 377
#     4  11  25  47  72  97 131 170 213 265 323 387
#     4  10  20  37  59  85 123 167 209 257 319 375
#
# _framework density 22.053989000000001
#
# number of rings (size 3 to 8) (size 9 to 14) (size 15 to 20)
#    0.000    1.714    1.429    2.143    2.000    6.286 
#    0.000    1.429    0.000    0.000    0.000    0.000 
#    0.000    0.000    0.000    0.000    0.000    0.000 
#
# Total GULP energy -155887.165425 kJ/mol
# GULP energy per Si atom -5567.398765 kJ/mol
# Density = 2.200379 g / cm^3
# Si number density = 22.053989 Si / 1000 Ang^3
#
#
#
# Elastic Constant Matrix: (Units=GPa)
#
#
# Indices 1 2 3 4 5 6 
#
# 1 24.3281 4.5258 0.8558 0.0000 3.4693 0.0000
# 2 4.5258 19.1989 16.7002 0.0000 -9.6677 0.0000
# 3 0.8558 16.7002 151.6887 0.0000 -18.9865 0.0000
# 4 0.0000 0.0000 0.0000 25.9983 0.0000 3.0378
# 5 3.4693 -9.6677 -18.9865 0.0000 35.4994 0.0000
# 6 0.0000 0.0000 0.0000 3.0378 0.0000 25.7395
#
#
#
# Elastic Compliance Matrix: (Units=1/GPa)
#
#
# Indices 1 2 3 4 5 6 
#
# 1 0.045099 -0.015151 0.000370 0.000000 -0.008335 0.000000
# 2 -0.015151 0.069082 -0.005337 0.000000 0.017440 0.000000
# 3 0.000370 -0.005337 0.007493 0.000000 0.002518 0.000000
# 4 0.000000 0.000000 0.000000 0.039002 0.000000 -0.004603
# 5 -0.008335 0.017440 0.002518 0.000000 0.035080 0.000000
# 6 0.000000 0.000000 0.000000 -0.004603 0.000000 0.039394
#
#
# Mechanical properties :
#
#
# Convention : Reuss Voigt Hill
#
# Bulk Modulus (GPa) = 12.27918 26.59771 19.43844
# Shear Modulus (GPa) = 16.52715 28.98969 22.75842
#
# Velocity S-wave (km/s) = 2.74048 3.62952 3.21587
# Velocity P-wave (km/s) = 3.94886 5.44527 4.75629
#
# Compressibility (1/GPa) = 0.08143864
#
# Stress axis : x y z
#
# Youngs Moduli (GPa) = 22.17347 14.47549 133.45556
#
# Poissons Ratio (x) = 0.21932 -0.04941
# Poissons Ratio (y) = 0.33595 0.71229
# Poissons Ratio (z) = -0.00821 0.07726
#
# Static dielectric constant tensor:
#      x y z
#    x 1.938540 0.000000 0.044630 
#    y 0.000000 1.894510 0.000000 
#    z 0.044630 0.000000 1.907650 
# 
# From -- ./inp_files/65469.got.cif
#   From: 2010.05.17/outbox.cif.g08.bks.cpg/sg11_33_cif.got.tgz:65469.got - 2010.06.03 12:22:45.
