data_PCOD9159414
_publ_section_title
;
Structure prediction by ZEFSAII (Michael W. Deem and Ramdas Pophale) SiO2 
 PCOD9159414
Probable space group: P 21/M
;
_chemical_formula_sum "Si O2"
_cell_formula_units_Z 28
_cell_length_a 20.605431
_cell_length_b 9.322496
_cell_length_c 8.024598
_cell_angle_alpha 90.000000
_cell_angle_beta 54.160819
_cell_angle_gamma 90.000000
_cell_volume 1249.619731
_symmetry_space_group_name_H-M "P 21/M"
_symmetry_group_IT_number 11
_symmetry_cell_setting 'monoclinic'
loop_
_space_group_symop_operation_xyz
x,y,z
-x,1/2+y,-z
-x,-y,-z
x,1/2-y,z
loop_
_atom_site_type_symbol
_atom_site_label
_atom_site_fract_x
_atom_site_fract_y
_atom_site_fract_z
Si Si1 0.835831 0.082635 0.673075
Si Si2 0.397383 0.583624 0.527721
Si Si3 0.976804 0.914768 0.298160
Si Si4 0.756279 0.410602 0.428931
Si Si5 0.695314 0.920519 0.045751
Si Si6 0.111990 0.086907 0.931093
Si Si7 0.539232 0.920826 0.094652
O O1 0.845361 0.250000 0.701832
O O2 0.787349 0.075299 0.569765
O O3 0.919878 0.006497 0.504641
O O4 0.778926 0.998438 0.885600
O O5 0.399740 0.750000 0.581977
O O6 0.338221 0.579033 0.456063
O O7 0.352594 0.485855 0.727369
O O8 0.484830 0.538322 0.336246
O O9 0.983651 0.750000 0.342330
O O10 0.933708 0.913693 0.180077
O O11 0.061258 0.989152 0.132589
O O12 0.780633 0.250000 0.335778
O O13 0.802252 0.523508 0.244757
O O14 0.706075 0.750000 0.044971
O O15 0.632254 0.948309 0.989798
O O16 0.115324 0.250000 0.985627
O O17 0.529612 0.750000 0.088685
O O18 0.500000 0.000000 0.000000
#
# Coordination Sequence:
#
# PCOD9159414 Si02
#       7
#     4   4   4   4   4   4   4
#     4  10  19  33  54  78 106 142 181 222 269 319
#     4  10  21  38  57  78 107 144 182 218 262 318
#     4   9  16  27  45  72 106 139 175 222 268 312
#     4   9  18  32  52  77 104 137 180 225 267 314
#     4  11  23  37  54  80 111 142 178 220 266 317
#     4   9  16  26  44  72 105 139 175 217 268 320
#     4  10  22  39  60  85 111 139 176 221 267 316
#
# _framework density 22.406817
#
# number of rings (size 3 to 8) (size 9 to 14) (size 15 to 20)
#    0.000    2.286    0.000    3.000    0.000    7.429 
#    0.000    0.000    0.000    0.857    0.000    0.000 
#    0.000    0.000    0.000    0.000    0.000    0.000 
#
# Total GULP energy -156574.714485 kJ/mol
# GULP energy per Si atom -5591.954089 kJ/mol
# Density = 2.235582 g / cm^3
# Si number density = 22.406817 Si / 1000 Ang^3
#
#
#
# Elastic Constant Matrix: (Units=GPa)
#
#
# Indices 1 2 3 4 5 6 
#
# 1 70.9866 16.1970 18.5288 0.0000 -9.8179 0.0000
# 2 16.1970 125.7038 74.6074 0.0000 -17.3850 0.0000
# 3 18.5288 74.6074 120.6682 0.0000 -24.2723 0.0000
# 4 0.0000 0.0000 0.0000 37.8890 0.0000 -3.2499
# 5 -9.8179 -17.3850 -24.2723 0.0000 41.4795 0.0000
# 6 0.0000 0.0000 0.0000 -3.2499 0.0000 17.1003
#
#
#
# Elastic Compliance Matrix: (Units=1/GPa)
#
#
# Indices 1 2 3 4 5 6 
#
# 1 0.014950 -0.000818 -0.001300 0.000000 0.002435 0.000000
# 2 -0.000818 0.012636 -0.007549 0.000000 0.000685 0.000000
# 3 -0.001300 -0.007549 0.014118 0.000000 0.004789 0.000000
# 4 0.000000 0.000000 0.000000 0.026830 0.000000 0.005099
# 5 0.002435 0.000685 0.004789 0.000000 0.027774 0.000000
# 6 0.000000 0.000000 0.000000 0.005099 0.000000 0.059447
#
#
# Mechanical properties :
#
#
# Convention : Reuss Voigt Hill
#
# Bulk Modulus (GPa) = 44.70450 59.55835 52.13143
# Shear Modulus (GPa) = 27.39028 33.16213 30.27620
#
# Velocity S-wave (km/s) = 3.50009 3.85125 3.67986
# Velocity P-wave (km/s) = 6.02734 6.81281 6.43207
#
# Compressibility (1/GPa) = 0.02236911
#
# Stress axis : x y z
#
# Youngs Moduli (GPa) = 66.89004 79.13933 70.83253
#
# Poissons Ratio (x) = 0.06473 0.09209
# Poissons Ratio (y) = 0.05471 0.53473
# Poissons Ratio (z) = 0.08696 0.59744
#
# Static dielectric constant tensor:
#      x y z
#    x 1.867530 0.000000 0.039630 
#    y 0.000000 1.366770 0.000000 
#    z 0.039630 0.000000 1.780170 
# 
# From -- ./inp_files/28286.got.cif
#   From: 2010.05.17/outbox.cif.g08.bks.cpg/sg11_15_cif.got.tgz:28286.got - 2010.06.03 12:22:45.
