data_PCOD9159610
_publ_section_title
;
Structure prediction by ZEFSAII (Michael W. Deem and Ramdas Pophale) SiO2 
 PCOD9159610
Probable space group: P 21/M
;
_chemical_formula_sum "Si O2"
_cell_formula_units_Z 24
_cell_length_a 11.992953
_cell_length_b 20.200229
_cell_length_c 6.445515
_cell_angle_alpha 90.000000
_cell_angle_beta 123.917465
_cell_angle_gamma 90.000000
_cell_volume 1295.792858
_symmetry_space_group_name_H-M "P 21/M"
_symmetry_group_IT_number 11
_symmetry_cell_setting 'monoclinic'
loop_
_space_group_symop_operation_xyz
x,y,z
-x,1/2+y,-z
-x,-y,-z
x,1/2-y,z
loop_
_atom_site_type_symbol
_atom_site_label
_atom_site_fract_x
_atom_site_fract_y
_atom_site_fract_z
Si Si1 0.030770 0.674422 0.633533
Si Si2 0.695605 0.177858 0.341380
Si Si3 0.705190 0.508555 0.771248
Si Si4 0.554153 0.460549 0.249771
Si Si5 0.844254 0.116167 0.848268
Si Si6 0.037688 0.056727 0.710188
O O1 0.983146 0.750000 0.582499
O O2 0.181851 0.673785 0.694329
O O3 0.947050 0.624112 0.405380
O O4 0.049098 0.645238 0.881676
O O5 0.629812 0.250000 0.249917
O O6 0.606349 0.111958 0.242297
O O7 0.767983 0.172168 0.640916
O O8 0.669983 0.502432 0.489836
O O9 0.573302 0.541596 0.729925
O O10 0.735231 0.430589 0.848680
O O11 0.833706 0.540875 0.014447
O O12 0.500000 0.500000 0.000000
O O13 0.919971 0.070966 0.755236
O O14 0.000000 0.000000 0.500000
#
# Coordination Sequence:
#
# PCOD9159610 Si02
#       6
#     4   4   4   4   4   4
#     4  10  20  34  55  83 115 148 185 232 287 341
#     4   9  19  35  55  81 109 143 188 238 285 335
#     4  10  21  34  53  85 109 146 190 230 279 333
#     4  10  21  35  56  79 113 148 189 237 277 328
#     4  10  19  33  56  84 112 144 188 236 290 330
#     4  11  22  34  58  87 115 147 187 235 287 346
#
# _framework density 18.52148
#
# number of rings (size 3 to 8) (size 9 to 14) (size 15 to 20)
#    0.000    2.000    1.667    2.000    4.667    0.667 
#    0.000    0.833    0.000    1.000    0.000    0.000 
#    0.000    0.000    0.000    0.000    0.000    0.000 
#
# Total GULP energy -133601.142860 kJ/mol
# GULP energy per Si atom -5566.714286 kJ/mol
# Density = 1.847932 g / cm^3
# Si number density = 18.521480 Si / 1000 Ang^3
#
#
#
# Elastic Constant Matrix: (Units=GPa)
#
#
# Indices 1 2 3 4 5 6 
#
# 1 38.2536 28.9147 15.4195 0.0000 2.5459 0.0000
# 2 28.9147 127.9576 72.0250 0.0000 -4.6874 0.0000
# 3 15.4195 72.0250 139.6811 0.0000 11.5195 0.0000
# 4 0.0000 0.0000 0.0000 26.0457 0.0000 8.1295
# 5 2.5459 -4.6874 11.5195 0.0000 23.3175 0.0000
# 6 0.0000 0.0000 0.0000 8.1295 0.0000 18.9318
#
#
#
# Elastic Compliance Matrix: (Units=1/GPa)
#
#
# Indices 1 2 3 4 5 6 
#
# 1 0.032201 -0.008098 0.001090 0.000000 -0.005682 0.000000
# 2 -0.008098 0.013696 -0.006743 0.000000 0.006968 0.000000
# 3 0.001090 -0.006743 0.011089 0.000000 -0.006953 0.000000
# 4 0.000000 0.000000 0.000000 0.044336 0.000000 -0.019038
# 5 -0.005682 0.006968 -0.006953 0.000000 0.048342 0.000000
# 6 0.000000 0.000000 0.000000 -0.019038 0.000000 0.060996
#
#
# Mechanical properties :
#
#
# Convention : Reuss Voigt Hill
#
# Bulk Modulus (GPa) = 33.91711 59.84564 46.88138
# Shear Modulus (GPa) = 20.16200 26.29456 23.22828
#
# Velocity S-wave (km/s) = 3.30293 3.77195 3.54521
# Velocity P-wave (km/s) = 5.73567 7.16602 6.49036
#
# Compressibility (1/GPa) = 0.02948364
#
# Stress axis : x y z
#
# Youngs Moduli (GPa) = 31.05460 73.01587 90.17853
#
# Poissons Ratio (x) = 0.59128 -0.09825
# Poissons Ratio (y) = 0.25148 0.60805
# Poissons Ratio (z) = -0.03383 0.49233
#
# Static dielectric constant tensor:
#      x y z
#    x 1.711090 0.000000 -0.041630 
#    y 0.000000 1.655640 0.000000 
#    z -0.041630 0.000000 1.691240 
# 
# From -- ./inp_files/4751.got.cif
#   From: 2010.05.17/outbox.cif.g08.bks.cpg/sg11_3_cif.got.tgz:4751.got - 2010.06.03 12:22:45.
