data_PCOD9159396
_publ_section_title
;
Structure prediction by ZEFSAII (Michael W. Deem and Ramdas Pophale) SiO2 
 PCOD9159396
Probable space group: P 21/M
;
_chemical_formula_sum "Si O2"
_cell_formula_units_Z 32
_cell_length_a 7.059008
_cell_length_b 17.119595
_cell_length_c 13.758723
_cell_angle_alpha 90.000000
_cell_angle_beta 129.332774
_cell_angle_gamma 90.000000
_cell_volume 1286.065624
_symmetry_space_group_name_H-M "P 21/M"
_symmetry_group_IT_number 11
_symmetry_cell_setting 'monoclinic'
loop_
_space_group_symop_operation_xyz
x,y,z
-x,1/2+y,-z
-x,-y,-z
x,1/2-y,z
loop_
_atom_site_type_symbol
_atom_site_label
_atom_site_fract_x
_atom_site_fract_y
_atom_site_fract_z
Si Si1 0.340386 0.594336 0.872824
Si Si2 0.512610 0.658104 0.331484
Si Si3 0.748313 0.923127 0.144520
Si Si4 0.047421 0.341316 0.099371
Si Si5 0.528575 0.843505 0.648490
Si Si6 0.877861 0.339812 0.614315
Si Si7 0.873679 0.063168 0.886470
Si Si8 0.933198 0.842104 0.609326
O O1 0.387449 0.502527 0.871069
O O2 0.147734 0.616417 0.895579
O O3 0.192410 0.623941 0.729845
O O4 0.587538 0.620859 0.010038
O O5 0.519808 0.750000 0.299896
O O6 0.315436 0.660057 0.357806
O O7 0.402437 0.590053 0.226753
O O8 0.775441 0.635503 0.463347
O O9 0.864255 0.874114 0.268475
O O10 0.993195 0.953646 0.170657
O O11 0.040314 0.250000 0.120843
O O12 0.322277 0.372190 0.209292
O O13 0.970135 0.356356 0.965258
O O14 0.489357 0.750000 0.647018
O O15 0.277598 0.877339 0.524766
O O16 0.736561 0.854056 0.632851
O O17 0.921610 0.250000 0.604239
O O18 0.000000 0.000000 0.000000
O O19 0.973949 0.750000 0.614174
#
# Coordination Sequence:
#
# PCOD9159396 Si02
#       8
#     4   4   4   4   4   4   4   4
#     4  10  19  34  50  73 103 133 166 209 255 304
#     4   8  15  29  49  72  98 128 166 213 253 293
#     4  10  21  33  49  72 107 136 163 206 256 305
#     4  10  19  33  54  76  99 134 171 206 248 297
#     4   7  12  25  45  70  96 119 154 206 248 282
#     4   8  14  27  46  70  97 124 158 203 252 295
#     4  11  20  34  49  75 107 137 170 208 252 306
#     4   8  14  28  50  73  95 124 169 215 250 292
#
# _framework density 24.882090999999999
#
# number of rings (size 3 to 8) (size 9 to 14) (size 15 to 20)
#    0.000    3.000    1.250    3.000    0.000    1.500 
#    2.250    2.500    0.000    2.250    0.000    3.500 
#    0.000    0.000    0.000    0.000    0.000    0.000 
#
# Total GULP energy -178231.880325 kJ/mol
# GULP energy per Si atom -5569.746260 kJ/mol
# Density = 2.482546 g / cm^3
# Si number density = 24.882091 Si / 1000 Ang^3
#
#
#
# Elastic Constant Matrix: (Units=GPa)
#
#
# Indices 1 2 3 4 5 6 
#
# 1 63.0291 -1.3195 7.8899 0.0000 22.8661 0.0000
# 2 -1.3195 39.9288 41.4510 0.0000 3.1330 0.0000
# 3 7.8899 41.4510 212.0309 0.0000 24.4151 0.0000
# 4 0.0000 0.0000 0.0000 23.6176 0.0000 13.1290
# 5 22.8661 3.1330 24.4151 0.0000 36.5316 0.0000
# 6 0.0000 0.0000 0.0000 13.1290 0.0000 6.7313
#
#
#
# Elastic Compliance Matrix: (Units=1/GPa)
#
#
# Indices 1 2 3 4 5 6 
#
# 1 0.020689 0.001169 0.000546 0.000000 -0.013415 0.000000
# 2 0.001169 0.031567 -0.006304 0.000000 0.000774 0.000000
# 3 0.000546 -0.006304 0.006398 0.000000 -0.004077 0.000000
# 4 0.000000 0.000000 0.000000 -0.502593 0.000000 0.980274
# 5 -0.013415 0.000774 -0.004077 0.000000 0.038429 0.000000
# 6 0.000000 0.000000 0.000000 0.980274 0.000000 -1.763401
#
#
# Mechanical properties :
#
#
# Convention : Reuss Voigt Hill
#
# Bulk Modulus (GPa) = 20.21167 45.67017 32.94092
# Shear Modulus (GPa) = -2.33291 31.17393 14.42051
#
# Velocity S-wave (km/s) = -0.96934 3.54342 2.41000
# Velocity P-wave (km/s) = 2.62446 5.92753 4.58385
#
# Compressibility (1/GPa) = 0.04947636
#
# Stress axis : x y z
#
# Youngs Moduli (GPa) = 48.33598 31.67910 156.30392
#
# Poissons Ratio (x) = -0.03704 -0.08539
# Poissons Ratio (y) = -0.05651 0.98530
# Poissons Ratio (z) = -0.02641 0.19970
#
# Static dielectric constant tensor:
#      x y z
#    x 2.102400 0.000000 -0.019100 
#    y 0.000000 1.946500 0.000000 
#    z -0.019100 0.000000 2.045700 
# 
# From -- ./inp_files/64871.got.cif
#   From: 2010.05.17/outbox.cif.g08.bks.cpg/sg11_33_cif.got.tgz:64871.got - 2010.06.03 12:22:45.
