data_PCOD9159118
_publ_section_title
;
Structure prediction by ZEFSAII (Michael W. Deem and Ramdas Pophale) SiO2 
 PCOD9159118
Probable space group: P 21/M
;
_chemical_formula_sum "Si O2"
_cell_formula_units_Z 32
_cell_length_a 17.566401
_cell_length_b 12.547638
_cell_length_c 14.897041
_cell_angle_alpha 90.000000
_cell_angle_beta 149.205622
_cell_angle_gamma 90.000000
_cell_volume 1681.046053
_symmetry_space_group_name_H-M "P 21/M"
_symmetry_group_IT_number 11
_symmetry_cell_setting 'monoclinic'
loop_
_space_group_symop_operation_xyz
x,y,z
-x,1/2+y,-z
-x,-y,-z
x,1/2-y,z
loop_
_atom_site_type_symbol
_atom_site_label
_atom_site_fract_x
_atom_site_fract_y
_atom_site_fract_z
Si Si1 0.422343 0.939277 0.061217
Si Si2 0.598824 0.367371 0.157447
Si Si3 0.855198 0.377248 0.544365
Si Si4 0.383688 0.133957 0.244318
Si Si5 0.150073 0.007019 0.903122
Si Si6 0.885333 0.373062 0.949678
Si Si7 0.629721 0.977516 0.423705
Si Si8 0.220028 0.423243 0.251875
O O1 0.482513 0.052641 0.084688
O O2 0.548429 0.911663 0.262491
O O3 0.265057 0.951143 0.951449
O O4 0.412619 0.871736 0.961192
O O5 0.565045 0.250000 0.157473
O O6 0.766559 0.392114 0.360544
O O7 0.876521 0.250000 0.580692
O O8 0.739834 0.432761 0.495941
O O9 0.005940 0.444038 0.709276
O O10 0.444256 0.250000 0.283066
O O11 0.326924 0.129843 0.288229
O O12 0.499447 0.041007 0.342153
O O13 0.240826 0.104819 0.039372
O O14 0.114797 0.928175 0.951424
O O15 0.836272 0.250000 0.902970
O O16 0.052766 0.379303 0.080645
O O17 0.790980 0.452173 0.790180
O O18 0.718415 0.911014 0.586302
#
# Coordination Sequence:
#
# PCOD9159118 Si02
#       8
#     4   4   4   4   4   4   4   4
#     4   9  20  36  58  78 109 142 168 225 270 319
#     4   9  19  37  58  81 106 139 178 217 270 325
#     4  10  19  32  55  80 106 138 179 225 268 323
#     4  10  20  33  52  79 110 142 180 227 273 315
#     4  10  20  35  54  81 110 143 179 219 270 324
#     4  10  21  36  53  77 111 147 182 227 274 318
#     4  10  19  35  53  77 109 140 184 219 271 319
#     4  10  20  36  53  76 107 147 186 228 268 322
#
# _framework density 19.035765999999999
#
# number of rings (size 3 to 8) (size 9 to 14) (size 15 to 20)
#    0.000    2.250    1.250    1.500    0.000    5.500 
#    0.000    1.250    0.000    0.750    0.000    0.000 
#    0.000    0.000    0.000    0.000    0.000    0.000 
#
# Total GULP energy -178399.392310 kJ/mol
# GULP energy per Si atom -5574.981010 kJ/mol
# Density = 1.899244 g / cm^3
# Si number density = 19.035766 Si / 1000 Ang^3
#
#
#
# Elastic Constant Matrix: (Units=GPa)
#
#
# Indices 1 2 3 4 5 6 
#
# 1 54.3870 -12.2396 12.5737 0.0000 -3.3993 0.0000
# 2 -12.2396 41.3614 8.2487 0.0000 -0.8695 0.0000
# 3 12.5737 8.2487 78.3866 0.0000 -3.9120 0.0000
# 4 0.0000 0.0000 0.0000 5.8531 0.0000 -1.6254
# 5 -3.3993 -0.8695 -3.9120 0.0000 29.9300 0.0000
# 6 0.0000 0.0000 0.0000 -1.6254 0.0000 1.6646
#
#
#
# Elastic Compliance Matrix: (Units=1/GPa)
#
#
# Indices 1 2 3 4 5 6 
#
# 1 0.021035 0.007069 -0.004015 0.000000 0.002070 0.000000
# 2 0.007069 0.027075 -0.003929 0.000000 0.001076 0.000000
# 3 -0.004015 -0.003929 0.013877 0.000000 0.001244 0.000000
# 4 0.000000 0.000000 0.000000 0.234404 0.000000 0.228871
# 5 0.002070 0.001076 0.001244 0.000000 0.033840 0.000000
# 6 0.000000 0.000000 0.000000 0.228871 0.000000 0.824197
#
#
# Mechanical properties :
#
#
# Convention : Reuss Voigt Hill
#
# Bulk Modulus (GPa) = 16.60119 21.25562 18.92841
# Shear Modulus (GPa) = 4.25077 18.52636 11.38856
#
# Velocity S-wave (km/s) = 1.49596 3.12306 2.44861
# Velocity P-wave (km/s) = 3.42401 4.91885 4.23786
#
# Compressibility (1/GPa) = 0.06023666
#
# Stress axis : x y z
#
# Youngs Moduli (GPa) = 47.53958 36.93416 72.06261
#
# Poissons Ratio (x) = -0.26108 0.28931
# Poissons Ratio (y) = -0.33605 0.28316
# Poissons Ratio (z) = 0.19086 0.14513
#
# Static dielectric constant tensor:
#      x y z
#    x 1.656070 0.000000 -0.022430 
#    y 0.000000 1.671650 0.000000 
#    z -0.022430 0.000000 1.685350 
# 
# From -- ./inp_files/21553.got.cif
#   From: 2010.05.17/outbox.cif.g08.bks.cpg/sg11_11_cif.got.tgz:21553.got - 2010.06.03 12:22:45.
