data_PCOD9159772
_publ_section_title
;
Structure prediction by ZEFSAII (Michael W. Deem and Ramdas Pophale) SiO2 
 PCOD9159772
Probable space group: P 21/M
;
_chemical_formula_sum "Si O2"
_cell_formula_units_Z 32
_cell_length_a 14.944793
_cell_length_b 13.835406
_cell_length_c 13.882125
_cell_angle_alpha 90.000000
_cell_angle_beta 26.811273
_cell_angle_gamma 90.000000
_cell_volume 1294.689071
_symmetry_space_group_name_H-M "P 21/M"
_symmetry_group_IT_number 11
_symmetry_cell_setting 'monoclinic'
loop_
_space_group_symop_operation_xyz
x,y,z
-x,1/2+y,-z
-x,-y,-z
x,1/2-y,z
loop_
_atom_site_type_symbol
_atom_site_label
_atom_site_fract_x
_atom_site_fract_y
_atom_site_fract_z
Si Si1 0.891356 0.860785 0.668070
Si Si2 0.371284 0.859685 0.779409
Si Si3 0.162869 0.987671 0.133364
Si Si4 0.642126 0.355451 0.732325
Si Si5 0.061627 0.860599 0.899025
Si Si6 0.586250 0.351783 0.993937
Si Si7 0.755415 0.940231 0.594251
Si Si8 0.702161 0.960593 0.357070
O O1 0.830213 0.750000 0.710988
O O2 0.841537 0.924704 0.620922
O O3 0.130719 0.856081 0.449329
O O4 0.836499 0.903156 0.827808
O O5 0.360099 0.750000 0.829723
O O6 0.221509 0.855602 0.831957
O O7 0.596192 0.888844 0.534564
O O8 0.277242 0.946442 0.932411
O O9 0.941780 0.944115 0.346277
O O10 0.267892 0.935508 0.121513
O O11 0.604033 0.250000 0.722789
O O12 0.635296 0.459683 0.690529
O O13 0.515718 0.362552 0.952062
O O14 0.041057 0.750000 0.880211
O O15 0.164804 0.946508 0.736803
O O16 0.852932 0.901297 0.142110
O O17 0.691279 0.250000 0.899342
O O18 0.411057 0.359140 0.239447
O O19 0.500000 0.000000 0.500000
#
# Coordination Sequence:
#
# PCOD9159772 Si02
#       8
#     4   4   4   4   4   4   4   4
#     4  10  19  34  54  71  94 136 188 242 293 337
#     4  10  21  35  55  82 118 157 187 224 281 341
#     4  11  22  37  51  74 112 147 182 230 280 336
#     4   9  17  31  50  70  93 121 164 230 295 345
#     4   9  18  35  62  93 121 151 188 226 269 323
#     4  11  21  31  50  75  97 128 179 236 291 343
#     4  11  20  35  51  72  99 134 185 243 298 344
#     4   9  18  35  60  91 122 150 185 225 266 319
#
# _framework density 24.716359000000001
#
# number of rings (size 3 to 8) (size 9 to 14) (size 15 to 20)
#    0.000    2.000    2.500    2.250    0.000    3.000 
#    0.000    1.875    0.000    3.750    0.000    5.250 
#    0.000    0.000    0.000    0.000    0.000    0.000 
#
# Total GULP energy -178340.232229 kJ/mol
# GULP energy per Si atom -5573.132257 kJ/mol
# Density = 2.466010 g / cm^3
# Si number density = 24.716359 Si / 1000 Ang^3
#
#
#
# Elastic Constant Matrix: (Units=GPa)
#
#
# Indices 1 2 3 4 5 6 
#
# 1 34.2072 7.6501 14.7723 0.0000 -2.5813 0.0000
# 2 7.6501 140.6231 46.3087 0.0000 -3.2424 0.0000
# 3 14.7723 46.3087 144.6558 0.0000 -4.2800 0.0000
# 4 0.0000 0.0000 0.0000 34.7562 0.0000 -4.0455
# 5 -2.5813 -3.2424 -4.2800 0.0000 27.3975 0.0000
# 6 0.0000 0.0000 0.0000 -4.0455 0.0000 29.5553
#
#
#
# Elastic Compliance Matrix: (Units=1/GPa)
#
#
# Indices 1 2 3 4 5 6 
#
# 1 0.030799 -0.000680 -0.002857 0.000000 0.002375 0.000000
# 2 -0.000680 0.007972 -0.002468 0.000000 0.000494 0.000000
# 3 -0.002857 -0.002468 0.008015 0.000000 0.000691 0.000000
# 4 0.000000 0.000000 0.000000 0.029238 0.000000 0.004002
# 5 0.002375 0.000494 0.000691 0.000000 0.036890 0.000000
# 6 0.000000 0.000000 0.000000 0.004002 0.000000 0.034383
#
#
# Mechanical properties :
#
#
# Convention : Reuss Voigt Hill
#
# Bulk Modulus (GPa) = 28.75550 50.77203 39.76377
# Shear Modulus (GPa) = 29.25703 35.05881 32.15792
#
# Velocity S-wave (km/s) = 3.44424 3.77031 3.61096
# Velocity P-wave (km/s) = 5.24181 6.28809 5.78864
#
# Compressibility (1/GPa) = 0.03477596
#
# Stress axis : x y z
#
# Youngs Moduli (GPa) = 32.46884 125.43326 124.76103
#
# Poissons Ratio (x) = 0.08527 0.35648
# Poissons Ratio (y) = 0.02207 0.30793
# Poissons Ratio (z) = 0.09277 0.30959
#
# Static dielectric constant tensor:
#      x y z
#    x 2.067410 0.000000 -0.031930 
#    y 0.000000 1.963730 0.000000 
#    z -0.031930 0.000000 2.014090 
# 
# From -- ./inp_files/61585.got.cif
#   From: 2010.05.17/outbox.cif.g08.bks.cpg/sg11_31_cif.got.tgz:61585.got - 2010.06.03 12:22:45.
