data_PCOD9159766
_publ_section_title
;
Structure prediction by ZEFSAII (Michael W. Deem and Ramdas Pophale) SiO2 
 PCOD9159766
Probable space group: P 21/M
;
_chemical_formula_sum "Si O2"
_cell_formula_units_Z 32
_cell_length_a 12.697411
_cell_length_b 9.551858
_cell_length_c 25.554965
_cell_angle_alpha 90.000000
_cell_angle_beta 145.485287
_cell_angle_gamma 90.000000
_cell_volume 1756.178169
_symmetry_space_group_name_H-M "P 21/M"
_symmetry_group_IT_number 11
_symmetry_cell_setting 'monoclinic'
loop_
_space_group_symop_operation_xyz
x,y,z
-x,1/2+y,-z
-x,-y,-z
x,1/2-y,z
loop_
_atom_site_type_symbol
_atom_site_label
_atom_site_fract_x
_atom_site_fract_y
_atom_site_fract_z
Si Si1 0.617315 0.920205 0.001979
Si Si2 0.348916 0.908801 0.301905
Si Si3 0.330791 0.598568 0.419358
Si Si4 0.972506 0.898230 0.701504
Si Si5 0.000066 0.089001 0.161750
Si Si6 0.134567 0.412483 0.627960
Si Si7 0.225639 0.087006 0.541871
Si Si8 0.356145 0.591855 0.798452
O O1 0.621147 0.750000 0.013051
O O2 0.520411 0.943523 0.905851
O O3 0.500000 0.000000 0.000000
O O4 0.820690 0.989858 0.081585
O O5 0.333632 0.750000 0.273340
O O6 0.316717 0.894653 0.350922
O O7 0.561874 0.958066 0.381932
O O8 0.186785 0.013523 0.216872
O O9 0.500000 0.500000 0.500000
O O10 0.362801 0.750000 0.455152
O O11 0.145621 0.528826 0.364835
O O12 0.883536 0.750000 0.648775
O O13 0.979027 0.900097 0.766772
O O14 0.176840 0.903351 0.762761
O O15 0.976295 0.250000 0.133011
O O16 0.111148 0.250000 0.633037
O O17 0.193249 0.418465 0.591047
O O18 0.293954 0.486113 0.727848
O O19 0.940057 0.497316 0.551404
O O20 0.208977 0.250000 0.518384
O O21 0.384713 0.750000 0.789198
#
# Coordination Sequence:
#
# PCOD9159766 Si02
#       8
#     4   4   4   4   4   4   4   4
#     4  11  21  35  55  79 108 146 184 219 264 318
#     4   9  19  35  54  74  98 139 180 212 261 320
#     4  10  20  31  44  68  99 134 173 211 252 305
#     4   9  18  33  48  66  99 139 174 207 253 307
#     4  10  19  34  53  78 108 138 175 220 260 308
#     4  10  21  35  55  84 109 135 179 229 271 316
#     4   9  19  38  59  78 107 143 178 221 274 325
#     4  10  21  36  53  75 107 145 176 213 268 319
#
# _framework density 18.221385999999999
#
# number of rings (size 3 to 8) (size 9 to 14) (size 15 to 20)
#    0.000    2.250    1.250    1.500    1.750    3.500 
#    0.000    0.000    0.000    0.750    0.000    0.000 
#    0.000    0.000    0.000    0.000    0.000    0.000 
#
# Total GULP energy -178342.276725 kJ/mol
# GULP energy per Si atom -5573.196148 kJ/mol
# Density = 1.817991 g / cm^3
# Si number density = 18.221386 Si / 1000 Ang^3
#
#
#
# Elastic Constant Matrix: (Units=GPa)
#
#
# Indices 1 2 3 4 5 6 
#
# 1 46.6930 19.8041 21.9319 0.0000 10.9266 0.0000
# 2 19.8041 136.9733 75.4424 0.0000 8.5984 0.0000
# 3 21.9319 75.4424 93.3497 0.0000 7.1660 0.0000
# 4 0.0000 0.0000 0.0000 29.3846 0.0000 2.6446
# 5 10.9266 8.5984 7.1660 0.0000 25.0407 0.0000
# 6 0.0000 0.0000 0.0000 2.6446 0.0000 19.7726
#
#
#
# Elastic Compliance Matrix: (Units=1/GPa)
#
#
# Indices 1 2 3 4 5 6 
#
# 1 0.026289 -0.000354 -0.005132 0.000000 -0.009881 0.000000
# 2 -0.000354 0.013218 -0.010493 0.000000 -0.001381 0.000000
# 3 -0.005132 -0.010493 0.020398 0.000000 0.000005 0.000000
# 4 0.000000 0.000000 0.000000 0.034446 0.000000 -0.004607
# 5 -0.009881 -0.001381 0.000005 0.000000 0.044720 0.000000
# 6 0.000000 0.000000 0.000000 -0.004607 0.000000 0.051191
#
#
# Mechanical properties :
#
#
# Convention : Reuss Voigt Hill
#
# Bulk Modulus (GPa) = 35.78181 56.81920 46.30051
# Shear Modulus (GPa) = 21.59489 25.49543 23.54516
#
# Velocity S-wave (km/s) = 3.44632 3.74465 3.59858
# Velocity P-wave (km/s) = 5.95954 7.06731 6.53693
#
# Compressibility (1/GPa) = 0.02794716
#
# Stress axis : x y z
#
# Youngs Moduli (GPa) = 38.03815 75.65399 49.02456
#
# Poissons Ratio (x) = 0.02681 0.25158
# Poissons Ratio (y) = 0.01348 0.51442
# Poissons Ratio (z) = 0.19520 0.79385
#
# Static dielectric constant tensor:
#      x y z
#    x 1.658060 0.000000 0.073080 
#    y 0.000000 1.655830 0.000000 
#    z 0.073080 0.000000 1.785100 
# 
# From -- ./inp_files/71626.got.cif
#   From: 2010.05.17/outbox.cif.g08.bks.cpg/sg11_36_cif.got.tgz:71626.got - 2010.06.03 12:22:45.
