data_PCOD9159155
_publ_section_title
;
Structure prediction by ZEFSAII (Michael W. Deem and Ramdas Pophale) SiO2 
 PCOD9159155
Probable space group: P 21/M
;
_chemical_formula_sum "Si O2"
_cell_formula_units_Z 28
_cell_length_a 8.511086
_cell_length_b 14.414450
_cell_length_c 11.242861
_cell_angle_alpha 90.000000
_cell_angle_beta 69.051079
_cell_angle_gamma 90.000000
_cell_volume 1288.131075
_symmetry_space_group_name_H-M "P 21/M"
_symmetry_group_IT_number 11
_symmetry_cell_setting 'monoclinic'
loop_
_space_group_symop_operation_xyz
x,y,z
-x,1/2+y,-z
-x,-y,-z
x,1/2-y,z
loop_
_atom_site_type_symbol
_atom_site_label
_atom_site_fract_x
_atom_site_fract_y
_atom_site_fract_z
Si Si1 0.237876 0.143451 0.384397
Si Si2 0.939619 0.141067 0.618361
Si Si3 0.212866 0.857710 0.740234
Si Si4 0.278540 0.994620 0.923766
Si Si5 0.496141 0.144291 0.531804
Si Si6 0.995745 0.475967 0.825224
Si Si7 0.408009 0.540941 0.271455
O O1 0.248704 0.250000 0.336316
O O2 0.342876 0.141492 0.480145
O O3 0.046270 0.119224 0.471391
O O4 0.322179 0.060247 0.289897
O O5 0.954400 0.250000 0.629643
O O6 0.746669 0.110883 0.673495
O O7 0.019904 0.088799 0.707483
O O8 0.178921 0.750000 0.766338
O O9 0.336443 0.867608 0.594425
O O10 0.046323 0.919737 0.775364
O O11 0.299364 0.903521 0.833920
O O12 0.453997 0.047491 0.869454
O O13 0.191166 0.970679 0.071058
O O14 0.129766 0.049097 0.892726
O O15 0.499514 0.250000 0.580907
O O16 0.489784 0.065727 0.634425
#
# Coordination Sequence:
#
# PCOD9159155 Si02
#       7
#     4   4   4   4   4   4   4
#     4  10  20  35  55  81 108 145 191 232 277 333
#     4  11  24  38  54  78 116 154 189 225 273 335
#     4   9  17  33  59  86 109 134 179 236 282 326
#     4   9  20  35  61  83 109 140 189 233 276 325
#     4  10  19  32  56  85 111 141 186 230 279 334
#     4   9  19  40  56  84 107 147 186 232 280 321
#     4  12  21  35  56  83 117 153 178 228 282 332
#
# _framework density 21.736917999999999
#
# number of rings (size 3 to 8) (size 9 to 14) (size 15 to 20)
#    0.857    1.143    1.429    3.000    0.000    1.143 
#    0.000    4.286    0.000    0.000    0.000    0.000 
#    0.000    0.000    0.000    0.000    0.000    0.000 
#
# Total GULP energy -156243.005564 kJ/mol
# GULP energy per Si atom -5580.107342 kJ/mol
# Density = 2.168744 g / cm^3
# Si number density = 21.736918 Si / 1000 Ang^3
#
#
#
# Elastic Constant Matrix: (Units=GPa)
#
#
# Indices 1 2 3 4 5 6 
#
# 1 48.0372 13.3383 12.3998 0.0000 -21.3360 0.0000
# 2 13.3383 70.6093 29.0361 0.0000 -17.1742 0.0000
# 3 12.3998 29.0361 83.5123 0.0000 -32.2221 0.0000
# 4 0.0000 0.0000 0.0000 10.2955 0.0000 -5.0582
# 5 -21.3360 -17.1742 -32.2221 0.0000 39.5058 0.0000
# 6 0.0000 0.0000 0.0000 -5.0582 0.0000 29.6219
#
#
#
# Elastic Compliance Matrix: (Units=1/GPa)
#
#
# Indices 1 2 3 4 5 6 
#
# 1 0.028099 -0.002552 0.003126 0.000000 0.016616 0.000000
# 2 -0.002552 0.017125 -0.004720 0.000000 0.002216 0.000000
# 3 0.003126 -0.004720 0.018986 0.000000 0.015122 0.000000
# 4 0.000000 0.000000 0.000000 0.106025 0.000000 0.018105
# 5 0.016616 0.002216 0.015122 0.000000 0.047584 0.000000
# 6 0.000000 0.000000 0.000000 0.018105 0.000000 0.036850
#
#
# Mechanical properties :
#
#
# Convention : Reuss Voigt Hill
#
# Bulk Modulus (GPa) = 17.88344 34.63414 26.25879
# Shear Modulus (GPa) = 17.75576 25.71028 21.73302
#
# Velocity S-wave (km/s) = 2.86116 3.44291 3.16542
# Velocity P-wave (km/s) = 4.37722 5.63673 5.04642
#
# Compressibility (1/GPa) = 0.05591765
#
# Stress axis : x y z
#
# Youngs Moduli (GPa) = 35.58867 58.39561 52.67122
#
# Poissons Ratio (x) = 0.14903 -0.16466
# Poissons Ratio (y) = 0.09083 0.24860
# Poissons Ratio (z) = -0.11126 0.27562
#
# Static dielectric constant tensor:
#      x y z
#    x 1.924920 0.000000 0.025070 
#    y 0.000000 1.760240 0.000000 
#    z 0.025070 0.000000 1.784760 
# 
# From -- ./inp_files/31773.got.cif
#   From: 2010.05.17/outbox.cif.g08.bks.cpg/sg11_16_cif.got.tgz:31773.got - 2010.06.03 12:22:45.
