data_PCOD9159658
_publ_section_title
;
Structure prediction by ZEFSAII (Michael W. Deem and Ramdas Pophale) SiO2 
 PCOD9159658
Probable space group: P 21/M
;
_chemical_formula_sum "Si O2"
_cell_formula_units_Z 28
_cell_length_a 13.409952
_cell_length_b 13.680326
_cell_length_c 12.539890
_cell_angle_alpha 90.000000
_cell_angle_beta 137.153118
_cell_angle_gamma 90.000000
_cell_volume 1564.417913
_symmetry_space_group_name_H-M "P 21/M"
_symmetry_group_IT_number 11
_symmetry_cell_setting 'monoclinic'
loop_
_space_group_symop_operation_xyz
x,y,z
-x,1/2+y,-z
-x,-y,-z
x,1/2-y,z
loop_
_atom_site_type_symbol
_atom_site_label
_atom_site_fract_x
_atom_site_fract_y
_atom_site_fract_z
Si Si1 0.019857 0.026419 0.824964
Si Si2 0.173773 0.046960 0.152865
Si Si3 0.339603 0.635918 0.214374
Si Si4 0.331734 0.532496 0.988760
Si Si5 0.429866 0.866747 0.847705
Si Si6 0.245026 0.633192 0.492282
Si Si7 0.486864 0.135467 0.443378
O O1 0.905851 0.083275 0.661324
O O2 0.158405 0.987120 0.867589
O O3 0.094123 0.084439 0.983342
O O4 0.922892 0.947983 0.816417
O O5 0.332706 0.091714 0.291591
O O6 0.209457 0.932407 0.156748
O O7 0.300387 0.750000 0.181956
O O8 0.472613 0.623044 0.401381
O O9 0.376810 0.595484 0.127415
O O10 0.369045 0.592303 0.911724
O O11 0.425343 0.431809 0.062830
O O12 0.459435 0.750000 0.874005
O O13 0.308872 0.884240 0.660403
O O14 0.228397 0.750000 0.465487
O O15 0.374730 0.597335 0.515197
O O16 0.479870 0.250000 0.414339
#
# Coordination Sequence:
#
# PCOD9159658 Si02
#       7
#     4   4   4   4   4   4   4
#     4  10  21  33  52  83 114 147 185 225 290 336
#     4  10  20  34  52  82 118 154 182 225 282 339
#     4  10  19  33  57  84 111 148 190 229 274 331
#     4  10  22  39  60  86 110 149 187 241 287 327
#     4  10  22  41  62  83 108 147 196 237 282 338
#     4  10  20  34  56  83 113 151 190 231 278 334
#     4  10  20  34  55  84 114 151 192 229 272 333
#
# _framework density 17.898031
#
# number of rings (size 3 to 8) (size 9 to 14) (size 15 to 20)
#    0.000    2.000    1.429    2.571    2.000    1.714 
#    0.000    6.429    0.000    0.000    0.000    0.000 
#    0.000    0.000    0.000    0.000    0.000    0.000 
#
# Total GULP energy -156088.216508 kJ/mol
# GULP energy per Si atom -5574.579161 kJ/mol
# Density = 1.785729 g / cm^3
# Si number density = 17.898031 Si / 1000 Ang^3
#
#
#
# Elastic Constant Matrix: (Units=GPa)
#
#
# Indices 1 2 3 4 5 6 
#
# 1 98.8925 30.4627 54.8605 0.0000 0.1768 0.0000
# 2 30.4627 77.1984 56.6801 0.0000 -0.3619 0.0000
# 3 54.8605 56.6801 125.9440 0.0000 4.8240 0.0000
# 4 0.0000 0.0000 0.0000 19.4998 0.0000 -5.6107
# 5 0.1768 -0.3619 4.8240 0.0000 30.1245 0.0000
# 6 0.0000 0.0000 0.0000 -5.6107 0.0000 10.9260
#
#
#
# Elastic Compliance Matrix: (Units=1/GPa)
#
#
# Indices 1 2 3 4 5 6 
#
# 1 0.013466 -0.001468 -0.005234 0.000000 0.000741 0.000000
# 2 -0.001468 0.019587 -0.008235 0.000000 0.001563 0.000000
# 3 -0.005234 -0.008235 0.014015 0.000000 -0.002312 0.000000
# 4 0.000000 0.000000 0.000000 0.060174 0.000000 0.030901
# 5 0.000741 0.001563 -0.002312 0.000000 0.033580 0.000000
# 6 0.000000 0.000000 0.000000 0.030901 0.000000 0.107393
#
#
# Mechanical properties :
#
#
# Convention : Reuss Voigt Hill
#
# Bulk Modulus (GPa) = 58.15978 65.11571 61.63774
# Shear Modulus (GPa) = 17.61686 22.77883 20.19785
#
# Velocity S-wave (km/s) = 3.14074 3.57136 3.36295
# Velocity P-wave (km/s) = 6.76151 7.31209 7.04218
#
# Compressibility (1/GPa) = 0.01719401
#
# Stress axis : x y z
#
# Youngs Moduli (GPa) = 74.26035 51.05529 71.35410
#
# Poissons Ratio (x) = 0.07493 0.37344
# Poissons Ratio (y) = 0.10899 0.58763
# Poissons Ratio (z) = 0.38865 0.42046
#
# Static dielectric constant tensor:
#      x y z
#    x 1.617730 0.000000 -0.013190 
#    y 0.000000 1.633790 0.000000 
#    z -0.013190 0.000000 1.626480 
# 
# From -- ./inp_files/39484.got.cif
#   From: 2010.05.17/outbox.cif.g08.bks.cpg/sg11_20_cif.got.tgz:39484.got - 2010.06.03 12:22:45.
