data_PCOD9159099
_publ_section_title
;
Structure prediction by ZEFSAII (Michael W. Deem and Ramdas Pophale) SiO2 
 PCOD9159099
Probable space group: P 21/M
;
_chemical_formula_sum "Si O2"
_cell_formula_units_Z 32
_cell_length_a 17.397791
_cell_length_b 8.410241
_cell_length_c 23.710390
_cell_angle_alpha 90.000000
_cell_angle_beta 28.387731
_cell_angle_gamma 90.000000
_cell_volume 1649.427232
_symmetry_space_group_name_H-M "P 21/M"
_symmetry_group_IT_number 11
_symmetry_cell_setting 'monoclinic'
loop_
_space_group_symop_operation_xyz
x,y,z
-x,1/2+y,-z
-x,-y,-z
x,1/2-y,z
loop_
_atom_site_type_symbol
_atom_site_label
_atom_site_fract_x
_atom_site_fract_y
_atom_site_fract_z
Si Si1 0.711762 0.562241 0.957531
Si Si2 0.787398 0.062232 0.790741
Si Si3 0.402979 0.444709 0.321573
Si Si4 0.920106 0.439640 0.254525
Si Si5 0.380126 0.437231 0.211587
Si Si6 0.899834 0.940032 0.146221
Si Si7 0.759155 0.058797 0.123113
Si Si8 0.843220 0.941235 0.423639
O O1 0.694296 0.750000 0.979763
O O2 0.700963 0.530575 0.897424
O O3 0.891700 0.508700 0.859290
O O4 0.570785 0.467733 0.079354
O O5 0.773979 0.250000 0.811321
O O6 0.976592 0.016591 0.671264
O O7 0.711987 0.025013 0.779086
O O8 0.404184 0.250000 0.320844
O O9 0.339560 0.492787 0.300965
O O10 0.587321 0.499248 0.211444
O O11 0.289894 0.497484 0.445904
O O12 0.919253 0.250000 0.252687
O O13 0.856456 0.507891 0.237029
O O14 0.828214 0.494354 0.370015
O O15 0.346598 0.250000 0.228508
O O16 0.897510 0.750000 0.143777
O O17 0.788310 0.009419 0.168922
O O18 0.083188 0.997495 0.013291
O O19 0.758073 0.250000 0.120610
O O20 0.834793 0.750000 0.426587
#
# Coordination Sequence:
#
# PCOD9159099 Si02
#       8
#     4   4   4   4   4   4   4   4
#     4  10  20  34  52  76 106 136 169 212 260 307
#     4  10  20  34  52  75 103 135 172 214 259 304
#     4   9  19  36  56  76 100 135 175 213 257 305
#     4  10  20  34  54  79 105 135 172 213 257 303
#     4  11  21  33  52  77 105 136 171 211 258 312
#     4  10  19  32  54  83 111 138 168 202 249 309
#     4   9  18  34  55  79 108 137 167 208 255 302
#     4   9  19  37  57  74  98 135 177 217 255 301
#
# _framework density 19.400673000000001
#
# number of rings (size 3 to 8) (size 9 to 14) (size 15 to 20)
#    0.000    2.250    0.000    3.000    0.000    4.000 
#    0.000    3.750    0.000    0.000    0.000    0.000 
#    0.000    0.000    0.000    0.000    0.000    0.000 
#
# Total GULP energy -178686.724239 kJ/mol
# GULP energy per Si atom -5583.960132 kJ/mol
# Density = 1.935652 g / cm^3
# Si number density = 19.400673 Si / 1000 Ang^3
#
#
#
# Elastic Constant Matrix: (Units=GPa)
#
#
# Indices 1 2 3 4 5 6 
#
# 1 72.7125 -8.2960 14.6003 0.0000 26.8180 0.0000
# 2 -8.2960 7.4359 -2.4031 0.0000 -1.6342 0.0000
# 3 14.6003 -2.4031 40.4465 0.0000 16.8691 0.0000
# 4 0.0000 0.0000 0.0000 14.7781 0.0000 3.0340
# 5 26.8180 -1.6342 16.8691 0.0000 23.9402 0.0000
# 6 0.0000 0.0000 0.0000 3.0340 0.0000 19.2609
#
#
#
# Elastic Compliance Matrix: (Units=1/GPa)
#
#
# Indices 1 2 3 4 5 6 
#
# 1 0.027829 0.025471 0.005303 0.000000 -0.033172 0.000000
# 2 0.025471 0.160875 0.010882 0.000000 -0.025219 0.000000
# 3 0.005303 0.010882 0.036289 0.000000 -0.030768 0.000000
# 4 0.000000 0.000000 0.000000 0.069929 0.000000 -0.011015
# 5 -0.033172 -0.025219 -0.030768 0.000000 0.098889 0.000000
# 6 0.000000 0.000000 0.000000 -0.011015 0.000000 0.053654
#
#
# Mechanical properties :
#
#
# Convention : Reuss Voigt Hill
#
# Bulk Modulus (GPa) = 3.24355 14.26636 8.75496
# Shear Modulus (GPa) = 10.70845 19.37540 15.04192
#
# Velocity S-wave (km/s) = 2.35194 3.16365 2.78750
# Velocity P-wave (km/s) = 3.00849 4.55130 3.85781
#
# Compressibility (1/GPa) = 0.30830401
#
# Stress axis : x y z
#
# Youngs Moduli (GPa) = 35.93434 6.21599 27.55679
#
# Poissons Ratio (x) = -0.15833 -0.14613
# Poissons Ratio (y) = -0.91529 -0.29987
# Poissons Ratio (z) = -0.19055 -0.06764
#
# Static dielectric constant tensor:
#      x y z
#    x 1.671060 0.000000 -0.002410 
#    y 0.000000 1.651170 0.000000 
#    z -0.002410 0.000000 1.677000 
# 
# From -- ./inp_files/69425.got.cif
#   From: 2010.05.17/outbox.cif.g08.bks.cpg/sg11_35_cif.got.tgz:69425.got - 2010.06.03 12:22:45.
