data_PCOD9159814
_publ_section_title
;
Structure prediction by ZEFSAII (Michael W. Deem and Ramdas Pophale) SiO2 
 PCOD9159814
Probable space group: P 21/M
;
_chemical_formula_sum "Si O2"
_cell_formula_units_Z 32
_cell_length_a 25.297565
_cell_length_b 8.902979
_cell_length_c 20.503145
_cell_angle_alpha 90.000000
_cell_angle_beta 156.972506
_cell_angle_gamma 90.000000
_cell_volume 1806.355387
_symmetry_space_group_name_H-M "P 21/M"
_symmetry_group_IT_number 11
_symmetry_cell_setting 'monoclinic'
loop_
_space_group_symop_operation_xyz
x,y,z
-x,1/2+y,-z
-x,-y,-z
x,1/2-y,z
loop_
_atom_site_type_symbol
_atom_site_label
_atom_site_fract_x
_atom_site_fract_y
_atom_site_fract_z
Si Si1 0.388104 0.569738 0.063982
Si Si2 0.871888 0.070571 0.012698
Si Si3 0.172209 0.929377 0.502121
Si Si4 0.596646 0.571144 0.663622
Si Si5 0.890218 0.430323 0.185940
Si Si6 0.846910 0.429027 0.673363
Si Si7 0.462265 0.930956 0.887799
Si Si8 0.550782 0.429609 0.367438
O O1 0.392906 0.750000 0.062975
O O2 0.438382 0.492513 0.055211
O O3 0.485598 0.517154 0.233238
O O4 0.236687 0.524786 0.913985
O O5 0.863090 0.250000 0.999578
O O6 0.746176 0.997743 0.833165
O O7 0.864506 0.024004 0.081151
O O8 0.017464 0.014845 0.153383
O O9 0.160242 0.750000 0.494485
O O10 0.181830 0.963647 0.435717
O O11 0.309654 0.976087 0.693654
O O12 0.034171 0.003455 0.369989
O O13 0.500000 0.500000 0.500000
O O14 0.602793 0.750000 0.662479
O O15 0.531413 0.539011 0.660396
O O16 0.898443 0.250000 0.195762
O O17 0.870452 0.250000 0.705283
O O18 0.709196 0.467411 0.554355
O O19 0.467857 0.750000 0.895916
O O20 0.500000 0.000000 0.000000
O O21 0.543815 0.250000 0.345584
#
# Coordination Sequence:
#
# PCOD9159814 Si02
#       8
#     4   4   4   4   4   4   4   4
#     4  11  21  35  57  86 115 146 184 232 279 328
#     4  10  19  34  54  82 115 146 183 228 277 332
#     4   9  18  33  55  80 110 144 182 227 276 328
#     4  11  23  38  58  82 113 153 189 230 283 338
#     4   9  19  33  53  83 115 142 180 231 277 325
#     4   9  17  33  55  82 111 140 180 231 279 327
#     4  11  23  40  58  83 115 151 190 231 280 337
#     4  10  20  36  58  84 112 145 188 234 279 330
#
# _framework density 17.715229999999998
#
# number of rings (size 3 to 8) (size 9 to 14) (size 15 to 20)
#    0.000    2.000    2.500    1.500    0.000    3.500 
#    0.000    1.250    0.000    0.000    0.000    0.000 
#    0.000    0.000    0.000    0.000    0.000    0.000 
#
# Total GULP energy -178627.422488 kJ/mol
# GULP energy per Si atom -5582.106953 kJ/mol
# Density = 1.767491 g / cm^3
# Si number density = 17.715230 Si / 1000 Ang^3
#
#
#
# Elastic Constant Matrix: (Units=GPa)
#
#
# Indices 1 2 3 4 5 6 
#
# 1 8.6472 10.4705 -7.2800 0.0000 14.4159 0.0000
# 2 10.4705 26.3390 16.1542 0.0000 3.4474 0.0000
# 3 -7.2800 16.1542 80.0199 0.0000 22.0672 0.0000
# 4 0.0000 0.0000 0.0000 34.8062 0.0000 0.3605
# 5 14.4159 3.4474 22.0672 0.0000 31.8609 0.0000
# 6 0.0000 0.0000 0.0000 0.3605 0.0000 23.4144
#
#
#
# Elastic Compliance Matrix: (Units=1/GPa)
#
#
# Indices 1 2 3 4 5 6 
#
# 1 -0.106937 0.058402 -0.040939 0.000000 0.070420 0.000000
# 2 0.058402 0.011511 0.013127 0.000000 -0.036762 0.000000
# 3 -0.040939 0.013127 0.001738 0.000000 0.015899 0.000000
# 4 0.000000 0.000000 0.000000 0.028735 0.000000 -0.000442
# 5 0.070420 -0.036762 0.015899 0.000000 -0.007511 0.000000
# 6 0.000000 0.000000 0.000000 -0.000442 0.000000 0.042716
#
#
# Mechanical properties :
#
#
# Convention : Reuss Voigt Hill
#
# Bulk Modulus (GPa) = -30.76210 17.07728 -6.84241
# Shear Modulus (GPa) = -49.13282 24.39371 -12.36955
#
# Velocity S-wave (km/s) = -5.27210 3.71481 -2.64530
# Velocity P-wave (km/s) = 7.37987 5.29722 3.63331
#
# Compressibility (1/GPa) = -0.03250753
#
# Stress axis : x y z
#
# Youngs Moduli (GPa) = -9.35133 86.87623 575.46513
#
# Poissons Ratio (x) = -5.07371 23.55874
# Poissons Ratio (y) = 0.54613 -7.55439
# Poissons Ratio (z) = -0.38283 -1.14046
#
# Static dielectric constant tensor:
#      x y z
#    x 1.593040 0.000000 0.015580 
#    y 0.000000 1.587720 0.000000 
#    z 0.015580 0.000000 1.591920 
# 
# From -- ./inp_files/67248.got.cif
#   From: 2010.05.17/outbox.cif.g08.bks.cpg/sg11_34_cif.got.tgz:67248.got - 2010.06.03 12:22:45.
