data_PCOD9159463
_publ_section_title
;
Structure prediction by ZEFSAII (Michael W. Deem and Ramdas Pophale) SiO2 
 PCOD9159463
Probable space group: P 21/M
;
_chemical_formula_sum "Si O2"
_cell_formula_units_Z 28
_cell_length_a 10.140301
_cell_length_b 25.110959
_cell_length_c 11.643992
_cell_angle_alpha 90.000000
_cell_angle_beta 26.558428
_cell_angle_gamma 90.000000
_cell_volume 1325.655328
_symmetry_space_group_name_H-M "P 21/M"
_symmetry_group_IT_number 11
_symmetry_cell_setting 'monoclinic'
loop_
_space_group_symop_operation_xyz
x,y,z
-x,1/2+y,-z
-x,-y,-z
x,1/2-y,z
loop_
_atom_site_type_symbol
_atom_site_label
_atom_site_fract_x
_atom_site_fract_y
_atom_site_fract_z
Si Si1 0.909508 0.558969 0.299570
Si Si2 0.551922 0.929660 0.068043
Si Si3 0.994052 0.135157 0.968984
Si Si4 0.849403 0.443465 0.267713
Si Si5 0.423204 0.641797 0.347883
Si Si6 0.615664 0.955080 0.771703
Si Si7 0.012102 0.750000 0.013766
Si Si8 0.310532 0.750000 0.538928
O O1 0.859952 0.609290 0.256498
O O2 0.784436 0.505986 0.333594
O O3 0.776729 0.561529 0.530302
O O4 0.264000 0.554094 0.032820
O O5 0.688311 0.926665 0.835357
O O6 0.809053 0.941300 0.959318
O O7 0.405535 0.876671 0.230573
O O8 0.344106 0.981544 0.236774
O O9 0.241597 0.149969 0.870373
O O10 0.859821 0.192833 0.043324
O O11 0.818557 0.086988 0.169816
O O12 0.689795 0.407026 0.486050
O O13 0.263615 0.696270 0.503821
O O14 0.099428 0.750000 0.812044
O O15 0.656260 0.750000 0.311679
#
# Coordination Sequence:
#
# PCOD9159463 Si02
#       8
#     4   4   4   4   4   4   2   2
#     4  11  23  35  53  82 113 147 178 215 269 320
#     4   9  20  35  54  80 108 143 181 221 266 315
#     4  10  22  35  53  80 112 140 180 221 270 326
#     4  10  19  33  54  82 111 143 170 223 278 323
#     4  10  19  34  56  79 110 139 175 226 274 320
#     4  10  22  36  55  79 110 145 184 217 256 322
#     4  10  20  36  54  76 103 147 180 218 259 318
#     4  10  20  34  54  80 107 133 182 220 275 318
#
# _framework density 21.12163
#
# number of rings (size 3 to 8) (size 9 to 14) (size 15 to 20)
#    0.000    2.000    2.857    0.429    4.000    2.286 
#    0.000    0.000    0.000    1.714    0.000    0.000 
#    0.000    0.000    0.000    0.000    0.000    0.000 
#
# Total GULP energy -156193.564878 kJ/mol
# GULP energy per Si atom -5578.341603 kJ/mol
# Density = 2.107356 g / cm^3
# Si number density = 21.121630 Si / 1000 Ang^3
#
#
#
# Elastic Constant Matrix: (Units=GPa)
#
#
# Indices 1 2 3 4 5 6 
#
# 1 54.5989 27.3956 30.3772 0.0000 23.7954 0.0000
# 2 27.3956 138.6520 41.3518 0.0000 42.2450 0.0000
# 3 30.3772 41.3518 128.1875 0.0000 40.6707 0.0000
# 4 0.0000 0.0000 0.0000 34.3355 0.0000 13.0412
# 5 23.7954 42.2450 40.6707 0.0000 40.8403 0.0000
# 6 0.0000 0.0000 0.0000 13.0412 0.0000 12.7870
#
#
#
# Elastic Compliance Matrix: (Units=1/GPa)
#
#
# Indices 1 2 3 4 5 6 
#
# 1 0.024912 -0.000744 -0.001904 0.000000 -0.011849 0.000000
# 2 -0.000744 0.010554 0.000143 0.000000 -0.010626 0.000000
# 3 -0.001904 0.000143 0.011551 0.000000 -0.010541 0.000000
# 4 0.000000 0.000000 0.000000 0.047540 0.000000 -0.048485
# 5 -0.011849 -0.010626 -0.010541 0.000000 0.052879 0.000000
# 6 0.000000 0.000000 0.000000 -0.048485 0.000000 0.127653
#
#
# Mechanical properties :
#
#
# Convention : Reuss Voigt Hill
#
# Bulk Modulus (GPa) = 23.80570 57.74306 40.77438
# Shear Modulus (GPa) = 17.00094 32.41349 24.70721
#
# Velocity S-wave (km/s) = 2.84017 3.92166 3.42388
# Velocity P-wave (km/s) = 4.69581 6.92124 5.91415
#
# Compressibility (1/GPa) = 0.04200674
#
# Stress axis : x y z
#
# Youngs Moduli (GPa) = 40.14092 94.74811 86.57546
#
# Poissons Ratio (x) = 0.07051 0.16485
# Poissons Ratio (y) = 0.02987 -0.01239
# Poissons Ratio (z) = 0.07643 -0.01356
#
# Static dielectric constant tensor:
#      x y z
#    x 1.795880 0.000000 -0.051110 
#    y 0.000000 1.843490 0.000000 
#    z -0.051110 0.000000 1.830450 
# 
# From -- ./inp_files/3231.got.cif
#   From: 2010.05.17/outbox.cif.g08.bks.cpg/sg11_2_cif.got.tgz:3231.got - 2010.06.03 12:22:45.
